MODEL 7
REMARK VINA RESULT: -6.105829152      3.646      6.991
REMARK  9 active torsions:
REMARK  status: ('A' for Active; 'I' for Inactive)
REMARK    1  A    between atoms: C2_2  and  C3_3 
REMARK    2  A    between atoms: C3_3  and  C4_4 
REMARK    3  A    between atoms: C4_4  and  C5_5 
REMARK    4  A    between atoms: N2_7  and  C6_9 
REMARK    5  A    between atoms: C6_9  and  C7_10 
REMARK    6  A    between atoms: C7_10  and  C8_11 
REMARK    7  A    between atoms: C8_11  and  C9_12 
REMARK    8  A    between atoms: C9_12  and  N3_13 
REMARK    9  A    between atoms: C9_12  and  C10_17 
ROOT
HETATM    1  C7  UNL     1      -2.880  -4.282  16.669  1.00  0.00     0.022 C 
ENDROOT
BRANCH   1   2
HETATM    2  C6  UNL     1      -2.723  -3.229  17.775  1.00  0.00     0.120 C 
BRANCH   2   3
HETATM    3  N2  UNL     1      -3.202  -3.711  19.034  1.00  0.00    -0.382 N 
HETATM    4  C5  UNL     1      -4.364  -3.356  19.463  1.00  0.00     0.088 C 
HETATM    5  N1  UNL     1      -5.121  -2.476  18.624  1.00  0.00    -0.088 NA
ATOM      6  H2  UNL     1      -2.622  -4.337  19.593  1.00  0.00     0.160 HD
BRANCH   4   7
HETATM    7  C4  UNL     1      -4.936  -3.815  20.763  1.00  0.00     0.073 C 
BRANCH   7   8
HETATM    8  C3  UNL     1      -4.065  -3.344  21.898  1.00  0.00     0.007 C 
BRANCH   8   9
HETATM    9  C2  UNL     1      -4.094  -1.833  21.985  1.00  0.00    -0.004 C 
HETATM   10  C1  UNL     1      -5.526  -1.404  22.202  1.00  0.00     0.005 C 
ENDBRANCH   8   9
ENDBRANCH   7   8
ENDBRANCH   4   7
ENDBRANCH   2   3
ENDBRANCH   1   2
BRANCH   1  11
HETATM   11  C8  UNL     1      -2.003  -3.878  15.544  1.00  0.00     0.045 C 
BRANCH  11  12
HETATM   12  C9  UNL     1      -1.013  -4.910  15.099  1.00  0.00     0.283 C 
BRANCH  12  13
HETATM   13  N3  UNL     1      -0.480  -4.439  13.809  1.00  0.00    -0.065 N 
ATOM     14  H33 UNL     1       0.273  -5.023  13.444  1.00  0.00     0.275 HD
ATOM     15  H32 UNL     1      -1.128  -4.568  13.031  1.00  0.00     0.275 HD
ATOM     16  H31 UNL     1      -0.207  -3.466  13.952  1.00  0.00     0.275 HD
ENDBRANCH  12  13
BRANCH  12  17
HETATM   17  C10 UNL     1      -1.537  -6.264  14.986  1.00  0.00     0.204 C 
HETATM   18  O1  UNL     1      -2.110  -6.641  13.947  1.00  0.00    -0.646 OA
HETATM   19  O2  UNL     1      -1.410  -7.158  16.026  1.00  0.00    -0.646 OA
ENDBRANCH  12  17
ENDBRANCH  11  12
ENDBRANCH   1  11
TORSDOF 9
ENDMDL
