MODEL 20
REMARK VINA RESULT: -8.815187406      3.046      4.215
REMARK  13 active torsions:
REMARK  status: ('A' for Active; 'I' for Inactive)
REMARK    1  A    between atoms: N1_1  and  C1_5 
REMARK    2  A    between atoms: C1_5  and  C2_6 
REMARK    3  A    between atoms: C1_5  and  C21_41 
REMARK    4  A    between atoms: C2_6  and  C3_7 
REMARK    5  A    between atoms: C3_7  and  S1_8 
REMARK    6  A    between atoms: S1_8  and  C4_9 
REMARK    7  A    between atoms: C4_9  and  C5_10 
REMARK    8  A    between atoms: C6_12  and  N2_13 
REMARK    9  A    between atoms: C9_18  and  N4_19 
REMARK   10  A    between atoms: N4_19  and  C10_21 
REMARK   11  A    between atoms: C10_21  and  C11_22 
REMARK   12  A    between atoms: C19_35  and  O2_36 
REMARK   13  A    between atoms: C20_38  and  O3_39 
ROOT
HETATM    1  N2  UNL     1       2.802   1.707  41.350  1.00  0.00    -0.297 N 
HETATM    2  C7  UNL     1       1.945   2.475  40.592  1.00  0.00     0.188 A 
HETATM    3  N3  UNL     1       2.509   2.807  39.427  1.00  0.00    -0.346 N 
ATOM      4  H3  UNL     1       2.075   3.371  38.696  1.00  0.00     0.167 HD
HETATM    5  C8  UNL     1       3.726   2.283  39.378  1.00  0.00     0.122 A 
HETATM    6  C9  UNL     1       4.708   2.328  38.381  1.00  0.00     0.137 A 
HETATM    7  N5  UNL     1       5.834   1.671  38.668  1.00  0.00    -0.337 N 
ATOM      8  H5  UNL     1       6.587   1.670  37.980  1.00  0.00     0.168 HD
HETATM    9  C17 UNL     1       6.023   1.006  39.833  1.00  0.00     0.183 A 
HETATM   10  N6  UNL     1       5.055   0.984  40.763  1.00  0.00    -0.336 N 
ATOM     11  H6  UNL     1       5.212   0.477  41.633  1.00  0.00     0.168 HD
HETATM   12  C18 UNL     1       3.895   1.608  40.573  1.00  0.00     0.142 A 
ENDROOT
BRANCH   1  13
HETATM   13  C6  UNL     1       2.445   1.181  42.606  1.00  0.00     0.262 C 
HETATM   14  O1  UNL     1       3.203   1.514  43.726  1.00  0.00    -0.355 OA
HETATM   15  C5  UNL     1       2.327   0.931  44.693  1.00  0.00     0.165 C 
HETATM   16  C20 UNL     1       2.247  -0.482  44.223  1.00  0.00     0.180 C 
HETATM   17  C19 UNL     1       2.355  -0.335  42.691  1.00  0.00     0.198 C 
BRANCH  15  18
HETATM   18  C4  UNL     1       2.796   1.150  46.098  1.00  0.00     0.108 C 
BRANCH  18  19
HETATM   19  S1  UNL     1       4.590   1.032  46.184  1.00  0.00    -0.166 SA
BRANCH  19  20
HETATM   20  C3  UNL     1       5.298  -0.578  46.214  1.00  0.00     0.076 C 
BRANCH  20  21
HETATM   21  C2  UNL     1       6.287  -0.901  45.169  1.00  0.00     0.054 C 
BRANCH  21  22
HETATM   22  C1  UNL     1       6.231  -0.207  43.877  1.00  0.00     0.284 C 
BRANCH  22  23
HETATM   23  N1  UNL     1       6.764  -1.255  42.891  1.00  0.00    -0.065 N 
ATOM     24  H13 UNL     1       7.264  -2.031  43.326  1.00  0.00     0.275 HD
ATOM     25  H12 UNL     1       6.044  -1.828  42.451  1.00  0.00     0.275 HD
ATOM     26  H11 UNL     1       7.323  -0.702  42.241  1.00  0.00     0.275 HD
ENDBRANCH  22  23
BRANCH  22  27
HETATM   27  C21 UNL     1       7.222   0.906  43.770  1.00  0.00     0.204 C 
HETATM   28  O4  UNL     1       8.093   1.010  44.681  1.00  0.00    -0.646 OA
HETATM   29  O5  UNL     1       7.260   1.815  42.765  1.00  0.00    -0.646 OA
ENDBRANCH  22  27
ENDBRANCH  21  22
ENDBRANCH  20  21
ENDBRANCH  19  20
ENDBRANCH  18  19
ENDBRANCH  15  18
BRANCH  16  30
HETATM   30  O3  UNL     1       1.011  -1.075  44.530  1.00  0.00    -0.390 OA
ATOM     31  H3  UNL     1       1.092  -1.751  45.193  1.00  0.00     0.210 HD
ENDBRANCH  16  30
BRANCH  17  32
HETATM   32  O2  UNL     1       1.172  -0.819  42.151  1.00  0.00    -0.388 OA
ATOM     33  H2  UNL     1       0.663  -1.309  42.786  1.00  0.00     0.210 HD
ENDBRANCH  17  32
ENDBRANCH   1  13
BRANCH   6  34
HETATM   34  N4  UNL     1       4.406   2.991  37.170  1.00  0.00    -0.349 N 
ATOM     35  H4  UNL     1       3.947   3.901  37.222  1.00  0.00     0.166 HD
BRANCH  34  36
HETATM   36  C10 UNL     1       4.701   2.472  35.893  1.00  0.00     0.101 C 
BRANCH  36  37
HETATM   37  C11 UNL     1       3.553   2.104  35.040  1.00  0.00    -0.019 A 
HETATM   38  C12 UNL     1       3.677   1.801  33.717  1.00  0.00     0.013 A 
HETATM   39  C13 UNL     1       2.517   1.511  33.002  1.00  0.00     0.003 A 
HETATM   40  C14 UNL     1       1.283   1.534  33.641  1.00  0.00     0.024 A 
HETATM   41  C15 UNL     1       1.183   1.842  34.977  1.00  0.00     0.034 A 
HETATM   42 CL1  UNL     1      -0.408   1.864  35.735  1.00  0.00    -0.084 Cl
HETATM   43  C16 UNL     1       2.314   2.127  35.684  1.00  0.00     0.036 A 
ENDBRANCH  36  37
ENDBRANCH  34  36
ENDBRANCH   6  34
TORSDOF 13
ENDMDL
