MODEL 8
REMARK VINA RESULT: -9.252000617      1.204      1.467
REMARK  13 active torsions:
REMARK  status: ('A' for Active; 'I' for Inactive)
REMARK    1  A    between atoms: N1_1  and  C1_5 
REMARK    2  A    between atoms: C1_5  and  C2_6 
REMARK    3  A    between atoms: C1_5  and  C21_41 
REMARK    4  A    between atoms: C2_6  and  C3_7 
REMARK    5  A    between atoms: C3_7  and  S1_8 
REMARK    6  A    between atoms: S1_8  and  C4_9 
REMARK    7  A    between atoms: C4_9  and  C5_10 
REMARK    8  A    between atoms: C6_12  and  N2_13 
REMARK    9  A    between atoms: C9_18  and  N4_19 
REMARK   10  A    between atoms: N4_19  and  C10_21 
REMARK   11  A    between atoms: C10_21  and  C11_22 
REMARK   12  A    between atoms: C19_35  and  O2_36 
REMARK   13  A    between atoms: C20_38  and  O3_39 
ROOT
HETATM    1  N2  UNL     1       4.832   1.212  40.933  1.00  0.00    -0.297 N 
HETATM    2  C7  UNL     1       3.662   1.794  40.494  1.00  0.00     0.188 A 
HETATM    3  N3  UNL     1       3.812   2.294  39.264  1.00  0.00    -0.346 N 
ATOM      4  H3  UNL     1       3.091   2.773  38.725  1.00  0.00     0.167 HD
HETATM    5  C8  UNL     1       5.055   2.066  38.860  1.00  0.00     0.122 A 
HETATM    6  C9  UNL     1       5.703   2.376  37.658  1.00  0.00     0.137 A 
HETATM    7  N5  UNL     1       6.977   1.984  37.587  1.00  0.00    -0.337 N 
ATOM      8  H5  UNL     1       7.502   2.184  36.736  1.00  0.00     0.168 HD
HETATM    9  C17 UNL     1       7.606   1.333  38.596  1.00  0.00     0.183 A 
HETATM   10  N6  UNL     1       6.947   1.051  39.731  1.00  0.00    -0.336 N 
ATOM     11  H6  UNL     1       7.434   0.559  40.480  1.00  0.00     0.168 HD
HETATM   12  C18 UNL     1       5.674   1.399  39.901  1.00  0.00     0.142 A 
ENDROOT
BRANCH   1  13
HETATM   13  C6  UNL     1       4.942   0.568  42.179  1.00  0.00     0.262 C 
HETATM   14  O1  UNL     1       5.574  -0.670  42.255  1.00  0.00    -0.355 OA
HETATM   15  C5  UNL     1       5.601  -0.751  43.682  1.00  0.00     0.165 C 
HETATM   16  C20 UNL     1       4.156  -0.614  44.023  1.00  0.00     0.180 C 
HETATM   17  C19 UNL     1       3.636   0.332  42.923  1.00  0.00     0.198 C 
BRANCH  15  18
HETATM   18  C4  UNL     1       6.299  -1.980  44.174  1.00  0.00     0.108 C 
BRANCH  18  19
HETATM   19  S1  UNL     1       5.225  -3.416  44.010  1.00  0.00    -0.166 SA
BRANCH  19  20
HETATM   20  C3  UNL     1       5.980  -5.004  44.051  1.00  0.00     0.076 C 
BRANCH  20  21
HETATM   21  C2  UNL     1       6.212  -5.609  45.376  1.00  0.00     0.054 C 
BRANCH  21  22
HETATM   22  C1  UNL     1       7.469  -6.319  45.639  1.00  0.00     0.284 C 
BRANCH  22  23
HETATM   23  N1  UNL     1       7.014  -7.564  46.413  1.00  0.00    -0.065 N 
ATOM     24  H13 UNL     1       6.951  -7.435  47.423  1.00  0.00     0.275 HD
ATOM     25  H12 UNL     1       6.035  -7.813  46.277  1.00  0.00     0.275 HD
ATOM     26  H11 UNL     1       7.679  -8.279  46.118  1.00  0.00     0.275 HD
ENDBRANCH  22  23
BRANCH  22  27
HETATM   27  C21 UNL     1       8.349  -5.606  46.613  1.00  0.00     0.204 C 
HETATM   28  O4  UNL     1       9.432  -6.165  46.949  1.00  0.00    -0.646 OA
HETATM   29  O5  UNL     1       8.074  -4.398  47.164  1.00  0.00    -0.646 OA
ENDBRANCH  22  27
ENDBRANCH  21  22
ENDBRANCH  20  21
ENDBRANCH  19  20
ENDBRANCH  18  19
ENDBRANCH  15  18
BRANCH  16  30
HETATM   30  O3  UNL     1       3.961   0.001  45.272  1.00  0.00    -0.390 OA
ATOM     31  H3  UNL     1       3.331   0.711  45.227  1.00  0.00     0.210 HD
ENDBRANCH  16  30
BRANCH  17  32
HETATM   32  O2  UNL     1       3.179   1.480  43.554  1.00  0.00    -0.388 OA
ATOM     33  H2  UNL     1       3.878   1.947  43.997  1.00  0.00     0.210 HD
ENDBRANCH  17  32
ENDBRANCH   1  13
BRANCH   6  34
HETATM   34  N4  UNL     1       4.957   3.002  36.634  1.00  0.00    -0.349 N 
ATOM     35  H4  UNL     1       4.506   3.892  36.844  1.00  0.00     0.166 HD
BRANCH  34  36
HETATM   36  C10 UNL     1       4.798   2.469  35.338  1.00  0.00     0.101 C 
BRANCH  36  37
HETATM   37  C11 UNL     1       3.419   2.171  34.903  1.00  0.00    -0.019 A 
HETATM   38  C12 UNL     1       3.097   1.852  33.617  1.00  0.00     0.013 A 
HETATM   39  C13 UNL     1       1.755   1.633  33.315  1.00  0.00     0.003 A 
HETATM   40  C14 UNL     1       0.792   1.742  34.311  1.00  0.00     0.024 A 
HETATM   41  C15 UNL     1       1.140   2.064  35.601  1.00  0.00     0.034 A 
HETATM   42 CL1  UNL     1      -0.123   2.196  36.823  1.00  0.00    -0.084 Cl
HETATM   43  C16 UNL     1       2.453   2.280  35.905  1.00  0.00     0.036 A 
ENDBRANCH  36  37
ENDBRANCH  34  36
ENDBRANCH   6  34
TORSDOF 13
ENDMDL
