MODEL 2
REMARK VINA RESULT: -9.838746803      0.769      1.040
REMARK  13 active torsions:
REMARK  status: ('A' for Active; 'I' for Inactive)
REMARK    1  A    between atoms: N1_1  and  C1_5 
REMARK    2  A    between atoms: C1_5  and  C2_6 
REMARK    3  A    between atoms: C1_5  and  C21_41 
REMARK    4  A    between atoms: C2_6  and  C3_7 
REMARK    5  A    between atoms: C3_7  and  S1_8 
REMARK    6  A    between atoms: S1_8  and  C4_9 
REMARK    7  A    between atoms: C4_9  and  C5_10 
REMARK    8  A    between atoms: C6_12  and  N2_13 
REMARK    9  A    between atoms: C9_18  and  N4_19 
REMARK   10  A    between atoms: N4_19  and  C10_21 
REMARK   11  A    between atoms: C10_21  and  C11_22 
REMARK   12  A    between atoms: C19_35  and  O2_36 
REMARK   13  A    between atoms: C20_38  and  O3_39 
ROOT
HETATM    1  N2  UNL     1       5.677   1.185  41.011  1.00  0.00    -0.297 N 
HETATM    2  C7  UNL     1       4.390   1.664  40.902  1.00  0.00     0.188 A 
HETATM    3  N3  UNL     1       4.178   2.188  39.692  1.00  0.00    -0.346 N 
ATOM      4  H3  UNL     1       3.305   2.606  39.369  1.00  0.00     0.167 HD
HETATM    5  C8  UNL     1       5.291   2.077  38.978  1.00  0.00     0.122 A 
HETATM    6  C9  UNL     1       5.583   2.456  37.662  1.00  0.00     0.137 A 
HETATM    7  N5  UNL     1       6.825   2.181  37.259  1.00  0.00    -0.337 N 
ATOM      8  H5  UNL     1       7.096   2.436  36.309  1.00  0.00     0.168 HD
HETATM    9  C17 UNL     1       7.742   1.579  38.053  1.00  0.00     0.183 A 
HETATM   10  N6  UNL     1       7.421   1.226  39.308  1.00  0.00    -0.336 N 
ATOM     11  H6  UNL     1       8.123   0.772  39.892  1.00  0.00     0.168 HD
HETATM   12  C18 UNL     1       6.209   1.457  39.806  1.00  0.00     0.142 A 
ENDROOT
BRANCH   1  13
HETATM   13  C6  UNL     1       6.156   0.540  42.167  1.00  0.00     0.262 C 
HETATM   14  O1  UNL     1       5.344  -0.384  42.819  1.00  0.00    -0.355 OA
HETATM   15  C5  UNL     1       6.339  -0.861  43.727  1.00  0.00     0.165 C 
HETATM   16  C20 UNL     1       6.758   0.397  44.411  1.00  0.00     0.180 C 
HETATM   17  C19 UNL     1       6.612   1.452  43.296  1.00  0.00     0.198 C 
BRANCH  15  18
HETATM   18  C4  UNL     1       5.836  -1.969  44.600  1.00  0.00     0.108 C 
BRANCH  18  19
HETATM   19  S1  UNL     1       5.289  -3.358  43.594  1.00  0.00    -0.166 SA
BRANCH  19  20
HETATM   20  C3  UNL     1       5.906  -4.952  44.005  1.00  0.00     0.076 C 
BRANCH  20  21
HETATM   21  C2  UNL     1       6.235  -5.206  45.420  1.00  0.00     0.054 C 
BRANCH  21  22
HETATM   22  C1  UNL     1       7.293  -6.165  45.758  1.00  0.00     0.284 C 
BRANCH  22  23
HETATM   23  N1  UNL     1       6.571  -7.187  46.647  1.00  0.00    -0.065 N 
ATOM     24  H13 UNL     1       7.182  -7.885  47.071  1.00  0.00     0.275 HD
ATOM     25  H12 UNL     1       6.217  -6.809  47.526  1.00  0.00     0.275 HD
ATOM     26  H11 UNL     1       5.855  -7.569  46.030  1.00  0.00     0.275 HD
ENDBRANCH  22  23
BRANCH  22  27
HETATM   27  C21 UNL     1       8.333  -5.589  46.663  1.00  0.00     0.204 C 
HETATM   28  O4  UNL     1       8.117  -4.445  47.158  1.00  0.00    -0.646 OA
HETATM   29  O5  UNL     1       9.494  -6.205  46.999  1.00  0.00    -0.646 OA
ENDBRANCH  22  27
ENDBRANCH  21  22
ENDBRANCH  20  21
ENDBRANCH  19  20
ENDBRANCH  18  19
ENDBRANCH  15  18
BRANCH  16  30
HETATM   30  O3  UNL     1       8.103   0.358  44.817  1.00  0.00    -0.390 OA
ATOM     31  H3  UNL     1       8.278   0.954  45.536  1.00  0.00     0.210 HD
ENDBRANCH  16  30
BRANCH  17  32
HETATM   32  O2  UNL     1       7.875   1.978  43.064  1.00  0.00    -0.388 OA
ATOM     33  H2  UNL     1       7.850   2.718  42.468  1.00  0.00     0.210 HD
ENDBRANCH  17  32
ENDBRANCH   1  13
BRANCH   6  34
HETATM   34  N4  UNL     1       4.550   3.023  36.881  1.00  0.00    -0.349 N 
ATOM     35  H4  UNL     1       4.132   3.897  37.200  1.00  0.00     0.166 HD
BRANCH  34  36
HETATM   36  C10 UNL     1       4.062   2.452  35.689  1.00  0.00     0.101 C 
BRANCH  36  37
HETATM   37  C11 UNL     1       2.607   2.213  35.608  1.00  0.00    -0.019 A 
HETATM   38  C12 UNL     1       1.991   1.745  34.486  1.00  0.00     0.013 A 
HETATM   39  C13 UNL     1       0.605   1.600  34.514  1.00  0.00     0.003 A 
HETATM   40  C14 UNL     1      -0.104   1.929  35.663  1.00  0.00     0.024 A 
HETATM   41  C15 UNL     1       0.539   2.399  36.783  1.00  0.00     0.034 A 
HETATM   42 CL1  UNL     1      -0.412   2.807  38.210  1.00  0.00    -0.084 Cl
HETATM   43  C16 UNL     1       1.895   2.543  36.764  1.00  0.00     0.036 A 
ENDBRANCH  36  37
ENDBRANCH  34  36
ENDBRANCH   6  34
TORSDOF 13
ENDMDL
