MODEL 1
REMARK VINA RESULT: -9.965464235      0.000      0.000
REMARK  13 active torsions:
REMARK  status: ('A' for Active; 'I' for Inactive)
REMARK    1  A    between atoms: N1_1  and  C1_5 
REMARK    2  A    between atoms: C1_5  and  C2_6 
REMARK    3  A    between atoms: C1_5  and  C21_41 
REMARK    4  A    between atoms: C2_6  and  C3_7 
REMARK    5  A    between atoms: C3_7  and  S1_8 
REMARK    6  A    between atoms: S1_8  and  C4_9 
REMARK    7  A    between atoms: C4_9  and  C5_10 
REMARK    8  A    between atoms: C6_12  and  N2_13 
REMARK    9  A    between atoms: C9_18  and  N4_19 
REMARK   10  A    between atoms: N4_19  and  C10_21 
REMARK   11  A    between atoms: C10_21  and  C11_22 
REMARK   12  A    between atoms: C19_35  and  O2_36 
REMARK   13  A    between atoms: C20_38  and  O3_39 
ROOT
HETATM    1  N2  UNL     1       5.664   0.930  41.198  1.00  0.00    -0.297 N 
HETATM    2  C7  UNL     1       4.346   1.306  41.055  1.00  0.00     0.188 A 
HETATM    3  N3  UNL     1       4.121   1.798  39.834  1.00  0.00    -0.346 N 
ATOM      4  H3  UNL     1       3.226   2.143  39.487  1.00  0.00     0.167 HD
HETATM    5  C8  UNL     1       5.255   1.765  39.146  1.00  0.00     0.122 A 
HETATM    6  C9  UNL     1       5.546   2.150  37.831  1.00  0.00     0.137 A 
HETATM    7  N5  UNL     1       6.814   1.968  37.458  1.00  0.00    -0.337 N 
ATOM      8  H5  UNL     1       7.086   2.232  36.511  1.00  0.00     0.168 HD
HETATM    9  C17 UNL     1       7.757   1.448  38.280  1.00  0.00     0.183 A 
HETATM   10  N6  UNL     1       7.437   1.087  39.532  1.00  0.00    -0.336 N 
ATOM     11  H6  UNL     1       8.158   0.696  40.137  1.00  0.00     0.168 HD
HETATM   12  C18 UNL     1       6.200   1.229  40.001  1.00  0.00     0.142 A 
ENDROOT
BRANCH   1  13
HETATM   13  C6  UNL     1       6.165   0.338  42.373  1.00  0.00     0.262 C 
HETATM   14  O1  UNL     1       5.355  -0.531  43.099  1.00  0.00    -0.355 OA
HETATM   15  C5  UNL     1       6.368  -0.980  44.001  1.00  0.00     0.165 C 
HETATM   16  C20 UNL     1       6.834   0.303  44.602  1.00  0.00     0.180 C 
HETATM   17  C19 UNL     1       6.676   1.299  43.436  1.00  0.00     0.198 C 
BRANCH  15  18
HETATM   18  C4  UNL     1       5.870  -2.027  44.948  1.00  0.00     0.108 C 
BRANCH  18  19
HETATM   19  S1  UNL     1       6.240  -3.671  44.313  1.00  0.00    -0.166 SA
BRANCH  19  20
HETATM   20  C3  UNL     1       5.379  -5.030  45.025  1.00  0.00     0.076 C 
BRANCH  20  21
HETATM   21  C2  UNL     1       6.145  -5.926  45.912  1.00  0.00     0.054 C 
BRANCH  21  22
HETATM   22  C1  UNL     1       7.576  -6.140  45.667  1.00  0.00     0.284 C 
BRANCH  22  23
HETATM   23  N1  UNL     1       7.733  -7.659  45.811  1.00  0.00    -0.065 N 
ATOM     24  H13 UNL     1       8.040  -7.968  46.734  1.00  0.00     0.275 HD
ATOM     25  H12 UNL     1       6.855  -8.178  45.813  1.00  0.00     0.275 HD
ATOM     26  H11 UNL     1       8.368  -7.902  45.051  1.00  0.00     0.275 HD
ENDBRANCH  22  23
BRANCH  22  27
HETATM   27  C21 UNL     1       8.442  -5.595  46.756  1.00  0.00     0.204 C 
HETATM   28  O4  UNL     1       9.525  -6.198  47.005  1.00  0.00    -0.646 OA
HETATM   29  O5  UNL     1       8.154  -4.497  47.497  1.00  0.00    -0.646 OA
ENDBRANCH  22  27
ENDBRANCH  21  22
ENDBRANCH  20  21
ENDBRANCH  19  20
ENDBRANCH  18  19
ENDBRANCH  15  18
BRANCH  16  30
HETATM   30  O3  UNL     1       8.190   0.256  44.969  1.00  0.00    -0.390 OA
ATOM     31  H3  UNL     1       8.750   0.010  44.242  1.00  0.00     0.210 HD
ENDBRANCH  16  30
BRANCH  17  32
HETATM   32  O2  UNL     1       7.941   1.784  43.137  1.00  0.00    -0.388 OA
ATOM     33  H2  UNL     1       8.600   1.458  43.739  1.00  0.00     0.210 HD
ENDBRANCH  17  32
ENDBRANCH   1  13
BRANCH   6  34
HETATM   34  N4  UNL     1       4.489   2.626  37.021  1.00  0.00    -0.349 N 
ATOM     35  H4  UNL     1       3.674   3.028  37.483  1.00  0.00     0.166 HD
BRANCH  34  36
HETATM   36  C10 UNL     1       4.495   2.578  35.613  1.00  0.00     0.101 C 
BRANCH  36  37
HETATM   37  C11 UNL     1       3.224   2.223  34.951  1.00  0.00    -0.019 A 
HETATM   38  C12 UNL     1       3.118   2.009  33.608  1.00  0.00     0.013 A 
HETATM   39  C13 UNL     1       1.858   1.723  33.090  1.00  0.00     0.003 A 
HETATM   40  C14 UNL     1       0.757   1.660  33.936  1.00  0.00     0.024 A 
HETATM   41  C15 UNL     1       0.887   1.879  35.287  1.00  0.00     0.034 A 
HETATM   42 CL1  UNL     1      -0.544   1.794  36.311  1.00  0.00    -0.084 Cl
HETATM   43  C16 UNL     1       2.119   2.159  35.802  1.00  0.00     0.036 A 
ENDBRANCH  36  37
ENDBRANCH  34  36
ENDBRANCH   6  34
TORSDOF 13
ENDMDL
