MODEL 6
REMARK VINA RESULT: -9.459385175      1.038      1.173
REMARK  13 active torsions:
REMARK  status: ('A' for Active; 'I' for Inactive)
REMARK    1  A    between atoms: N1_1  and  C1_5 
REMARK    2  A    between atoms: C1_5  and  C2_6 
REMARK    3  A    between atoms: C1_5  and  C21_41 
REMARK    4  A    between atoms: C2_6  and  C3_7 
REMARK    5  A    between atoms: C3_7  and  S1_8 
REMARK    6  A    between atoms: S1_8  and  C4_9 
REMARK    7  A    between atoms: C4_9  and  C5_10 
REMARK    8  A    between atoms: C6_12  and  N2_13 
REMARK    9  A    between atoms: C9_18  and  N4_19 
REMARK   10  A    between atoms: N4_19  and  C10_21 
REMARK   11  A    between atoms: C10_21  and  C11_22 
REMARK   12  A    between atoms: C19_35  and  O2_36 
REMARK   13  A    between atoms: C20_38  and  O3_39 
ROOT
HETATM    1  N2  UNL     1       5.441   0.857  40.954  1.00  0.00    -0.297 N 
HETATM    2  C7  UNL     1       4.352   1.694  40.834  1.00  0.00     0.188 A 
HETATM    3  N3  UNL     1       4.465   2.470  39.753  1.00  0.00    -0.346 N 
ATOM      4  H3  UNL     1       3.788   3.170  39.450  1.00  0.00     0.167 HD
HETATM    5  C8  UNL     1       5.604   2.181  39.138  1.00  0.00     0.122 A 
HETATM    6  C9  UNL     1       6.175   2.697  37.968  1.00  0.00     0.137 A 
HETATM    7  N5  UNL     1       7.350   2.160  37.630  1.00  0.00    -0.337 N 
ATOM      8  H5  UNL     1       7.815   2.498  36.788  1.00  0.00     0.168 HD
HETATM    9  C17 UNL     1       7.952   1.187  38.355  1.00  0.00     0.183 A 
HETATM   10  N6  UNL     1       7.368   0.715  39.468  1.00  0.00    -0.336 N 
ATOM     11  H6  UNL     1       7.833  -0.019  40.001  1.00  0.00     0.168 HD
HETATM   12  C18 UNL     1       6.197   1.185  39.891  1.00  0.00     0.142 A 
ENDROOT
BRANCH   1  13
HETATM   13  C6  UNL     1       5.559  -0.098  41.980  1.00  0.00     0.262 C 
HETATM   14  O1  UNL     1       4.748  -1.230  41.957  1.00  0.00    -0.355 OA
HETATM   15  C5  UNL     1       5.398  -1.916  43.030  1.00  0.00     0.165 C 
HETATM   16  C20 UNL     1       5.287  -0.925  44.139  1.00  0.00     0.180 C 
HETATM   17  C19 UNL     1       5.379   0.424  43.398  1.00  0.00     0.198 C 
BRANCH  15  18
HETATM   18  C4  UNL     1       4.818  -3.274  43.277  1.00  0.00     0.108 C 
BRANCH  18  19
HETATM   19  S1  UNL     1       5.969  -4.282  44.225  1.00  0.00    -0.166 SA
BRANCH  19  20
HETATM   20  C3  UNL     1       5.295  -5.356  45.444  1.00  0.00     0.076 C 
BRANCH  20  21
HETATM   21  C2  UNL     1       6.205  -6.347  46.050  1.00  0.00     0.054 C 
BRANCH  21  22
HETATM   22  C1  UNL     1       7.627  -6.342  45.689  1.00  0.00     0.284 C 
BRANCH  22  23
HETATM   23  N1  UNL     1       8.011  -7.826  45.755  1.00  0.00    -0.065 N 
ATOM     24  H13 UNL     1       8.831  -8.026  46.327  1.00  0.00     0.275 HD
ATOM     25  H12 UNL     1       7.365  -8.408  46.288  1.00  0.00     0.275 HD
ATOM     26  H11 UNL     1       8.106  -8.087  44.773  1.00  0.00     0.275 HD
ENDBRANCH  22  23
BRANCH  22  27
HETATM   27  C21 UNL     1       8.491  -5.712  46.733  1.00  0.00     0.204 C 
HETATM   28  O4  UNL     1       9.588  -6.277  47.009  1.00  0.00    -0.646 OA
HETATM   29  O5  UNL     1       8.188  -4.575  47.406  1.00  0.00    -0.646 OA
ENDBRANCH  22  27
ENDBRANCH  21  22
ENDBRANCH  20  21
ENDBRANCH  19  20
ENDBRANCH  18  19
ENDBRANCH  15  18
BRANCH  16  30
HETATM   30  O3  UNL     1       6.362  -1.015  45.040  1.00  0.00    -0.390 OA
ATOM     31  H3  UNL     1       6.357  -0.309  45.676  1.00  0.00     0.210 HD
ENDBRANCH  16  30
BRANCH  17  32
HETATM   32  O2  UNL     1       6.515   1.070  43.865  1.00  0.00    -0.388 OA
ATOM     33  H2  UNL     1       6.916   1.614  43.198  1.00  0.00     0.210 HD
ENDBRANCH  17  32
ENDBRANCH   1  13
BRANCH   6  34
HETATM   34  N4  UNL     1       5.452   3.668  37.239  1.00  0.00    -0.349 N 
ATOM     35  H4  UNL     1       5.978   4.391  36.748  1.00  0.00     0.166 HD
BRANCH  34  36
HETATM   36  C10 UNL     1       4.045   3.696  37.148  1.00  0.00     0.101 C 
BRANCH  36  37
HETATM   37  C11 UNL     1       3.430   2.912  36.058  1.00  0.00    -0.019 A 
HETATM   38  C12 UNL     1       4.127   2.476  34.971  1.00  0.00     0.013 A 
HETATM   39  C13 UNL     1       3.430   1.781  33.984  1.00  0.00     0.003 A 
HETATM   40  C14 UNL     1       2.067   1.552  34.128  1.00  0.00     0.024 A 
HETATM   41  C15 UNL     1       1.385   2.001  35.234  1.00  0.00     0.034 A 
HETATM   42 CL1  UNL     1      -0.345   1.689  35.360  1.00  0.00    -0.084 Cl
HETATM   43  C16 UNL     1       2.061   2.682  36.204  1.00  0.00     0.036 A 
ENDBRANCH  36  37
ENDBRANCH  34  36
ENDBRANCH   6  34
TORSDOF 13
ENDMDL
