MODEL 19
REMARK VINA RESULT: -8.877826890      3.687      6.191
REMARK  13 active torsions:
REMARK  status: ('A' for Active; 'I' for Inactive)
REMARK    1  A    between atoms: N1_1  and  C1_5 
REMARK    2  A    between atoms: C1_5  and  C2_6 
REMARK    3  A    between atoms: C1_5  and  C21_41 
REMARK    4  A    between atoms: C2_6  and  C3_7 
REMARK    5  A    between atoms: C3_7  and  S1_8 
REMARK    6  A    between atoms: S1_8  and  C4_9 
REMARK    7  A    between atoms: C4_9  and  C5_10 
REMARK    8  A    between atoms: C6_12  and  N2_13 
REMARK    9  A    between atoms: C9_18  and  N4_19 
REMARK   10  A    between atoms: N4_19  and  C10_21 
REMARK   11  A    between atoms: C10_21  and  C11_22 
REMARK   12  A    between atoms: C19_35  and  O2_36 
REMARK   13  A    between atoms: C20_38  and  O3_39 
ROOT
HETATM    1  N2  UNL     1       5.432  -3.425  43.714  1.00  0.00    -0.297 N 
HETATM    2  C7  UNL     1       5.038  -3.318  42.398  1.00  0.00     0.188 A 
HETATM    3  N3  UNL     1       5.161  -2.060  41.966  1.00  0.00    -0.346 N 
ATOM      4  H3  UNL     1       4.933  -1.729  41.028  1.00  0.00     0.167 HD
HETATM    5  C8  UNL     1       5.628  -1.312  42.957  1.00  0.00     0.122 A 
HETATM    6  C9  UNL     1       5.940   0.052  43.013  1.00  0.00     0.137 A 
HETATM    7  N5  UNL     1       6.403   0.477  44.190  1.00  0.00    -0.337 N 
ATOM      8  H5  UNL     1       6.645   1.462  44.291  1.00  0.00     0.168 HD
HETATM    9  C17 UNL     1       6.565  -0.342  45.257  1.00  0.00     0.183 A 
HETATM   10  N6  UNL     1       6.259  -1.645  45.161  1.00  0.00    -0.336 N 
ATOM     11  H6  UNL     1       6.389  -2.248  45.973  1.00  0.00     0.168 HD
HETATM   12  C18 UNL     1       5.789  -2.167  44.031  1.00  0.00     0.142 A 
ENDROOT
BRANCH   1  13
HETATM   13  C6  UNL     1       5.447  -4.649  44.409  1.00  0.00     0.262 C 
HETATM   14  O1  UNL     1       5.140  -4.668  45.766  1.00  0.00    -0.355 OA
HETATM   15  C5  UNL     1       5.090  -6.090  45.901  1.00  0.00     0.165 C 
HETATM   16  C20 UNL     1       6.444  -6.491  45.423  1.00  0.00     0.180 C 
HETATM   17  C19 UNL     1       6.747  -5.437  44.339  1.00  0.00     0.198 C 
BRANCH  15  18
HETATM   18  C4  UNL     1       4.705  -6.523  47.281  1.00  0.00     0.108 C 
BRANCH  18  19
HETATM   19  S1  UNL     1       3.706  -8.019  47.212  1.00  0.00    -0.166 SA
BRANCH  19  20
HETATM   20  C3  UNL     1       1.960  -7.827  47.123  1.00  0.00     0.076 C 
BRANCH  20  21
HETATM   21  C2  UNL     1       1.430  -6.451  47.116  1.00  0.00     0.054 C 
BRANCH  21  22
HETATM   22  C1  UNL     1       0.560  -6.015  46.018  1.00  0.00     0.284 C 
BRANCH  22  23
HETATM   23  N1  UNL     1      -0.641  -6.965  46.122  1.00  0.00    -0.065 N 
ATOM     24  H13 UNL     1      -0.398  -7.933  46.335  1.00  0.00     0.275 HD
ATOM     25  H12 UNL     1      -1.226  -6.820  46.945  1.00  0.00     0.275 HD
ATOM     26  H11 UNL     1      -1.121  -6.835  45.232  1.00  0.00     0.275 HD
ENDBRANCH  22  23
BRANCH  22  27
HETATM   27  C21 UNL     1       1.126  -6.318  44.669  1.00  0.00     0.204 C 
HETATM   28  O4  UNL     1       1.984  -5.518  44.197  1.00  0.00    -0.646 OA
HETATM   29  O5  UNL     1       0.792  -7.393  43.913  1.00  0.00    -0.646 OA
ENDBRANCH  22  27
ENDBRANCH  21  22
ENDBRANCH  20  21
ENDBRANCH  19  20
ENDBRANCH  18  19
ENDBRANCH  15  18
BRANCH  16  30
HETATM   30  O3  UNL     1       6.441  -7.762  44.822  1.00  0.00    -0.390 OA
ATOM     31  H3  UNL     1       5.790  -7.831  44.133  1.00  0.00     0.210 HD
ENDBRANCH  16  30
BRANCH  17  32
HETATM   32  O2  UNL     1       6.884  -6.114  43.137  1.00  0.00    -0.388 OA
ATOM     33  H2  UNL     1       6.801  -7.055  43.245  1.00  0.00     0.210 HD
ENDBRANCH  17  32
ENDBRANCH   1  13
BRANCH   6  34
HETATM   34  N4  UNL     1       5.799   0.822  41.835  1.00  0.00    -0.349 N 
ATOM     35  H4  UNL     1       4.950   1.375  41.722  1.00  0.00     0.166 HD
BRANCH  34  36
HETATM   36  C10 UNL     1       6.763   0.872  40.808  1.00  0.00     0.101 C 
BRANCH  36  37
HETATM   37  C11 UNL     1       6.347   1.483  39.530  1.00  0.00    -0.019 A 
HETATM   38  C12 UNL     1       7.219   1.759  38.519  1.00  0.00     0.013 A 
HETATM   39  C13 UNL     1       6.718   2.378  37.376  1.00  0.00     0.003 A 
HETATM   40  C14 UNL     1       5.367   2.693  37.292  1.00  0.00     0.024 A 
HETATM   41  C15 UNL     1       4.506   2.404  38.325  1.00  0.00     0.034 A 
HETATM   42 CL1  UNL     1       2.804   2.833  38.167  1.00  0.00    -0.084 Cl
HETATM   43  C16 UNL     1       4.989   1.798  39.448  1.00  0.00     0.036 A 
ENDBRANCH  36  37
ENDBRANCH  34  36
ENDBRANCH   6  34
TORSDOF 13
ENDMDL
