MODEL 9
REMARK VINA RESULT: -6.064244118      3.956      7.756
REMARK  9 active torsions:
REMARK  status: ('A' for Active; 'I' for Inactive)
REMARK    1  A    between atoms: O1_2  and  C2_3 
REMARK    2  A    between atoms: C5_6  and  N1_7 
REMARK    3  A    between atoms: N1_7  and  C6_9 
REMARK    4  A    between atoms: C6_9  and  N2_11 
REMARK    5  A    between atoms: N2_11  and  C7_13 
REMARK    6  A    between atoms: C7_13  and  C8_14 
REMARK    7  A    between atoms: C8_14  and  C9_15 
REMARK    8  A    between atoms: C9_15  and  N3_16 
REMARK    9  A    between atoms: C14_23  and  O2_24 
ROOT
HETATM    1  C6  UNL     1       7.501  50.381  17.647  1.00  0.00     0.172 C 
HETATM    2  S1  UNL     1       7.959  49.673  16.234  1.00  0.00    -0.041 SA
ENDROOT
BRANCH   1   3
HETATM    3  N1  UNL     1       8.317  51.146  18.465  1.00  0.00    -0.333 N 
ATOM      4  H1  UNL     1       8.813  51.939  18.058  1.00  0.00     0.168 HD
BRANCH   3   5
HETATM    5  C5  UNL     1       8.491  50.872  19.846  1.00  0.00     0.037 A 
HETATM    6  C4  UNL     1       8.763  49.604  20.296  1.00  0.00     0.032 A 
HETATM    7  C3  UNL     1       8.887  49.324  21.667  1.00  0.00     0.042 A 
HETATM    8  C2  UNL     1       8.728  50.355  22.556  1.00  0.00     0.101 A 
HETATM    9  C14 UNL     1       8.453  51.645  22.113  1.00  0.00     0.103 A 
HETATM   10  C13 UNL     1       8.331  51.921  20.774  1.00  0.00     0.069 A 
BRANCH   8  11
HETATM   11  O1  UNL     1       8.835  50.152  23.917  1.00  0.00    -0.353 OA
HETATM   12  C1  UNL     1       8.534  48.881  24.442  1.00  0.00     0.210 C 
ENDBRANCH   8  11
BRANCH   9  13
HETATM   13  O2  UNL     1       8.304  52.644  23.059  1.00  0.00    -0.353 OA
HETATM   14  C15 UNL     1       7.905  53.931  22.643  1.00  0.00     0.210 C 
ENDBRANCH   9  13
ENDBRANCH   3   5
ENDBRANCH   1   3
BRANCH   1  15
HETATM   15  N2  UNL     1       6.134  50.131  18.052  1.00  0.00    -0.367 N 
ATOM     16  H2  UNL     1       5.480  50.910  18.133  1.00  0.00     0.161 HD
BRANCH  15  17
HETATM   17  C7  UNL     1       5.693  48.803  18.340  1.00  0.00     0.123 C 
BRANCH  17  18
HETATM   18  C8  UNL     1       4.422  48.480  17.623  1.00  0.00     0.040 C 
BRANCH  18  19
HETATM   19  C9  UNL     1       3.185  49.006  18.246  1.00  0.00     0.130 C 
BRANCH  19  20
HETATM   20  N3  UNL     1       2.155  48.111  18.607  1.00  0.00    -0.352 N 
HETATM   21  C10 UNL     1       1.942  46.867  18.121  1.00  0.00     0.108 A 
HETATM   22  C11 UNL     1       0.803  46.380  18.727  1.00  0.00     0.106 A 
HETATM   23  N4  UNL     1       0.338  47.305  19.558  1.00  0.00    -0.361 N 
HETATM   24  C12 UNL     1       1.157  48.369  19.491  1.00  0.00     0.182 A 
ATOM     25  H4  UNL     1      -0.495  47.224  20.143  1.00  0.00     0.166 HD
ENDBRANCH  19  20
ENDBRANCH  18  19
ENDBRANCH  17  18
ENDBRANCH  15  17
ENDBRANCH   1  15
TORSDOF 9
ENDMDL
