MODEL 1
REMARK VINA RESULT: -6.270930116      0.000      0.000
REMARK  9 active torsions:
REMARK  status: ('A' for Active; 'I' for Inactive)
REMARK    1  A    between atoms: O1_2  and  C2_3 
REMARK    2  A    between atoms: C5_6  and  N1_7 
REMARK    3  A    between atoms: N1_7  and  C6_9 
REMARK    4  A    between atoms: C6_9  and  N2_11 
REMARK    5  A    between atoms: N2_11  and  C7_13 
REMARK    6  A    between atoms: C7_13  and  C8_14 
REMARK    7  A    between atoms: C8_14  and  C9_15 
REMARK    8  A    between atoms: C9_15  and  N3_16 
REMARK    9  A    between atoms: C14_23  and  O2_24 
ROOT
HETATM    1  C6  UNL     1       5.874  50.439  19.149  1.00  0.00     0.172 C 
HETATM    2  S1  UNL     1       5.947  51.978  19.727  1.00  0.00    -0.041 SA
ENDROOT
BRANCH   1   3
HETATM    3  N1  UNL     1       5.026  49.995  18.147  1.00  0.00    -0.333 N 
ATOM      4  H1  UNL     1       5.308  50.123  17.175  1.00  0.00     0.168 HD
BRANCH   3   5
HETATM    5  C5  UNL     1       3.782  49.369  18.416  1.00  0.00     0.037 A 
HETATM    6  C4  UNL     1       2.827  49.980  19.191  1.00  0.00     0.032 A 
HETATM    7  C3  UNL     1       1.614  49.340  19.498  1.00  0.00     0.042 A 
HETATM    8  C2  UNL     1       1.403  48.080  19.004  1.00  0.00     0.101 A 
HETATM    9  C14 UNL     1       2.362  47.450  18.217  1.00  0.00     0.103 A 
HETATM   10  C13 UNL     1       3.548  48.073  17.916  1.00  0.00     0.069 A 
BRANCH   8  11
HETATM   11  O1  UNL     1       0.236  47.391  19.267  1.00  0.00    -0.353 OA
HETATM   12  C1  UNL     1      -0.804  48.049  19.951  1.00  0.00     0.210 C 
ENDBRANCH   8  11
BRANCH   9  13
HETATM   13  O2  UNL     1       2.092  46.177  17.746  1.00  0.00    -0.353 OA
HETATM   14  C15 UNL     1       2.115  45.938  16.356  1.00  0.00     0.210 C 
ENDBRANCH   9  13
ENDBRANCH   3   5
ENDBRANCH   1   3
BRANCH   1  15
HETATM   15  N2  UNL     1       6.761  49.492  19.791  1.00  0.00    -0.367 N 
ATOM     16  H2  UNL     1       6.383  48.627  20.178  1.00  0.00     0.161 HD
BRANCH  15  17
HETATM   17  C7  UNL     1       8.162  49.758  19.886  1.00  0.00     0.123 C 
BRANCH  17  18
HETATM   18  C8  UNL     1       8.669  49.533  21.274  1.00  0.00     0.040 C 
BRANCH  18  19
HETATM   19  C9  UNL     1       7.776  48.752  22.162  1.00  0.00     0.130 C 
BRANCH  19  20
HETATM   20  N3  UNL     1       8.235  48.362  23.438  1.00  0.00    -0.352 N 
HETATM   21  C10 UNL     1       7.859  47.274  24.148  1.00  0.00     0.108 A 
HETATM   22  C11 UNL     1       8.533  47.316  25.350  1.00  0.00     0.106 A 
HETATM   23  N4  UNL     1       9.296  48.403  25.370  1.00  0.00    -0.361 N 
HETATM   24  C12 UNL     1       9.121  49.051  24.204  1.00  0.00     0.182 A 
ATOM     25  H4  UNL     1       9.906  48.694  26.134  1.00  0.00     0.166 HD
ENDBRANCH  19  20
ENDBRANCH  18  19
ENDBRANCH  17  18
ENDBRANCH  15  17
ENDBRANCH   1  15
TORSDOF 9
ENDMDL
