MODEL 7
REMARK VINA RESULT: -6.089996220      3.957      7.768
REMARK  9 active torsions:
REMARK  status: ('A' for Active; 'I' for Inactive)
REMARK    1  A    between atoms: O1_2  and  C2_3 
REMARK    2  A    between atoms: C5_6  and  N1_7 
REMARK    3  A    between atoms: N1_7  and  C6_9 
REMARK    4  A    between atoms: C6_9  and  N2_11 
REMARK    5  A    between atoms: N2_11  and  C7_13 
REMARK    6  A    between atoms: C7_13  and  C8_14 
REMARK    7  A    between atoms: C8_14  and  C9_15 
REMARK    8  A    between atoms: C9_15  and  N3_16 
REMARK    9  A    between atoms: C14_23  and  O2_24 
ROOT
HETATM    1  C6  UNL     1       7.699  49.310  18.031  1.00  0.00     0.172 C 
HETATM    2  S1  UNL     1       8.186  49.739  16.519  1.00  0.00    -0.041 SA
ENDROOT
BRANCH   1   3
HETATM    3  N1  UNL     1       8.518  49.226  19.146  1.00  0.00    -0.333 N 
ATOM      4  H1  UNL     1       9.192  48.462  19.202  1.00  0.00     0.168 HD
BRANCH   3   5
HETATM    5  C5  UNL     1       8.458  50.158  20.215  1.00  0.00     0.037 A 
HETATM    6  C4  UNL     1       8.208  51.489  19.989  1.00  0.00     0.032 A 
HETATM    7  C3  UNL     1       8.196  52.420  21.041  1.00  0.00     0.042 A 
HETATM    8  C2  UNL     1       8.442  51.966  22.311  1.00  0.00     0.101 A 
HETATM    9  C14 UNL     1       8.695  50.620  22.553  1.00  0.00     0.103 A 
HETATM   10  C13 UNL     1       8.707  49.708  21.526  1.00  0.00     0.069 A 
BRANCH   8  11
HETATM   11  O1  UNL     1       8.447  52.825  23.391  1.00  0.00    -0.353 OA
HETATM   12  C1  UNL     1       8.095  54.173  23.193  1.00  0.00     0.210 C 
ENDBRANCH   8  11
BRANCH   9  13
HETATM   13  O2  UNL     1       8.934  50.222  23.856  1.00  0.00    -0.353 OA
HETATM   14  C15 UNL     1       8.591  48.912  24.250  1.00  0.00     0.210 C 
ENDBRANCH   9  13
ENDBRANCH   3   5
ENDBRANCH   1   3
BRANCH   1  15
HETATM   15  N2  UNL     1       6.299  48.966  18.159  1.00  0.00    -0.367 N 
ATOM     16  H2  UNL     1       6.031  48.001  18.354  1.00  0.00     0.161 HD
BRANCH  15  17
HETATM   17  C7  UNL     1       5.289  49.967  18.014  1.00  0.00     0.123 C 
BRANCH  17  18
HETATM   18  C8  UNL     1       3.971  49.494  18.535  1.00  0.00     0.040 C 
BRANCH  18  19
HETATM   19  C9  UNL     1       3.413  48.295  17.867  1.00  0.00     0.130 C 
BRANCH  19  20
HETATM   20  N3  UNL     1       2.233  47.705  18.371  1.00  0.00    -0.352 N 
HETATM   21  C10 UNL     1       1.319  48.271  19.192  1.00  0.00     0.108 A 
HETATM   22  C11 UNL     1       0.359  47.317  19.454  1.00  0.00     0.106 A 
HETATM   23  N4  UNL     1       0.682  46.202  18.810  1.00  0.00    -0.361 N 
HETATM   24  C12 UNL     1       1.829  46.429  18.143  1.00  0.00     0.182 A 
ATOM     25  H4  UNL     1       0.155  45.329  18.818  1.00  0.00     0.166 HD
ENDBRANCH  19  20
ENDBRANCH  18  19
ENDBRANCH  17  18
ENDBRANCH  15  17
ENDBRANCH   1  15
TORSDOF 9
ENDMDL
