MODEL 6
REMARK VINA RESULT: -6.134445003      5.287      6.976
REMARK  9 active torsions:
REMARK  status: ('A' for Active; 'I' for Inactive)
REMARK    1  A    between atoms: O1_2  and  C2_3 
REMARK    2  A    between atoms: C5_6  and  N1_7 
REMARK    3  A    between atoms: N1_7  and  C6_9 
REMARK    4  A    between atoms: C6_9  and  N2_11 
REMARK    5  A    between atoms: N2_11  and  C7_13 
REMARK    6  A    between atoms: C7_13  and  C8_14 
REMARK    7  A    between atoms: C8_14  and  C9_15 
REMARK    8  A    between atoms: C9_15  and  N3_16 
REMARK    9  A    between atoms: C14_23  and  O2_24 
ROOT
HETATM    1  C6  UNL     1       7.081  51.919  19.571  1.00  0.00     0.172 C 
HETATM    2  S1  UNL     1       6.831  51.502  18.000  1.00  0.00    -0.041 SA
ENDROOT
BRANCH   1   3
HETATM    3  N1  UNL     1       7.752  53.051  20.007  1.00  0.00    -0.333 N 
ATOM      4  H1  UNL     1       8.554  53.381  19.470  1.00  0.00     0.168 HD
BRANCH   3   5
HETATM    5  C5  UNL     1       7.369  53.770  21.168  1.00  0.00     0.037 A 
HETATM    6  C4  UNL     1       6.268  54.590  21.172  1.00  0.00     0.032 A 
HETATM    7  C3  UNL     1       5.917  55.340  22.307  1.00  0.00     0.042 A 
HETATM    8  C2  UNL     1       6.705  55.234  23.422  1.00  0.00     0.101 A 
HETATM    9  C14 UNL     1       7.824  54.406  23.433  1.00  0.00     0.103 A 
HETATM   10  C13 UNL     1       8.169  53.673  22.324  1.00  0.00     0.069 A 
BRANCH   8  11
HETATM   11  O1  UNL     1       6.421  55.943  24.572  1.00  0.00    -0.353 OA
HETATM   12  C1  UNL     1       5.114  55.900  25.093  1.00  0.00     0.210 C 
ENDBRANCH   8  11
BRANCH   9  13
HETATM   13  O2  UNL     1       8.580  54.341  24.589  1.00  0.00    -0.353 OA
HETATM   14  C15 UNL     1       9.889  53.818  24.527  1.00  0.00     0.210 C 
ENDBRANCH   9  13
ENDBRANCH   3   5
ENDBRANCH   1   3
BRANCH   1  15
HETATM   15  N2  UNL     1       6.571  50.983  20.551  1.00  0.00    -0.367 N 
ATOM     16  H2  UNL     1       5.799  51.257  21.159  1.00  0.00     0.161 HD
BRANCH  15  17
HETATM   17  C7  UNL     1       7.141  49.678  20.674  1.00  0.00     0.123 C 
BRANCH  17  18
HETATM   18  C8  UNL     1       8.583  49.744  21.060  1.00  0.00     0.040 C 
BRANCH  18  19
HETATM   19  C9  UNL     1       8.850  49.900  22.508  1.00  0.00     0.130 C 
BRANCH  19  20
HETATM   20  N3  UNL     1       8.753  48.777  23.357  1.00  0.00    -0.352 N 
HETATM   21  C10 UNL     1       8.481  48.770  24.682  1.00  0.00     0.108 A 
HETATM   22  C11 UNL     1       8.526  47.458  25.103  1.00  0.00     0.106 A 
HETATM   23  N4  UNL     1       8.818  46.689  24.061  1.00  0.00    -0.361 N 
HETATM   24  C12 UNL     1       8.960  47.486  22.987  1.00  0.00     0.182 A 
ATOM     25  H4  UNL     1       8.918  45.674  24.073  1.00  0.00     0.166 HD
ENDBRANCH  19  20
ENDBRANCH  18  19
ENDBRANCH  17  18
ENDBRANCH  15  17
ENDBRANCH   1  15
TORSDOF 9
ENDMDL
