MODEL 8
REMARK VINA RESULT: -6.088266789      1.244      1.328
REMARK  9 active torsions:
REMARK  status: ('A' for Active; 'I' for Inactive)
REMARK    1  A    between atoms: O1_2  and  C2_3 
REMARK    2  A    between atoms: C5_6  and  N1_7 
REMARK    3  A    between atoms: N1_7  and  C6_9 
REMARK    4  A    between atoms: C6_9  and  N2_11 
REMARK    5  A    between atoms: N2_11  and  C7_13 
REMARK    6  A    between atoms: C7_13  and  C8_14 
REMARK    7  A    between atoms: C8_14  and  C9_15 
REMARK    8  A    between atoms: C9_15  and  N3_16 
REMARK    9  A    between atoms: C14_23  and  O2_24 
ROOT
HETATM    1  C6  UNL     1       5.298  49.691  17.888  1.00  0.00     0.172 C 
HETATM    2  S1  UNL     1       5.588  51.252  17.458  1.00  0.00    -0.041 SA
ENDROOT
BRANCH   1   3
HETATM    3  N1  UNL     1       4.262  48.904  17.411  1.00  0.00    -0.333 N 
ATOM      4  H1  UNL     1       4.362  48.464  16.497  1.00  0.00     0.168 HD
BRANCH   3   5
HETATM    5  C5  UNL     1       3.066  48.685  18.143  1.00  0.00     0.037 A 
HETATM    6  C4  UNL     1       2.568  49.634  19.001  1.00  0.00     0.032 A 
HETATM    7  C3  UNL     1       1.411  49.398  19.763  1.00  0.00     0.042 A 
HETATM    8  C2  UNL     1       0.784  48.187  19.630  1.00  0.00     0.101 A 
HETATM    9  C14 UNL     1       1.277  47.217  18.764  1.00  0.00     0.103 A 
HETATM   10  C13 UNL     1       2.408  47.445  18.019  1.00  0.00     0.069 A 
BRANCH   8  11
HETATM   11  O1  UNL     1      -0.356  47.887  20.348  1.00  0.00    -0.353 OA
HETATM   12  C1  UNL     1      -0.950  48.891  21.136  1.00  0.00     0.210 C 
ENDBRANCH   8  11
BRANCH   9  13
HETATM   13  O2  UNL     1       0.600  46.014  18.672  1.00  0.00    -0.353 OA
HETATM   14  C15 UNL     1      -0.230  45.775  17.557  1.00  0.00     0.210 C 
ENDBRANCH   9  13
ENDBRANCH   3   5
ENDBRANCH   1   3
BRANCH   1  15
HETATM   15  N2  UNL     1       6.203  49.141  18.875  1.00  0.00    -0.367 N 
ATOM     16  H2  UNL     1       6.560  48.192  18.761  1.00  0.00     0.161 HD
BRANCH  15  17
HETATM   17  C7  UNL     1       6.601  49.916  20.008  1.00  0.00     0.123 C 
BRANCH  17  18
HETATM   18  C8  UNL     1       7.637  49.208  20.819  1.00  0.00     0.040 C 
BRANCH  18  19
HETATM   19  C9  UNL     1       8.070  49.907  22.051  1.00  0.00     0.130 C 
BRANCH  19  20
HETATM   20  N3  UNL     1       8.386  49.153  23.202  1.00  0.00    -0.352 N 
HETATM   21  C10 UNL     1       7.827  47.986  23.597  1.00  0.00     0.108 A 
HETATM   22  C11 UNL     1       8.414  47.636  24.794  1.00  0.00     0.106 A 
HETATM   23  N4  UNL     1       9.304  48.566  25.118  1.00  0.00    -0.361 N 
HETATM   24  C12 UNL     1       9.295  49.500  24.150  1.00  0.00     0.182 A 
ATOM     25  H4  UNL     1       9.891  48.571  25.952  1.00  0.00     0.166 HD
ENDBRANCH  19  20
ENDBRANCH  18  19
ENDBRANCH  17  18
ENDBRANCH  15  17
ENDBRANCH   1  15
TORSDOF 9
ENDMDL
