MODEL 13
REMARK VINA RESULT: -6.024990596      0.954      1.175
REMARK  9 active torsions:
REMARK  status: ('A' for Active; 'I' for Inactive)
REMARK    1  A    between atoms: O1_2  and  C2_3 
REMARK    2  A    between atoms: C5_6  and  N1_7 
REMARK    3  A    between atoms: N1_7  and  C6_9 
REMARK    4  A    between atoms: C6_9  and  N2_11 
REMARK    5  A    between atoms: N2_11  and  C7_13 
REMARK    6  A    between atoms: C7_13  and  C8_14 
REMARK    7  A    between atoms: C8_14  and  C9_15 
REMARK    8  A    between atoms: C9_15  and  N3_16 
REMARK    9  A    between atoms: C14_23  and  O2_24 
ROOT
HETATM    1  C6  UNL     1       5.902  50.945  19.493  1.00  0.00     0.172 C 
HETATM    2  S1  UNL     1       6.432  52.377  20.104  1.00  0.00    -0.041 SA
ENDROOT
BRANCH   1   3
HETATM    3  N1  UNL     1       4.816  50.783  18.647  1.00  0.00    -0.333 N 
ATOM      4  H1  UNL     1       4.934  50.986  17.655  1.00  0.00     0.168 HD
BRANCH   3   5
HETATM    5  C5  UNL     1       3.546  50.346  19.105  1.00  0.00     0.037 A 
HETATM    6  C4  UNL     1       2.855  51.040  20.067  1.00  0.00     0.032 A 
HETATM    7  C3  UNL     1       1.620  50.582  20.556  1.00  0.00     0.042 A 
HETATM    8  C2  UNL     1       1.115  49.415  20.046  1.00  0.00     0.101 A 
HETATM    9  C14 UNL     1       1.804  48.702  19.070  1.00  0.00     0.103 A 
HETATM   10  C13 UNL     1       3.012  49.149  18.591  1.00  0.00     0.069 A 
BRANCH   8  11
HETATM   11  O1  UNL     1      -0.092  48.905  20.480  1.00  0.00    -0.353 OA
HETATM   12  C1  UNL     1      -0.772  49.558  21.525  1.00  0.00     0.210 C 
ENDBRANCH   8  11
BRANCH   9  13
HETATM   13  O2  UNL     1       1.243  47.531  18.593  1.00  0.00    -0.353 OA
HETATM   14  C15 UNL     1       2.066  46.587  17.946  1.00  0.00     0.210 C 
ENDBRANCH   9  13
ENDBRANCH   3   5
ENDBRANCH   1   3
BRANCH   1  15
HETATM   15  N2  UNL     1       6.637  49.775  19.926  1.00  0.00    -0.367 N 
ATOM     16  H2  UNL     1       6.131  48.954  20.259  1.00  0.00     0.161 HD
BRANCH  15  17
HETATM   17  C7  UNL     1       8.065  49.761  19.892  1.00  0.00     0.123 C 
BRANCH  17  18
HETATM   18  C8  UNL     1       8.643  49.471  21.240  1.00  0.00     0.040 C 
BRANCH  18  19
HETATM   19  C9  UNL     1       7.701  48.896  22.228  1.00  0.00     0.130 C 
BRANCH  19  20
HETATM   20  N3  UNL     1       8.191  48.444  23.472  1.00  0.00    -0.352 N 
HETATM   21  C10 UNL     1       7.841  47.316  24.131  1.00  0.00     0.108 A 
HETATM   22  C11 UNL     1       8.540  47.302  25.320  1.00  0.00     0.106 A 
HETATM   23  N4  UNL     1       9.293  48.394  25.380  1.00  0.00    -0.361 N 
HETATM   24  C12 UNL     1       9.087  49.100  24.254  1.00  0.00     0.182 A 
ATOM     25  H4  UNL     1       9.917  48.651  26.145  1.00  0.00     0.166 HD
ENDBRANCH  19  20
ENDBRANCH  18  19
ENDBRANCH  17  18
ENDBRANCH  15  17
ENDBRANCH   1  15
TORSDOF 9
ENDMDL
