MODEL 5
REMARK VINA RESULT: -6.147969973      1.456      1.715
REMARK  9 active torsions:
REMARK  status: ('A' for Active; 'I' for Inactive)
REMARK    1  A    between atoms: O1_2  and  C2_3 
REMARK    2  A    between atoms: C5_6  and  N1_7 
REMARK    3  A    between atoms: N1_7  and  C6_9 
REMARK    4  A    between atoms: C6_9  and  N2_11 
REMARK    5  A    between atoms: N2_11  and  C7_13 
REMARK    6  A    between atoms: C7_13  and  C8_14 
REMARK    7  A    between atoms: C8_14  and  C9_15 
REMARK    8  A    between atoms: C9_15  and  N3_16 
REMARK    9  A    between atoms: C14_23  and  O2_24 
ROOT
HETATM    1  C6  UNL     1       5.031  49.879  18.681  1.00  0.00     0.172 C 
HETATM    2  S1  UNL     1       5.760  48.816  17.659  1.00  0.00    -0.041 SA
ENDROOT
BRANCH   1   3
HETATM    3  N1  UNL     1       3.769  50.425  18.509  1.00  0.00    -0.333 N 
ATOM      4  H1  UNL     1       3.677  51.278  17.957  1.00  0.00     0.168 HD
BRANCH   3   5
HETATM    5  C5  UNL     1       2.601  49.848  19.070  1.00  0.00     0.037 A 
HETATM    6  C4  UNL     1       1.849  50.518  20.003  1.00  0.00     0.032 A 
HETATM    7  C3  UNL     1       0.719  49.928  20.594  1.00  0.00     0.042 A 
HETATM    8  C2  UNL     1       0.380  48.656  20.215  1.00  0.00     0.101 A 
HETATM    9  C14 UNL     1       1.132  47.966  19.269  1.00  0.00     0.103 A 
HETATM   10  C13 UNL     1       2.237  48.541  18.691  1.00  0.00     0.069 A 
BRANCH   8  11
HETATM   11  O1  UNL     1      -0.717  48.015  20.755  1.00  0.00    -0.353 OA
HETATM   12  C1  UNL     1      -1.689  48.777  21.428  1.00  0.00     0.210 C 
ENDBRANCH   8  11
BRANCH   9  13
HETATM   13  O2  UNL     1       0.739  46.685  18.926  1.00  0.00    -0.353 OA
HETATM   14  C15 UNL     1       1.189  46.129  17.711  1.00  0.00     0.210 C 
ENDBRANCH   9  13
ENDBRANCH   3   5
ENDBRANCH   1   3
BRANCH   1  15
HETATM   15  N2  UNL     1       5.821  50.279  19.827  1.00  0.00    -0.367 N 
ATOM     16  H2  UNL     1       5.497  51.040  20.424  1.00  0.00     0.161 HD
BRANCH  15  17
HETATM   17  C7  UNL     1       7.051  49.616  20.129  1.00  0.00     0.123 C 
BRANCH  17  18
HETATM   18  C8  UNL     1       7.622  50.086  21.428  1.00  0.00     0.040 C 
BRANCH  18  19
HETATM   19  C9  UNL     1       8.848  49.387  21.876  1.00  0.00     0.130 C 
BRANCH  19  20
HETATM   20  N3  UNL     1       8.800  48.567  23.024  1.00  0.00    -0.352 N 
HETATM   21  C10 UNL     1       8.773  48.965  24.316  1.00  0.00     0.108 A 
HETATM   22  C11 UNL     1       8.769  47.828  25.095  1.00  0.00     0.106 A 
HETATM   23  N4  UNL     1       8.793  46.767  24.297  1.00  0.00    -0.361 N 
HETATM   24  C12 UNL     1       8.813  47.209  23.026  1.00  0.00     0.182 A 
ATOM     25  H4  UNL     1       8.797  45.791  24.594  1.00  0.00     0.166 HD
ENDBRANCH  19  20
ENDBRANCH  18  19
ENDBRANCH  17  18
ENDBRANCH  15  17
ENDBRANCH   1  15
TORSDOF 9
ENDMDL
