MODEL 4
REMARK VINA RESULT: -5.190062742      2.356      4.870
REMARK  3 active torsions:
REMARK  status: ('A' for Active; 'I' for Inactive)
REMARK       I    between atoms: C2_2  and  N1_4 
REMARK    1  A    between atoms: N1_4  and  C3_6 
REMARK    2  A    between atoms: C3_6  and  C4_7 
REMARK    3  A    between atoms: C4_7  and  C5_8 
ROOT
HETATM    1  C5  UNL     1     -16.088 -15.804  15.595  1.00  0.00     0.027 A 
HETATM    2  C6  UNL     1     -15.134 -16.241  14.730  1.00  0.00     0.114 A 
HETATM    3  N2  UNL     1     -13.894 -16.022  15.237  1.00  0.00    -0.360 N 
ATOM      4  H2  UNL     1     -12.995 -16.246  14.810  1.00  0.00     0.166 HD
HETATM    5  C7  UNL     1     -14.119 -15.441  16.430  1.00  0.00     0.180 A 
HETATM    6  N3  UNL     1     -15.421 -15.302  16.661  1.00  0.00    -0.355 N 
ATOM      7  H3  UNL     1     -15.843 -14.891  17.494  1.00  0.00     0.166 HD
ENDROOT
BRANCH   1   8
HETATM    8  C4  UNL     1     -17.580 -15.866  15.404  1.00  0.00     0.078 C 
BRANCH   8   9
HETATM    9  C3  UNL     1     -18.168 -14.512  15.725  1.00  0.00     0.128 C 
BRANCH   9  10
HETATM   10  N1  UNL     1     -17.582 -13.468  14.945  1.00  0.00    -0.361 N 
HETATM   11  C2  UNL     1     -18.194 -13.069  13.734  1.00  0.00     0.213 C 
HETATM   12  C1  UNL     1     -17.602 -11.985  12.912  1.00  0.00     0.117 C 
HETATM   13  O1  UNL     1     -19.246 -13.601  13.304  1.00  0.00    -0.274 OA
ATOM     14  H1  UNL     1     -16.727 -13.011  15.261  1.00  0.00     0.162 HD
ENDBRANCH   9  10
ENDBRANCH   8   9
ENDBRANCH   1   8
TORSDOF 3
ENDMDL
