MODEL 6
REMARK VINA RESULT: -5.100406437      2.485      4.668
REMARK  3 active torsions:
REMARK  status: ('A' for Active; 'I' for Inactive)
REMARK       I    between atoms: C2_2  and  N1_4 
REMARK    1  A    between atoms: N1_4  and  C3_6 
REMARK    2  A    between atoms: C3_6  and  C4_7 
REMARK    3  A    between atoms: C4_7  and  C5_8 
ROOT
HETATM    1  C5  UNL     1     -16.280 -15.538  15.963  1.00  0.00     0.027 A 
HETATM    2  C6  UNL     1     -16.861 -16.447  15.136  1.00  0.00     0.114 A 
HETATM    3  N2  UNL     1     -15.918 -17.100  14.408  1.00  0.00    -0.360 N 
ATOM      4  H2  UNL     1     -16.061 -17.830  13.711  1.00  0.00     0.166 HD
HETATM    5  C7  UNL     1     -14.753 -16.563  14.815  1.00  0.00     0.180 A 
HETATM    6  N3  UNL     1     -14.948 -15.629  15.741  1.00  0.00    -0.355 N 
ATOM      7  H3  UNL     1     -14.223 -15.080  16.203  1.00  0.00     0.166 HD
ENDROOT
BRANCH   1   8
HETATM    8  C4  UNL     1     -16.979 -14.616  16.928  1.00  0.00     0.078 C 
BRANCH   8   9
HETATM    9  C3  UNL     1     -18.117 -13.932  16.209  1.00  0.00     0.128 C 
BRANCH   9  10
HETATM   10  N1  UNL     1     -17.658 -12.970  15.256  1.00  0.00    -0.361 N 
HETATM   11  C2  UNL     1     -18.153 -13.002  13.932  1.00  0.00     0.213 C 
HETATM   12  C1  UNL     1     -17.690 -12.011  12.931  1.00  0.00     0.117 C 
HETATM   13  O1  UNL     1     -18.993 -13.851  13.548  1.00  0.00    -0.274 OA
ATOM     14  H1  UNL     1     -16.975 -12.264  15.531  1.00  0.00     0.162 HD
ENDBRANCH   9  10
ENDBRANCH   8   9
ENDBRANCH   1   8
TORSDOF 3
ENDMDL
