MODEL 10
REMARK VINA RESULT: -4.872097898      2.893      3.302
REMARK  3 active torsions:
REMARK  status: ('A' for Active; 'I' for Inactive)
REMARK       I    between atoms: C2_2  and  N1_4 
REMARK    1  A    between atoms: N1_4  and  C3_6 
REMARK    2  A    between atoms: C3_6  and  C4_7 
REMARK    3  A    between atoms: C4_7  and  C5_8 
ROOT
HETATM    1  C5  UNL     1     -18.294 -12.655  15.191  1.00  0.00     0.027 A 
HETATM    2  C6  UNL     1     -17.811 -13.787  14.613  1.00  0.00     0.114 A 
HETATM    3  N2  UNL     1     -17.499 -13.561  13.310  1.00  0.00    -0.360 N 
ATOM      4  H2  UNL     1     -17.119 -14.223  12.634  1.00  0.00     0.166 HD
HETATM    5  C7  UNL     1     -17.804 -12.265  13.115  1.00  0.00     0.180 A 
HETATM    6  N3  UNL     1     -18.280 -11.708  14.225  1.00  0.00    -0.355 N 
ATOM      7  H3  UNL     1     -18.581 -10.739  14.329  1.00  0.00     0.166 HD
ENDROOT
BRANCH   1   8
HETATM    8  C4  UNL     1     -18.751 -12.492  16.617  1.00  0.00     0.078 C 
BRANCH   8   9
HETATM    9  C3  UNL     1     -18.941 -13.860  17.226  1.00  0.00     0.128 C 
BRANCH   9  10
HETATM   10  N1  UNL     1     -18.139 -14.051  18.393  1.00  0.00    -0.361 N 
HETATM   11  C2  UNL     1     -18.589 -14.914  19.420  1.00  0.00     0.213 C 
HETATM   12  C1  UNL     1     -17.769 -15.126  20.638  1.00  0.00     0.117 C 
HETATM   13  O1  UNL     1     -19.679 -15.530  19.353  1.00  0.00    -0.274 OA
ATOM     14  H1  UNL     1     -17.246 -13.567  18.486  1.00  0.00     0.162 HD
ENDBRANCH   9  10
ENDBRANCH   8   9
ENDBRANCH   1   8
TORSDOF 3
ENDMDL
