MODEL 12
REMARK VINA RESULT: -4.826169863      1.989      1.995
REMARK  3 active torsions:
REMARK  status: ('A' for Active; 'I' for Inactive)
REMARK       I    between atoms: C2_2  and  N1_4 
REMARK    1  A    between atoms: N1_4  and  C3_6 
REMARK    2  A    between atoms: C3_6  and  C4_7 
REMARK    3  A    between atoms: C4_7  and  C5_8 
ROOT
HETATM    1  C5  UNL     1     -18.047 -13.763  14.709  1.00  0.00     0.027 A 
HETATM    2  C6  UNL     1     -18.764 -12.652  15.026  1.00  0.00     0.114 A 
HETATM    3  N2  UNL     1     -18.637 -11.710  14.056  1.00  0.00    -0.360 N 
ATOM      4  H2  UNL     1     -19.060 -10.783  14.025  1.00  0.00     0.166 HD
HETATM    5  C7  UNL     1     -17.827 -12.279  13.144  1.00  0.00     0.180 A 
HETATM    6  N3  UNL     1     -17.464 -13.503  13.516  1.00  0.00    -0.355 N 
ATOM      7  H3  UNL     1     -16.855 -14.133  12.995  1.00  0.00     0.166 HD
ENDROOT
BRANCH   1   8
HETATM    8  C4  UNL     1     -17.927 -15.025  15.523  1.00  0.00     0.078 C 
BRANCH   8   9
HETATM    9  C3  UNL     1     -16.762 -14.883  16.472  1.00  0.00     0.128 C 
BRANCH   9  10
HETATM   10  N1  UNL     1     -17.167 -14.434  17.766  1.00  0.00    -0.361 N 
HETATM   11  C2  UNL     1     -17.329 -15.368  18.815  1.00  0.00     0.213 C 
HETATM   12  C1  UNL     1     -17.747 -14.920  20.166  1.00  0.00     0.117 C 
HETATM   13  O1  UNL     1     -17.131 -16.597  18.658  1.00  0.00    -0.274 OA
ATOM     14  H1  UNL     1     -17.338 -13.442  17.934  1.00  0.00     0.162 HD
ENDBRANCH   9  10
ENDBRANCH   8   9
ENDBRANCH   1   8
TORSDOF 3
ENDMDL
