MODEL 3
REMARK VINA RESULT: -5.224436001      2.273      4.916
REMARK  3 active torsions:
REMARK  status: ('A' for Active; 'I' for Inactive)
REMARK       I    between atoms: C2_2  and  N1_4 
REMARK    1  A    between atoms: N1_4  and  C3_6 
REMARK    2  A    between atoms: C3_6  and  C4_7 
REMARK    3  A    between atoms: C4_7  and  C5_8 
ROOT
HETATM    1  C5  UNL     1     -15.343 -15.656  16.392  1.00  0.00     0.027 A 
HETATM    2  C6  UNL     1     -15.944 -15.545  17.607  1.00  0.00     0.114 A 
HETATM    3  N2  UNL     1     -15.118 -14.932  18.494  1.00  0.00    -0.360 N 
ATOM      4  H2  UNL     1     -15.301 -14.717  19.473  1.00  0.00     0.166 HD
HETATM    5  C7  UNL     1     -14.002 -14.675  17.786  1.00  0.00     0.180 A 
HETATM    6  N3  UNL     1     -14.117 -15.099  16.531  1.00  0.00    -0.355 N 
ATOM      7  H3  UNL     1     -13.407 -15.019  15.803  1.00  0.00     0.166 HD
ENDROOT
BRANCH   1   8
HETATM    8  C4  UNL     1     -15.924 -16.273  15.147  1.00  0.00     0.078 C 
BRANCH   8   9
HETATM    9  C3  UNL     1     -17.232 -15.589  14.831  1.00  0.00     0.128 C 
BRANCH   9  10
HETATM   10  N1  UNL     1     -17.052 -14.404  14.053  1.00  0.00    -0.361 N 
HETATM   11  C2  UNL     1     -18.107 -13.469  13.943  1.00  0.00     0.213 C 
HETATM   12  C1  UNL     1     -17.937 -12.233  13.142  1.00  0.00     0.117 C 
HETATM   13  O1  UNL     1     -19.215 -13.635  14.507  1.00  0.00    -0.274 OA
ATOM     14  H1  UNL     1     -16.165 -14.234  13.578  1.00  0.00     0.162 HD
ENDBRANCH   9  10
ENDBRANCH   8   9
ENDBRANCH   1   8
TORSDOF 3
ENDMDL
