MODEL 5
REMARK VINA RESULT: -6.224293575      1.337      1.698
REMARK  2 active torsions:
REMARK  status: ('A' for Active; 'I' for Inactive)
REMARK    1  A    between atoms: C4_4  and  C5_5 
REMARK    2  A    between atoms: C5_5  and  N1_6 
ROOT
HETATM    1  C5  UNL     1       8.764  15.176 -15.064  1.00  0.00     0.167 C 
ENDROOT
BRANCH   1   2
HETATM    2  C4  UNL     1       8.744  15.565 -16.490  1.00  0.00    -0.040 A 
HETATM    3  C3  UNL     1       8.350  16.834 -16.858  1.00  0.00     0.009 A 
HETATM    4  C2  UNL     1       8.334  17.192 -18.190  1.00  0.00     0.001 A 
HETATM    5  C1  UNL     1       8.710  16.287 -19.170  1.00  0.00     0.000 A 
HETATM    6  C10 UNL     1       9.106  15.015 -18.809  1.00  0.00     0.001 A 
HETATM    7  C9  UNL     1       9.119  14.664 -17.468  1.00  0.00     0.009 A 
ENDBRANCH   1   2
BRANCH   1   8
HETATM    8  N1  UNL     1       8.353  13.823 -14.838  1.00  0.00    -0.347 N 
HETATM    9  C6  UNL     1       7.412  13.178 -15.553  1.00  0.00     0.109 A 
HETATM   10  C7  UNL     1       7.266  11.896 -15.069  1.00  0.00     0.106 A 
HETATM   11  N2  UNL     1       8.127  11.762 -14.052  1.00  0.00    -0.361 N 
HETATM   12  C8  UNL     1       8.771  12.925 -13.925  1.00  0.00     0.182 A 
ATOM     13  H2  UNL     1       8.265  10.928 -13.482  1.00  0.00     0.166 HD
ENDBRANCH   1   8
TORSDOF 2
ENDMDL
