MODEL 2
REMARK VINA RESULT: -6.259114507      0.012      1.378
REMARK  2 active torsions:
REMARK  status: ('A' for Active; 'I' for Inactive)
REMARK    1  A    between atoms: C4_4  and  C5_5 
REMARK    2  A    between atoms: C5_5  and  N1_6 
ROOT
HETATM    1  C5  UNL     1       9.305  13.982 -16.566  1.00  0.00     0.167 C 
ENDROOT
BRANCH   1   2
HETATM    2  C4  UNL     1       8.368  14.994 -17.095  1.00  0.00    -0.040 A 
HETATM    3  C3  UNL     1       7.255  14.604 -17.810  1.00  0.00     0.009 A 
HETATM    4  C2  UNL     1       6.383  15.553 -18.302  1.00  0.00     0.001 A 
HETATM    5  C1  UNL     1       6.612  16.902 -18.084  1.00  0.00     0.000 A 
HETATM    6  C10 UNL     1       7.724  17.300 -17.369  1.00  0.00     0.001 A 
HETATM    7  C9  UNL     1       8.594  16.339 -16.879  1.00  0.00     0.009 A 
ENDBRANCH   1   2
BRANCH   1   8
HETATM    8  N1  UNL     1       8.729  13.144 -15.558  1.00  0.00    -0.347 N 
HETATM    9  C6  UNL     1       8.369  13.559 -14.329  1.00  0.00     0.109 A 
HETATM   10  C7  UNL     1       7.850  12.498 -13.619  1.00  0.00     0.106 A 
HETATM   11  N2  UNL     1       7.895  11.429 -14.425  1.00  0.00    -0.361 N 
HETATM   12  C8  UNL     1       8.425  11.832 -15.583  1.00  0.00     0.182 A 
ATOM     13  H2  UNL     1       7.583  10.486 -14.197  1.00  0.00     0.166 HD
ENDBRANCH   1   8
TORSDOF 2
ENDMDL
