MODEL 11
REMARK VINA RESULT: -5.912335807      2.252      4.803
REMARK  2 active torsions:
REMARK  status: ('A' for Active; 'I' for Inactive)
REMARK    1  A    between atoms: C4_4  and  C5_5 
REMARK    2  A    between atoms: C5_5  and  N1_6 
ROOT
HETATM    1  C5  UNL     1       8.597  15.645 -16.067  1.00  0.00     0.167 C 
ENDROOT
BRANCH   1   2
HETATM    2  C4  UNL     1       8.260  14.341 -15.457  1.00  0.00    -0.040 A 
HETATM    3  C3  UNL     1       7.310  13.527 -16.038  1.00  0.00     0.009 A 
HETATM    4  C2  UNL     1       6.999  12.312 -15.464  1.00  0.00     0.001 A 
HETATM    5  C1  UNL     1       7.634  11.894 -14.305  1.00  0.00     0.000 A 
HETATM    6  C10 UNL     1       8.587  12.704 -13.719  1.00  0.00     0.001 A 
HETATM    7  C9  UNL     1       8.892  13.923 -14.302  1.00  0.00     0.009 A 
ENDBRANCH   1   2
BRANCH   1   8
HETATM    8  N1  UNL     1       8.772  15.580 -17.487  1.00  0.00    -0.347 N 
HETATM    9  C6  UNL     1       8.502  16.586 -18.339  1.00  0.00     0.109 A 
HETATM   10  C7  UNL     1       8.784  16.185 -19.627  1.00  0.00     0.106 A 
HETATM   11  N2  UNL     1       9.229  14.924 -19.555  1.00  0.00    -0.361 N 
HETATM   12  C8  UNL     1       9.215  14.575 -18.266  1.00  0.00     0.182 A 
ATOM     13  H2  UNL     1       9.523  14.340 -20.338  1.00  0.00     0.166 HD
ENDBRANCH   1   8
TORSDOF 2
ENDMDL
