MODEL 1
REMARK VINA RESULT: -6.266723441      0.000      0.000
REMARK  2 active torsions:
REMARK  status: ('A' for Active; 'I' for Inactive)
REMARK    1  A    between atoms: C4_4  and  C5_5 
REMARK    2  A    between atoms: C5_5  and  N1_6 
ROOT
HETATM    1  C5  UNL     1       9.306  13.982 -16.566  1.00  0.00     0.167 C 
ENDROOT
BRANCH   1   2
HETATM    2  C4  UNL     1       8.369  14.995 -17.095  1.00  0.00    -0.040 A 
HETATM    3  C3  UNL     1       8.596  16.336 -16.870  1.00  0.00     0.009 A 
HETATM    4  C2  UNL     1       7.718  17.277 -17.366  1.00  0.00     0.001 A 
HETATM    5  C1  UNL     1       6.603  16.890 -18.093  1.00  0.00     0.000 A 
HETATM    6  C10 UNL     1       6.370  15.549 -18.323  1.00  0.00     0.001 A 
HETATM    7  C9  UNL     1       7.258  14.611 -17.821  1.00  0.00     0.009 A 
ENDBRANCH   1   2
BRANCH   1   8
HETATM    8  N1  UNL     1       8.729  13.144 -15.560  1.00  0.00    -0.347 N 
HETATM    9  C6  UNL     1       8.370  13.558 -14.330  1.00  0.00     0.109 A 
HETATM   10  C7  UNL     1       7.850  12.496 -13.621  1.00  0.00     0.106 A 
HETATM   11  N2  UNL     1       7.893  11.429 -14.429  1.00  0.00    -0.361 N 
HETATM   12  C8  UNL     1       8.422  11.832 -15.587  1.00  0.00     0.182 A 
ATOM     13  H2  UNL     1       7.579  10.485 -14.203  1.00  0.00     0.166 HD
ENDBRANCH   1   8
TORSDOF 2
ENDMDL
