MODEL 13
REMARK VINA RESULT: -5.827774178      2.290      4.767
REMARK  2 active torsions:
REMARK  status: ('A' for Active; 'I' for Inactive)
REMARK    1  A    between atoms: C4_4  and  C5_5 
REMARK    2  A    between atoms: C5_5  and  N1_6 
ROOT
HETATM    1  C5  UNL     1       9.003  15.290 -17.078  1.00  0.00     0.167 C 
ENDROOT
BRANCH   1   2
HETATM    2  C4  UNL     1       8.521  14.300 -16.093  1.00  0.00    -0.040 A 
HETATM    3  C3  UNL     1       9.157  14.163 -14.877  1.00  0.00     0.009 A 
HETATM    4  C2  UNL     1       8.703  13.237 -13.961  1.00  0.00     0.001 A 
HETATM    5  C1  UNL     1       7.608  12.437 -14.248  1.00  0.00     0.000 A 
HETATM    6  C10 UNL     1       6.966  12.569 -15.464  1.00  0.00     0.001 A 
HETATM    7  C9  UNL     1       7.430  13.502 -16.377  1.00  0.00     0.009 A 
ENDBRANCH   1   2
BRANCH   1   8
HETATM    8  N1  UNL     1       8.423  16.588 -16.910  1.00  0.00    -0.347 N 
HETATM    9  C6  UNL     1       7.710  17.237 -17.849  1.00  0.00     0.109 A 
HETATM   10  C7  UNL     1       7.303  18.458 -17.356  1.00  0.00     0.106 A 
HETATM   11  N2  UNL     1       7.773  18.550 -16.105  1.00  0.00    -0.361 N 
HETATM   12  C8  UNL     1       8.443  17.423 -15.852  1.00  0.00     0.182 A 
ATOM     13  H2  UNL     1       7.644  19.334 -15.466  1.00  0.00     0.166 HD
ENDBRANCH   1   8
TORSDOF 2
ENDMDL
