MODEL 12
REMARK VINA RESULT: -5.893486310      2.257      4.659
REMARK  2 active torsions:
REMARK  status: ('A' for Active; 'I' for Inactive)
REMARK    1  A    between atoms: C4_4  and  C5_5 
REMARK    2  A    between atoms: C5_5  and  N1_6 
ROOT
HETATM    1  C5  UNL     1       8.597  15.719 -16.016  1.00  0.00     0.167 C 
ENDROOT
BRANCH   1   2
HETATM    2  C4  UNL     1       8.267  14.394 -15.452  1.00  0.00    -0.040 A 
HETATM    3  C3  UNL     1       8.901  13.946 -14.312  1.00  0.00     0.009 A 
HETATM    4  C2  UNL     1       8.588  12.708 -13.789  1.00  0.00     0.001 A 
HETATM    5  C1  UNL     1       7.639  11.903 -14.399  1.00  0.00     0.000 A 
HETATM    6  C10 UNL     1       7.000  12.344 -15.541  1.00  0.00     0.001 A 
HETATM    7  C9  UNL     1       7.321  13.589 -16.058  1.00  0.00     0.009 A 
ENDBRANCH   1   2
BRANCH   1   8
HETATM    8  N1  UNL     1       8.733  15.713 -17.441  1.00  0.00    -0.347 N 
HETATM    9  C6  UNL     1       8.425  16.748 -18.245  1.00  0.00     0.109 A 
HETATM   10  C7  UNL     1       8.675  16.402 -19.555  1.00  0.00     0.106 A 
HETATM   11  N2  UNL     1       9.140  15.146 -19.546  1.00  0.00    -0.361 N 
HETATM   12  C8  UNL     1       9.168  14.746 -18.272  1.00  0.00     0.182 A 
ATOM     13  H2  UNL     1       9.420  14.598 -20.359  1.00  0.00     0.166 HD
ENDBRANCH   1   8
TORSDOF 2
ENDMDL
