MODEL 4
REMARK VINA RESULT: -6.247405924      1.258      1.626
REMARK  2 active torsions:
REMARK  status: ('A' for Active; 'I' for Inactive)
REMARK    1  A    between atoms: C4_4  and  C5_5 
REMARK    2  A    between atoms: C5_5  and  N1_6 
ROOT
HETATM    1  C5  UNL     1       8.768  15.049 -16.068  1.00  0.00     0.167 C 
ENDROOT
BRANCH   1   2
HETATM    2  C4  UNL     1       8.298  14.989 -17.468  1.00  0.00    -0.040 A 
HETATM    3  C3  UNL     1       9.204  15.011 -18.507  1.00  0.00     0.009 A 
HETATM    4  C2  UNL     1       8.760  14.956 -19.812  1.00  0.00     0.001 A 
HETATM    5  C1  UNL     1       7.405  14.876 -20.094  1.00  0.00     0.000 A 
HETATM    6  C10 UNL     1       6.492  14.853 -19.059  1.00  0.00     0.001 A 
HETATM    7  C9  UNL     1       6.948  14.910 -17.752  1.00  0.00     0.009 A 
ENDBRANCH   1   2
BRANCH   1   8
HETATM    8  N1  UNL     1       8.696  13.790 -15.390  1.00  0.00    -0.347 N 
HETATM    9  C6  UNL     1       8.329  13.632 -14.104  1.00  0.00     0.109 A 
HETATM   10  C7  UNL     1       8.370  12.294 -13.776  1.00  0.00     0.106 A 
HETATM   11  N2  UNL     1       8.764  11.635 -14.873  1.00  0.00    -0.361 N 
HETATM   12  C8  UNL     1       8.956  12.545 -15.832  1.00  0.00     0.182 A 
ATOM     13  H2  UNL     1       8.893  10.627 -14.961  1.00  0.00     0.166 HD
ENDBRANCH   1   8
TORSDOF 2
ENDMDL
