MODEL 3
REMARK VINA RESULT: -6.253532039      1.264      1.866
REMARK  2 active torsions:
REMARK  status: ('A' for Active; 'I' for Inactive)
REMARK    1  A    between atoms: C4_4  and  C5_5 
REMARK    2  A    between atoms: C5_5  and  N1_6 
ROOT
HETATM    1  C5  UNL     1       8.764  15.054 -16.068  1.00  0.00     0.167 C 
ENDROOT
BRANCH   1   2
HETATM    2  C4  UNL     1       8.293  14.995 -17.467  1.00  0.00    -0.040 A 
HETATM    3  C3  UNL     1       6.944  14.906 -17.743  1.00  0.00     0.009 A 
HETATM    4  C2  UNL     1       6.510  14.851 -19.051  1.00  0.00     0.001 A 
HETATM    5  C1  UNL     1       7.417  14.883 -20.099  1.00  0.00     0.000 A 
HETATM    6  C10 UNL     1       8.768  14.972 -19.830  1.00  0.00     0.001 A 
HETATM    7  C9  UNL     1       9.195  15.027 -18.513  1.00  0.00     0.009 A 
ENDBRANCH   1   2
BRANCH   1   8
HETATM    8  N1  UNL     1       8.696  13.795 -15.391  1.00  0.00    -0.347 N 
HETATM    9  C6  UNL     1       8.330  13.633 -14.106  1.00  0.00     0.109 A 
HETATM   10  C7  UNL     1       8.376  12.295 -13.779  1.00  0.00     0.106 A 
HETATM   11  N2  UNL     1       8.773  11.639 -14.877  1.00  0.00    -0.361 N 
HETATM   12  C8  UNL     1       8.961  12.551 -15.834  1.00  0.00     0.182 A 
ATOM     13  H2  UNL     1       8.905  10.631 -14.965  1.00  0.00     0.166 HD
ENDBRANCH   1   8
TORSDOF 2
ENDMDL
