MODEL 3
REMARK VINA RESULT: -6.306643226      1.253      1.416
REMARK  8 active torsions:
REMARK  status: ('A' for Active; 'I' for Inactive)
REMARK    1  A    between atoms: O1_2  and  C2_3 
REMARK    2  A    between atoms: C5_6  and  N1_7 
REMARK    3  A    between atoms: C6_9  and  N2_11 
REMARK    4  A    between atoms: N2_11  and  C7_13 
REMARK    5  A    between atoms: C7_13  and  C8_14 
REMARK    6  A    between atoms: C8_14  and  C9_15 
REMARK    7  A    between atoms: C9_15  and  N3_16 
REMARK    8  A    between atoms: C14_23  and  O2_24 
ROOT
HETATM    1  N1  UNL     1       0.288  77.099   8.081  1.00  0.00    -0.336 N 
ATOM      2  H1  UNL     1       0.266  77.554   8.993  1.00  0.00     0.168 HD
HETATM    3  C6  UNL     1       1.378  76.525   7.772  1.00  0.00     0.155 C 
HETATM    4  S1  UNL     1       2.777  76.546   8.932  1.00  0.00    -0.013 SA
ENDROOT
BRANCH   3   5
HETATM    5  N2  UNL     1       1.433  75.879   6.516  1.00  0.00    -0.350 N 
ATOM      6  H2  UNL     1       1.410  76.452   5.671  1.00  0.00     0.167 HD
BRANCH   5   7
HETATM    7  C7  UNL     1       1.519  74.494   6.381  1.00  0.00     0.065 C 
BRANCH   7   8
HETATM    8  C8  UNL     1       2.827  74.034   5.790  1.00  0.00     0.065 C 
BRANCH   8   9
HETATM    9  C9  UNL     1       3.098  74.236   4.377  1.00  0.00     0.134 C 
BRANCH   9  10
HETATM   10  N3  UNL     1       3.431  73.089   3.580  1.00  0.00    -0.351 N 
HETATM   11  C10 UNL     1       3.681  73.196   2.250  1.00  0.00     0.108 A 
HETATM   12  C11 UNL     1       3.915  71.931   1.786  1.00  0.00     0.106 A 
HETATM   13  N4  UNL     1       3.806  71.098   2.831  1.00  0.00    -0.361 N 
HETATM   14  C12 UNL     1       3.512  71.797   3.923  1.00  0.00     0.182 A 
ATOM     15  H4  UNL     1       3.929  70.085   2.794  1.00  0.00     0.166 HD
ENDBRANCH   9  10
ENDBRANCH   8   9
ENDBRANCH   7   8
ENDBRANCH   5   7
ENDBRANCH   3   5
BRANCH   1  16
HETATM   16  C5  UNL     1      -0.870  77.181   7.335  1.00  0.00     0.036 A 
HETATM   17  C4  UNL     1      -1.792  76.157   7.323  1.00  0.00     0.032 A 
HETATM   18  C3  UNL     1      -2.993  76.280   6.614  1.00  0.00     0.042 A 
HETATM   19  C2  UNL     1      -3.283  77.423   5.915  1.00  0.00     0.101 A 
HETATM   20  C14 UNL     1      -2.371  78.449   5.923  1.00  0.00     0.103 A 
HETATM   21  C13 UNL     1      -1.171  78.322   6.631  1.00  0.00     0.069 A 
BRANCH  19  22
HETATM   22  O1  UNL     1      -4.498  77.546   5.199  1.00  0.00    -0.353 OA
HETATM   23  C1  UNL     1      -4.794  76.599   4.169  1.00  0.00     0.210 C 
ENDBRANCH  19  22
BRANCH  20  24
HETATM   24  O2  UNL     1      -2.672  79.600   5.215  1.00  0.00    -0.353 OA
HETATM   25  C15 UNL     1      -2.102  80.858   5.433  1.00  0.00     0.210 C 
ENDBRANCH  20  24
ENDBRANCH   1  16
TORSDOF 8
ENDMDL
