MODEL 1
REMARK VINA RESULT: -6.568450472      0.000      0.000
REMARK  8 active torsions:
REMARK  status: ('A' for Active; 'I' for Inactive)
REMARK    1  A    between atoms: O1_2  and  C2_3 
REMARK    2  A    between atoms: C5_6  and  N1_7 
REMARK    3  A    between atoms: C6_9  and  N2_11 
REMARK    4  A    between atoms: N2_11  and  C7_13 
REMARK    5  A    between atoms: C7_13  and  C8_14 
REMARK    6  A    between atoms: C8_14  and  C9_15 
REMARK    7  A    between atoms: C9_15  and  N3_16 
REMARK    8  A    between atoms: C14_23  and  O2_24 
ROOT
HETATM    1  N1  UNL     1      -1.016  75.399   7.757  1.00  0.00    -0.336 N 
ATOM      2  H1  UNL     1      -1.451  75.148   8.645  1.00  0.00     0.168 HD
HETATM    3  C6  UNL     1       0.253  75.383   7.735  1.00  0.00     0.155 C 
HETATM    4  S1  UNL     1       1.183  74.927   9.229  1.00  0.00    -0.013 SA
ENDROOT
BRANCH   3   5
HETATM    5  N2  UNL     1       0.882  75.719   6.514  1.00  0.00    -0.350 N 
ATOM      6  H2  UNL     1       0.312  76.110   5.763  1.00  0.00     0.167 HD
BRANCH   5   7
HETATM    7  C7  UNL     1       2.247  75.540   6.292  1.00  0.00     0.065 C 
BRANCH   7   8
HETATM    8  C8  UNL     1       2.563  74.292   5.509  1.00  0.00     0.065 C 
BRANCH   8   9
HETATM    9  C9  UNL     1       3.132  74.394   4.176  1.00  0.00     0.134 C 
BRANCH   9  10
HETATM   10  N3  UNL     1       3.443  73.180   3.476  1.00  0.00    -0.351 N 
HETATM   11  C10 UNL     1       3.696  73.172   2.143  1.00  0.00     0.108 A 
HETATM   12  C11 UNL     1       3.907  71.869   1.784  1.00  0.00     0.106 A 
HETATM   13  N4  UNL     1       3.781  71.127   2.894  1.00  0.00    -0.361 N 
HETATM   14  C12 UNL     1       3.499  71.919   3.924  1.00  0.00     0.182 A 
ATOM     15  H4  UNL     1       3.885  70.113   2.940  1.00  0.00     0.166 HD
ENDBRANCH   9  10
ENDBRANCH   8   9
ENDBRANCH   7   8
ENDBRANCH   5   7
ENDBRANCH   3   5
BRANCH   1  16
HETATM   16  C5  UNL     1      -1.880  75.712   6.728  1.00  0.00     0.036 A 
HETATM   17  C4  UNL     1      -2.387  74.740   5.893  1.00  0.00     0.032 A 
HETATM   18  C3  UNL     1      -3.314  75.063   4.895  1.00  0.00     0.042 A 
HETATM   19  C2  UNL     1      -3.740  76.355   4.721  1.00  0.00     0.101 A 
HETATM   20  C14 UNL     1      -3.240  77.330   5.549  1.00  0.00     0.103 A 
HETATM   21  C13 UNL     1      -2.314  77.004   6.545  1.00  0.00     0.069 A 
BRANCH  19  22
HETATM   22  O1  UNL     1      -4.676  76.679   3.710  1.00  0.00    -0.353 OA
HETATM   23  C1  UNL     1      -5.778  75.798   3.477  1.00  0.00     0.210 C 
ENDBRANCH  19  22
BRANCH  20  24
HETATM   24  O2  UNL     1      -3.676  78.630   5.368  1.00  0.00    -0.353 OA
HETATM   25  C15 UNL     1      -2.871  79.772   5.427  1.00  0.00     0.210 C 
ENDBRANCH  20  24
ENDBRANCH   1  16
TORSDOF 8
ENDMDL
