MODEL 18
REMARK VINA RESULT: -5.927284389      3.453      7.390
REMARK  8 active torsions:
REMARK  status: ('A' for Active; 'I' for Inactive)
REMARK    1  A    between atoms: O1_2  and  C2_3 
REMARK    2  A    between atoms: C5_6  and  N1_7 
REMARK    3  A    between atoms: C6_9  and  N2_11 
REMARK    4  A    between atoms: N2_11  and  C7_13 
REMARK    5  A    between atoms: C7_13  and  C8_14 
REMARK    6  A    between atoms: C8_14  and  C9_15 
REMARK    7  A    between atoms: C9_15  and  N3_16 
REMARK    8  A    between atoms: C14_23  and  O2_24 
ROOT
HETATM    1  N1  UNL     1       2.853  74.574   6.132  1.00  0.00    -0.336 N 
ATOM      2  H1  UNL     1       3.731  74.360   6.604  1.00  0.00     0.168 HD
HETATM    3  C6  UNL     1       1.815  74.576   6.863  1.00  0.00     0.155 C 
HETATM    4  S1  UNL     1       1.953  74.218   8.640  1.00  0.00    -0.013 SA
ENDROOT
BRANCH   3   5
HETATM    5  N2  UNL     1       0.585  74.877   6.235  1.00  0.00    -0.350 N 
ATOM      6  H2  UNL     1       0.309  74.334   5.416  1.00  0.00     0.167 HD
BRANCH   5   7
HETATM    7  C7  UNL     1      -0.268  75.884   6.686  1.00  0.00     0.065 C 
BRANCH   7   8
HETATM    8  C8  UNL     1      -1.421  76.149   5.751  1.00  0.00     0.065 C 
BRANCH   8   9
HETATM    9  C9  UNL     1      -2.476  75.161   5.600  1.00  0.00     0.134 C 
BRANCH   9  10
HETATM   10  N3  UNL     1      -3.728  75.586   5.042  1.00  0.00    -0.351 N 
HETATM   11  C10 UNL     1      -4.352  74.874   4.068  1.00  0.00     0.108 A 
HETATM   12  C11 UNL     1      -5.481  75.567   3.729  1.00  0.00     0.106 A 
HETATM   13  N4  UNL     1      -5.517  76.666   4.495  1.00  0.00    -0.361 N 
HETATM   14  C12 UNL     1      -4.455  76.682   5.294  1.00  0.00     0.182 A 
ATOM     15  H4  UNL     1      -6.247  77.380   4.469  1.00  0.00     0.166 HD
ENDBRANCH   9  10
ENDBRANCH   8   9
ENDBRANCH   7   8
ENDBRANCH   5   7
ENDBRANCH   3   5
BRANCH   1  16
HETATM   16  C5  UNL     1       2.939  74.825   4.778  1.00  0.00     0.036 A 
HETATM   17  C4  UNL     1       2.700  76.080   4.263  1.00  0.00     0.032 A 
HETATM   18  C3  UNL     1       2.855  76.337   2.895  1.00  0.00     0.042 A 
HETATM   19  C2  UNL     1       3.250  75.346   2.034  1.00  0.00     0.101 A 
HETATM   20  C14 UNL     1       3.492  74.093   2.538  1.00  0.00     0.103 A 
HETATM   21  C13 UNL     1       3.335  73.839   3.905  1.00  0.00     0.069 A 
BRANCH  19  22
HETATM   22  O1  UNL     1       3.406  75.608   0.651  1.00  0.00    -0.353 OA
HETATM   23  C1  UNL     1       3.653  76.949   0.223  1.00  0.00     0.210 C 
ENDBRANCH  19  22
BRANCH  20  24
HETATM   24  O2  UNL     1       3.891  73.099   1.662  1.00  0.00    -0.353 OA
HETATM   25  C15 UNL     1       3.817  71.724   1.907  1.00  0.00     0.210 C 
ENDBRANCH  20  24
ENDBRANCH   1  16
TORSDOF 8
ENDMDL
