MODEL 2
REMARK VINA RESULT: -6.472633288      4.223      6.484
REMARK  8 active torsions:
REMARK  status: ('A' for Active; 'I' for Inactive)
REMARK    1  A    between atoms: O1_2  and  C2_3 
REMARK    2  A    between atoms: C5_6  and  N1_7 
REMARK    3  A    between atoms: C6_9  and  N2_11 
REMARK    4  A    between atoms: N2_11  and  C7_13 
REMARK    5  A    between atoms: C7_13  and  C8_14 
REMARK    6  A    between atoms: C8_14  and  C9_15 
REMARK    7  A    between atoms: C9_15  and  N3_16 
REMARK    8  A    between atoms: C14_23  and  O2_24 
ROOT
HETATM    1  N1  UNL     1       0.524  79.525   7.075  1.00  0.00    -0.336 N 
ATOM      2  H1  UNL     1       0.831  79.976   7.936  1.00  0.00     0.168 HD
HETATM    3  C6  UNL     1       0.531  78.256   7.078  1.00  0.00     0.155 C 
HETATM    4  S1  UNL     1       1.063  77.353   8.564  1.00  0.00    -0.013 SA
ENDROOT
BRANCH   3   5
HETATM    5  N2  UNL     1       0.102  77.605   5.899  1.00  0.00    -0.350 N 
ATOM      6  H2  UNL     1       0.548  77.852   5.015  1.00  0.00     0.167 HD
BRANCH   5   7
HETATM    7  C7  UNL     1      -0.905  76.640   5.891  1.00  0.00     0.065 C 
BRANCH   7   8
HETATM    8  C8  UNL     1      -2.165  77.090   6.584  1.00  0.00     0.065 C 
BRANCH   8   9
HETATM    9  C9  UNL     1      -3.353  77.397   5.805  1.00  0.00     0.134 C 
BRANCH   9  10
HETATM   10  N3  UNL     1      -4.073  76.308   5.208  1.00  0.00    -0.351 N 
HETATM   11  C10 UNL     1      -4.721  76.448   4.024  1.00  0.00     0.108 A 
HETATM   12  C11 UNL     1      -5.337  75.255   3.763  1.00  0.00     0.106 A 
HETATM   13  N4  UNL     1      -5.050  74.429   4.780  1.00  0.00    -0.361 N 
HETATM   14  C12 UNL     1      -4.282  75.065   5.660  1.00  0.00     0.182 A 
ATOM     15  H4  UNL     1      -5.370  73.464   4.865  1.00  0.00     0.166 HD
ENDBRANCH   9  10
ENDBRANCH   8   9
ENDBRANCH   7   8
ENDBRANCH   5   7
ENDBRANCH   3   5
BRANCH   1  16
HETATM   16  C5  UNL     1       0.152  80.370   6.049  1.00  0.00     0.036 A 
HETATM   17  C4  UNL     1       1.069  80.838   5.134  1.00  0.00     0.032 A 
HETATM   18  C3  UNL     1       0.667  81.641   4.060  1.00  0.00     0.042 A 
HETATM   19  C2  UNL     1      -0.650  81.982   3.891  1.00  0.00     0.101 A 
HETATM   20  C14 UNL     1      -1.571  81.519   4.797  1.00  0.00     0.103 A 
HETATM   21  C13 UNL     1      -1.166  80.718   5.870  1.00  0.00     0.069 A 
BRANCH  19  22
HETATM   22  O1  UNL     1      -1.054  82.795   2.804  1.00  0.00    -0.353 OA
HETATM   23  C1  UNL     1      -0.164  82.967   1.699  1.00  0.00     0.210 C 
ENDBRANCH  19  22
BRANCH  20  24
HETATM   24  O2  UNL     1      -2.898  81.867   4.619  1.00  0.00    -0.353 OA
HETATM   25  C15 UNL     1      -3.927  81.641   5.538  1.00  0.00     0.210 C 
ENDBRANCH  20  24
ENDBRANCH   1  16
TORSDOF 8
ENDMDL
