MODEL 17
REMARK VINA RESULT: -5.636777878      2.196      2.957
REMARK  3 active torsions:
REMARK  status: ('A' for Active; 'I' for Inactive)
REMARK    1  A    between atoms: C1_2  and  C2_4 
REMARK    2  A    between atoms: C2_4  and  C3_5 
REMARK    3  A    between atoms: C7_9  and  O3_10 
ROOT
HETATM    1  C3  UNL     1      14.478  14.220  42.063  1.00  0.00    -0.046 A 
HETATM    2  C4  UNL     1      15.234  13.539  41.142  1.00  0.00     0.008 A 
HETATM    3  C5  UNL     1      16.223  14.215  40.453  1.00  0.00     0.003 A 
HETATM    4  C6  UNL     1      16.468  15.567  40.675  1.00  0.00     0.036 A 
HETATM    5  C7  UNL     1      15.709  16.251  41.602  1.00  0.00     0.066 A 
HETATM    6  C8  UNL     1      14.723  15.573  42.284  1.00  0.00     0.044 A 
ENDROOT
BRANCH   1   7
HETATM    7  C2  UNL     1      13.421  13.547  42.814  1.00  0.00     0.151 C 
BRANCH   7   8
HETATM    8  C1  UNL     1      13.133  12.177  42.312  1.00  0.00     0.176 C 
HETATM    9  O1  UNL     1      12.478  12.058  41.226  1.00  0.00    -0.648 OA
HETATM   10  O2  UNL     1      13.550  11.038  42.982  1.00  0.00    -0.648 OA
ENDBRANCH   7   8
ENDBRANCH   1   7
BRANCH   5  11
HETATM   11  O3  UNL     1      15.977  17.598  41.800  1.00  0.00    -0.361 OA
ATOM     12  H3  UNL     1      16.219  17.882  42.674  1.00  0.00     0.217 HD
ENDBRANCH   5  11
TORSDOF 3
ENDMDL
