MODEL 18
REMARK VINA RESULT: -5.487368472      3.637      4.302
REMARK  3 active torsions:
REMARK  status: ('A' for Active; 'I' for Inactive)
REMARK    1  A    between atoms: C1_2  and  C2_4 
REMARK    2  A    between atoms: C2_4  and  C3_5 
REMARK    3  A    between atoms: C7_9  and  O3_10 
ROOT
HETATM    1  C3  UNL     1      13.892  15.023  42.817  1.00  0.00    -0.046 A 
HETATM    2  C4  UNL     1      13.288  16.246  42.975  1.00  0.00     0.008 A 
HETATM    3  C5  UNL     1      13.868  17.360  42.399  1.00  0.00     0.003 A 
HETATM    4  C6  UNL     1      15.047  17.268  41.665  1.00  0.00     0.036 A 
HETATM    5  C7  UNL     1      15.652  16.039  41.506  1.00  0.00     0.066 A 
HETATM    6  C8  UNL     1      15.071  14.932  42.083  1.00  0.00     0.044 A 
ENDROOT
BRANCH   1   7
HETATM    7  C2  UNL     1      13.315  13.818  43.409  1.00  0.00     0.151 C 
BRANCH   7   8
HETATM    8  C1  UNL     1      13.067  13.948  44.870  1.00  0.00     0.176 C 
HETATM    9  O1  UNL     1      11.920  13.622  45.318  1.00  0.00    -0.648 OA
HETATM   10  O2  UNL     1      14.035  14.408  45.748  1.00  0.00    -0.648 OA
ENDBRANCH   7   8
ENDBRANCH   1   7
BRANCH   5  11
HETATM   11  O3  UNL     1      16.827  15.980  40.769  1.00  0.00    -0.361 OA
ATOM     12  H3  UNL     1      17.081  15.142  40.398  1.00  0.00     0.217 HD
ENDBRANCH   5  11
TORSDOF 3
ENDMDL
