MODEL 1
REMARK VINA RESULT: -6.785492354      0.000      0.000
REMARK  3 active torsions:
REMARK  status: ('A' for Active; 'I' for Inactive)
REMARK    1  A    between atoms: C1_2  and  C2_4 
REMARK    2  A    between atoms: C2_4  and  C3_5 
REMARK    3  A    between atoms: C7_9  and  O3_10 
ROOT
HETATM    1  C3  UNL     1      14.279  12.447  40.890  1.00  0.00    -0.046 A 
HETATM    2  C4  UNL     1      13.603  12.979  41.959  1.00  0.00     0.008 A 
HETATM    3  C5  UNL     1      14.073  14.143  42.538  1.00  0.00     0.003 A 
HETATM    4  C6  UNL     1      15.213  14.783  42.062  1.00  0.00     0.036 A 
HETATM    5  C7  UNL     1      15.891  14.248  40.986  1.00  0.00     0.066 A 
HETATM    6  C8  UNL     1      15.420  13.088  40.413  1.00  0.00     0.044 A 
ENDROOT
BRANCH   1   7
HETATM    7  C2  UNL     1      13.820  11.219  40.246  1.00  0.00     0.151 C 
BRANCH   7   8
HETATM    8  C1  UNL     1      14.653  10.035  40.588  1.00  0.00     0.176 C 
HETATM    9  O1  UNL     1      14.631   9.610  41.789  1.00  0.00    -0.648 OA
HETATM   10  O2  UNL     1      15.445   9.389  39.653  1.00  0.00    -0.648 OA
ENDBRANCH   7   8
ENDBRANCH   1   7
BRANCH   5  11
HETATM   11  O3  UNL     1      17.024  14.909  40.534  1.00  0.00    -0.361 OA
ATOM     12  H3  UNL     1      17.485  14.547  39.786  1.00  0.00     0.217 HD
ENDBRANCH   5  11
TORSDOF 3
ENDMDL
