MODEL 3
REMARK VINA RESULT: -6.552791220      1.885      2.531
REMARK  2 active torsions:
REMARK  status: ('A' for Active; 'I' for Inactive)
REMARK    1  A    between atoms: C1_2  and  C2_4 
REMARK    2  A    between atoms: C5_7  and  O3_8 
ROOT
HETATM    1  C2  UNL     1      15.277  13.617  40.726  1.00  0.00     0.043 A 
HETATM    2  C3  UNL     1      14.059  13.361  41.320  1.00  0.00     0.021 A 
HETATM    3  C4  UNL     1      13.456  12.121  41.280  1.00  0.00     0.041 A 
HETATM    4  C5  UNL     1      14.063  11.064  40.631  1.00  0.00     0.104 A 
HETATM    5  C6  UNL     1      15.282  11.319  40.036  1.00  0.00     0.150 A 
HETATM    6  F1  UNL     1      15.882  10.279  39.395  1.00  0.00    -0.203 F 
HETATM    7  C7  UNL     1      15.886  12.559  40.075  1.00  0.00     0.063 A 
ENDROOT
BRANCH   1   8
HETATM    8  C1  UNL     1      15.896  14.938  40.781  1.00  0.00     0.209 C 
HETATM    9  O1  UNL     1      15.400  15.783  41.566  1.00  0.00    -0.644 OA
HETATM   10  O2  UNL     1      16.978  15.309  40.033  1.00  0.00    -0.644 OA
ENDBRANCH   1   8
BRANCH   4  11
HETATM   11  O3  UNL     1      13.462   9.814  40.587  1.00  0.00    -0.358 OA
ATOM     12  H3  UNL     1      13.856   9.100  40.100  1.00  0.00     0.217 HD
ENDBRANCH   4  11
TORSDOF 2
ENDMDL
