MODEL 8
REMARK VINA RESULT: -6.339556657      1.836      2.318
REMARK  2 active torsions:
REMARK  status: ('A' for Active; 'I' for Inactive)
REMARK    1  A    between atoms: C1_2  and  C2_4 
REMARK    2  A    between atoms: C5_7  and  O3_8 
ROOT
HETATM    1  C2  UNL     1      15.079  13.746  40.967  1.00  0.00     0.043 A 
HETATM    2  C3  UNL     1      13.897  13.392  41.580  1.00  0.00     0.021 A 
HETATM    3  C4  UNL     1      13.349  12.131  41.472  1.00  0.00     0.041 A 
HETATM    4  C5  UNL     1      13.979  11.152  40.728  1.00  0.00     0.104 A 
HETATM    5  C6  UNL     1      15.162  11.505  40.112  1.00  0.00     0.150 A 
HETATM    6  F1  UNL     1      15.784  10.543  39.378  1.00  0.00    -0.203 F 
HETATM    7  C7  UNL     1      15.710  12.768  40.221  1.00  0.00     0.063 A 
ENDROOT
BRANCH   1   8
HETATM    8  C1  UNL     1      15.640  15.088  41.096  1.00  0.00     0.209 C 
HETATM    9  O1  UNL     1      16.454  15.468  40.217  1.00  0.00    -0.644 OA
HETATM   10  O2  UNL     1      15.335  15.952  42.109  1.00  0.00    -0.644 OA
ENDBRANCH   1   8
BRANCH   4  11
HETATM   11  O3  UNL     1      13.433   9.881  40.614  1.00  0.00    -0.358 OA
ATOM     12  H3  UNL     1      12.533   9.711  40.866  1.00  0.00     0.217 HD
ENDBRANCH   4  11
TORSDOF 2
ENDMDL
