MODEL 11
REMARK VINA RESULT: -6.168306817      2.153      2.636
REMARK  2 active torsions:
REMARK  status: ('A' for Active; 'I' for Inactive)
REMARK    1  A    between atoms: C1_2  and  C2_4 
REMARK    2  A    between atoms: C5_7  and  O3_8 
ROOT
HETATM    1  C2  UNL     1      14.805  14.308  41.764  1.00  0.00     0.043 A 
HETATM    2  C3  UNL     1      13.907  13.264  41.722  1.00  0.00     0.021 A 
HETATM    3  C4  UNL     1      13.000  13.018  42.733  1.00  0.00     0.041 A 
HETATM    4  C5  UNL     1      12.957  13.829  43.850  1.00  0.00     0.104 A 
HETATM    5  C6  UNL     1      13.857  14.874  43.894  1.00  0.00     0.150 A 
HETATM    6  F1  UNL     1      13.816  15.674  44.994  1.00  0.00    -0.203 F 
HETATM    7  C7  UNL     1      14.764  15.120  42.883  1.00  0.00     0.063 A 
ENDROOT
BRANCH   1   8
HETATM    8  C1  UNL     1      15.756  14.548  40.682  1.00  0.00     0.209 C 
HETATM    9  O1  UNL     1      16.003  13.596  39.901  1.00  0.00    -0.644 OA
HETATM   10  O2  UNL     1      16.390  15.739  40.469  1.00  0.00    -0.644 OA
ENDBRANCH   1   8
BRANCH   4  11
HETATM   11  O3  UNL     1      12.048  13.588  44.871  1.00  0.00    -0.358 OA
ATOM     12  H3  UNL     1      11.415  14.248  45.127  1.00  0.00     0.217 HD
ENDBRANCH   4  11
TORSDOF 2
ENDMDL
