MODEL 4
REMARK VINA RESULT: -6.527577398      2.000      4.504
REMARK  2 active torsions:
REMARK  status: ('A' for Active; 'I' for Inactive)
REMARK    1  A    between atoms: C1_2  and  C2_4 
REMARK    2  A    between atoms: C5_7  and  O3_8 
ROOT
HETATM    1  C2  UNL     1      14.423  12.712  40.980  1.00  0.00     0.043 A 
HETATM    2  C3  UNL     1      13.780  13.437  41.961  1.00  0.00     0.021 A 
HETATM    3  C4  UNL     1      14.135  14.730  42.286  1.00  0.00     0.041 A 
HETATM    4  C5  UNL     1      15.169  15.362  41.624  1.00  0.00     0.104 A 
HETATM    5  C6  UNL     1      15.814  14.638  40.643  1.00  0.00     0.150 A 
HETATM    6  F1  UNL     1      16.833  15.259  39.990  1.00  0.00    -0.203 F 
HETATM    7  C7  UNL     1      15.459  13.344  40.318  1.00  0.00     0.063 A 
ENDROOT
BRANCH   1   8
HETATM    8  C1  UNL     1      14.030  11.343  40.655  1.00  0.00     0.209 C 
HETATM    9  O1  UNL     1      12.901  10.953  41.041  1.00  0.00    -0.644 OA
HETATM   10  O2  UNL     1      14.814  10.467  39.959  1.00  0.00    -0.644 OA
ENDBRANCH   1   8
BRANCH   4  11
HETATM   11  O3  UNL     1      15.531  16.664  41.945  1.00  0.00    -0.358 OA
ATOM     12  H3  UNL     1      16.427  16.961  41.839  1.00  0.00     0.217 HD
ENDBRANCH   4  11
TORSDOF 2
ENDMDL
