MODEL 9
REMARK VINA RESULT: -6.311843694      1.217      4.062
REMARK  2 active torsions:
REMARK  status: ('A' for Active; 'I' for Inactive)
REMARK    1  A    between atoms: C1_2  and  C2_4 
REMARK    2  A    between atoms: C5_7  and  O3_8 
ROOT
HETATM    1  C2  UNL     1      14.418  12.508  40.841  1.00  0.00     0.043 A 
HETATM    2  C3  UNL     1      15.455  13.108  40.159  1.00  0.00     0.021 A 
HETATM    3  C4  UNL     1      15.883  14.391  40.431  1.00  0.00     0.041 A 
HETATM    4  C5  UNL     1      15.277  15.139  41.421  1.00  0.00     0.104 A 
HETATM    5  C6  UNL     1      14.239  14.540  42.104  1.00  0.00     0.150 A 
HETATM    6  F1  UNL     1      13.641  15.276  43.080  1.00  0.00    -0.203 F 
HETATM    7  C7  UNL     1      13.810  13.257  41.832  1.00  0.00     0.063 A 
ENDROOT
BRANCH   1   8
HETATM    8  C1  UNL     1      13.981  11.148  40.535  1.00  0.00     0.209 C 
HETATM    9  O1  UNL     1      12.935  10.733  41.091  1.00  0.00    -0.644 OA
HETATM   10  O2  UNL     1      14.639  10.306  39.684  1.00  0.00    -0.644 OA
ENDBRANCH   1   8
BRANCH   4  11
HETATM   11  O3  UNL     1      15.703  16.430  41.700  1.00  0.00    -0.358 OA
ATOM     12  H3  UNL     1      16.078  16.649  42.545  1.00  0.00     0.217 HD
ENDBRANCH   4  11
TORSDOF 2
ENDMDL
