MODEL 5
REMARK VINA RESULT: -6.487331456      0.923      1.350
REMARK  3 active torsions:
REMARK  status: ('A' for Active; 'I' for Inactive)
REMARK    1  A    between atoms: C1_2  and  C2_4 
REMARK    2  A    between atoms: C2_4  and  C3_5 
REMARK    3  A    between atoms: C6_8  and  O3_9 
ROOT
HETATM    1  C3  UNL     1      14.105  12.910  41.380  1.00  0.00    -0.048 A 
HETATM    2  C4  UNL     1      15.107  13.070  40.477  1.00  0.00     0.010 A 
HETATM    3  C5  UNL     1      15.845  14.232  40.442  1.00  0.00     0.037 A 
HETATM    4  C6  UNL     1      15.604  15.265  41.305  1.00  0.00     0.065 A 
HETATM    5  C7  UNL     1      14.601  15.129  42.223  1.00  0.00     0.037 A 
HETATM    6  C8  UNL     1      13.851  13.946  42.258  1.00  0.00     0.010 A 
ENDROOT
BRANCH   1   7
HETATM    7  C2  UNL     1      13.288  11.689  41.451  1.00  0.00     0.151 C 
BRANCH   7   8
HETATM    8  C1  UNL     1      14.003  10.469  41.030  1.00  0.00     0.176 C 
HETATM    9  O1  UNL     1      14.052  10.166  39.798  1.00  0.00    -0.648 OA
HETATM   10  O2  UNL     1      14.641   9.596  41.897  1.00  0.00    -0.648 OA
ENDBRANCH   7   8
ENDBRANCH   1   7
BRANCH   4  11
HETATM   11  O3  UNL     1      16.372  16.430  41.244  1.00  0.00    -0.361 OA
ATOM     12  H3  UNL     1      16.052  17.192  40.777  1.00  0.00     0.217 HD
ENDBRANCH   4  11
TORSDOF 3
ENDMDL
