MODEL 6
REMARK VINA RESULT: -6.376138485      1.042      1.792
REMARK  3 active torsions:
REMARK  status: ('A' for Active; 'I' for Inactive)
REMARK    1  A    between atoms: C1_2  and  C2_4 
REMARK    2  A    between atoms: C2_4  and  C3_5 
REMARK    3  A    between atoms: C6_8  and  O3_9 
ROOT
HETATM    1  C3  UNL     1      14.005  12.978  41.477  1.00  0.00    -0.048 A 
HETATM    2  C4  UNL     1      13.908  14.054  42.300  1.00  0.00     0.010 A 
HETATM    3  C5  UNL     1      14.765  15.123  42.165  1.00  0.00     0.037 A 
HETATM    4  C6  UNL     1      15.741  15.149  41.207  1.00  0.00     0.065 A 
HETATM    5  C7  UNL     1      15.859  14.077  40.367  1.00  0.00     0.037 A 
HETATM    6  C8  UNL     1      14.987  12.990  40.505  1.00  0.00     0.010 A 
ENDROOT
BRANCH   1   7
HETATM    7  C2  UNL     1      13.116  11.811  41.588  1.00  0.00     0.151 C 
BRANCH   7   8
HETATM    8  C1  UNL     1      13.805  10.518  41.409  1.00  0.00     0.176 C 
HETATM    9  O1  UNL     1      14.344   9.955  42.410  1.00  0.00    -0.648 OA
HETATM   10  O2  UNL     1      13.918   9.851  40.200  1.00  0.00    -0.648 OA
ENDBRANCH   7   8
ENDBRANCH   1   7
BRANCH   4  11
HETATM   11  O3  UNL     1      16.593  16.249  41.097  1.00  0.00    -0.361 OA
ATOM     12  H3  UNL     1      17.427  16.168  40.650  1.00  0.00     0.217 HD
ENDBRANCH   4  11
TORSDOF 3
ENDMDL
