MODEL 14
REMARK VINA RESULT: -5.935959048      2.950      3.737
REMARK  3 active torsions:
REMARK  status: ('A' for Active; 'I' for Inactive)
REMARK    1  A    between atoms: C1_2  and  C2_4 
REMARK    2  A    between atoms: C2_4  and  C3_5 
REMARK    3  A    between atoms: C6_8  and  O3_9 
ROOT
HETATM    1  C3  UNL     1      13.895  13.387  42.079  1.00  0.00    -0.048 A 
HETATM    2  C4  UNL     1      14.215  14.637  42.503  1.00  0.00     0.010 A 
HETATM    3  C5  UNL     1      15.238  15.341  41.909  1.00  0.00     0.037 A 
HETATM    4  C6  UNL     1      15.969  14.819  40.878  1.00  0.00     0.065 A 
HETATM    5  C7  UNL     1      15.667  13.562  40.433  1.00  0.00     0.037 A 
HETATM    6  C8  UNL     1      14.625  12.847  41.038  1.00  0.00     0.010 A 
ENDROOT
BRANCH   1   7
HETATM    7  C2  UNL     1      12.814  12.596  42.687  1.00  0.00     0.151 C 
BRANCH   7   8
HETATM    8  C1  UNL     1      12.418  13.061  44.030  1.00  0.00     0.176 C 
HETATM    9  O1  UNL     1      11.204  12.975  44.389  1.00  0.00    -0.648 OA
HETATM   10  O2  UNL     1      13.291  13.606  44.959  1.00  0.00    -0.648 OA
ENDBRANCH   7   8
ENDBRANCH   1   7
BRANCH   4  11
HETATM   11  O3  UNL     1      17.000  15.560  40.297  1.00  0.00    -0.361 OA
ATOM     12  H3  UNL     1      17.647  15.135  39.746  1.00  0.00     0.217 HD
ENDBRANCH   4  11
TORSDOF 3
ENDMDL
