MODEL 8
REMARK VINA RESULT: -5.868581855      1.925      4.669
REMARK  2 active torsions:
REMARK  status: ('A' for Active; 'I' for Inactive)
REMARK    1  A    between atoms: C1_2  and  C2_4 
REMARK    2  A    between atoms: N1_7  and  O3_8 
ROOT
HETATM    1  C2  UNL     1      14.263  12.191  40.942  1.00  0.00     0.047 A 
HETATM    2  C3  UNL     1      15.322  12.598  40.160  1.00  0.00     0.038 A 
HETATM    3  C4  UNL     1      15.908  13.839  40.332  1.00  0.00     0.128 A 
HETATM    4  N1  UNL     1      15.474  14.701  41.266  1.00  0.00    -0.199 N 
HETATM    5  C5  UNL     1      14.442  14.315  42.034  1.00  0.00     0.272 A 
HETATM    6  O4  UNL     1      14.049  15.141  42.906  1.00  0.00    -0.266 OA
HETATM    7  C6  UNL     1      13.826  13.087  41.899  1.00  0.00     0.095 A 
ENDROOT
BRANCH   1   8
HETATM    8  C1  UNL     1      13.638  10.884  40.769  1.00  0.00     0.209 C 
HETATM    9  O1  UNL     1      14.055  10.155  39.835  1.00  0.00    -0.644 OA
HETATM   10  O2  UNL     1      12.630  10.409  41.561  1.00  0.00    -0.644 OA
ENDBRANCH   1   8
BRANCH   4  11
HETATM   11  O3  UNL     1      16.085  15.924  41.403  1.00  0.00    -0.280 OA
ATOM     12  H3  UNL     1      16.673  16.079  42.133  1.00  0.00     0.245 HD
ENDBRANCH   4  11
TORSDOF 2
ENDMDL
