MODEL 2
REMARK VINA RESULT: -6.193468209      1.878      4.412
REMARK  2 active torsions:
REMARK  status: ('A' for Active; 'I' for Inactive)
REMARK    1  A    between atoms: C1_2  and  C2_4 
REMARK    2  A    between atoms: N1_7  and  O3_8 
ROOT
HETATM    1  C2  UNL     1      14.216  12.333  41.048  1.00  0.00     0.047 A 
HETATM    2  C3  UNL     1      13.688  13.138  42.034  1.00  0.00     0.038 A 
HETATM    3  C4  UNL     1      14.227  14.380  42.314  1.00  0.00     0.128 A 
HETATM    4  N1  UNL     1      15.286  14.858  41.639  1.00  0.00    -0.199 N 
HETATM    5  C5  UNL     1      15.809  14.081  40.676  1.00  0.00     0.272 A 
HETATM    6  O4  UNL     1      16.805  14.550  40.055  1.00  0.00    -0.266 OA
HETATM    7  C6  UNL     1      15.305  12.836  40.362  1.00  0.00     0.095 A 
ENDROOT
BRANCH   1   8
HETATM    8  C1  UNL     1      13.654  11.021  40.745  1.00  0.00     0.209 C 
HETATM    9  O1  UNL     1      12.674  10.632  41.427  1.00  0.00    -0.644 OA
HETATM   10  O2  UNL     1      14.131  10.194  39.766  1.00  0.00    -0.644 OA
ENDBRANCH   1   8
BRANCH   4  11
HETATM   11  O3  UNL     1      15.791  16.098  41.950  1.00  0.00    -0.280 OA
ATOM     12  H3  UNL     1      16.335  16.206  42.721  1.00  0.00     0.245 HD
ENDBRANCH   4  11
TORSDOF 2
ENDMDL
