MODEL 4
REMARK VINA RESULT: -6.130568460      2.541      4.144
REMARK  2 active torsions:
REMARK  status: ('A' for Active; 'I' for Inactive)
REMARK    1  A    between atoms: C1_2  and  C2_4 
REMARK    2  A    between atoms: N1_7  and  O3_8 
ROOT
HETATM    1  C2  UNL     1      13.673  14.091  42.774  1.00  0.00     0.047 A 
HETATM    2  C3  UNL     1      13.417  12.912  42.109  1.00  0.00     0.038 A 
HETATM    3  C4  UNL     1      14.201  12.502  41.045  1.00  0.00     0.128 A 
HETATM    4  N1  UNL     1      15.243  13.231  40.614  1.00  0.00    -0.199 N 
HETATM    5  C5  UNL     1      15.501  14.383  41.255  1.00  0.00     0.272 A 
HETATM    6  O4  UNL     1      16.486  15.053  40.833  1.00  0.00    -0.266 OA
HETATM    7  C6  UNL     1      14.748  14.832  42.321  1.00  0.00     0.095 A 
ENDROOT
BRANCH   1   8
HETATM    8  C1  UNL     1      12.853  14.533  43.897  1.00  0.00     0.209 C 
HETATM    9  O1  UNL     1      12.811  13.799  44.915  1.00  0.00    -0.644 OA
HETATM   10  O2  UNL     1      12.130  15.694  43.905  1.00  0.00    -0.644 OA
ENDBRANCH   1   8
BRANCH   4  11
HETATM   11  O3  UNL     1      15.995  12.786  39.553  1.00  0.00    -0.280 OA
ATOM     12  H3  UNL     1      15.614  12.185  38.924  1.00  0.00     0.245 HD
ENDBRANCH   4  11
TORSDOF 2
ENDMDL
