MODEL 1
REMARK VINA RESULT: -6.317214518      0.000      0.000
REMARK  2 active torsions:
REMARK  status: ('A' for Active; 'I' for Inactive)
REMARK    1  A    between atoms: C1_2  and  C2_4 
REMARK    2  A    between atoms: N1_7  and  O3_8 
ROOT
HETATM    1  C2  UNL     1      14.948  12.688  40.774  1.00  0.00     0.047 A 
HETATM    2  C3  UNL     1      13.756  12.497  41.439  1.00  0.00     0.038 A 
HETATM    3  C4  UNL     1      13.115  11.271  41.428  1.00  0.00     0.128 A 
HETATM    4  N1  UNL     1      13.623  10.216  40.771  1.00  0.00    -0.199 N 
HETATM    5  C5  UNL     1      14.784  10.391  40.119  1.00  0.00     0.272 A 
HETATM    6  O4  UNL     1      15.243   9.385  39.507  1.00  0.00    -0.266 OA
HETATM    7  C6  UNL     1      15.459  11.594  40.102  1.00  0.00     0.095 A 
ENDROOT
BRANCH   1   8
HETATM    8  C1  UNL     1      15.632  13.977  40.780  1.00  0.00     0.209 C 
HETATM    9  O1  UNL     1      16.650  14.103  40.056  1.00  0.00    -0.644 OA
HETATM   10  O2  UNL     1      15.231  15.051  41.525  1.00  0.00    -0.644 OA
ENDBRANCH   1   8
BRANCH   4  11
HETATM   11  O3  UNL     1      12.952   9.016  40.785  1.00  0.00    -0.280 OA
ATOM     12  H3  UNL     1      12.443   8.751  40.028  1.00  0.00     0.245 HD
ENDBRANCH   4  11
TORSDOF 2
ENDMDL
