MODEL 1
REMARK VINA RESULT: -6.551984033      0.000      0.000
REMARK  2 active torsions:
REMARK  status: ('A' for Active; 'I' for Inactive)
REMARK    1  A    between atoms: C1_2  and  C2_4 
REMARK    2  A    between atoms: N1_9  and  O4_10 
ROOT
HETATM    1  C2  UNL     1      14.499  11.974  41.023  1.00  0.00     0.059 A 
HETATM    2  C3  UNL     1      13.449  12.284  41.863  1.00  0.00     0.025 A 
HETATM    3  C4  UNL     1      12.555  11.288  42.274  1.00  0.00     0.078 A 
HETATM    4  C5  UNL     1      12.752  10.002  41.820  1.00  0.00     0.271 A 
HETATM    5  O3  UNL     1      11.959   9.093  42.178  1.00  0.00    -0.266 OA
HETATM    6  N1  UNL     1      13.776   9.699  41.001  1.00  0.00    -0.198 N 
HETATM    7  C6  UNL     1      14.637  10.679  40.611  1.00  0.00     0.145 A 
ENDROOT
BRANCH   1   8
HETATM    8  C1  UNL     1      15.422  13.009  40.600  1.00  0.00     0.210 C 
HETATM    9  O1  UNL     1      16.189  12.829  39.617  1.00  0.00    -0.644 OA
HETATM   10  O2  UNL     1      15.525  14.240  41.231  1.00  0.00    -0.644 OA
ENDBRANCH   1   8
BRANCH   6  11
HETATM   11  O4  UNL     1      13.958   8.411  40.558  1.00  0.00    -0.280 OA
ATOM     12  H4  UNL     1      14.336   8.243  39.702  1.00  0.00     0.245 HD
ENDBRANCH   6  11
TORSDOF 2
ENDMDL
