MODEL 9
REMARK VINA RESULT: -6.003139405      1.724      4.428
REMARK  2 active torsions:
REMARK  status: ('A' for Active; 'I' for Inactive)
REMARK    1  A    between atoms: C1_2  and  C2_4 
REMARK    2  A    between atoms: N1_9  and  O4_10 
ROOT
HETATM    1  C2  UNL     1      13.546  10.985  41.525  1.00  0.00     0.059 A 
HETATM    2  C3  UNL     1      14.455  11.449  40.598  1.00  0.00     0.025 A 
HETATM    3  C4  UNL     1      14.957  12.752  40.691  1.00  0.00     0.078 A 
HETATM    4  C5  UNL     1      14.520  13.551  41.726  1.00  0.00     0.271 A 
HETATM    5  O3  UNL     1      14.960  14.726  41.826  1.00  0.00    -0.266 OA
HETATM    6  N1  UNL     1      13.633  13.099  42.631  1.00  0.00    -0.198 N 
HETATM    7  C6  UNL     1      13.155  11.829  42.526  1.00  0.00     0.145 A 
ENDROOT
BRANCH   1   8
HETATM    8  C1  UNL     1      13.028   9.634  41.425  1.00  0.00     0.210 C 
HETATM    9  O1  UNL     1      13.535   8.805  40.625  1.00  0.00    -0.644 OA
HETATM   10  O2  UNL     1      11.963   9.171  42.185  1.00  0.00    -0.644 OA
ENDBRANCH   1   8
BRANCH   6  11
HETATM   11  O4  UNL     1      13.208  13.909  43.657  1.00  0.00    -0.280 OA
ATOM     12  H4  UNL     1      13.501  13.754  44.548  1.00  0.00     0.245 HD
ENDBRANCH   6  11
TORSDOF 2
ENDMDL
