MODEL 14
REMARK VINA RESULT: -5.758553517      2.201      4.799
REMARK  2 active torsions:
REMARK  status: ('A' for Active; 'I' for Inactive)
REMARK    1  A    between atoms: C1_2  and  C2_4 
REMARK    2  A    between atoms: N1_9  and  O4_10 
ROOT
HETATM    1  C2  UNL     1      14.153  12.248  41.231  1.00  0.00     0.059 A 
HETATM    2  C3  UNL     1      15.213  12.618  40.428  1.00  0.00     0.025 A 
HETATM    3  C4  UNL     1      15.879  13.829  40.651  1.00  0.00     0.078 A 
HETATM    4  C5  UNL     1      15.449  14.633  41.685  1.00  0.00     0.271 A 
HETATM    5  O3  UNL     1      16.035  15.725  41.901  1.00  0.00    -0.266 OA
HETATM    6  N1  UNL     1      14.416  14.273  42.468  1.00  0.00    -0.198 N 
HETATM    7  C6  UNL     1      13.779  13.091  42.238  1.00  0.00     0.145 A 
ENDROOT
BRANCH   1   8
HETATM    8  C1  UNL     1      13.465  10.993  40.996  1.00  0.00     0.210 C 
HETATM    9  O1  UNL     1      12.451  10.675  41.671  1.00  0.00    -0.644 OA
HETATM   10  O2  UNL     1      13.866  10.075  40.036  1.00  0.00    -0.644 OA
ENDBRANCH   1   8
BRANCH   6  11
HETATM   11  O4  UNL     1      14.001  15.086  43.495  1.00  0.00    -0.280 OA
ATOM     12  H4  UNL     1      13.339  14.790  44.109  1.00  0.00     0.245 HD
ENDBRANCH   6  11
TORSDOF 2
ENDMDL
