MODEL 3
REMARK VINA RESULT: -6.387595705      1.055      1.100
REMARK  2 active torsions:
REMARK  status: ('A' for Active; 'I' for Inactive)
REMARK    1  A    between atoms: C1_2  and  C2_4 
REMARK    2  A    between atoms: N1_9  and  O4_10 
ROOT
HETATM    1  C2  UNL     1      14.796  12.435  40.958  1.00  0.00     0.059 A 
HETATM    2  C3  UNL     1      13.603  12.289  41.635  1.00  0.00     0.025 A 
HETATM    3  C4  UNL     1      12.934  11.060  41.629  1.00  0.00     0.078 A 
HETATM    4  C5  UNL     1      13.496  10.010  40.934  1.00  0.00     0.271 A 
HETATM    5  O3  UNL     1      12.909   8.897  40.917  1.00  0.00    -0.266 OA
HETATM    6  N1  UNL     1      14.660  10.153  40.274  1.00  0.00    -0.198 N 
HETATM    7  C6  UNL     1      15.298  11.355  40.290  1.00  0.00     0.145 A 
ENDROOT
BRANCH   1   8
HETATM    8  C1  UNL     1      15.487  13.711  40.967  1.00  0.00     0.210 C 
HETATM    9  O1  UNL     1      16.375  13.972  40.114  1.00  0.00    -0.644 OA
HETATM   10  O2  UNL     1      15.224  14.711  41.893  1.00  0.00    -0.644 OA
ENDBRANCH   1   8
BRANCH   6  11
HETATM   11  O4  UNL     1      15.206   9.096  39.586  1.00  0.00    -0.280 OA
ATOM     12  H4  UNL     1      15.910   8.584  39.967  1.00  0.00     0.245 HD
ENDBRANCH   6  11
TORSDOF 2
ENDMDL
