MODEL 5
REMARK VINA RESULT: -6.169554906      2.064      4.529
REMARK  2 active torsions:
REMARK  status: ('A' for Active; 'I' for Inactive)
REMARK    1  A    between atoms: C1_2  and  C2_4 
REMARK    2  A    between atoms: N1_9  and  O4_10 
ROOT
HETATM    1  C2  UNL     1      13.230  10.952  41.998  1.00  0.00     0.059 A 
HETATM    2  C3  UNL     1      13.859  11.726  41.044  1.00  0.00     0.025 A 
HETATM    3  C4  UNL     1      14.207  13.051  41.328  1.00  0.00     0.078 A 
HETATM    4  C5  UNL     1      13.906  13.556  42.575  1.00  0.00     0.271 A 
HETATM    5  O3  UNL     1      14.211  14.746  42.849  1.00  0.00    -0.266 OA
HETATM    6  N1  UNL     1      13.293  12.801  43.505  1.00  0.00    -0.198 N 
HETATM    7  C6  UNL     1      12.962  11.513  43.213  1.00  0.00     0.145 A 
ENDROOT
BRANCH   1   8
HETATM    8  C1  UNL     1      12.871   9.578  41.700  1.00  0.00     0.210 C 
HETATM    9  O1  UNL     1      11.975   8.987  42.357  1.00  0.00    -0.644 OA
HETATM   10  O2  UNL     1      13.474   8.837  40.694  1.00  0.00    -0.644 OA
ENDBRANCH   1   8
BRANCH   6  11
HETATM   11  O4  UNL     1      13.001  13.320  44.744  1.00  0.00    -0.280 OA
ATOM     12  H4  UNL     1      12.483  12.823  45.366  1.00  0.00     0.245 HD
ENDBRANCH   6  11
TORSDOF 2
ENDMDL
