MODEL 1
REMARK VINA RESULT: -6.890431302      0.000      0.000
REMARK  4 active torsions:
REMARK  status: ('A' for Active; 'I' for Inactive)
REMARK    1  A    between atoms: C1_2  and  C2_4 
REMARK    2  A    between atoms: C2_4  and  C3_5 
REMARK    3  A    between atoms: C6_8  and  O3_9 
REMARK    4  A    between atoms: C7_11  and  O4_12 
ROOT
HETATM    1  C3  UNL     1      13.544  12.213  41.741  1.00  0.00    -0.045 A 
HETATM    2  C4  UNL     1      13.298  13.164  42.687  1.00  0.00     0.010 A 
HETATM    3  C5  UNL     1      14.070  14.317  42.813  1.00  0.00     0.040 A 
HETATM    4  C6  UNL     1      15.127  14.510  41.953  1.00  0.00     0.098 A 
HETATM    5  C7  UNL     1      15.403  13.565  40.982  1.00  0.00     0.099 A 
HETATM    6  C8  UNL     1      14.618  12.439  40.887  1.00  0.00     0.047 A 
ENDROOT
BRANCH   1   7
HETATM    7  C2  UNL     1      12.744  10.990  41.590  1.00  0.00     0.151 C 
BRANCH   7   8
HETATM    8  C1  UNL     1      13.573   9.757  41.758  1.00  0.00     0.176 C 
HETATM    9  O1  UNL     1      13.702   9.012  40.746  1.00  0.00    -0.648 OA
HETATM   10  O2  UNL     1      14.188   9.390  42.925  1.00  0.00    -0.648 OA
ENDBRANCH   7   8
ENDBRANCH   1   7
BRANCH   5  11
HETATM   11  O4  UNL     1      16.463  13.756  40.116  1.00  0.00    -0.358 OA
ATOM     12  H4  UNL     1      16.322  13.719  39.177  1.00  0.00     0.217 HD
ENDBRANCH   5  11
BRANCH   4  13
HETATM   13  O3  UNL     1      15.893  15.661  42.085  1.00  0.00    -0.358 OA
ATOM     14  H3  UNL     1      16.837  15.577  42.139  1.00  0.00     0.217 HD
ENDBRANCH   4  13
TORSDOF 4
ENDMDL
