MODEL 2
REMARK VINA RESULT: -6.767700260      0.744      1.875
REMARK  4 active torsions:
REMARK  status: ('A' for Active; 'I' for Inactive)
REMARK    1  A    between atoms: C1_2  and  C2_4 
REMARK    2  A    between atoms: C2_4  and  C3_5 
REMARK    3  A    between atoms: C6_8  and  O3_9 
REMARK    4  A    between atoms: C7_11  and  O4_12 
ROOT
HETATM    1  C3  UNL     1      13.672  12.073  41.537  1.00  0.00    -0.045 A 
HETATM    2  C4  UNL     1      14.659  12.219  40.607  1.00  0.00     0.010 A 
HETATM    3  C5  UNL     1      15.492  13.335  40.565  1.00  0.00     0.040 A 
HETATM    4  C6  UNL     1      15.319  14.334  41.493  1.00  0.00     0.098 A 
HETATM    5  C7  UNL     1      14.328  14.217  42.451  1.00  0.00     0.099 A 
HETATM    6  C8  UNL     1      13.524  13.100  42.462  1.00  0.00     0.047 A 
ENDROOT
BRANCH   1   7
HETATM    7  C2  UNL     1      12.781  10.906  41.601  1.00  0.00     0.151 C 
BRANCH   7   8
HETATM    8  C1  UNL     1      13.544   9.627  41.729  1.00  0.00     0.176 C 
HETATM    9  O1  UNL     1      13.469   8.817  40.764  1.00  0.00    -0.648 OA
HETATM   10  O2  UNL     1      14.306   9.286  42.814  1.00  0.00    -0.648 OA
ENDBRANCH   7   8
ENDBRANCH   1   7
BRANCH   5  11
HETATM   11  O4  UNL     1      14.150  15.219  43.386  1.00  0.00    -0.358 OA
ATOM     12  H4  UNL     1      13.299  15.631  43.484  1.00  0.00     0.217 HD
ENDBRANCH   5  11
BRANCH   4  13
HETATM   13  O3  UNL     1      16.152  15.444  41.445  1.00  0.00    -0.358 OA
ATOM     14  H3  UNL     1      16.924  15.460  41.998  1.00  0.00     0.217 HD
ENDBRANCH   4  13
TORSDOF 4
ENDMDL
