MODEL 3
REMARK VINA RESULT: -6.766539062      1.350      2.339
REMARK  4 active torsions:
REMARK  status: ('A' for Active; 'I' for Inactive)
REMARK    1  A    between atoms: C1_2  and  C2_4 
REMARK    2  A    between atoms: C2_4  and  C3_5 
REMARK    3  A    between atoms: C6_8  and  O3_9 
REMARK    4  A    between atoms: C7_11  and  O4_12 
ROOT
HETATM    1  C3  UNL     1      14.322  11.969  40.862  1.00  0.00    -0.045 A 
HETATM    2  C4  UNL     1      15.388  12.550  40.242  1.00  0.00     0.010 A 
HETATM    3  C5  UNL     1      15.908  13.781  40.636  1.00  0.00     0.040 A 
HETATM    4  C6  UNL     1      15.328  14.444  41.692  1.00  0.00     0.098 A 
HETATM    5  C7  UNL     1      14.245  13.883  42.343  1.00  0.00     0.099 A 
HETATM    6  C8  UNL     1      13.759  12.665  41.926  1.00  0.00     0.047 A 
ENDROOT
BRANCH   1   7
HETATM    7  C2  UNL     1      13.755  10.673  40.463  1.00  0.00     0.151 C 
BRANCH   7   8
HETATM    8  C1  UNL     1      14.740   9.560  40.626  1.00  0.00     0.176 C 
HETATM    9  O1  UNL     1      14.936   9.136  41.799  1.00  0.00    -0.648 OA
HETATM   10  O2  UNL     1      15.434   8.984  39.595  1.00  0.00    -0.648 OA
ENDBRANCH   7   8
ENDBRANCH   1   7
BRANCH   5  11
HETATM   11  O4  UNL     1      13.658  14.546  43.404  1.00  0.00    -0.358 OA
ATOM     12  H4  UNL     1      13.672  14.159  44.272  1.00  0.00     0.217 HD
ENDBRANCH   5  11
BRANCH   4  13
HETATM   13  O3  UNL     1      15.851  15.671  42.078  1.00  0.00    -0.358 OA
ATOM     14  H3  UNL     1      15.529  16.074  42.876  1.00  0.00     0.217 HD
ENDBRANCH   4  13
TORSDOF 4
ENDMDL
