MODEL 6
REMARK VINA RESULT: -6.240414696      1.370      4.684
REMARK  4 active torsions:
REMARK  status: ('A' for Active; 'I' for Inactive)
REMARK    1  A    between atoms: C1_2  and  C2_4 
REMARK    2  A    between atoms: C2_4  and  C3_5 
REMARK    3  A    between atoms: C6_8  and  O3_9 
REMARK    4  A    between atoms: C7_11  and  O4_12 
ROOT
HETATM    1  C3  UNL     1      15.121  12.485  40.619  1.00  0.00    -0.045 A 
HETATM    2  C4  UNL     1      13.917  12.414  41.257  1.00  0.00     0.010 A 
HETATM    3  C5  UNL     1      13.218  11.219  41.412  1.00  0.00     0.040 A 
HETATM    4  C6  UNL     1      13.755  10.060  40.903  1.00  0.00     0.098 A 
HETATM    5  C7  UNL     1      14.974  10.097  40.251  1.00  0.00     0.099 A 
HETATM    6  C8  UNL     1      15.636  11.295  40.118  1.00  0.00     0.047 A 
ENDROOT
BRANCH   1   7
HETATM    7  C2  UNL     1      15.876  13.733  40.443  1.00  0.00     0.151 C 
BRANCH   7   8
HETATM    8  C1  UNL     1      15.596  14.714  41.536  1.00  0.00     0.176 C 
HETATM    9  O1  UNL     1      15.996  15.898  41.358  1.00  0.00    -0.648 OA
HETATM   10  O2  UNL     1      14.944  14.409  42.701  1.00  0.00    -0.648 OA
ENDBRANCH   7   8
ENDBRANCH   1   7
BRANCH   5  11
HETATM   11  O4  UNL     1      15.517   8.934  39.738  1.00  0.00    -0.358 OA
ATOM     12  H4  UNL     1      16.370   8.953  39.320  1.00  0.00     0.217 HD
ENDBRANCH   5  11
BRANCH   4  13
HETATM   13  O3  UNL     1      13.051   8.873  41.060  1.00  0.00    -0.358 OA
ATOM     14  H3  UNL     1      13.490   8.132  41.460  1.00  0.00     0.217 HD
ENDBRANCH   4  13
TORSDOF 4
ENDMDL
