MODEL 3
REMARK VINA RESULT: -7.580582464      1.036      1.036
REMARK  9 active torsions:
REMARK  status: ('A' for Active; 'I' for Inactive)
REMARK    1  A    between atoms: N5_13  and  C6_14 
REMARK    2  A    between atoms: C7_16  and  C8_17 
REMARK    3  A    between atoms: C8_17  and  O2_18 
REMARK    4  A    between atoms: C9_20  and  N6_21 
REMARK       I    between atoms: N6_21  and  C10_23 
REMARK    5  A    between atoms: C10_23  and  C11_25 
REMARK    6  A    between atoms: C11_25  and  N7_26 
REMARK    7  A    between atoms: C11_25  and  C12_30 
REMARK    8  A    between atoms: C12_30  and  O4_31 
REMARK    9  A    between atoms: C13_33  and  O5_34 
ROOT
HETATM    1  C6  UNL     1       8.560   6.544 -15.601  1.00  0.00     0.261 C 
HETATM    2  O1  UNL     1       7.783   7.477 -14.951  1.00  0.00    -0.354 OA
HETATM    3  C7  UNL     1       7.901   8.673 -15.617  1.00  0.00     0.173 C 
HETATM    4  C9  UNL     1       8.280   8.373 -17.046  1.00  0.00     0.148 C 
HETATM    5  C13 UNL     1       8.255   6.858 -17.068  1.00  0.00     0.192 C 
ENDROOT
BRANCH   1   6
HETATM    6  N5  UNL     1       8.149   5.191 -15.347  1.00  0.00    -0.297 N 
HETATM    7  C3  UNL     1       7.440   4.786 -14.274  1.00  0.00     0.142 A 
HETATM    8  N3  UNL     1       6.923   5.408 -13.189  1.00  0.00    -0.336 N 
HETATM    9  C4  UNL     1       7.237   3.433 -14.374  1.00  0.00     0.119 A 
HETATM   10  C2  UNL     1       6.236   4.705 -12.253  1.00  0.00     0.183 A 
ATOM     11  H3  UNL     1       7.050   6.414 -13.075  1.00  0.00     0.168 HD
HETATM   12  N2  UNL     1       6.050   3.372 -12.373  1.00  0.00    -0.339 N 
HETATM   13  C1  UNL     1       6.536   2.705 -13.420  1.00  0.00     0.148 A 
ATOM     14  H2  UNL     1       5.529   2.870 -11.653  1.00  0.00     0.167 HD
HETATM   15  N1  UNL     1       6.356   1.302 -13.576  1.00  0.00    -0.080 NA
HETATM   16  N4  UNL     1       7.837   3.054 -15.520  1.00  0.00    -0.346 N 
HETATM   17  C5  UNL     1       8.395   4.107 -16.122  1.00  0.00     0.188 A 
ATOM     18  H4  UNL     1       7.862   2.099 -15.878  1.00  0.00     0.167 HD
ENDBRANCH   1   6
BRANCH   5  19
HETATM   19  O5  UNL     1       9.233   6.360 -17.908  1.00  0.00    -0.389 OA
ATOM     20  H5  UNL     1       9.231   6.805 -18.748  1.00  0.00     0.210 HD
ENDBRANCH   5  19
BRANCH   3  21
HETATM   21  C8  UNL     1       6.553   9.374 -15.631  1.00  0.00     0.198 C 
BRANCH  21  22
HETATM   22  O2  UNL     1       6.747  10.765 -15.683  1.00  0.00    -0.398 OA
ATOM     23  H2  UNL     1       7.416  11.017 -15.058  1.00  0.00     0.209 HD
ENDBRANCH  21  22
ENDBRANCH   3  21
BRANCH   4  24
HETATM   24  N6  UNL     1       9.652   8.787 -17.230  1.00  0.00    -0.349 N 
HETATM   25  C10 UNL     1      10.061  10.140 -17.353  1.00  0.00     0.251 C 
HETATM   26  O3  UNL     1       9.176  11.033 -17.299  1.00  0.00    -0.271 OA
ATOM     27  H6  UNL     1      10.369   8.063 -17.273  1.00  0.00     0.163 HD
BRANCH  25  28
HETATM   28  C11 UNL     1      11.480  10.535 -17.541  1.00  0.00     0.297 C 
BRANCH  28  29
HETATM   29  N7  UNL     1      11.762  11.840 -17.028  1.00  0.00    -0.064 N 
ATOM     30  H73 UNL     1      11.051  12.132 -16.357  1.00  0.00     0.275 HD
ATOM     31  H72 UNL     1      12.574  11.824 -16.411  1.00  0.00     0.275 HD
ATOM     32  H71 UNL     1      11.878  12.536 -17.765  1.00  0.00     0.275 HD
ENDBRANCH  28  29
BRANCH  28  33
HETATM   33  C12 UNL     1      12.344   9.536 -16.793  1.00  0.00     0.206 C 
BRANCH  33  34
HETATM   34  O4  UNL     1      13.644  10.031 -16.782  1.00  0.00    -0.398 OA
ATOM     35  H4  UNL     1      14.145   9.507 -16.169  1.00  0.00     0.209 HD
ENDBRANCH  33  34
ENDBRANCH  28  33
ENDBRANCH  25  28
ENDBRANCH   4  24
TORSDOF 9
ENDMDL
