MODEL 2
REMARK VINA RESULT: -7.693069892      1.673      1.944
REMARK  9 active torsions:
REMARK  status: ('A' for Active; 'I' for Inactive)
REMARK    1  A    between atoms: N5_13  and  C6_14 
REMARK    2  A    between atoms: C7_16  and  C8_17 
REMARK    3  A    between atoms: C8_17  and  O2_18 
REMARK    4  A    between atoms: C9_20  and  N6_21 
REMARK       I    between atoms: N6_21  and  C10_23 
REMARK    5  A    between atoms: C10_23  and  C11_25 
REMARK    6  A    between atoms: C11_25  and  N7_26 
REMARK    7  A    between atoms: C11_25  and  C12_30 
REMARK    8  A    between atoms: C12_30  and  O4_31 
REMARK    9  A    between atoms: C13_33  and  O5_34 
ROOT
HETATM    1  C6  UNL     1       9.094   6.133 -15.619  1.00  0.00     0.261 C 
HETATM    2  O1  UNL     1       8.289   7.248 -15.698  1.00  0.00    -0.354 OA
HETATM    3  C7  UNL     1       8.882   8.148 -16.549  1.00  0.00     0.173 C 
HETATM    4  C9  UNL     1       9.774   7.376 -17.491  1.00  0.00     0.148 C 
HETATM    5  C13 UNL     1       9.499   5.943 -17.084  1.00  0.00     0.192 C 
ENDROOT
BRANCH   1   6
HETATM    6  N5  UNL     1       8.387   4.954 -15.203  1.00  0.00    -0.297 N 
HETATM    7  C3  UNL     1       7.660   4.846 -14.072  1.00  0.00     0.142 A 
HETATM    8  N3  UNL     1       7.365   5.684 -13.051  1.00  0.00    -0.336 N 
HETATM    9  C4  UNL     1       7.136   3.580 -14.013  1.00  0.00     0.119 A 
HETATM   10  C2  UNL     1       6.582   5.269 -12.022  1.00  0.00     0.183 A 
ATOM     11  H3  UNL     1       7.734   6.635 -13.054  1.00  0.00     0.168 HD
HETATM   12  N2  UNL     1       6.078   4.016 -11.986  1.00  0.00    -0.339 N 
HETATM   13  C1  UNL     1       6.334   3.146 -12.963  1.00  0.00     0.148 A 
ATOM     14  H2  UNL     1       5.492   3.731 -11.200  1.00  0.00     0.167 HD
HETATM   15  N1  UNL     1       5.817   1.821 -12.955  1.00  0.00    -0.080 NA
HETATM   16  N4  UNL     1       7.566   2.951 -15.125  1.00  0.00    -0.346 N 
HETATM   17  C5  UNL     1       8.325   3.769 -15.856  1.00  0.00     0.188 A 
ATOM     18  H4  UNL     1       7.344   1.986 -15.372  1.00  0.00     0.167 HD
ENDBRANCH   1   6
BRANCH   5  19
HETATM   19  O5  UNL     1      10.639   5.170 -17.198  1.00  0.00    -0.389 OA
ATOM     20  H5  UNL     1      10.555   4.526 -17.892  1.00  0.00     0.210 HD
ENDBRANCH   5  19
BRANCH   3  21
HETATM   21  C8  UNL     1       7.812   8.835 -17.381  1.00  0.00     0.198 C 
BRANCH  21  22
HETATM   22  O2  UNL     1       6.647   8.049 -17.392  1.00  0.00    -0.398 OA
ATOM     23  H2  UNL     1       6.070   8.324 -16.689  1.00  0.00     0.209 HD
ENDBRANCH  21  22
ENDBRANCH   3  21
BRANCH   4  24
HETATM   24  N6  UNL     1      11.143   7.673 -17.137  1.00  0.00    -0.349 N 
HETATM   25  C10 UNL     1      11.860   8.798 -17.622  1.00  0.00     0.251 C 
HETATM   26  O3  UNL     1      11.268   9.584 -18.407  1.00  0.00    -0.271 OA
ATOM     27  H6  UNL     1      11.622   7.037 -16.501  1.00  0.00     0.163 HD
BRANCH  25  28
HETATM   28  C11 UNL     1      13.268   9.076 -17.240  1.00  0.00     0.297 C 
BRANCH  28  29
HETATM   29  N7  UNL     1      13.408  10.294 -16.501  1.00  0.00    -0.064 N 
ATOM     30  H73 UNL     1      13.441  11.100 -17.125  1.00  0.00     0.275 HD
ATOM     31  H72 UNL     1      12.553  10.514 -15.993  1.00  0.00     0.275 HD
ATOM     32  H71 UNL     1      14.213  10.282 -15.875  1.00  0.00     0.275 HD
ENDBRANCH  28  29
BRANCH  28  33
HETATM   33  C12 UNL     1      13.747   7.934 -16.365  1.00  0.00     0.206 C 
BRANCH  33  34
HETATM   34  O4  UNL     1      14.498   8.483 -15.331  1.00  0.00    -0.398 OA
ATOM     35  H4  UNL     1      13.987   8.409 -14.534  1.00  0.00     0.209 HD
ENDBRANCH  33  34
ENDBRANCH  28  33
ENDBRANCH  25  28
ENDBRANCH   4  24
TORSDOF 9
ENDMDL
