MODEL 1
REMARK VINA RESULT: -7.842463226      0.000      0.000
REMARK  9 active torsions:
REMARK  status: ('A' for Active; 'I' for Inactive)
REMARK    1  A    between atoms: N5_13  and  C6_14 
REMARK    2  A    between atoms: C7_16  and  C8_17 
REMARK    3  A    between atoms: C8_17  and  O2_18 
REMARK    4  A    between atoms: C9_20  and  N6_21 
REMARK       I    between atoms: N6_21  and  C10_23 
REMARK    5  A    between atoms: C10_23  and  C11_25 
REMARK    6  A    between atoms: C11_25  and  N7_26 
REMARK    7  A    between atoms: C11_25  and  C12_30 
REMARK    8  A    between atoms: C12_30  and  O4_31 
REMARK    9  A    between atoms: C13_33  and  O5_34 
ROOT
HETATM    1  C6  UNL     1       8.369   6.670 -15.107  1.00  0.00     0.261 C 
HETATM    2  O1  UNL     1       7.536   7.507 -14.399  1.00  0.00    -0.354 OA
HETATM    3  C7  UNL     1       7.604   8.758 -14.962  1.00  0.00     0.173 C 
HETATM    4  C9  UNL     1       8.020   8.595 -16.404  1.00  0.00     0.148 C 
HETATM    5  C13 UNL     1       8.071   7.088 -16.550  1.00  0.00     0.192 C 
ENDROOT
BRANCH   1   6
HETATM    6  N5  UNL     1       8.023   5.282 -14.973  1.00  0.00    -0.297 N 
HETATM    7  C3  UNL     1       7.270   4.765 -13.980  1.00  0.00     0.142 A 
HETATM    8  N3  UNL     1       6.647   5.281 -12.895  1.00  0.00    -0.336 N 
HETATM    9  C4  UNL     1       7.154   3.413 -14.184  1.00  0.00     0.119 A 
HETATM   10  C2  UNL     1       5.943   4.478 -12.057  1.00  0.00     0.183 A 
ATOM     11  H3  UNL     1       6.707   6.281 -12.706  1.00  0.00     0.168 HD
HETATM   12  N2  UNL     1       5.844   3.148 -12.278  1.00  0.00    -0.339 N 
HETATM   13  C1  UNL     1       6.436   2.584 -13.330  1.00  0.00     0.148 A 
ATOM     14  H2  UNL     1       5.308   2.569 -11.631  1.00  0.00     0.167 HD
HETATM   15  N1  UNL     1       6.350   1.187 -13.591  1.00  0.00    -0.080 NA
HETATM   16  N4  UNL     1       7.850   3.149 -15.308  1.00  0.00    -0.346 N 
HETATM   17  C5  UNL     1       8.382   4.270 -15.798  1.00  0.00     0.188 A 
ATOM     18  H4  UNL     1       7.954   2.223 -15.725  1.00  0.00     0.167 HD
ENDBRANCH   1   6
BRANCH   5  19
HETATM   19  O5  UNL     1       9.086   6.710 -17.408  1.00  0.00    -0.389 OA
ATOM     20  H5  UNL     1       8.803   6.733 -18.315  1.00  0.00     0.210 HD
ENDBRANCH   5  19
BRANCH   3  21
HETATM   21  C8  UNL     1       6.223   9.392 -14.946  1.00  0.00     0.198 C 
BRANCH  21  22
HETATM   22  O2  UNL     1       5.855   9.685 -13.622  1.00  0.00    -0.398 OA
ATOM     23  H2  UNL     1       5.159  10.331 -13.621  1.00  0.00     0.209 HD
ENDBRANCH  21  22
ENDBRANCH   3  21
BRANCH   4  24
HETATM   24  N6  UNL     1       9.372   9.090 -16.526  1.00  0.00    -0.349 N 
HETATM   25  C10 UNL     1       9.947   9.529 -17.746  1.00  0.00     0.251 C 
HETATM   26  O3  UNL     1       9.237   9.485 -18.785  1.00  0.00    -0.271 OA
ATOM     27  H6  UNL     1       9.947   9.125 -15.685  1.00  0.00     0.163 HD
BRANCH  25  28
HETATM   28  C11 UNL     1      11.341  10.032 -17.841  1.00  0.00     0.297 C 
BRANCH  28  29
HETATM   29  N7  UNL     1      11.532  11.262 -17.135  1.00  0.00    -0.064 N 
ATOM     30  H73 UNL     1      10.699  11.848 -17.188  1.00  0.00     0.275 HD
ATOM     31  H72 UNL     1      11.559  11.106 -16.128  1.00  0.00     0.275 HD
ATOM     32  H71 UNL     1      12.359  11.770 -17.448  1.00  0.00     0.275 HD
ENDBRANCH  28  29
BRANCH  28  33
HETATM   33  C12 UNL     1      12.255   8.988 -17.227  1.00  0.00     0.206 C 
BRANCH  33  34
HETATM   34  O4  UNL     1      11.723   7.738 -17.524  1.00  0.00    -0.398 OA
ATOM     35  H4  UNL     1      12.408   7.094 -17.387  1.00  0.00     0.209 HD
ENDBRANCH  33  34
ENDBRANCH  28  33
ENDBRANCH  25  28
ENDBRANCH   4  24
TORSDOF 9
ENDMDL
