MODEL 3
REMARK VINA RESULT: -6.218579678      1.620      4.355
REMARK  1 active torsions:
REMARK  status: ('A' for Active; 'I' for Inactive)
REMARK    1  A    between atoms: C1_2  and  C2_4 
ROOT
HETATM    1  C2  UNL     1      45.752  25.227  39.873  1.00  0.00     0.239 C 
HETATM    2  N1  UNL     1      45.924  26.408  39.094  1.00  0.00    -0.403 N 
ATOM      3  H1  UNL     1      46.300  26.379  38.146  1.00  0.00     0.154 HD
HETATM    4  C3  UNL     1      45.541  27.624  39.713  1.00  0.00     0.120 C 
HETATM    5  C4  UNL     1      45.081  27.532  41.118  1.00  0.00     0.066 C 
HETATM    6  C5  UNL     1      45.828  26.538  41.929  1.00  0.00     0.048 A 
HETATM    7  C6  UNL     1      46.169  25.353  41.279  1.00  0.00     0.121 A 
HETATM    8  O3  UNL     1      46.807  24.629  42.149  1.00  0.00    -0.236 OA
HETATM    9  N2  UNL     1      46.903  25.237  43.286  1.00  0.00    -0.225 N 
ATOM     10  H2  UNL     1      47.361  24.864  44.116  1.00  0.00     0.198 HD
HETATM   11  C7  UNL     1      46.308  26.434  43.204  1.00  0.00     0.274 A 
HETATM   12  O4  UNL     1      46.183  27.330  44.086  1.00  0.00    -0.266 OA
ENDROOT
BRANCH   1  13
HETATM   13  C1  UNL     1      44.370  24.671  39.788  1.00  0.00     0.203 C 
HETATM   14  O1  UNL     1      43.955  23.837  40.627  1.00  0.00    -0.646 OA
HETATM   15  O2  UNL     1      43.565  25.110  38.749  1.00  0.00    -0.646 OA
ENDBRANCH   1  13
TORSDOF 1
ENDMDL
