MODEL 2
REMARK VINA RESULT: -6.374972425      1.089      1.172
REMARK  1 active torsions:
REMARK  status: ('A' for Active; 'I' for Inactive)
REMARK    1  A    between atoms: C1_2  and  C2_4 
ROOT
HETATM    1  C2  UNL     1      47.335  26.690  43.686  1.00  0.00     0.239 C 
HETATM    2  N1  UNL     1      47.975  25.456  43.374  1.00  0.00    -0.403 N 
ATOM      3  H1  UNL     1      48.942  25.267  43.639  1.00  0.00     0.154 HD
HETATM    4  C3  UNL     1      47.189  24.506  42.674  1.00  0.00     0.120 C 
HETATM    5  C4  UNL     1      45.827  24.937  42.285  1.00  0.00     0.066 C 
HETATM    6  C5  UNL     1      45.744  26.359  41.866  1.00  0.00     0.048 A 
HETATM    7  C6  UNL     1      46.525  27.255  42.595  1.00  0.00     0.121 A 
HETATM    8  O3  UNL     1      46.313  28.428  42.078  1.00  0.00    -0.236 OA
HETATM    9  N2  UNL     1      45.475  28.364  41.096  1.00  0.00    -0.225 N 
ATOM     10  H2  UNL     1      45.158  29.158  40.540  1.00  0.00     0.198 HD
HETATM   11  C7  UNL     1      45.088  27.095  40.921  1.00  0.00     0.274 A 
HETATM   12  O4  UNL     1      44.285  26.610  40.074  1.00  0.00    -0.266 OA
ENDROOT
BRANCH   1  13
HETATM   13  C1  UNL     1      46.540  26.630  44.947  1.00  0.00     0.203 C 
HETATM   14  O1  UNL     1      45.429  27.204  45.040  1.00  0.00    -0.646 OA
HETATM   15  O2  UNL     1      47.073  25.917  46.008  1.00  0.00    -0.646 OA
ENDBRANCH   1  13
TORSDOF 1
ENDMDL
