MODEL 19
REMARK VINA RESULT: -3.292051340     10.481     11.820
REMARK  1 active torsions:
REMARK  status: ('A' for Active; 'I' for Inactive)
REMARK    1  A    between atoms: C1_2  and  C2_4 
ROOT
HETATM    1  C2  UNL     1      38.810  34.552  49.158  1.00  0.00     0.239 C 
HETATM    2  N1  UNL     1      39.660  35.303  50.019  1.00  0.00    -0.403 N 
ATOM      3  H1  UNL     1      39.292  35.998  50.669  1.00  0.00     0.154 HD
HETATM    4  C3  UNL     1      41.048  35.029  49.921  1.00  0.00     0.120 C 
HETATM    5  C4  UNL     1      41.454  34.053  48.884  1.00  0.00     0.066 C 
HETATM    6  C5  UNL     1      40.668  34.150  47.628  1.00  0.00     0.048 A 
HETATM    7  C6  UNL     1      39.306  34.407  47.779  1.00  0.00     0.121 A 
HETATM    8  O3  UNL     1      38.808  34.453  46.581  1.00  0.00    -0.236 OA
HETATM    9  N2  UNL     1      39.718  34.249  45.685  1.00  0.00    -0.225 N 
ATOM     10  H2  UNL     1      39.561  34.239  44.678  1.00  0.00     0.198 HD
HETATM   11  C7  UNL     1      40.899  34.055  46.285  1.00  0.00     0.274 A 
HETATM   12  O4  UNL     1      42.032  33.826  45.773  1.00  0.00    -0.266 OA
ENDROOT
BRANCH   1  13
HETATM   13  C1  UNL     1      38.443  33.220  49.721  1.00  0.00     0.203 C 
HETATM   14  O1  UNL     1      38.331  32.213  48.983  1.00  0.00    -0.646 OA
HETATM   15  O2  UNL     1      38.231  33.138  51.088  1.00  0.00    -0.646 OA
ENDBRANCH   1  13
TORSDOF 1
ENDMDL
