MODEL 17
REMARK VINA RESULT: -3.568449466      9.383     10.449
REMARK  1 active torsions:
REMARK  status: ('A' for Active; 'I' for Inactive)
REMARK    1  A    between atoms: C1_2  and  C2_4 
ROOT
HETATM    1  C2  UNL     1      50.162  33.551  45.145  1.00  0.00     0.239 C 
HETATM    2  N1  UNL     1      49.647  33.958  43.880  1.00  0.00    -0.403 N 
ATOM      3  H1  UNL     1      48.740  33.640  43.539  1.00  0.00     0.154 HD
HETATM    4  C3  UNL     1      50.470  34.829  43.123  1.00  0.00     0.120 C 
HETATM    5  C4  UNL     1      51.795  35.151  43.701  1.00  0.00     0.066 C 
HETATM    6  C5  UNL     1      52.439  34.010  44.399  1.00  0.00     0.048 A 
HETATM    7  C6  UNL     1      51.589  33.191  45.140  1.00  0.00     0.121 A 
HETATM    8  O3  UNL     1      52.337  32.267  45.663  1.00  0.00    -0.236 OA
HETATM    9  N2  UNL     1      53.576  32.420  45.327  1.00  0.00    -0.225 N 
ATOM     10  H2  UNL     1      54.344  31.815  45.619  1.00  0.00     0.198 HD
HETATM   11  C7  UNL     1      53.696  33.494  44.537  1.00  0.00     0.274 A 
HETATM   12  O4  UNL     1      54.729  33.983  43.998  1.00  0.00    -0.266 OA
ENDROOT
BRANCH   1  13
HETATM   13  C1  UNL     1      49.877  34.533  46.231  1.00  0.00     0.203 C 
HETATM   14  O1  UNL     1      50.512  34.506  47.312  1.00  0.00    -0.646 OA
HETATM   15  O2  UNL     1      48.887  35.475  46.000  1.00  0.00    -0.646 OA
ENDBRANCH   1  13
TORSDOF 1
ENDMDL
