MODEL 1
REMARK VINA RESULT: -6.611251910      0.000      0.000
REMARK  1 active torsions:
REMARK  status: ('A' for Active; 'I' for Inactive)
REMARK    1  A    between atoms: C1_2  and  C2_4 
ROOT
HETATM    1  C2  UNL     1      46.752  26.850  43.084  1.00  0.00     0.239 C 
HETATM    2  N1  UNL     1      47.588  25.706  43.239  1.00  0.00    -0.403 N 
ATOM      3  H1  UNL     1      48.485  25.754  43.723  1.00  0.00     0.154 HD
HETATM    4  C3  UNL     1      47.100  24.497  42.682  1.00  0.00     0.120 C 
HETATM    5  C4  UNL     1      45.821  24.583  41.941  1.00  0.00     0.066 C 
HETATM    6  C5  UNL     1      45.668  25.830  41.151  1.00  0.00     0.048 A 
HETATM    7  C6  UNL     1      46.151  26.993  41.748  1.00  0.00     0.121 A 
HETATM    8  O3  UNL     1      45.924  27.957  40.907  1.00  0.00    -0.236 OA
HETATM    9  N2  UNL     1      45.345  27.520  39.837  1.00  0.00    -0.225 N 
ATOM     10  H2  UNL     1      45.071  28.094  39.039  1.00  0.00     0.198 HD
HETATM   11  C7  UNL     1      45.161  26.198  39.937  1.00  0.00     0.274 A 
HETATM   12  O4  UNL     1      44.635  25.396  39.113  1.00  0.00    -0.266 OA
ENDROOT
BRANCH   1  13
HETATM   13  C1  UNL     1      45.704  26.952  44.140  1.00  0.00     0.203 C 
HETATM   14  O1  UNL     1      44.486  26.869  43.854  1.00  0.00    -0.646 OA
HETATM   15  O2  UNL     1      46.127  27.140  45.446  1.00  0.00    -0.646 OA
ENDBRANCH   1  13
TORSDOF 1
ENDMDL
