MODEL 5
REMARK VINA RESULT: -6.498976717      1.630      4.305
REMARK  1 active torsions:
REMARK  status: ('A' for Active; 'I' for Inactive)
REMARK    1  A    between atoms: C1_2  and  C2_4 
ROOT
HETATM    1  C2  UNL     1      57.954  27.479  43.427  1.00  0.00     0.290 C 
HETATM    2  C3  UNL     1      56.554  27.683  43.938  1.00  0.00     0.091 C 
HETATM    3  C4  UNL     1      56.367  27.193  45.311  1.00  0.00     0.048 A 
HETATM    4  C5  UNL     1      57.410  27.451  46.209  1.00  0.00     0.114 A 
HETATM    5  O3  UNL     1      57.053  26.947  47.342  1.00  0.00    -0.237 OA
HETATM    6  N1  UNL     1      55.877  26.387  47.263  1.00  0.00    -0.225 N 
ATOM      7  H1  UNL     1      55.396  25.925  48.035  1.00  0.00     0.198 HD
HETATM    8  C6  UNL     1      55.394  26.507  46.017  1.00  0.00     0.274 A 
HETATM    9  O4  UNL     1      54.304  26.107  45.532  1.00  0.00    -0.266 OA
HETATM   10  C7  UNL     1      58.568  28.191  45.632  1.00  0.00     0.300 C 
HETATM   11  N2  UNL     1      58.962  27.450  44.440  1.00  0.00    -0.055 N 
ATOM     12  H21 UNL     1      59.856  27.782  44.079  1.00  0.00     0.278 HD
ATOM     13  H22 UNL     1      59.225  26.493  44.671  1.00  0.00     0.278 HD
ENDROOT
BRANCH   1  14
HETATM   14  C1  UNL     1      57.955  26.205  42.636  1.00  0.00     0.205 C 
HETATM   15  O1  UNL     1      56.942  25.461  42.674  1.00  0.00    -0.646 OA
HETATM   16  O2  UNL     1      59.019  25.809  41.864  1.00  0.00    -0.646 OA
ENDBRANCH   1  14
TORSDOF 1
ENDMDL
