MODEL 3
REMARK VINA RESULT: -6.847205965      1.640      1.990
REMARK  1 active torsions:
REMARK  status: ('A' for Active; 'I' for Inactive)
REMARK    1  A    between atoms: C1_2  and  C2_4 
ROOT
HETATM    1  C2  UNL     1      56.060  27.195  45.736  1.00  0.00     0.290 C 
HETATM    2  C3  UNL     1      57.032  28.058  44.977  1.00  0.00     0.091 C 
HETATM    3  C4  UNL     1      57.826  27.303  43.998  1.00  0.00     0.048 A 
HETATM    4  C5  UNL     1      57.141  26.329  43.262  1.00  0.00     0.114 A 
HETATM    5  O3  UNL     1      58.006  25.790  42.470  1.00  0.00    -0.237 OA
HETATM    6  N1  UNL     1      59.187  26.324  42.623  1.00  0.00    -0.225 N 
ATOM      7  H1  UNL     1      60.022  26.055  42.103  1.00  0.00     0.198 HD
HETATM    8  C6  UNL     1      59.141  27.278  43.565  1.00  0.00     0.274 A 
HETATM    9  O4  UNL     1      60.055  28.022  44.005  1.00  0.00    -0.266 OA
HETATM   10  C7  UNL     1      55.692  26.199  43.587  1.00  0.00     0.300 C 
HETATM   11  N2  UNL     1      55.619  26.032  45.034  1.00  0.00    -0.055 N 
ATOM     12  H21 UNL     1      54.682  25.758  45.326  1.00  0.00     0.278 HD
ATOM     13  H22 UNL     1      56.132  25.203  45.335  1.00  0.00     0.278 HD
ENDROOT
BRANCH   1  14
HETATM   14  C1  UNL     1      56.719  26.821  47.031  1.00  0.00     0.205 C 
HETATM   15  O1  UNL     1      56.302  25.816  47.660  1.00  0.00    -0.646 OA
HETATM   16  O2  UNL     1      57.764  27.531  47.566  1.00  0.00    -0.646 OA
ENDBRANCH   1  14
TORSDOF 1
ENDMDL
