MODEL 1
REMARK VINA RESULT: -7.385477778      0.000      0.000
REMARK  1 active torsions:
REMARK  status: ('A' for Active; 'I' for Inactive)
REMARK    1  A    between atoms: C1_2  and  C2_4 
ROOT
HETATM    1  C2  UNL     1      56.316  28.208  46.804  1.00  0.00     0.290 C 
HETATM    2  C3  UNL     1      56.682  28.424  45.361  1.00  0.00     0.091 C 
HETATM    3  C4  UNL     1      56.787  27.171  44.601  1.00  0.00     0.048 A 
HETATM    4  C5  UNL     1      55.812  26.201  44.865  1.00  0.00     0.114 A 
HETATM    5  O3  UNL     1      56.080  25.193  44.106  1.00  0.00    -0.237 OA
HETATM    6  N1  UNL     1      57.137  25.418  43.374  1.00  0.00    -0.225 N 
ATOM      7  H1  UNL     1      57.533  24.761  42.701  1.00  0.00     0.198 HD
HETATM    8  C6  UNL     1      57.627  26.639  43.637  1.00  0.00     0.274 A 
HETATM    9  O4  UNL     1      58.625  27.231  43.150  1.00  0.00    -0.266 OA
HETATM   10  C7  UNL     1      54.803  26.589  45.891  1.00  0.00     0.300 C 
HETATM   11  N2  UNL     1      55.562  27.021  47.058  1.00  0.00    -0.055 N 
ATOM     12  H21 UNL     1      54.956  27.135  47.870  1.00  0.00     0.278 HD
ATOM     13  H22 UNL     1      56.161  26.272  47.406  1.00  0.00     0.278 HD
ENDROOT
BRANCH   1  14
HETATM   14  C1  UNL     1      57.594  28.208  47.590  1.00  0.00     0.205 C 
HETATM   15  O1  UNL     1      58.416  27.273  47.420  1.00  0.00    -0.646 OA
HETATM   16  O2  UNL     1      57.910  29.191  48.494  1.00  0.00    -0.646 OA
ENDBRANCH   1  14
TORSDOF 1
ENDMDL
