MODEL 2
REMARK VINA RESULT: -7.314751221      1.856      2.766
REMARK  1 active torsions:
REMARK  status: ('A' for Active; 'I' for Inactive)
REMARK    1  A    between atoms: C1_2  and  C2_4 
ROOT
HETATM    1  C2  UNL     1      56.932  27.731  47.322  1.00  0.00     0.290 C 
HETATM    2  C3  UNL     1      56.654  26.444  46.596  1.00  0.00     0.091 C 
HETATM    3  C4  UNL     1      56.674  26.593  45.134  1.00  0.00     0.048 A 
HETATM    4  C5  UNL     1      57.684  27.408  44.608  1.00  0.00     0.114 A 
HETATM    5  O3  UNL     1      57.528  27.406  43.327  1.00  0.00    -0.237 OA
HETATM    6  N1  UNL     1      56.512  26.667  42.973  1.00  0.00    -0.225 N 
ATOM      7  H1  UNL     1      56.202  26.519  42.013  1.00  0.00     0.198 HD
HETATM    8  C6  UNL     1      55.935  26.130  44.059  1.00  0.00     0.274 A 
HETATM    9  O4  UNL     1      54.940  25.365  44.149  1.00  0.00    -0.266 OA
HETATM   10  C7  UNL     1      58.597  28.010  45.620  1.00  0.00     0.300 C 
HETATM   11  N2  UNL     1      57.735  28.665  46.597  1.00  0.00    -0.055 N 
ATOM     12  H21 UNL     1      58.277  29.254  47.229  1.00  0.00     0.278 HD
ATOM     13  H22 UNL     1      57.159  29.383  46.158  1.00  0.00     0.278 HD
ENDROOT
BRANCH   1  14
HETATM   14  C1  UNL     1      55.606  28.332  47.682  1.00  0.00     0.205 C 
HETATM   15  O1  UNL     1      55.468  29.581  47.634  1.00  0.00    -0.646 OA
HETATM   16  O2  UNL     1      54.527  27.577  48.065  1.00  0.00    -0.646 OA
ENDBRANCH   1  14
TORSDOF 1
ENDMDL
