MODEL 4
REMARK VINA RESULT: -10.336387518      4.667      6.823
REMARK  3 active torsions:
REMARK  status: ('A' for Active; 'I' for Inactive)
REMARK    1  A    between atoms: C1_2  and  C2_4 
REMARK    2  A    between atoms: C8_12  and  N2_13 
REMARK    3  A    between atoms: N2_13  and  C9_15 
ROOT
HETATM    1  C2  UNL     1      22.540 -33.422  14.856  1.00  0.00     0.043 A 
HETATM    2  C3  UNL     1      22.437 -32.054  14.904  1.00  0.00     0.019 A 
HETATM    3  C4  UNL     1      22.399 -31.349  16.092  1.00  0.00     0.016 A 
HETATM    4  C5  UNL     1      22.467 -32.030  17.285  1.00  0.00     0.003 A 
HETATM    5  C6  UNL     1      22.573 -33.426  17.271  1.00  0.00     0.045 A 
HETATM    6  C7  UNL     1      22.607 -34.081  16.057  1.00  0.00     0.048 A 
HETATM    7  N1  UNL     1      22.639 -34.075  18.432  1.00  0.00    -0.341 N 
ATOM      8  H1  UNL     1      22.716 -35.091  18.381  1.00  0.00     0.167 HD
HETATM    9  C8  UNL     1      22.614 -33.541  19.650  1.00  0.00     0.117 A 
HETATM   10  C15 UNL     1      22.510 -32.165  19.695  1.00  0.00     0.022 A 
HETATM   11  C16 UNL     1      22.474 -31.498  20.899  1.00  0.00     0.033 A 
HETATM   12  C17 UNL     1      22.366 -30.117  20.897  1.00  0.00     0.088 A 
HETATM   13  N3  UNL     1      22.299 -29.421  19.776  1.00  0.00    -0.374 N 
ATOM     14  H3  UNL     1      22.222 -28.405  19.823  1.00  0.00     0.164 HD
HETATM   15  C18 UNL     1      22.330 -30.029  18.564  1.00  0.00     0.100 A 
HETATM   16  C19 UNL     1      22.436 -31.396  18.527  1.00  0.00     0.006 A 
ENDROOT
BRANCH   9  17
HETATM   17  N2  UNL     1      22.704 -34.334  20.810  1.00  0.00    -0.342 N 
ATOM     18  H2  UNL     1      23.523 -34.188  21.400  1.00  0.00     0.167 HD
BRANCH  17  19
HETATM   19  C9  UNL     1      21.781 -35.306  21.244  1.00  0.00     0.035 A 
HETATM   20  C10 UNL     1      20.644 -35.070  21.957  1.00  0.00     0.029 A 
HETATM   21  C11 UNL     1      19.777 -36.109  22.333  1.00  0.00     0.004 A 
HETATM   22  C12 UNL     1      20.047 -37.413  21.994  1.00  0.00     0.024 A 
HETATM   23  C13 UNL     1      21.192 -37.671  21.273  1.00  0.00     0.036 A 
HETATM   24 CL1  UNL     1      21.520 -39.344  20.850  1.00  0.00    -0.084 Cl
HETATM   25  C14 UNL     1      22.024 -36.646  20.916  1.00  0.00     0.053 A 
ENDBRANCH  17  19
ENDBRANCH   9  17
BRANCH   1  26
HETATM   26  C1  UNL     1      22.580 -34.155  13.602  1.00  0.00     0.209 C 
HETATM   27  O1  UNL     1      22.280 -35.364  13.599  1.00  0.00    -0.644 OA
HETATM   28  O2  UNL     1      22.943 -33.535  12.433  1.00  0.00    -0.644 OA
ENDBRANCH   1  26
TORSDOF 3
ENDMDL
