MODEL 1
REMARK VINA RESULT: -11.172836753      0.000      0.000
REMARK  3 active torsions:
REMARK  status: ('A' for Active; 'I' for Inactive)
REMARK    1  A    between atoms: C1_2  and  C2_4 
REMARK    2  A    between atoms: C8_12  and  N2_13 
REMARK    3  A    between atoms: N2_13  and  C9_15 
ROOT
HETATM    1  C2  UNL     1      22.629 -33.464  13.089  1.00  0.00     0.043 A 
HETATM    2  C3  UNL     1      22.726 -33.040  11.787  1.00  0.00     0.019 A 
HETATM    3  C4  UNL     1      22.858 -31.709  11.443  1.00  0.00     0.016 A 
HETATM    4  C5  UNL     1      22.896 -30.755  12.433  1.00  0.00     0.003 A 
HETATM    5  C6  UNL     1      22.799 -31.153  13.771  1.00  0.00     0.045 A 
HETATM    6  C7  UNL     1      22.669 -32.496  14.061  1.00  0.00     0.048 A 
HETATM    7  N1  UNL     1      22.837 -30.222  14.721  1.00  0.00    -0.341 N 
ATOM      8  H1  UNL     1      22.765 -30.551  15.684  1.00  0.00     0.167 HD
HETATM    9  C8  UNL     1      22.959 -28.908  14.550  1.00  0.00     0.117 A 
HETATM   10  C15 UNL     1      23.057 -28.485  13.239  1.00  0.00     0.022 A 
HETATM   11  C16 UNL     1      23.186 -27.148  12.936  1.00  0.00     0.033 A 
HETATM   12  C17 UNL     1      23.278 -26.769  11.606  1.00  0.00     0.088 A 
HETATM   13  N3  UNL     1      23.247 -27.650  10.623  1.00  0.00    -0.374 N 
ATOM     14  H3  UNL     1      23.320 -27.325   9.659  1.00  0.00     0.164 HD
HETATM   15  C18 UNL     1      23.121 -28.978  10.867  1.00  0.00     0.100 A 
HETATM   16  C19 UNL     1      23.027 -29.391  12.172  1.00  0.00     0.006 A 
ENDROOT
BRANCH   9  17
HETATM   17  N2  UNL     1      23.000 -28.017  15.640  1.00  0.00    -0.342 N 
ATOM     18  H2  UNL     1      23.157 -27.034  15.419  1.00  0.00     0.167 HD
BRANCH  17  19
HETATM   19  C9  UNL     1      22.848 -28.341  17.003  1.00  0.00     0.035 A 
HETATM   20  C10 UNL     1      22.836 -27.456  18.039  1.00  0.00     0.029 A 
HETATM   21  C11 UNL     1      22.664 -27.876  19.368  1.00  0.00     0.004 A 
HETATM   22  C12 UNL     1      22.502 -29.206  19.674  1.00  0.00     0.024 A 
HETATM   23  C13 UNL     1      22.512 -30.115  18.640  1.00  0.00     0.036 A 
HETATM   24 CL1  UNL     1      22.304 -31.809  19.051  1.00  0.00    -0.084 Cl
HETATM   25  C14 UNL     1      22.680 -29.687  17.351  1.00  0.00     0.053 A 
ENDBRANCH  17  19
ENDBRANCH   9  17
BRANCH   1  26
HETATM   26  C1  UNL     1      22.491 -34.867  13.442  1.00  0.00     0.209 C 
HETATM   27  O1  UNL     1      22.937 -35.261  14.536  1.00  0.00    -0.644 OA
HETATM   28  O2  UNL     1      21.882 -35.753  12.590  1.00  0.00    -0.644 OA
ENDBRANCH   1  26
TORSDOF 3
ENDMDL
