MODEL 2
REMARK VINA RESULT: -11.034244204      1.224      1.525
REMARK  3 active torsions:
REMARK  status: ('A' for Active; 'I' for Inactive)
REMARK    1  A    between atoms: C1_2  and  C2_4 
REMARK    2  A    between atoms: C8_12  and  N2_13 
REMARK    3  A    between atoms: N2_13  and  C9_15 
ROOT
HETATM    1  C2  UNL     1      22.671 -33.276  13.105  1.00  0.00     0.043 A 
HETATM    2  C3  UNL     1      22.752 -32.840  11.805  1.00  0.00     0.019 A 
HETATM    3  C4  UNL     1      22.868 -31.505  11.472  1.00  0.00     0.016 A 
HETATM    4  C5  UNL     1      22.906 -30.558  12.469  1.00  0.00     0.003 A 
HETATM    5  C6  UNL     1      22.825 -30.969  13.805  1.00  0.00     0.045 A 
HETATM    6  C7  UNL     1      22.711 -32.316  14.084  1.00  0.00     0.048 A 
HETATM    7  N1  UNL     1      22.863 -30.045  14.763  1.00  0.00    -0.341 N 
ATOM      8  H1  UNL     1      22.803 -30.383  15.723  1.00  0.00     0.167 HD
HETATM    9  C8  UNL     1      22.971 -28.729  14.602  1.00  0.00     0.117 A 
HETATM   10  C15 UNL     1      23.053 -28.294  13.293  1.00  0.00     0.022 A 
HETATM   11  C16 UNL     1      23.166 -26.954  13.001  1.00  0.00     0.033 A 
HETATM   12  C17 UNL     1      23.242 -26.562  11.674  1.00  0.00     0.088 A 
HETATM   13  N3  UNL     1      23.211 -27.435  10.683  1.00  0.00    -0.374 N 
ATOM     14  H3  UNL     1      23.272 -27.101   9.721  1.00  0.00     0.164 HD
HETATM   15  C18 UNL     1      23.100 -28.766  10.917  1.00  0.00     0.100 A 
HETATM   16  C19 UNL     1      23.022 -29.191  12.219  1.00  0.00     0.006 A 
ENDROOT
BRANCH   9  17
HETATM   17  N2  UNL     1      23.014 -27.847  15.699  1.00  0.00    -0.342 N 
ATOM     18  H2  UNL     1      23.199 -26.867  15.488  1.00  0.00     0.167 HD
BRANCH  17  19
HETATM   19  C9  UNL     1      22.828 -28.177  17.056  1.00  0.00     0.035 A 
HETATM   20  C10 UNL     1      23.006 -29.408  17.613  1.00  0.00     0.029 A 
HETATM   21  C11 UNL     1      22.807 -29.635  18.985  1.00  0.00     0.004 A 
HETATM   22  C12 UNL     1      22.421 -28.615  19.821  1.00  0.00     0.024 A 
HETATM   23  C13 UNL     1      22.236 -27.364  19.276  1.00  0.00     0.036 A 
HETATM   24 CL1  UNL     1      21.743 -26.074  20.362  1.00  0.00    -0.084 Cl
HETATM   25  C14 UNL     1      22.435 -27.162  17.938  1.00  0.00     0.053 A 
ENDBRANCH  17  19
ENDBRANCH   9  17
BRANCH   1  26
HETATM   26  C1  UNL     1      22.550 -34.683  13.447  1.00  0.00     0.209 C 
HETATM   27  O1  UNL     1      23.009 -35.082  14.534  1.00  0.00    -0.644 OA
HETATM   28  O2  UNL     1      21.943 -35.567  12.592  1.00  0.00    -0.644 OA
ENDBRANCH   1  26
TORSDOF 3
ENDMDL
