MODEL 5
REMARK VINA RESULT: -10.223921368      1.637      2.081
REMARK  3 active torsions:
REMARK  status: ('A' for Active; 'I' for Inactive)
REMARK    1  A    between atoms: C1_2  and  C2_4 
REMARK    2  A    between atoms: C8_12  and  N2_13 
REMARK    3  A    between atoms: N2_13  and  C9_15 
ROOT
HETATM    1  C2  UNL     1      22.672 -33.353  13.135  1.00  0.00     0.043 A 
HETATM    2  C3  UNL     1      22.625 -32.934  11.828  1.00  0.00     0.019 A 
HETATM    3  C4  UNL     1      22.768 -31.609  11.463  1.00  0.00     0.016 A 
HETATM    4  C5  UNL     1      22.967 -30.657  12.436  1.00  0.00     0.003 A 
HETATM    5  C6  UNL     1      23.021 -31.051  13.777  1.00  0.00     0.045 A 
HETATM    6  C7  UNL     1      22.872 -32.387  14.088  1.00  0.00     0.048 A 
HETATM    7  N1  UNL     1      23.214 -30.121  14.710  1.00  0.00    -0.341 N 
ATOM      8  H1  UNL     1      23.248 -30.447  15.677  1.00  0.00     0.167 HD
HETATM    9  C8  UNL     1      23.368 -28.814  14.519  1.00  0.00     0.117 A 
HETATM   10  C15 UNL     1      23.320 -28.396  13.203  1.00  0.00     0.022 A 
HETATM   11  C16 UNL     1      23.465 -27.065  12.879  1.00  0.00     0.033 A 
HETATM   12  C17 UNL     1      23.408 -26.690  11.546  1.00  0.00     0.088 A 
HETATM   13  N3  UNL     1      23.219 -27.570  10.579  1.00  0.00    -0.374 N 
ATOM     14  H3  UNL     1      23.185 -27.248   9.611  1.00  0.00     0.164 HD
HETATM   15  C18 UNL     1      23.070 -28.891  10.844  1.00  0.00     0.100 A 
HETATM   16  C19 UNL     1      23.121 -29.300  12.153  1.00  0.00     0.006 A 
ENDROOT
BRANCH   9  17
HETATM   17  N2  UNL     1      23.581 -27.925  15.590  1.00  0.00    -0.342 N 
ATOM     18  H2  UNL     1      24.525 -27.891  15.973  1.00  0.00     0.167 HD
BRANCH  17  19
HETATM   19  C9  UNL     1      22.626 -27.078  16.188  1.00  0.00     0.035 A 
HETATM   20  C10 UNL     1      21.735 -26.285  15.529  1.00  0.00     0.029 A 
HETATM   21  C11 UNL     1      20.811 -25.482  16.216  1.00  0.00     0.004 A 
HETATM   22  C12 UNL     1      20.772 -25.465  17.590  1.00  0.00     0.024 A 
HETATM   23  C13 UNL     1      21.666 -26.260  18.273  1.00  0.00     0.036 A 
HETATM   24 CL1  UNL     1      21.601 -26.224  20.028  1.00  0.00    -0.084 Cl
HETATM   25  C14 UNL     1      22.559 -27.036  17.586  1.00  0.00     0.053 A 
ENDBRANCH  17  19
ENDBRANCH   9  17
BRANCH   1  26
HETATM   26  C1  UNL     1      22.522 -34.749  13.509  1.00  0.00     0.209 C 
HETATM   27  O1  UNL     1      22.957 -35.128  14.613  1.00  0.00    -0.644 OA
HETATM   28  O2  UNL     1      21.913 -35.644  12.667  1.00  0.00    -0.644 OA
ENDBRANCH   1  26
TORSDOF 3
ENDMDL
