MODEL 3
REMARK VINA RESULT: -10.489222592      2.877      5.841
REMARK  3 active torsions:
REMARK  status: ('A' for Active; 'I' for Inactive)
REMARK    1  A    between atoms: C1_2  and  C2_4 
REMARK    2  A    between atoms: C8_12  and  N2_13 
REMARK    3  A    between atoms: N2_13  and  C9_15 
ROOT
HETATM    1  C2  UNL     1      22.651 -27.822  18.024  1.00  0.00     0.043 A 
HETATM    2  C3  UNL     1      22.516 -26.574  17.467  1.00  0.00     0.019 A 
HETATM    3  C4  UNL     1      22.552 -26.358  16.103  1.00  0.00     0.016 A 
HETATM    4  C5  UNL     1      22.729 -27.425  15.253  1.00  0.00     0.003 A 
HETATM    5  C6  UNL     1      22.870 -28.710  15.789  1.00  0.00     0.045 A 
HETATM    6  C7  UNL     1      22.826 -28.871  17.158  1.00  0.00     0.048 A 
HETATM    7  N1  UNL     1      23.041 -29.735  14.957  1.00  0.00    -0.341 N 
ATOM      8  H1  UNL     1      23.139 -30.656  15.384  1.00  0.00     0.167 HD
HETATM    9  C8  UNL     1      23.098 -29.688  13.629  1.00  0.00     0.117 A 
HETATM   10  C15 UNL     1      22.962 -28.431  13.071  1.00  0.00     0.022 A 
HETATM   11  C16 UNL     1      23.005 -28.256  11.707  1.00  0.00     0.033 A 
HETATM   12  C17 UNL     1      22.866 -26.977  11.191  1.00  0.00     0.088 A 
HETATM   13  N3  UNL     1      22.693 -25.923  11.969  1.00  0.00    -0.374 N 
ATOM     14  H3  UNL     1      22.594 -25.001  11.545  1.00  0.00     0.164 HD
HETATM   15  C18 UNL     1      22.644 -26.042  13.319  1.00  0.00     0.100 A 
HETATM   16  C19 UNL     1      22.777 -27.293  13.865  1.00  0.00     0.006 A 
ENDROOT
BRANCH   9  17
HETATM   17  N2  UNL     1      23.270 -30.848  12.850  1.00  0.00    -0.342 N 
ATOM     18  H2  UNL     1      23.620 -30.713  11.901  1.00  0.00     0.167 HD
BRANCH  17  19
HETATM   19  C9  UNL     1      23.012 -32.177  13.243  1.00  0.00     0.035 A 
HETATM   20  C10 UNL     1      22.791 -33.231  12.407  1.00  0.00     0.029 A 
HETATM   21  C11 UNL     1      22.553 -34.525  12.897  1.00  0.00     0.004 A 
HETATM   22  C12 UNL     1      22.533 -34.778  14.248  1.00  0.00     0.024 A 
HETATM   23  C13 UNL     1      22.754 -33.725  15.107  1.00  0.00     0.036 A 
HETATM   24 CL1  UNL     1      22.724 -34.068  16.830  1.00  0.00    -0.084 Cl
HETATM   25  C14 UNL     1      22.984 -32.471  14.612  1.00  0.00     0.053 A 
ENDBRANCH  17  19
ENDBRANCH   9  17
BRANCH   1  26
HETATM   26  C1  UNL     1      22.611 -28.041  19.460  1.00  0.00     0.209 C 
HETATM   27  O1  UNL     1      22.198 -27.126  20.198  1.00  0.00    -0.644 OA
HETATM   28  O2  UNL     1      23.019 -29.231  20.005  1.00  0.00    -0.644 OA
ENDBRANCH   1  26
TORSDOF 3
ENDMDL
