MODEL 6
REMARK VINA RESULT: -10.203562509      3.034      4.840
REMARK  3 active torsions:
REMARK  status: ('A' for Active; 'I' for Inactive)
REMARK    1  A    between atoms: C1_2  and  C2_4 
REMARK    2  A    between atoms: C8_12  and  N2_13 
REMARK    3  A    between atoms: N2_13  and  C9_15 
ROOT
HETATM    1  C2  UNL     1      23.048 -28.721  11.732  1.00  0.00     0.043 A 
HETATM    2  C3  UNL     1      23.041 -29.837  10.932  1.00  0.00     0.019 A 
HETATM    3  C4  UNL     1      22.943 -31.118  11.439  1.00  0.00     0.016 A 
HETATM    4  C5  UNL     1      22.846 -31.302  12.799  1.00  0.00     0.003 A 
HETATM    5  C6  UNL     1      22.850 -30.185  13.642  1.00  0.00     0.045 A 
HETATM    6  C7  UNL     1      22.950 -28.927  13.084  1.00  0.00     0.048 A 
HETATM    7  N1  UNL     1      22.755 -30.375  14.957  1.00  0.00    -0.341 N 
ATOM      8  H1  UNL     1      22.760 -29.537  15.539  1.00  0.00     0.167 HD
HETATM    9  C8  UNL     1      22.655 -31.539  15.593  1.00  0.00     0.117 A 
HETATM   10  C15 UNL     1      22.649 -32.660  14.786  1.00  0.00     0.022 A 
HETATM   11  C16 UNL     1      22.551 -33.920  15.329  1.00  0.00     0.033 A 
HETATM   12  C17 UNL     1      22.550 -35.017  14.481  1.00  0.00     0.088 A 
HETATM   13  N3  UNL     1      22.640 -34.888  13.170  1.00  0.00    -0.374 N 
ATOM     14  H3  UNL     1      22.635 -35.724  12.585  1.00  0.00     0.164 HD
HETATM   15  C18 UNL     1      22.740 -33.669  12.584  1.00  0.00     0.100 A 
HETATM   16  C19 UNL     1      22.743 -32.560  13.392  1.00  0.00     0.006 A 
ENDROOT
BRANCH   9  17
HETATM   17  N2  UNL     1      22.547 -31.613  16.995  1.00  0.00    -0.342 N 
ATOM     18  H2  UNL     1      22.432 -32.544  17.395  1.00  0.00     0.167 HD
BRANCH  17  19
HETATM   19  C9  UNL     1      22.583 -30.537  17.904  1.00  0.00     0.035 A 
HETATM   20  C10 UNL     1      23.011 -29.272  17.631  1.00  0.00     0.029 A 
HETATM   21  C11 UNL     1      22.997 -28.260  18.604  1.00  0.00     0.004 A 
HETATM   22  C12 UNL     1      22.548 -28.511  19.879  1.00  0.00     0.024 A 
HETATM   23  C13 UNL     1      22.112 -29.784  20.173  1.00  0.00     0.036 A 
HETATM   24 CL1  UNL     1      21.543 -30.085  21.807  1.00  0.00    -0.084 Cl
HETATM   25  C14 UNL     1      22.133 -30.757  19.212  1.00  0.00     0.053 A 
ENDBRANCH  17  19
ENDBRANCH   9  17
BRANCH   1  26
HETATM   26  C1  UNL     1      23.151 -27.377  11.189  1.00  0.00     0.209 C 
HETATM   27  O1  UNL     1      23.716 -27.211  10.092  1.00  0.00    -0.644 OA
HETATM   28  O2  UNL     1      22.638 -26.300  11.868  1.00  0.00    -0.644 OA
ENDBRANCH   1  26
TORSDOF 3
ENDMDL
