MODEL 3
REMARK VINA RESULT: -10.690594808      3.494      7.920
REMARK  3 active torsions:
REMARK  status: ('A' for Active; 'I' for Inactive)
REMARK    1  A    between atoms: C7_7  and  N1_8 
REMARK    2  A    between atoms: N1_8  and  C8_10 
REMARK    3  A    between atoms: C11_15  and  C12_16 
ROOT
HETATM    1  C1  UNL     1      23.429 -30.225  10.746  1.00  0.00     0.018 C 
HETATM    2  C2  UNL     1      23.157 -31.141  11.484  1.00  0.00    -0.078 C 
HETATM    3  C3  UNL     1      22.832 -32.212  12.379  1.00  0.00     0.019 A 
HETATM    4  C4  UNL     1      22.684 -33.481  11.867  1.00  0.00     0.021 A 
HETATM    5  C5  UNL     1      22.373 -34.492  12.738  1.00  0.00     0.004 A 
HETATM    6  C6  UNL     1      22.211 -34.268  14.077  1.00  0.00     0.029 A 
HETATM    7  C7  UNL     1      22.352 -32.997  14.639  1.00  0.00     0.035 A 
HETATM    8  C20 UNL     1      22.662 -31.998  13.755  1.00  0.00     0.050 A 
ENDROOT
BRANCH   7   9
HETATM    9  N1  UNL     1      22.168 -32.851  16.029  1.00  0.00    -0.341 N 
ATOM     10  H1  UNL     1      21.965 -33.704  16.550  1.00  0.00     0.167 HD
BRANCH   9  11
HETATM   11  C8  UNL     1      22.233 -31.660  16.781  1.00  0.00     0.134 A 
HETATM   12  N2  UNL     1      22.374 -30.460  16.232  1.00  0.00    -0.340 N 
HETATM   13  C9  UNL     1      22.436 -29.322  16.953  1.00  0.00     0.046 A 
ATOM     14  H2  UNL     1      22.438 -30.396  15.216  1.00  0.00     0.167 HD
HETATM   15  C10 UNL     1      22.583 -28.115  16.304  1.00  0.00     0.048 A 
HETATM   16  C15 UNL     1      22.355 -29.329  18.355  1.00  0.00     0.005 A 
HETATM   17  C11 UNL     1      22.652 -26.926  16.987  1.00  0.00     0.043 A 
HETATM   18  C13 UNL     1      22.571 -26.958  18.358  1.00  0.00     0.019 A 
HETATM   19  C14 UNL     1      22.422 -28.157  19.055  1.00  0.00     0.016 A 
HETATM   20  C16 UNL     1      22.210 -30.546  18.949  1.00  0.00     0.022 A 
HETATM   21  C17 UNL     1      22.123 -30.635  20.319  1.00  0.00     0.103 A 
HETATM   22  C19 UNL     1      22.148 -31.713  18.167  1.00  0.00     0.090 A 
HETATM   23  N3  UNL     1      21.979 -31.848  20.880  1.00  0.00    -0.361 N 
HETATM   24  C18 UNL     1      21.921 -32.952  20.138  1.00  0.00     0.180 A 
ATOM     25  H3  UNL     1      21.913 -31.925  21.895  1.00  0.00     0.166 HD
HETATM   26  N4  UNL     1      22.006 -32.881  18.801  1.00  0.00    -0.349 N 
ATOM     27  H4  UNL     1      21.960 -33.741  18.254  1.00  0.00     0.167 HD
BRANCH  17  28
HETATM   28  C12 UNL     1      22.809 -25.641  16.314  1.00  0.00     0.209 C 
HETATM   29  O1  UNL     1      22.788 -25.556  15.062  1.00  0.00    -0.644 OA
HETATM   30  O2  UNL     1      22.987 -24.468  17.036  1.00  0.00    -0.644 OA
ENDBRANCH  17  28
ENDBRANCH   9  11
ENDBRANCH   7   9
TORSDOF 3
ENDMDL
