MODEL 7
REMARK VINA RESULT: -10.389755146      0.899      1.017
REMARK  3 active torsions:
REMARK  status: ('A' for Active; 'I' for Inactive)
REMARK    1  A    between atoms: C7_7  and  N1_8 
REMARK    2  A    between atoms: N1_8  and  C8_10 
REMARK    3  A    between atoms: C11_15  and  C12_16 
ROOT
HETATM    1  C1  UNL     1      23.511 -30.241  20.279  1.00  0.00     0.018 C 
HETATM    2  C2  UNL     1      23.187 -29.295  19.603  1.00  0.00    -0.078 C 
HETATM    3  C3  UNL     1      22.805 -28.187  18.779  1.00  0.00     0.019 A 
HETATM    4  C4  UNL     1      22.387 -27.024  19.385  1.00  0.00     0.021 A 
HETATM    5  C5  UNL     1      22.026 -25.974  18.582  1.00  0.00     0.004 A 
HETATM    6  C6  UNL     1      22.072 -26.060  17.218  1.00  0.00     0.029 A 
HETATM    7  C7  UNL     1      22.489 -27.220  16.561  1.00  0.00     0.035 A 
HETATM    8  C20 UNL     1      22.846 -28.259  17.379  1.00  0.00     0.050 A 
ENDROOT
BRANCH   7   9
HETATM    9  N1  UNL     1      22.508 -27.226  15.151  1.00  0.00    -0.341 N 
ATOM     10  H1  UNL     1      22.418 -26.318  14.694  1.00  0.00     0.167 HD
BRANCH   9  11
HETATM   11  C8  UNL     1      22.636 -28.343  14.301  1.00  0.00     0.134 A 
HETATM   12  N2  UNL     1      22.493 -29.595  14.719  1.00  0.00    -0.340 N 
HETATM   13  C9  UNL     1      22.616 -30.663  13.904  1.00  0.00     0.046 A 
ATOM     14  H2  UNL     1      22.280 -29.757  15.703  1.00  0.00     0.167 HD
HETATM   15  C10 UNL     1      22.452 -31.931  14.418  1.00  0.00     0.048 A 
HETATM   16  C15 UNL     1      22.909 -30.521  12.538  1.00  0.00     0.005 A 
HETATM   17  C11 UNL     1      22.566 -33.054  13.637  1.00  0.00     0.043 A 
HETATM   18  C13 UNL     1      22.853 -32.890  12.303  1.00  0.00     0.019 A 
HETATM   19  C14 UNL     1      23.027 -31.625  11.741  1.00  0.00     0.016 A 
HETATM   20  C16 UNL     1      23.061 -29.248  12.079  1.00  0.00     0.022 A 
HETATM   21  C17 UNL     1      23.348 -29.028  10.751  1.00  0.00     0.103 A 
HETATM   22  C19 UNL     1      22.925 -28.158  12.955  1.00  0.00     0.090 A 
HETATM   23  N3  UNL     1      23.493 -27.762  10.323  1.00  0.00    -0.361 N 
HETATM   24  C18 UNL     1      23.365 -26.731  11.154  1.00  0.00     0.180 A 
ATOM     25  H3  UNL     1      23.705 -27.588   9.340  1.00  0.00     0.166 HD
HETATM   26  N4  UNL     1      23.085 -26.930  12.452  1.00  0.00    -0.349 N 
ATOM     27  H4  UNL     1      22.993 -26.123  13.070  1.00  0.00     0.167 HD
BRANCH  17  28
HETATM   28  C12 UNL     1      22.396 -34.402  14.167  1.00  0.00     0.209 C 
HETATM   29  O1  UNL     1      22.336 -35.397  13.405  1.00  0.00    -0.644 OA
HETATM   30  O2  UNL     1      22.295 -34.630  15.533  1.00  0.00    -0.644 OA
ENDBRANCH  17  28
ENDBRANCH   9  11
ENDBRANCH   7   9
TORSDOF 3
ENDMDL
