MODEL 2
REMARK VINA RESULT: -10.711291022      2.702      6.281
REMARK  3 active torsions:
REMARK  status: ('A' for Active; 'I' for Inactive)
REMARK    1  A    between atoms: C7_7  and  N1_8 
REMARK    2  A    between atoms: N1_8  and  C8_10 
REMARK    3  A    between atoms: C11_15  and  C12_16 
ROOT
HETATM    1  C1  UNL     1      22.650 -34.766  14.099  1.00  0.00     0.018 C 
HETATM    2  C2  UNL     1      22.695 -33.721  13.497  1.00  0.00    -0.078 C 
HETATM    3  C3  UNL     1      22.744 -32.467  12.805  1.00  0.00     0.019 A 
HETATM    4  C4  UNL     1      23.038 -32.464  11.460  1.00  0.00     0.021 A 
HETATM    5  C5  UNL     1      23.081 -31.256  10.814  1.00  0.00     0.004 A 
HETATM    6  C6  UNL     1      22.843 -30.079  11.468  1.00  0.00     0.029 A 
HETATM    7  C7  UNL     1      22.541 -30.035  12.831  1.00  0.00     0.035 A 
HETATM    8  C20 UNL     1      22.502 -31.251  13.460  1.00  0.00     0.050 A 
ENDROOT
BRANCH   7   9
HETATM    9  N1  UNL     1      22.308 -28.780  13.429  1.00  0.00    -0.341 N 
ATOM     10  H1  UNL     1      22.031 -28.025  12.801  1.00  0.00     0.167 HD
BRANCH   9  11
HETATM   11  C8  UNL     1      22.412 -28.450  14.796  1.00  0.00     0.134 A 
HETATM   12  N2  UNL     1      22.377 -29.354  15.767  1.00  0.00    -0.340 N 
HETATM   13  C9  UNL     1      22.478 -29.037  17.074  1.00  0.00     0.046 A 
ATOM     14  H2  UNL     1      22.269 -30.336  15.513  1.00  0.00     0.167 HD
HETATM   15  C10 UNL     1      22.432 -30.037  18.020  1.00  0.00     0.048 A 
HETATM   16  C15 UNL     1      22.629 -27.708  17.503  1.00  0.00     0.005 A 
HETATM   17  C11 UNL     1      22.530 -29.773  19.364  1.00  0.00     0.043 A 
HETATM   18  C13 UNL     1      22.677 -28.465  19.760  1.00  0.00     0.019 A 
HETATM   19  C14 UNL     1      22.728 -27.421  18.836  1.00  0.00     0.016 A 
HETATM   20  C16 UNL     1      22.669 -26.756  16.529  1.00  0.00     0.022 A 
HETATM   21  C17 UNL     1      22.816 -25.432  16.870  1.00  0.00     0.103 A 
HETATM   22  C19 UNL     1      22.562 -27.122  15.176  1.00  0.00     0.090 A 
HETATM   23  N3  UNL     1      22.853 -24.512  15.890  1.00  0.00    -0.361 N 
HETATM   24  C18 UNL     1      22.751 -24.860  14.610  1.00  0.00     0.180 A 
ATOM     25  H3  UNL     1      22.962 -23.527  16.133  1.00  0.00     0.166 HD
HETATM   26  N4  UNL     1      22.607 -26.148  14.262  1.00  0.00    -0.349 N 
ATOM     27  H4  UNL     1      22.529 -26.390  13.274  1.00  0.00     0.167 HD
BRANCH  17  28
HETATM   28  C12 UNL     1      22.482 -30.821  20.378  1.00  0.00     0.209 C 
HETATM   29  O1  UNL     1      23.532 -31.355  20.810  1.00  0.00    -0.644 OA
HETATM   30  O2  UNL     1      21.273 -31.263  20.898  1.00  0.00    -0.644 OA
ENDBRANCH  17  28
ENDBRANCH   9  11
ENDBRANCH   7   9
TORSDOF 3
ENDMDL
