MODEL 1
REMARK VINA RESULT: -11.070811795      0.000      0.000
REMARK  3 active torsions:
REMARK  status: ('A' for Active; 'I' for Inactive)
REMARK    1  A    between atoms: C7_7  and  N1_8 
REMARK    2  A    between atoms: N1_8  and  C8_10 
REMARK    3  A    between atoms: C11_15  and  C12_16 
ROOT
HETATM    1  C1  UNL     1      22.207 -31.932  19.985  1.00  0.00     0.018 C 
HETATM    2  C2  UNL     1      22.327 -30.817  19.537  1.00  0.00    -0.078 C 
HETATM    3  C3  UNL     1      22.471 -29.504  18.980  1.00  0.00     0.019 A 
HETATM    4  C4  UNL     1      22.364 -28.416  19.816  1.00  0.00     0.021 A 
HETATM    5  C5  UNL     1      22.504 -27.168  19.267  1.00  0.00     0.004 A 
HETATM    6  C6  UNL     1      22.743 -26.990  17.933  1.00  0.00     0.029 A 
HETATM    7  C7  UNL     1      22.859 -28.065  17.049  1.00  0.00     0.035 A 
HETATM    8  C20 UNL     1      22.716 -29.304  17.614  1.00  0.00     0.050 A 
ENDROOT
BRANCH   7   9
HETATM    9  N1  UNL     1      23.107 -27.794  15.688  1.00  0.00    -0.341 N 
ATOM     10  H1  UNL     1      23.360 -26.833  15.457  1.00  0.00     0.167 HD
BRANCH   9  11
HETATM   11  C8  UNL     1      23.044 -28.700  14.609  1.00  0.00     0.134 A 
HETATM   12  N2  UNL     1      22.884 -30.008  14.767  1.00  0.00    -0.340 N 
HETATM   13  C9  UNL     1      22.824 -30.873  13.734  1.00  0.00     0.046 A 
ATOM     14  H2  UNL     1      22.802 -30.376  15.715  1.00  0.00     0.167 HD
HETATM   15  C10 UNL     1      22.655 -32.217  13.984  1.00  0.00     0.048 A 
HETATM   16  C15 UNL     1      22.928 -30.442  12.401  1.00  0.00     0.005 A 
HETATM   17  C11 UNL     1      22.587 -33.144  12.973  1.00  0.00     0.043 A 
HETATM   18  C13 UNL     1      22.692 -32.698  11.677  1.00  0.00     0.019 A 
HETATM   19  C14 UNL     1      22.864 -31.347  11.378  1.00  0.00     0.016 A 
HETATM   20  C16 UNL     1      23.093 -29.105  12.207  1.00  0.00     0.022 A 
HETATM   21  C17 UNL     1      23.203 -28.606  10.929  1.00  0.00     0.103 A 
HETATM   22  C19 UNL     1      23.151 -28.231  13.306  1.00  0.00     0.090 A 
HETATM   23  N3  UNL     1      23.365 -27.282  10.764  1.00  0.00    -0.361 N 
HETATM   24  C18 UNL     1      23.420 -26.456  11.806  1.00  0.00     0.180 A 
ATOM     25  H3  UNL     1      23.447 -26.902   9.821  1.00  0.00     0.166 HD
HETATM   26  N4  UNL     1      23.315 -26.927  13.058  1.00  0.00    -0.349 N 
ATOM     27  H4  UNL     1      23.361 -26.275  13.841  1.00  0.00     0.167 HD
BRANCH  17  28
HETATM   28  C12 UNL     1      22.410 -34.570  13.222  1.00  0.00     0.209 C 
HETATM   29  O1  UNL     1      21.939 -35.329  12.342  1.00  0.00    -0.644 OA
HETATM   30  O2  UNL     1      22.757 -35.135  14.443  1.00  0.00    -0.644 OA
ENDBRANCH  17  28
ENDBRANCH   9  11
ENDBRANCH   7   9
TORSDOF 3
ENDMDL
