MODEL 4
REMARK VINA RESULT: -10.633330312      3.512      7.733
REMARK  3 active torsions:
REMARK  status: ('A' for Active; 'I' for Inactive)
REMARK    1  A    between atoms: C7_7  and  N1_8 
REMARK    2  A    between atoms: N1_8  and  C8_10 
REMARK    3  A    between atoms: C11_15  and  C12_16 
ROOT
HETATM    1  C1  UNL     1      23.397 -30.937  10.721  1.00  0.00     0.018 C 
HETATM    2  C2  UNL     1      23.138 -31.671  11.643  1.00  0.00    -0.078 C 
HETATM    3  C3  UNL     1      22.829 -32.522  12.754  1.00  0.00     0.019 A 
HETATM    4  C4  UNL     1      22.679 -33.872  12.532  1.00  0.00     0.021 A 
HETATM    5  C5  UNL     1      22.383 -34.670  13.606  1.00  0.00     0.004 A 
HETATM    6  C6  UNL     1      22.238 -34.160  14.866  1.00  0.00     0.029 A 
HETATM    7  C7  UNL     1      22.382 -32.798  15.137  1.00  0.00     0.035 A 
HETATM    8  C20 UNL     1      22.676 -32.015  14.053  1.00  0.00     0.050 A 
ENDROOT
BRANCH   7   9
HETATM    9  N1  UNL     1      22.216 -32.354  16.465  1.00  0.00    -0.341 N 
ATOM     10  H1  UNL     1      22.010 -33.072  17.159  1.00  0.00     0.167 HD
BRANCH   9  11
HETATM   11  C8  UNL     1      22.303 -31.030  16.942  1.00  0.00     0.134 A 
HETATM   12  N2  UNL     1      22.386 -29.973  16.144  1.00  0.00    -0.340 N 
HETATM   13  C9  UNL     1      22.469 -28.707  16.602  1.00  0.00     0.046 A 
ATOM     14  H2  UNL     1      22.387 -30.126  15.135  1.00  0.00     0.167 HD
HETATM   15  C10 UNL     1      22.551 -27.665  15.704  1.00  0.00     0.048 A 
HETATM   16  C15 UNL     1      22.474 -28.417  17.976  1.00  0.00     0.005 A 
HETATM   17  C11 UNL     1      22.638 -26.357  16.113  1.00  0.00     0.043 A 
HETATM   18  C13 UNL     1      22.641 -26.098  17.463  1.00  0.00     0.019 A 
HETATM   19  C14 UNL     1      22.559 -27.122  18.406  1.00  0.00     0.016 A 
HETATM   20  C16 UNL     1      22.390 -29.481  18.821  1.00  0.00     0.022 A 
HETATM   21  C17 UNL     1      22.388 -29.278  20.182  1.00  0.00     0.103 A 
HETATM   22  C19 UNL     1      22.304 -30.788  18.310  1.00  0.00     0.090 A 
HETATM   23  N3  UNL     1      22.304 -30.345  20.995  1.00  0.00    -0.361 N 
HETATM   24  C18 UNL     1      22.223 -31.581  20.509  1.00  0.00     0.180 A 
ATOM     25  H3  UNL     1      22.302 -30.204  22.006  1.00  0.00     0.166 HD
HETATM   26  N4  UNL     1      22.224 -31.796  19.184  1.00  0.00    -0.349 N 
ATOM     27  H4  UNL     1      22.163 -32.752  18.836  1.00  0.00     0.167 HD
BRANCH  17  28
HETATM   28  C12 UNL     1      22.727 -25.244  15.175  1.00  0.00     0.209 C 
HETATM   29  O1  UNL     1      23.053 -24.095  15.560  1.00  0.00    -0.644 OA
HETATM   30  O2  UNL     1      22.454 -25.418  13.825  1.00  0.00    -0.644 OA
ENDBRANCH  17  28
ENDBRANCH   9  11
ENDBRANCH   7   9
TORSDOF 3
ENDMDL
