MODEL 6
REMARK VINA RESULT: -10.460214242      0.703      1.981
REMARK  3 active torsions:
REMARK  status: ('A' for Active; 'I' for Inactive)
REMARK    1  A    between atoms: C7_7  and  N1_8 
REMARK    2  A    between atoms: N1_8  and  C8_10 
REMARK    3  A    between atoms: C11_15  and  C12_16 
ROOT
HETATM    1  C1  UNL     1      21.178 -25.252  20.904  1.00  0.00     0.018 C 
HETATM    2  C2  UNL     1      21.599 -26.110  20.167  1.00  0.00    -0.078 C 
HETATM    3  C3  UNL     1      22.101 -27.111  19.273  1.00  0.00     0.019 A 
HETATM    4  C4  UNL     1      22.354 -28.371  19.764  1.00  0.00     0.021 A 
HETATM    5  C5  UNL     1      22.834 -29.315  18.895  1.00  0.00     0.004 A 
HETATM    6  C6  UNL     1      23.060 -29.033  17.576  1.00  0.00     0.029 A 
HETATM    7  C7  UNL     1      22.818 -27.769  17.035  1.00  0.00     0.035 A 
HETATM    8  C20 UNL     1      22.339 -26.838  17.918  1.00  0.00     0.050 A 
ENDROOT
BRANCH   7   9
HETATM    9  N1  UNL     1      23.078 -27.561  15.665  1.00  0.00    -0.341 N 
ATOM     10  H1  UNL     1      23.331 -26.611  15.392  1.00  0.00     0.167 HD
BRANCH   9  11
HETATM   11  C8  UNL     1      23.028 -28.516  14.629  1.00  0.00     0.134 A 
HETATM   12  N2  UNL     1      22.878 -29.817  14.846  1.00  0.00    -0.340 N 
HETATM   13  C9  UNL     1      22.831 -30.730  13.854  1.00  0.00     0.046 A 
ATOM     14  H2  UNL     1      22.796 -30.142  15.810  1.00  0.00     0.167 HD
HETATM   15  C10 UNL     1      22.673 -32.062  14.165  1.00  0.00     0.048 A 
HETATM   16  C15 UNL     1      22.938 -30.360  12.503  1.00  0.00     0.005 A 
HETATM   17  C11 UNL     1      22.618 -33.035  13.197  1.00  0.00     0.043 A 
HETATM   18  C13 UNL     1      22.725 -32.648  11.883  1.00  0.00     0.019 A 
HETATM   19  C14 UNL     1      22.885 -31.311  11.523  1.00  0.00     0.016 A 
HETATM   20  C16 UNL     1      23.091 -29.031  12.248  1.00  0.00     0.022 A 
HETATM   21  C17 UNL     1      23.203 -28.591  10.949  1.00  0.00     0.103 A 
HETATM   22  C19 UNL     1      23.136 -28.107  13.306  1.00  0.00     0.090 A 
HETATM   23  N3  UNL     1      23.353 -27.274  10.724  1.00  0.00    -0.361 N 
HETATM   24  C18 UNL     1      23.396 -26.400  11.727  1.00  0.00     0.180 A 
ATOM     25  H3  UNL     1      23.436 -26.937   9.765  1.00  0.00     0.166 HD
HETATM   26  N4  UNL     1      23.290 -26.815  12.999  1.00  0.00    -0.349 N 
ATOM     27  H4  UNL     1      23.327 -26.126  13.751  1.00  0.00     0.167 HD
BRANCH  17  28
HETATM   28  C12 UNL     1      22.452 -34.450  13.512  1.00  0.00     0.209 C 
HETATM   29  O1  UNL     1      22.755 -34.903  14.641  1.00  0.00    -0.644 OA
HETATM   30  O2  UNL     1      21.955 -35.342  12.571  1.00  0.00    -0.644 OA
ENDBRANCH  17  28
ENDBRANCH   9  11
ENDBRANCH   7   9
TORSDOF 3
ENDMDL
