MODEL 3
REMARK VINA RESULT: -8.010818334      0.556      1.013
REMARK  10 active torsions:
REMARK  status: ('A' for Active; 'I' for Inactive)
REMARK    1  A    between atoms: C1_2  and  C2_4 
REMARK    2  A    between atoms: C2_4  and  C3_5 
REMARK    3  A    between atoms: C2_4  and  O7_15 
REMARK    4  A    between atoms: C3_5  and  C4_6 
REMARK    5  A    between atoms: C4_6  and  C5_7 
REMARK    6  A    between atoms: C5_7  and  C6_8 
REMARK    7  A    between atoms: C6_8  and  C7_9 
REMARK    8  A    between atoms: C7_9  and  O3_10 
REMARK    9  A    between atoms: O3_10  and  P1_11 
REMARK   10  A    between atoms: O7_15  and  P2_16 
ROOT
HETATM    1  C3  UNL     1       9.514  89.648  -8.594  1.00  0.00     0.012 C 
ENDROOT
BRANCH   1   2
HETATM    2  C2  UNL     1      10.495  88.582  -8.842  1.00  0.00     0.259 C 
BRANCH   2   3
HETATM    3  C1  UNL     1      11.720  88.725  -7.990  1.00  0.00     0.207 C 
HETATM    4  O1  UNL     1      11.588  88.749  -6.725  1.00  0.00    -0.646 OA
HETATM    5  O2  UNL     1      12.993  88.835  -8.481  1.00  0.00    -0.646 OA
ENDBRANCH   2   3
BRANCH   2   6
HETATM    6  O7  UNL     1      10.868  88.696 -10.196  1.00  0.00    -0.262 OA
BRANCH   6   7
HETATM    7  P2  UNL     1      10.143  87.522 -11.069  1.00  0.00     0.423 P 
HETATM    8  O8  UNL     1      10.992  86.813 -12.347  1.00  0.00    -0.617 OA
HETATM    9  O9  UNL     1       9.533  88.523 -12.038  1.00  0.00    -0.617 OA
HETATM   10  O10 UNL     1       8.748  86.843 -10.566  1.00  0.00    -0.617 OA
ENDBRANCH   6   7
ENDBRANCH   2   6
ENDBRANCH   1   2
BRANCH   1  11
HETATM   11  C4  UNL     1       8.361  89.460  -7.715  1.00  0.00    -0.028 C 
BRANCH  11  12
HETATM   12  C5  UNL     1       7.088  88.867  -8.153  1.00  0.00     0.029 C 
BRANCH  12  13
HETATM   13  C6  UNL     1       6.861  87.458  -7.813  1.00  0.00     0.031 C 
BRANCH  13  14
HETATM   14  C7  UNL     1       5.399  87.188  -7.427  1.00  0.00     0.182 C 
BRANCH  14  15
HETATM   15  O3  UNL     1       4.891  88.477  -7.175  1.00  0.00    -0.283 OA
BRANCH  15  16
HETATM   16  P1  UNL     1       3.367  88.642  -7.253  1.00  0.00     0.422 P 
HETATM   17  O4  UNL     1       1.845  88.815  -7.348  1.00  0.00    -0.617 OA
HETATM   18  O5  UNL     1       3.522  88.840  -8.888  1.00  0.00    -0.617 OA
HETATM   19  O6  UNL     1       3.209  87.109  -6.662  1.00  0.00    -0.617 OA
ENDBRANCH  15  16
ENDBRANCH  14  15
ENDBRANCH  13  14
ENDBRANCH  12  13
ENDBRANCH  11  12
ENDBRANCH   1  11
TORSDOF 10
ENDMDL
