MODEL 8
REMARK VINA RESULT: -7.627780465      0.784      1.266
REMARK  10 active torsions:
REMARK  status: ('A' for Active; 'I' for Inactive)
REMARK    1  A    between atoms: C1_2  and  C2_4 
REMARK    2  A    between atoms: C2_4  and  C3_5 
REMARK    3  A    between atoms: C2_4  and  O7_15 
REMARK    4  A    between atoms: C3_5  and  C4_6 
REMARK    5  A    between atoms: C4_6  and  C5_7 
REMARK    6  A    between atoms: C5_7  and  C6_8 
REMARK    7  A    between atoms: C6_8  and  C7_9 
REMARK    8  A    between atoms: C7_9  and  O3_10 
REMARK    9  A    between atoms: O3_10  and  P1_11 
REMARK   10  A    between atoms: O7_15  and  P2_16 
ROOT
HETATM    1  C3  UNL     1       9.415  89.629  -8.647  1.00  0.00     0.012 C 
ENDROOT
BRANCH   1   2
HETATM    2  C2  UNL     1      10.411  88.565  -8.837  1.00  0.00     0.259 C 
BRANCH   2   3
HETATM    3  C1  UNL     1      11.613  88.746  -7.960  1.00  0.00     0.207 C 
HETATM    4  O1  UNL     1      12.751  88.901  -8.505  1.00  0.00    -0.646 OA
HETATM    5  O2  UNL     1      11.575  88.756  -6.592  1.00  0.00    -0.646 OA
ENDBRANCH   2   3
BRANCH   2   6
HETATM    6  O7  UNL     1      10.817  88.641 -10.185  1.00  0.00    -0.262 OA
BRANCH   6   7
HETATM    7  P2  UNL     1      10.115  87.441 -11.042  1.00  0.00     0.423 P 
HETATM    8  O8  UNL     1      11.011  86.668 -12.248  1.00  0.00    -0.617 OA
HETATM    9  O9  UNL     1       9.565  88.408 -12.079  1.00  0.00    -0.617 OA
HETATM   10  O10 UNL     1       8.688  86.802 -10.576  1.00  0.00    -0.617 OA
ENDBRANCH   6   7
ENDBRANCH   2   6
ENDBRANCH   1   2
BRANCH   1  11
HETATM   11  C4  UNL     1       8.276  89.481  -7.742  1.00  0.00    -0.028 C 
BRANCH  11  12
HETATM   12  C5  UNL     1       7.353  88.337  -7.771  1.00  0.00     0.029 C 
BRANCH  12  13
HETATM   13  C6  UNL     1       6.156  88.429  -6.927  1.00  0.00     0.031 C 
BRANCH  13  14
HETATM   14  C7  UNL     1       4.904  88.783  -7.742  1.00  0.00     0.182 C 
BRANCH  14  15
HETATM   15  O3  UNL     1       3.878  88.765  -6.779  1.00  0.00    -0.283 OA
BRANCH  15  16
HETATM   16  P1  UNL     1       2.697  87.822  -7.048  1.00  0.00     0.422 P 
HETATM   17  O4  UNL     1       1.504  86.893  -7.312  1.00  0.00    -0.617 OA
HETATM   18  O5  UNL     1       1.695  89.136  -6.970  1.00  0.00    -0.617 OA
HETATM   19  O6  UNL     1       3.380  87.445  -8.502  1.00  0.00    -0.617 OA
ENDBRANCH  15  16
ENDBRANCH  14  15
ENDBRANCH  13  14
ENDBRANCH  12  13
ENDBRANCH  11  12
ENDBRANCH   1  11
TORSDOF 10
ENDMDL
