MODEL 2
REMARK VINA RESULT: -8.085834476      0.556      1.235
REMARK  10 active torsions:
REMARK  status: ('A' for Active; 'I' for Inactive)
REMARK    1  A    between atoms: C1_2  and  C2_4 
REMARK    2  A    between atoms: C2_4  and  C3_5 
REMARK    3  A    between atoms: C2_4  and  O7_15 
REMARK    4  A    between atoms: C3_5  and  C4_6 
REMARK    5  A    between atoms: C4_6  and  C5_7 
REMARK    6  A    between atoms: C5_7  and  C6_8 
REMARK    7  A    between atoms: C6_8  and  C7_9 
REMARK    8  A    between atoms: C7_9  and  O3_10 
REMARK    9  A    between atoms: O3_10  and  P1_11 
REMARK   10  A    between atoms: O7_15  and  P2_16 
ROOT
HETATM    1  C3  UNL     1       9.745  89.521  -8.966  1.00  0.00     0.012 C 
ENDROOT
BRANCH   1   2
HETATM    2  C2  UNL     1      10.849  88.554  -8.881  1.00  0.00     0.259 C 
BRANCH   2   3
HETATM    3  C1  UNL     1      12.039  89.109  -8.158  1.00  0.00     0.207 C 
HETATM    4  O1  UNL     1      13.128  88.453  -8.176  1.00  0.00    -0.646 OA
HETATM    5  O2  UNL     1      12.039  90.290  -7.466  1.00  0.00    -0.646 OA
ENDBRANCH   2   3
BRANCH   2   6
HETATM    6  O7  UNL     1      11.221  88.263 -10.210  1.00  0.00    -0.262 OA
BRANCH   6   7
HETATM    7  P2  UNL     1       9.897  87.856 -11.076  1.00  0.00     0.423 P 
HETATM    8  O8  UNL     1       8.923  86.589 -10.530  1.00  0.00    -0.617 OA
HETATM    9  O9  UNL     1      10.678  86.877 -11.939  1.00  0.00    -0.617 OA
HETATM   10  O10 UNL     1       9.358  88.812 -12.283  1.00  0.00    -0.617 OA
ENDBRANCH   6   7
ENDBRANCH   2   6
ENDBRANCH   1   2
BRANCH   1  11
HETATM   11  C4  UNL     1       8.705  89.611  -7.942  1.00  0.00    -0.028 C 
BRANCH  11  12
HETATM   12  C5  UNL     1       7.299  89.245  -8.172  1.00  0.00     0.029 C 
BRANCH  12  13
HETATM   13  C6  UNL     1       6.934  87.841  -7.949  1.00  0.00     0.031 C 
BRANCH  13  14
HETATM   14  C7  UNL     1       5.744  87.703  -6.988  1.00  0.00     0.182 C 
BRANCH  14  15
HETATM   15  O3  UNL     1       4.674  87.386  -7.846  1.00  0.00    -0.283 OA
BRANCH  15  16
HETATM   16  P1  UNL     1       3.353  88.127  -7.601  1.00  0.00     0.422 P 
HETATM   17  O4  UNL     1       2.036  88.870  -7.338  1.00  0.00    -0.617 OA
HETATM   18  O5  UNL     1       3.939  88.580  -6.122  1.00  0.00    -0.617 OA
HETATM   19  O6  UNL     1       3.693  89.083  -8.903  1.00  0.00    -0.617 OA
ENDBRANCH  15  16
ENDBRANCH  14  15
ENDBRANCH  13  14
ENDBRANCH  12  13
ENDBRANCH  11  12
ENDBRANCH   1  11
TORSDOF 10
ENDMDL
