MODEL 16
REMARK VINA RESULT: -7.290925158      2.107      6.954
REMARK  10 active torsions:
REMARK  status: ('A' for Active; 'I' for Inactive)
REMARK    1  A    between atoms: C1_2  and  C2_4 
REMARK    2  A    between atoms: C2_4  and  C3_5 
REMARK    3  A    between atoms: C2_4  and  O7_15 
REMARK    4  A    between atoms: C3_5  and  C4_6 
REMARK    5  A    between atoms: C4_6  and  C5_7 
REMARK    6  A    between atoms: C5_7  and  C6_8 
REMARK    7  A    between atoms: C6_8  and  C7_9 
REMARK    8  A    between atoms: C7_9  and  O3_10 
REMARK    9  A    between atoms: O3_10  and  P1_11 
REMARK   10  A    between atoms: O7_15  and  P2_16 
ROOT
HETATM    1  C3  UNL     1       5.979  88.236  -6.618  1.00  0.00     0.012 C 
ENDROOT
BRANCH   1   2
HETATM    2  C2  UNL     1       5.001  87.663  -7.554  1.00  0.00     0.259 C 
BRANCH   2   3
HETATM    3  C1  UNL     1       3.867  88.601  -7.838  1.00  0.00     0.207 C 
HETATM    4  O1  UNL     1       3.772  89.115  -8.998  1.00  0.00    -0.646 OA
HETATM    5  O2  UNL     1       2.910  88.953  -6.925  1.00  0.00    -0.646 OA
ENDBRANCH   2   3
BRANCH   2   6
HETATM    6  O7  UNL     1       4.489  86.507  -6.931  1.00  0.00    -0.262 OA
BRANCH   6   7
HETATM    7  P2  UNL     1       5.094  85.175  -7.655  1.00  0.00     0.423 P 
HETATM    8  O8  UNL     1       6.234  85.363  -8.888  1.00  0.00    -0.617 OA
HETATM    9  O9  UNL     1       3.984  85.150  -8.694  1.00  0.00    -0.617 OA
HETATM   10  O10 UNL     1       4.832  83.690  -7.034  1.00  0.00    -0.617 OA
ENDBRANCH   6   7
ENDBRANCH   2   6
ENDBRANCH   1   2
BRANCH   1  11
HETATM   11  C4  UNL     1       7.204  88.893  -7.073  1.00  0.00    -0.028 C 
BRANCH  11  12
HETATM   12  C5  UNL     1       7.701  88.828  -8.455  1.00  0.00     0.029 C 
BRANCH  12  13
HETATM   13  C6  UNL     1       8.682  87.780  -8.759  1.00  0.00     0.031 C 
BRANCH  13  14
HETATM   14  C7  UNL     1       9.853  88.314  -9.596  1.00  0.00     0.182 C 
BRANCH  14  15
HETATM   15  O3  UNL     1      10.972  88.069  -8.777  1.00  0.00    -0.283 OA
BRANCH  15  16
HETATM   16  P1  UNL     1      11.626  89.292  -8.121  1.00  0.00     0.422 P 
HETATM   17  O4  UNL     1      12.272  90.512  -7.449  1.00  0.00    -0.617 OA
HETATM   18  O5  UNL     1      11.126  88.711  -6.655  1.00  0.00    -0.617 OA
HETATM   19  O6  UNL     1      13.081  88.781  -8.710  1.00  0.00    -0.617 OA
ENDBRANCH  15  16
ENDBRANCH  14  15
ENDBRANCH  13  14
ENDBRANCH  12  13
ENDBRANCH  11  12
ENDBRANCH   1  11
TORSDOF 10
ENDMDL
