MODEL 19
REMARK VINA RESULT: -7.155601196      1.951      7.170
REMARK  10 active torsions:
REMARK  status: ('A' for Active; 'I' for Inactive)
REMARK    1  A    between atoms: C1_2  and  C2_4 
REMARK    2  A    between atoms: C2_4  and  C3_5 
REMARK    3  A    between atoms: C2_4  and  O7_15 
REMARK    4  A    between atoms: C3_5  and  C4_6 
REMARK    5  A    between atoms: C4_6  and  C5_7 
REMARK    6  A    between atoms: C5_7  and  C6_8 
REMARK    7  A    between atoms: C6_8  and  C7_9 
REMARK    8  A    between atoms: C7_9  and  O3_10 
REMARK    9  A    between atoms: O3_10  and  P1_11 
REMARK   10  A    between atoms: O7_15  and  P2_16 
ROOT
HETATM    1  C3  UNL     1       6.454  86.491  -8.307  1.00  0.00     0.012 C 
ENDROOT
BRANCH   1   2
HETATM    2  C2  UNL     1       5.389  85.989  -7.426  1.00  0.00     0.259 C 
BRANCH   2   3
HETATM    3  C1  UNL     1       5.463  84.505  -7.231  1.00  0.00     0.207 C 
HETATM    4  O1  UNL     1       4.385  83.832  -7.236  1.00  0.00    -0.646 OA
HETATM    5  O2  UNL     1       6.627  83.809  -7.042  1.00  0.00    -0.646 OA
ENDBRANCH   2   3
BRANCH   2   6
HETATM    6  O7  UNL     1       4.171  86.303  -8.063  1.00  0.00    -0.262 OA
BRANCH   6   7
HETATM    7  P2  UNL     1       3.723  87.825  -7.677  1.00  0.00     0.423 P 
HETATM    8  O8  UNL     1       3.608  88.253  -6.047  1.00  0.00    -0.617 OA
HETATM    9  O9  UNL     1       2.245  87.466  -7.680  1.00  0.00    -0.617 OA
HETATM   10  O10 UNL     1       3.655  88.993  -8.813  1.00  0.00    -0.617 OA
ENDBRANCH   6   7
ENDBRANCH   2   6
ENDBRANCH   1   2
BRANCH   1  11
HETATM   11  C4  UNL     1       7.510  87.381  -7.828  1.00  0.00    -0.028 C 
BRANCH  11  12
HETATM   12  C5  UNL     1       7.587  88.811  -8.161  1.00  0.00     0.029 C 
BRANCH  12  13
HETATM   13  C6  UNL     1       8.884  89.315  -8.627  1.00  0.00     0.031 C 
BRANCH  13  14
HETATM   14  C7  UNL     1       9.647  88.264  -9.446  1.00  0.00     0.182 C 
BRANCH  14  15
HETATM   15  O3  UNL     1      10.839  88.092  -8.717  1.00  0.00    -0.283 OA
BRANCH  15  16
HETATM   16  P1  UNL     1      11.505  89.365  -8.177  1.00  0.00     0.422 P 
HETATM   17  O4  UNL     1      12.169  90.631  -7.619  1.00  0.00    -0.617 OA
HETATM   18  O5  UNL     1      11.707  88.586  -6.732  1.00  0.00    -0.617 OA
HETATM   19  O6  UNL     1      12.675  89.195  -9.328  1.00  0.00    -0.617 OA
ENDBRANCH  15  16
ENDBRANCH  14  15
ENDBRANCH  13  14
ENDBRANCH  12  13
ENDBRANCH  11  12
ENDBRANCH   1  11
TORSDOF 10
ENDMDL
