MODEL 1
REMARK VINA RESULT: -8.281236555      0.000      0.000
REMARK  10 active torsions:
REMARK  status: ('A' for Active; 'I' for Inactive)
REMARK    1  A    between atoms: C1_2  and  C2_4 
REMARK    2  A    between atoms: C2_4  and  C3_5 
REMARK    3  A    between atoms: C2_4  and  O7_15 
REMARK    4  A    between atoms: C3_5  and  C4_6 
REMARK    5  A    between atoms: C4_6  and  C5_7 
REMARK    6  A    between atoms: C5_7  and  C6_8 
REMARK    7  A    between atoms: C6_8  and  C7_9 
REMARK    8  A    between atoms: C7_9  and  O3_10 
REMARK    9  A    between atoms: O3_10  and  P1_11 
REMARK   10  A    between atoms: O7_15  and  P2_16 
ROOT
HETATM    1  C3  UNL     1       9.536  89.720  -8.577  1.00  0.00     0.012 C 
ENDROOT
BRANCH   1   2
HETATM    2  C2  UNL     1      10.483  88.622  -8.819  1.00  0.00     0.259 C 
BRANCH   2   3
HETATM    3  C1  UNL     1      11.718  88.738  -7.977  1.00  0.00     0.207 C 
HETATM    4  O1  UNL     1      11.597  88.741  -6.711  1.00  0.00    -0.646 OA
HETATM    5  O2  UNL     1      12.987  88.843  -8.479  1.00  0.00    -0.646 OA
ENDBRANCH   2   3
BRANCH   2   6
HETATM    6  O7  UNL     1      10.850  88.711 -10.178  1.00  0.00    -0.262 OA
BRANCH   6   7
HETATM    7  P2  UNL     1      10.131  87.513 -11.023  1.00  0.00     0.423 P 
HETATM    8  O8  UNL     1      10.998  86.752 -12.258  1.00  0.00    -0.617 OA
HETATM    9  O9  UNL     1       9.550  88.485 -12.039  1.00  0.00    -0.617 OA
HETATM   10  O10 UNL     1       8.720  86.865 -10.524  1.00  0.00    -0.617 OA
ENDBRANCH   6   7
ENDBRANCH   2   6
ENDBRANCH   1   2
BRANCH   1  11
HETATM   11  C4  UNL     1       8.374  89.571  -7.702  1.00  0.00    -0.028 C 
BRANCH  11  12
HETATM   12  C5  UNL     1       7.061  89.097  -8.162  1.00  0.00     0.029 C 
BRANCH  12  13
HETATM   13  C6  UNL     1       6.699  87.716  -7.826  1.00  0.00     0.031 C 
BRANCH  13  14
HETATM   14  C7  UNL     1       5.533  87.653  -6.829  1.00  0.00     0.182 C 
BRANCH  14  15
HETATM   15  O3  UNL     1       4.445  87.257  -7.631  1.00  0.00    -0.283 OA
BRANCH  15  16
HETATM   16  P1  UNL     1       3.145  88.055  -7.469  1.00  0.00     0.422 P 
HETATM   17  O4  UNL     1       1.848  88.856  -7.288  1.00  0.00    -0.617 OA
HETATM   18  O5  UNL     1       3.714  88.590  -6.010  1.00  0.00    -0.617 OA
HETATM   19  O6  UNL     1       3.544  88.908  -8.824  1.00  0.00    -0.617 OA
ENDBRANCH  15  16
ENDBRANCH  14  15
ENDBRANCH  13  14
ENDBRANCH  12  13
ENDBRANCH  11  12
ENDBRANCH   1  11
TORSDOF 10
ENDMDL
