MODEL 4
REMARK VINA RESULT: -7.799046603      0.984      1.604
REMARK  10 active torsions:
REMARK  status: ('A' for Active; 'I' for Inactive)
REMARK    1  A    between atoms: C1_2  and  C2_4 
REMARK    2  A    between atoms: C2_4  and  C3_5 
REMARK    3  A    between atoms: C2_4  and  O7_15 
REMARK    4  A    between atoms: C3_5  and  C4_6 
REMARK    5  A    between atoms: C4_6  and  C5_7 
REMARK    6  A    between atoms: C5_7  and  C6_8 
REMARK    7  A    between atoms: C6_8  and  C7_9 
REMARK    8  A    between atoms: C7_9  and  O3_10 
REMARK    9  A    between atoms: O3_10  and  P1_11 
REMARK   10  A    between atoms: O7_15  and  P2_16 
ROOT
HETATM    1  C3  UNL     1       9.571  89.637  -8.548  1.00  0.00     0.012 C 
ENDROOT
BRANCH   1   2
HETATM    2  C2  UNL     1      10.610  88.605  -8.424  1.00  0.00     0.259 C 
BRANCH   2   3
HETATM    3  C1  UNL     1      11.935  89.177  -8.019  1.00  0.00     0.207 C 
HETATM    4  O1  UNL     1      12.973  88.448  -8.117  1.00  0.00    -0.646 OA
HETATM    5  O2  UNL     1      12.114  90.447  -7.543  1.00  0.00    -0.646 OA
ENDBRANCH   2   3
BRANCH   2   6
HETATM    6  O7  UNL     1      10.738  88.020  -9.700  1.00  0.00    -0.262 OA
BRANCH   6   7
HETATM    7  P2  UNL     1      10.801  89.188 -10.839  1.00  0.00     0.423 P 
HETATM    8  O8  UNL     1       9.385  89.602 -11.661  1.00  0.00    -0.617 OA
HETATM    9  O9  UNL     1      11.142  88.194 -11.939  1.00  0.00    -0.617 OA
HETATM   10  O10 UNL     1      12.120  90.134 -10.998  1.00  0.00    -0.617 OA
ENDBRANCH   6   7
ENDBRANCH   2   6
ENDBRANCH   1   2
BRANCH   1  11
HETATM   11  C4  UNL     1       8.387  89.660  -7.690  1.00  0.00    -0.028 C 
BRANCH  11  12
HETATM   12  C5  UNL     1       7.060  89.190  -8.116  1.00  0.00     0.029 C 
BRANCH  12  13
HETATM   13  C6  UNL     1       6.754  87.774  -7.887  1.00  0.00     0.031 C 
BRANCH  13  14
HETATM   14  C7  UNL     1       5.577  87.590  -6.918  1.00  0.00     0.182 C 
BRANCH  14  15
HETATM   15  O3  UNL     1       4.500  87.289  -7.774  1.00  0.00    -0.283 OA
BRANCH  15  16
HETATM   16  P1  UNL     1       3.204  88.082  -7.555  1.00  0.00     0.422 P 
HETATM   17  O4  UNL     1       1.913  88.877  -7.317  1.00  0.00    -0.617 OA
HETATM   18  O5  UNL     1       3.790  88.532  -6.075  1.00  0.00    -0.617 OA
HETATM   19  O6  UNL     1       3.595  89.007  -8.864  1.00  0.00    -0.617 OA
ENDBRANCH  15  16
ENDBRANCH  14  15
ENDBRANCH  13  14
ENDBRANCH  12  13
ENDBRANCH  11  12
ENDBRANCH   1  11
TORSDOF 10
ENDMDL
