MODEL 3
REMARK VINA RESULT: -5.569660685      1.850      3.418
REMARK  7 active torsions:
REMARK  status: ('A' for Active; 'I' for Inactive)
REMARK    1  A    between atoms: C3_3  and  C4_4 
REMARK    2  A    between atoms: C4_4  and  C5_5 
REMARK    3  A    between atoms: C5_5  and  C6_6 
REMARK    4  A    between atoms: C6_6  and  C7_7 
REMARK    5  A    between atoms: C7_7  and  C8_8 
REMARK    6  A    between atoms: C9_9  and  C10_10 
REMARK    7  A    between atoms: C10_10  and  C11_11 
ROOT
HETATM    1  C7  UNL     1     -22.868   6.459 -18.299  1.00  0.00     0.027 C 
ENDROOT
BRANCH   1   2
HETATM    2  C6  UNL     1     -21.602   5.829 -17.728  1.00  0.00     0.004 C 
BRANCH   2   3
HETATM    3  C5  UNL     1     -21.453   4.478 -18.402  1.00  0.00     0.004 C 
BRANCH   3   4
HETATM    4  C4  UNL     1     -21.799   3.344 -17.487  1.00  0.00     0.027 C 
BRANCH   4   5
HETATM    5  C3  UNL     1     -22.942   2.596 -18.063  1.00  0.00    -0.031 C 
HETATM    6  C2  UNL     1     -23.412   2.871 -19.272  1.00  0.00    -0.035 C 
HETATM    7  C1  UNL     1     -24.563   2.093 -19.812  1.00  0.00     0.036 C 
ENDBRANCH   4   5
ENDBRANCH   3   4
ENDBRANCH   2   3
ENDBRANCH   1   2
BRANCH   1   8
HETATM    8  C8  UNL     1     -23.845   6.577 -17.188  1.00  0.00    -0.030 C 
HETATM    9  C9  UNL     1     -24.808   5.668 -17.106  1.00  0.00    -0.020 C 
BRANCH   9  10
HETATM   10  C10 UNL     1     -25.806   5.757 -16.004  1.00  0.00     0.140 C 
BRANCH  10  11
HETATM   11  C11 UNL     1     -27.143   5.902 -16.617  1.00  0.00     0.176 C 
HETATM   12  O1  UNL     1     -28.079   5.102 -16.365  1.00  0.00    -0.648 OA
HETATM   13  O2  UNL     1     -27.445   6.928 -17.509  1.00  0.00    -0.648 OA
ENDBRANCH  10  11
ENDBRANCH   9  10
ENDBRANCH   1   8
TORSDOF 7
ENDMDL
