MODEL 1
REMARK VINA RESULT: -5.656999948      0.000      0.000
REMARK  7 active torsions:
REMARK  status: ('A' for Active; 'I' for Inactive)
REMARK    1  A    between atoms: C3_3  and  C4_4 
REMARK    2  A    between atoms: C4_4  and  C5_5 
REMARK    3  A    between atoms: C5_5  and  C6_6 
REMARK    4  A    between atoms: C6_6  and  C7_7 
REMARK    5  A    between atoms: C7_7  and  C8_8 
REMARK    6  A    between atoms: C9_9  and  C10_10 
REMARK    7  A    between atoms: C10_10  and  C11_11 
ROOT
HETATM    1  C7  UNL     1     -24.233   4.277 -17.115  1.00  0.00     0.027 C 
ENDROOT
BRANCH   1   2
HETATM    2  C6  UNL     1     -22.767   4.577 -16.825  1.00  0.00     0.004 C 
BRANCH   2   3
HETATM    3  C5  UNL     1     -22.439   5.865 -17.556  1.00  0.00     0.004 C 
BRANCH   3   4
HETATM    4  C4  UNL     1     -22.982   5.882 -18.952  1.00  0.00     0.027 C 
BRANCH   4   5
HETATM    5  C3  UNL     1     -23.369   7.271 -19.298  1.00  0.00    -0.031 C 
HETATM    6  C2  UNL     1     -24.392   7.874 -18.709  1.00  0.00    -0.035 C 
HETATM    7  C1  UNL     1     -24.745   9.271 -19.087  1.00  0.00     0.036 C 
ENDBRANCH   4   5
ENDBRANCH   3   4
ENDBRANCH   2   3
ENDBRANCH   1   2
BRANCH   1   8
HETATM    8  C8  UNL     1     -25.012   4.659 -15.910  1.00  0.00    -0.030 C 
HETATM    9  C9  UNL     1     -25.742   5.765 -15.964  1.00  0.00    -0.020 C 
BRANCH   9  10
HETATM   10  C10 UNL     1     -26.535   6.177 -14.773  1.00  0.00     0.140 C 
BRANCH  10  11
HETATM   11  C11 UNL     1     -27.965   5.998 -15.099  1.00  0.00     0.176 C 
HETATM   12  O1  UNL     1     -28.872   6.231 -14.259  1.00  0.00    -0.648 OA
HETATM   13  O2  UNL     1     -28.394   5.563 -16.350  1.00  0.00    -0.648 OA
ENDBRANCH  10  11
ENDBRANCH   9  10
ENDBRANCH   1   8
TORSDOF 7
ENDMDL
