MODEL 6
REMARK VINA RESULT: -7.512908799      1.618      2.016
REMARK  9 active torsions:
REMARK  status: ('A' for Active; 'I' for Inactive)
REMARK    1  A    between atoms: C2_2  and  C3_3 
REMARK    2  A    between atoms: C3_3  and  C4_4 
REMARK    3  A    between atoms: C4_4  and  S1_5 
REMARK    4  A    between atoms: S1_5  and  C5_6 
REMARK    5  A    between atoms: N4_15  and  C9_16 
REMARK    6  A    between atoms: C10_18  and  C11_19 
REMARK    7  A    between atoms: C11_19  and  O2_20 
REMARK    8  A    between atoms: C12_22  and  O3_23 
REMARK    9  A    between atoms: C13_25  and  O4_26 
ROOT
HETATM    1  C5  UNL     1     112.249  93.499  26.504  1.00  0.00     0.147 A 
HETATM    2  N1  UNL     1     113.065  94.432  27.031  1.00  0.00    -0.323 N 
ATOM      3  H1  UNL     1     113.371  94.354  28.000  1.00  0.00     0.169 HD
HETATM    4  C6  UNL     1     113.482  95.480  26.266  1.00  0.00     0.149 A 
HETATM    5  N2  UNL     1     114.346  96.483  26.794  1.00  0.00    -0.080 NA
HETATM    6  C7  UNL     1     113.075  95.596  24.953  1.00  0.00     0.119 A 
HETATM    7  N3  UNL     1     113.308  96.483  23.983  1.00  0.00    -0.346 N 
ATOM      8  H3  UNL     1     113.892  97.315  24.066  1.00  0.00     0.167 HD
HETATM    9  C8  UNL     1     112.635  96.090  22.866  1.00  0.00     0.188 A 
HETATM   10  N4  UNL     1     111.990  94.967  23.148  1.00  0.00    -0.297 N 
HETATM   11  C14 UNL     1     112.249  94.646  24.430  1.00  0.00     0.143 A 
HETATM   12  N5  UNL     1     111.855  93.618  25.219  1.00  0.00    -0.321 N 
ATOM     13  H5  UNL     1     111.237  92.907  24.828  1.00  0.00     0.169 HD
ENDROOT
BRANCH  10  14
HETATM   14  C9  UNL     1     111.143  94.174  22.284  1.00  0.00     0.262 C 
HETATM   15  O1  UNL     1     110.053  93.630  22.930  1.00  0.00    -0.353 OA
HETATM   16  C10 UNL     1     109.705  92.563  22.105  1.00  0.00     0.179 C 
HETATM   17  C12 UNL     1     111.049  91.839  21.997  1.00  0.00     0.182 C 
HETATM   18  C13 UNL     1     111.969  93.020  21.761  1.00  0.00     0.198 C 
BRANCH  16  19
HETATM   19  C11 UNL     1     108.654  91.671  22.716  1.00  0.00     0.198 C 
BRANCH  19  20
HETATM   20  O2  UNL     1     109.011  91.484  24.055  1.00  0.00    -0.398 OA
ATOM     21  H2  UNL     1     108.910  92.324  24.487  1.00  0.00     0.209 HD
ENDBRANCH  19  20
ENDBRANCH  16  19
BRANCH  17  22
HETATM   22  O3  UNL     1     111.045  90.979  20.902  1.00  0.00    -0.390 OA
ATOM     23  H3  UNL     1     110.167  90.901  20.549  1.00  0.00     0.210 HD
ENDBRANCH  17  22
BRANCH  18  24
HETATM   24  O4  UNL     1     112.133  93.145  20.380  1.00  0.00    -0.388 OA
ATOM     25  H4  UNL     1     113.033  93.378  20.183  1.00  0.00     0.210 HD
ENDBRANCH  18  24
ENDBRANCH  10  14
BRANCH   1  26
HETATM   26  S1  UNL     1     111.650  92.095  27.417  1.00  0.00    -0.094 SA
BRANCH  26  27
HETATM   27  C4  UNL     1     111.541  90.634  26.354  1.00  0.00     0.082 C 
BRANCH  27  28
HETATM   28  C3  UNL     1     111.846  89.404  27.182  1.00  0.00     0.010 C 
BRANCH  28  29
HETATM   29  C2  UNL     1     111.958  89.786  28.653  1.00  0.00    -0.004 C 
HETATM   30  C1  UNL     1     113.203  89.091  29.191  1.00  0.00     0.005 C 
ENDBRANCH  28  29
ENDBRANCH  27  28
ENDBRANCH  26  27
ENDBRANCH   1  26
TORSDOF 9
ENDMDL
