MODEL 3
REMARK VINA RESULT: -7.803196322      4.181      6.460
REMARK  9 active torsions:
REMARK  status: ('A' for Active; 'I' for Inactive)
REMARK    1  A    between atoms: C2_2  and  C3_3 
REMARK    2  A    between atoms: C3_3  and  C4_4 
REMARK    3  A    between atoms: C4_4  and  S1_5 
REMARK    4  A    between atoms: S1_5  and  C5_6 
REMARK    5  A    between atoms: N4_15  and  C9_16 
REMARK    6  A    between atoms: C10_18  and  C11_19 
REMARK    7  A    between atoms: C11_19  and  O2_20 
REMARK    8  A    between atoms: C12_22  and  O3_23 
REMARK    9  A    between atoms: C13_25  and  O4_26 
ROOT
HETATM    1  C5  UNL     1     111.316  92.422  25.271  1.00  0.00     0.147 A 
HETATM    2  N1  UNL     1     111.337  93.184  24.161  1.00  0.00    -0.323 N 
ATOM      3  H1  UNL     1     110.906  92.846  23.301  1.00  0.00     0.169 HD
HETATM    4  C6  UNL     1     111.936  94.408  24.188  1.00  0.00     0.149 A 
HETATM    5  N2  UNL     1     111.975  95.239  23.031  1.00  0.00    -0.080 NA
HETATM    6  C7  UNL     1     112.523  94.876  25.347  1.00  0.00     0.119 A 
HETATM    7  N3  UNL     1     113.166  95.998  25.673  1.00  0.00    -0.346 N 
ATOM      8  H3  UNL     1     113.350  96.783  25.047  1.00  0.00     0.167 HD
HETATM    9  C8  UNL     1     113.537  95.921  26.981  1.00  0.00     0.188 A 
HETATM   10  N4  UNL     1     113.123  94.754  27.457  1.00  0.00    -0.297 N 
HETATM   11  C14 UNL     1     112.496  94.096  26.463  1.00  0.00     0.143 A 
HETATM   12  N5  UNL     1     111.892  92.885  26.400  1.00  0.00    -0.321 N 
ATOM     13  H5  UNL     1     111.871  92.301  27.236  1.00  0.00     0.169 HD
ENDROOT
BRANCH  10  14
HETATM   14  C9  UNL     1     113.282  94.219  28.791  1.00  0.00     0.262 C 
HETATM   15  O1  UNL     1     113.429  92.849  28.821  1.00  0.00    -0.353 OA
HETATM   16  C10 UNL     1     113.059  92.526  30.125  1.00  0.00     0.179 C 
HETATM   17  C12 UNL     1     111.694  93.213  30.209  1.00  0.00     0.182 C 
HETATM   18  C13 UNL     1     112.028  94.547  29.571  1.00  0.00     0.198 C 
BRANCH  16  19
HETATM   19  C11 UNL     1     112.934  91.039  30.344  1.00  0.00     0.198 C 
BRANCH  19  20
HETATM   20  O2  UNL     1     112.940  90.832  31.727  1.00  0.00    -0.398 OA
ATOM     21  H2  UNL     1     113.290  89.961  31.874  1.00  0.00     0.209 HD
ENDBRANCH  19  20
ENDBRANCH  16  19
BRANCH  17  22
HETATM   22  O3  UNL     1     111.318  93.373  31.540  1.00  0.00    -0.390 OA
ATOM     23  H3  UNL     1     111.757  94.127  31.917  1.00  0.00     0.210 HD
ENDBRANCH  17  22
BRANCH  18  24
HETATM   24  O4  UNL     1     112.334  95.433  30.606  1.00  0.00    -0.388 OA
ATOM     25  H4  UNL     1     112.821  94.978  31.285  1.00  0.00     0.210 HD
ENDBRANCH  18  24
ENDBRANCH  10  14
BRANCH   1  26
HETATM   26  S1  UNL     1     110.562  90.813  25.338  1.00  0.00    -0.094 SA
BRANCH  26  27
HETATM   27  C4  UNL     1     111.478  89.718  26.452  1.00  0.00     0.082 C 
BRANCH  27  28
HETATM   28  C3  UNL     1     111.484  88.321  25.868  1.00  0.00     0.010 C 
BRANCH  28  29
HETATM   29  C2  UNL     1     112.226  87.375  26.804  1.00  0.00    -0.004 C 
HETATM   30  C1  UNL     1     112.530  88.164  28.072  1.00  0.00     0.005 C 
ENDBRANCH  28  29
ENDBRANCH  27  28
ENDBRANCH  26  27
ENDBRANCH   1  26
TORSDOF 9
ENDMDL
