MODEL 1
REMARK VINA RESULT: -8.011965554      0.000      0.000
REMARK  9 active torsions:
REMARK  status: ('A' for Active; 'I' for Inactive)
REMARK    1  A    between atoms: C2_2  and  C3_3 
REMARK    2  A    between atoms: C3_3  and  C4_4 
REMARK    3  A    between atoms: C4_4  and  S1_5 
REMARK    4  A    between atoms: S1_5  and  C5_6 
REMARK    5  A    between atoms: N4_15  and  C9_16 
REMARK    6  A    between atoms: C10_18  and  C11_19 
REMARK    7  A    between atoms: C11_19  and  O2_20 
REMARK    8  A    between atoms: C12_22  and  O3_23 
REMARK    9  A    between atoms: C13_25  and  O4_26 
ROOT
HETATM    1  C5  UNL     1     111.579  92.489  25.421  1.00  0.00     0.147 A 
HETATM    2  N1  UNL     1     112.152  93.122  26.462  1.00  0.00    -0.323 N 
ATOM      3  H1  UNL     1     112.247  92.647  27.359  1.00  0.00     0.169 HD
HETATM    4  C6  UNL     1     112.607  94.398  26.315  1.00  0.00     0.149 A 
HETATM    5  N2  UNL     1     113.219  95.094  27.397  1.00  0.00    -0.080 NA
HETATM    6  C7  UNL     1     112.486  95.051  25.105  1.00  0.00     0.119 A 
HETATM    7  N3  UNL     1     112.825  96.265  24.668  1.00  0.00    -0.346 N 
ATOM      8  H3  UNL     1     113.282  96.991  25.220  1.00  0.00     0.167 HD
HETATM    9  C8  UNL     1     112.459  96.372  23.360  1.00  0.00     0.188 A 
HETATM   10  N4  UNL     1     111.896  95.229  22.995  1.00  0.00    -0.297 N 
HETATM   11  C14 UNL     1     111.903  94.402  24.059  1.00  0.00     0.143 A 
HETATM   12  N5  UNL     1     111.463  93.133  24.241  1.00  0.00    -0.321 N 
ATOM     13  H5  UNL     1     111.028  92.647  23.456  1.00  0.00     0.169 HD
ENDROOT
BRANCH  10  14
HETATM   14  C9  UNL     1     111.350  94.865  21.706  1.00  0.00     0.262 C 
HETATM   15  O1  UNL     1     110.829  93.589  21.670  1.00  0.00    -0.353 OA
HETATM   16  C10 UNL     1     110.846  93.286  20.310  1.00  0.00     0.179 C 
HETATM   17  C12 UNL     1     112.306  93.593  19.971  1.00  0.00     0.182 C 
HETATM   18  C13 UNL     1     112.478  94.911  20.699  1.00  0.00     0.198 C 
BRANCH  16  19
HETATM   19  C11 UNL     1     110.514  91.843  20.029  1.00  0.00     0.198 C 
BRANCH  19  20
HETATM   20  O2  UNL     1     111.212  91.076  20.967  1.00  0.00    -0.398 OA
ATOM     21  H2  UNL     1     111.681  90.407  20.482  1.00  0.00     0.209 HD
ENDBRANCH  19  20
ENDBRANCH  16  19
BRANCH  17  22
HETATM   22  O3  UNL     1     112.457  93.756  18.596  1.00  0.00    -0.390 OA
ATOM     23  H3  UNL     1     113.184  94.340  18.412  1.00  0.00     0.210 HD
ENDBRANCH  17  22
BRANCH  18  24
HETATM   24  O4  UNL     1     112.239  95.928  19.771  1.00  0.00    -0.388 OA
ATOM     25  H4  UNL     1     111.422  95.761  19.315  1.00  0.00     0.210 HD
ENDBRANCH  18  24
ENDBRANCH  10  14
BRANCH   1  26
HETATM   26  S1  UNL     1     110.954  90.827  25.509  1.00  0.00    -0.094 SA
BRANCH  26  27
HETATM   27  C4  UNL     1     111.568  89.985  26.990  1.00  0.00     0.082 C 
BRANCH  27  28
HETATM   28  C3  UNL     1     111.860  88.541  26.645  1.00  0.00     0.010 C 
BRANCH  28  29
HETATM   29  C2  UNL     1     112.558  87.862  27.818  1.00  0.00    -0.004 C 
HETATM   30  C1  UNL     1     112.649  88.899  28.931  1.00  0.00     0.005 C 
ENDBRANCH  28  29
ENDBRANCH  27  28
ENDBRANCH  26  27
ENDBRANCH   1  26
TORSDOF 9
ENDMDL
