MODEL 2
REMARK VINA RESULT: -7.847427426      1.400      1.665
REMARK  13 active torsions:
REMARK  status: ('A' for Active; 'I' for Inactive)
REMARK    1  A    between atoms: C2_2  and  C3_3 
REMARK    2  A    between atoms: C3_3  and  C4_4 
REMARK    3  A    between atoms: C4_4  and  C5_5 
REMARK    4  A    between atoms: C5_5  and  C6_6 
REMARK    5  A    between atoms: C6_6  and  C7_7 
REMARK    6  A    between atoms: C6_6  and  C9_14 
REMARK    7  A    between atoms: C7_7  and  C8_8 
REMARK       I    between atoms: C8_8  and  N1_10 
REMARK    8  A    between atoms: N1_10  and  O2_12 
REMARK       I    between atoms: C9_14  and  N2_16 
REMARK    9  A    between atoms: N2_16  and  C10_18 
REMARK   10  A    between atoms: C10_18  and  C11_19 
REMARK   11  A    between atoms: C10_18  and  C17_29 
REMARK       I    between atoms: C11_19  and  N3_21 
REMARK   12  A    between atoms: C15_25  and  C16_26 
REMARK   13  A    between atoms: C16_26  and  O5_27 
ROOT
HETATM    1  C9  UNL     1       2.338  18.987  66.358  1.00  0.00     0.223 C 
HETATM    2  O3  UNL     1       2.345  17.996  67.140  1.00  0.00    -0.273 OA
HETATM    3  N2  UNL     1       3.338  19.975  66.591  1.00  0.00    -0.347 N 
ATOM      4  H2  UNL     1       3.387  20.800  65.993  1.00  0.00     0.163 HD
ENDROOT
BRANCH   3   5
HETATM    5  C10 UNL     1       4.293  19.809  67.687  1.00  0.00     0.180 C 
BRANCH   5   6
HETATM    6  C11 UNL     1       3.733  20.274  68.969  1.00  0.00     0.243 C 
HETATM    7  O4  UNL     1       3.854  19.441  69.949  1.00  0.00    -0.271 OA
HETATM    8  N3  UNL     1       3.104  21.515  69.175  1.00  0.00    -0.344 N 
HETATM    9  C12 UNL     1       2.488  21.947  70.440  1.00  0.00     0.126 C 
HETATM   10  C15 UNL     1       2.929  22.643  68.308  1.00  0.00     0.111 C 
HETATM   11  C13 UNL     1       1.286  22.743  69.970  1.00  0.00     0.022 C 
HETATM   12  C14 UNL     1       1.456  22.980  68.482  1.00  0.00     0.029 C 
BRANCH  10  13
HETATM   13  C16 UNL     1       3.665  23.877  68.882  1.00  0.00     0.189 C 
BRANCH  13  14
HETATM   14  O5  UNL     1       3.591  24.959  68.037  1.00  0.00    -0.399 OA
ATOM     15  H5  UNL     1       3.009  25.631  68.371  1.00  0.00     0.209 HD
ENDBRANCH  13  14
ENDBRANCH  10  13
ENDBRANCH   5   6
BRANCH   5  16
HETATM   16  C17 UNL     1       5.550  20.612  67.363  1.00  0.00     0.009 C 
HETATM   17  C18 UNL     1       6.563  20.506  68.465  1.00  0.00     0.012 C 
HETATM   18  C19 UNL     1       6.114  20.161  66.030  1.00  0.00     0.012 C 
ENDBRANCH   5  16
ENDBRANCH   3   5
BRANCH   1  19
HETATM   19  C6  UNL     1       1.330  19.051  65.296  1.00  0.00     0.086 C 
BRANCH  19  20
HETATM   20  C5  UNL     1       0.254  20.025  65.677  1.00  0.00     0.014 C 
BRANCH  20  21
HETATM   21  C4  UNL     1      -1.030  19.419  66.068  1.00  0.00     0.001 C 
BRANCH  21  22
HETATM   22  C3  UNL     1      -2.158  20.406  66.159  1.00  0.00    -0.000 C 
BRANCH  22  23
HETATM   23  C2  UNL     1      -1.657  21.739  66.613  1.00  0.00    -0.005 C 
HETATM   24  C1  UNL     1      -1.970  21.840  68.100  1.00  0.00     0.005 C 
ENDBRANCH  22  23
ENDBRANCH  21  22
ENDBRANCH  20  21
ENDBRANCH  19  20
BRANCH  19  25
HETATM   25  C7  UNL     1       0.893  17.699  64.898  1.00  0.00     0.119 C 
BRANCH  25  26
HETATM   26  C8  UNL     1       1.798  17.077  63.924  1.00  0.00     0.241 C 
HETATM   27  O1  UNL     1       2.449  17.720  63.064  1.00  0.00    -0.271 OA
HETATM   28  N1  UNL     1       1.945  15.654  63.959  1.00  0.00    -0.237 N 
ATOM     29  H1  UNL     1       1.437  15.090  64.640  1.00  0.00     0.197 HD
BRANCH  28  30
HETATM   30  O2  UNL     1       2.774  15.080  63.067  1.00  0.00    -0.287 OA
ATOM     31  H2  UNL     1       3.577  14.689  63.390  1.00  0.00     0.244 HD
ENDBRANCH  28  30
ENDBRANCH  25  26
ENDBRANCH  19  25
ENDBRANCH   1  19
TORSDOF 13
ENDMDL
