MODEL 10
REMARK VINA RESULT: -7.128414866      2.330      6.118
REMARK  13 active torsions:
REMARK  status: ('A' for Active; 'I' for Inactive)
REMARK    1  A    between atoms: C2_2  and  C3_3 
REMARK    2  A    between atoms: C3_3  and  C4_4 
REMARK    3  A    between atoms: C4_4  and  C5_5 
REMARK    4  A    between atoms: C5_5  and  C6_6 
REMARK    5  A    between atoms: C6_6  and  C7_7 
REMARK    6  A    between atoms: C6_6  and  C9_14 
REMARK    7  A    between atoms: C7_7  and  C8_8 
REMARK       I    between atoms: C8_8  and  N1_10 
REMARK    8  A    between atoms: N1_10  and  O2_12 
REMARK       I    between atoms: C9_14  and  N2_16 
REMARK    9  A    between atoms: N2_16  and  C10_18 
REMARK   10  A    between atoms: C10_18  and  C11_19 
REMARK   11  A    between atoms: C10_18  and  C17_29 
REMARK       I    between atoms: C11_19  and  N3_21 
REMARK   12  A    between atoms: C15_25  and  C16_26 
REMARK   13  A    between atoms: C16_26  and  O5_27 
ROOT
HETATM    1  C9  UNL     1       4.764  19.720  67.559  1.00  0.00     0.223 C 
HETATM    2  O3  UNL     1       4.283  18.783  68.253  1.00  0.00    -0.273 OA
HETATM    3  N2  UNL     1       3.945  20.877  67.416  1.00  0.00    -0.347 N 
ATOM      4  H2  UNL     1       4.277  21.671  66.867  1.00  0.00     0.163 HD
ENDROOT
BRANCH   3   5
HETATM    5  C10 UNL     1       2.629  20.929  68.053  1.00  0.00     0.180 C 
BRANCH   5   6
HETATM    6  C11 UNL     1       1.550  21.055  67.059  1.00  0.00     0.243 C 
HETATM    7  O4  UNL     1       1.120  22.259  66.872  1.00  0.00    -0.271 OA
HETATM    8  N3  UNL     1       0.987  19.989  66.335  1.00  0.00    -0.344 N 
HETATM    9  C12 UNL     1      -0.136  20.110  65.391  1.00  0.00     0.126 C 
HETATM   10  C15 UNL     1       1.334  18.599  66.273  1.00  0.00     0.111 C 
HETATM   11  C13 UNL     1      -0.899  18.818  65.613  1.00  0.00     0.022 C 
HETATM   12  C14 UNL     1      -0.009  17.905  66.433  1.00  0.00     0.029 C 
BRANCH  10  13
HETATM   13  C16 UNL     1       1.781  18.224  64.840  1.00  0.00     0.189 C 
BRANCH  13  14
HETATM   14  O5  UNL     1       3.132  18.400  64.659  1.00  0.00    -0.399 OA
ATOM     15  H5  UNL     1       3.327  18.836  63.838  1.00  0.00     0.209 HD
ENDBRANCH  13  14
ENDBRANCH  10  13
ENDBRANCH   5   6
BRANCH   5  16
HETATM   16  C17 UNL     1       2.593  22.128  68.997  1.00  0.00     0.009 C 
HETATM   17  C18 UNL     1       2.352  21.699  70.415  1.00  0.00     0.012 C 
HETATM   18  C19 UNL     1       3.874  22.928  68.856  1.00  0.00     0.012 C 
ENDBRANCH   5  16
ENDBRANCH   3   5
BRANCH   1  19
HETATM   19  C6  UNL     1       6.093  19.556  66.961  1.00  0.00     0.086 C 
BRANCH  19  20
HETATM   20  C5  UNL     1       6.986  18.815  67.911  1.00  0.00     0.014 C 
BRANCH  20  21
HETATM   21  C4  UNL     1       8.084  19.609  68.489  1.00  0.00     0.001 C 
BRANCH  21  22
HETATM   22  C3  UNL     1       7.907  19.905  69.950  1.00  0.00    -0.000 C 
BRANCH  22  23
HETATM   23  C2  UNL     1       7.058  21.120  70.144  1.00  0.00    -0.005 C 
HETATM   24  C1  UNL     1       5.907  20.707  71.051  1.00  0.00     0.005 C 
ENDBRANCH  22  23
ENDBRANCH  21  22
ENDBRANCH  20  21
ENDBRANCH  19  20
BRANCH  19  25
HETATM   25  C7  UNL     1       6.599  20.839  66.437  1.00  0.00     0.119 C 
BRANCH  25  26
HETATM   26  C8  UNL     1       7.386  20.676  65.209  1.00  0.00     0.241 C 
HETATM   27  O1  UNL     1       7.780  19.566  64.773  1.00  0.00    -0.271 OA
HETATM   28  N1  UNL     1       7.723  21.852  64.466  1.00  0.00    -0.237 N 
ATOM     29  H1  UNL     1       7.424  22.775  64.781  1.00  0.00     0.197 HD
BRANCH  28  30
HETATM   30  O2  UNL     1       8.445  21.706  63.340  1.00  0.00    -0.287 OA
ATOM     31  H2  UNL     1       8.128  21.100  62.681  1.00  0.00     0.244 HD
ENDBRANCH  28  30
ENDBRANCH  25  26
ENDBRANCH  19  25
ENDBRANCH   1  19
TORSDOF 13
ENDMDL
