MODEL 1
REMARK VINA RESULT: -7.975623294      0.000      0.000
REMARK  13 active torsions:
REMARK  status: ('A' for Active; 'I' for Inactive)
REMARK    1  A    between atoms: C2_2  and  C3_3 
REMARK    2  A    between atoms: C3_3  and  C4_4 
REMARK    3  A    between atoms: C4_4  and  C5_5 
REMARK    4  A    between atoms: C5_5  and  C6_6 
REMARK    5  A    between atoms: C6_6  and  C7_7 
REMARK    6  A    between atoms: C6_6  and  C9_14 
REMARK    7  A    between atoms: C7_7  and  C8_8 
REMARK       I    between atoms: C8_8  and  N1_10 
REMARK    8  A    between atoms: N1_10  and  O2_12 
REMARK       I    between atoms: C9_14  and  N2_16 
REMARK    9  A    between atoms: N2_16  and  C10_18 
REMARK   10  A    between atoms: C10_18  and  C11_19 
REMARK   11  A    between atoms: C10_18  and  C17_29 
REMARK       I    between atoms: C11_19  and  N3_21 
REMARK   12  A    between atoms: C15_25  and  C16_26 
REMARK   13  A    between atoms: C16_26  and  O5_27 
ROOT
HETATM    1  C9  UNL     1       3.051  19.052  66.991  1.00  0.00     0.223 C 
HETATM    2  O3  UNL     1       3.076  18.400  68.071  1.00  0.00    -0.273 OA
HETATM    3  N2  UNL     1       3.947  20.157  66.906  1.00  0.00    -0.347 N 
ATOM      4  H2  UNL     1       3.977  20.723  66.059  1.00  0.00     0.163 HD
ENDROOT
BRANCH   3   5
HETATM    5  C10 UNL     1       4.824  20.478  68.032  1.00  0.00     0.180 C 
BRANCH   5   6
HETATM    6  C11 UNL     1       4.565  21.833  68.551  1.00  0.00     0.243 C 
HETATM    7  O4  UNL     1       5.620  22.552  68.746  1.00  0.00    -0.271 OA
HETATM    8  N3  UNL     1       3.293  22.363  68.831  1.00  0.00    -0.344 N 
HETATM    9  C12 UNL     1       3.043  23.692  69.411  1.00  0.00     0.126 C 
HETATM   10  C15 UNL     1       1.978  21.833  68.616  1.00  0.00     0.111 C 
HETATM   11  C13 UNL     1       1.843  23.445  70.305  1.00  0.00     0.022 C 
HETATM   12  C14 UNL     1       1.290  22.079  69.949  1.00  0.00     0.029 C 
BRANCH  10  13
HETATM   13  C16 UNL     1       1.199  22.725  67.622  1.00  0.00     0.189 C 
BRANCH  13  14
HETATM   14  O5  UNL     1       1.368  22.316  66.321  1.00  0.00    -0.399 OA
ATOM     15  H5  UNL     1       1.948  22.892  65.839  1.00  0.00     0.209 HD
ENDBRANCH  13  14
ENDBRANCH  10  13
ENDBRANCH   5   6
BRANCH   5  16
HETATM   16  C17 UNL     1       6.274  20.384  67.562  1.00  0.00     0.009 C 
HETATM   17  C18 UNL     1       6.930  19.133  68.069  1.00  0.00     0.012 C 
HETATM   18  C19 UNL     1       6.327  20.479  66.049  1.00  0.00     0.012 C 
ENDBRANCH   5  16
ENDBRANCH   3   5
BRANCH   1  19
HETATM   19  C6  UNL     1       2.126  18.641  65.930  1.00  0.00     0.086 C 
BRANCH  19  20
HETATM   20  C5  UNL     1       0.713  18.742  66.424  1.00  0.00     0.014 C 
BRANCH  20  21
HETATM   21  C4  UNL     1      -0.219  19.437  65.519  1.00  0.00     0.001 C 
BRANCH  21  22
HETATM   22  C3  UNL     1      -1.613  19.552  66.066  1.00  0.00    -0.000 C 
BRANCH  22  23
HETATM   23  C2  UNL     1      -2.060  20.979  66.075  1.00  0.00    -0.005 C 
HETATM   24  C1  UNL     1      -2.078  21.421  67.532  1.00  0.00     0.005 C 
ENDBRANCH  22  23
ENDBRANCH  21  22
ENDBRANCH  20  21
ENDBRANCH  19  20
BRANCH  19  25
HETATM   25  C7  UNL     1       2.535  17.352  65.342  1.00  0.00     0.119 C 
BRANCH  25  26
HETATM   26  C8  UNL     1       2.149  17.228  63.930  1.00  0.00     0.241 C 
HETATM   27  O1  UNL     1       2.482  18.048  63.039  1.00  0.00    -0.271 OA
HETATM   28  N1  UNL     1       1.346  16.106  63.550  1.00  0.00    -0.237 N 
ATOM     29  H1  UNL     1       1.052  15.414  64.239  1.00  0.00     0.197 HD
BRANCH  28  30
HETATM   30  O2  UNL     1       0.991  15.989  62.258  1.00  0.00    -0.287 OA
ATOM     31  H2  UNL     1       0.408  16.645  61.893  1.00  0.00     0.244 HD
ENDBRANCH  28  30
ENDBRANCH  25  26
ENDBRANCH  19  25
ENDBRANCH   1  19
TORSDOF 13
ENDMDL
