MODEL 7
REMARK VINA RESULT: -7.306141953      1.640      2.102
REMARK  13 active torsions:
REMARK  status: ('A' for Active; 'I' for Inactive)
REMARK    1  A    between atoms: C2_2  and  C3_3 
REMARK    2  A    between atoms: C3_3  and  C4_4 
REMARK    3  A    between atoms: C4_4  and  C5_5 
REMARK    4  A    between atoms: C5_5  and  C6_6 
REMARK    5  A    between atoms: C6_6  and  C7_7 
REMARK    6  A    between atoms: C6_6  and  C9_14 
REMARK    7  A    between atoms: C7_7  and  C8_8 
REMARK       I    between atoms: C8_8  and  N1_10 
REMARK    8  A    between atoms: N1_10  and  O2_12 
REMARK       I    between atoms: C9_14  and  N2_16 
REMARK    9  A    between atoms: N2_16  and  C10_18 
REMARK   10  A    between atoms: C10_18  and  C11_19 
REMARK   11  A    between atoms: C10_18  and  C17_29 
REMARK       I    between atoms: C11_19  and  N3_21 
REMARK   12  A    between atoms: C15_25  and  C16_26 
REMARK   13  A    between atoms: C16_26  and  O5_27 
ROOT
HETATM    1  C9  UNL     1       2.760  19.413  66.933  1.00  0.00     0.223 C 
HETATM    2  O3  UNL     1       2.817  18.700  67.972  1.00  0.00    -0.273 OA
HETATM    3  N2  UNL     1       3.301  20.728  67.045  1.00  0.00    -0.347 N 
ATOM      4  H2  UNL     1       3.287  21.353  66.240  1.00  0.00     0.163 HD
ENDROOT
BRANCH   3   5
HETATM    5  C10 UNL     1       3.875  21.179  68.312  1.00  0.00     0.180 C 
BRANCH   5   6
HETATM    6  C11 UNL     1       3.373  22.513  68.690  1.00  0.00     0.243 C 
HETATM    7  O4  UNL     1       2.954  23.235  67.705  1.00  0.00    -0.271 OA
HETATM    8  N3  UNL     1       3.327  23.019  70.001  1.00  0.00    -0.344 N 
HETATM    9  C12 UNL     1       2.887  24.375  70.366  1.00  0.00     0.126 C 
HETATM   10  C15 UNL     1       3.626  22.407  71.263  1.00  0.00     0.111 C 
HETATM   11  C13 UNL     1       3.807  24.725  71.519  1.00  0.00     0.022 C 
HETATM   12  C14 UNL     1       4.502  23.447  71.945  1.00  0.00     0.029 C 
BRANCH  10  13
HETATM   13  C16 UNL     1       2.356  22.352  72.144  1.00  0.00     0.189 C 
BRANCH  13  14
HETATM   14  O5  UNL     1       1.833  21.083  72.213  1.00  0.00    -0.399 OA
ATOM     15  H5  UNL     1       0.884  21.091  72.244  1.00  0.00     0.209 HD
ENDBRANCH  13  14
ENDBRANCH  10  13
ENDBRANCH   5   6
BRANCH   5  16
HETATM   16  C17 UNL     1       5.394  21.231  68.167  1.00  0.00     0.009 C 
HETATM   17  C18 UNL     1       6.070  20.398  69.217  1.00  0.00     0.012 C 
HETATM   18  C19 UNL     1       5.788  20.808  66.766  1.00  0.00     0.012 C 
ENDBRANCH   5  16
ENDBRANCH   3   5
BRANCH   1  19
HETATM   19  C6  UNL     1       2.158  18.857  65.718  1.00  0.00     0.086 C 
BRANCH  19  20
HETATM   20  C5  UNL     1       0.675  18.723  65.904  1.00  0.00     0.014 C 
BRANCH  20  21
HETATM   21  C4  UNL     1      -0.001  19.920  66.432  1.00  0.00     0.001 C 
BRANCH  21  22
HETATM   22  C3  UNL     1      -1.500  19.831  66.391  1.00  0.00    -0.000 C 
BRANCH  22  23
HETATM   23  C2  UNL     1      -2.096  21.138  65.979  1.00  0.00    -0.005 C 
HETATM   24  C1  UNL     1      -1.391  22.215  66.792  1.00  0.00     0.005 C 
ENDBRANCH  22  23
ENDBRANCH  21  22
ENDBRANCH  20  21
ENDBRANCH  19  20
BRANCH  19  25
HETATM   25  C7  UNL     1       2.884  17.654  65.270  1.00  0.00     0.119 C 
BRANCH  25  26
HETATM   26  C8  UNL     1       2.376  17.130  63.995  1.00  0.00     0.241 C 
HETATM   27  O1  UNL     1       2.504  17.722  62.895  1.00  0.00    -0.271 OA
HETATM   28  N1  UNL     1       1.697  15.871  64.010  1.00  0.00    -0.237 N 
ATOM     29  H1  UNL     1       1.570  15.354  64.880  1.00  0.00     0.197 HD
BRANCH  28  30
HETATM   30  O2  UNL     1       1.230  15.388  62.844  1.00  0.00    -0.287 OA
ATOM     31  H2  UNL     1       1.650  14.618  62.478  1.00  0.00     0.244 HD
ENDBRANCH  28  30
ENDBRANCH  25  26
ENDBRANCH  19  25
ENDBRANCH   1  19
TORSDOF 13
ENDMDL
