MODEL 6
REMARK VINA RESULT: -7.425996658      2.044      4.438
REMARK  13 active torsions:
REMARK  status: ('A' for Active; 'I' for Inactive)
REMARK    1  A    between atoms: C2_2  and  C3_3 
REMARK    2  A    between atoms: C3_3  and  C4_4 
REMARK    3  A    between atoms: C4_4  and  C5_5 
REMARK    4  A    between atoms: C5_5  and  C6_6 
REMARK    5  A    between atoms: C6_6  and  C7_7 
REMARK    6  A    between atoms: C6_6  and  C9_14 
REMARK    7  A    between atoms: C7_7  and  C8_8 
REMARK       I    between atoms: C8_8  and  N1_10 
REMARK    8  A    between atoms: N1_10  and  O2_12 
REMARK       I    between atoms: C9_14  and  N2_16 
REMARK    9  A    between atoms: N2_16  and  C10_18 
REMARK   10  A    between atoms: C10_18  and  C11_19 
REMARK   11  A    between atoms: C10_18  and  C17_29 
REMARK       I    between atoms: C11_19  and  N3_21 
REMARK   12  A    between atoms: C15_25  and  C16_26 
REMARK   13  A    between atoms: C16_26  and  O5_27 
ROOT
HETATM    1  C9  UNL     1       3.368  21.914  67.885  1.00  0.00     0.223 C 
HETATM    2  O3  UNL     1       3.781  23.098  67.745  1.00  0.00    -0.273 OA
HETATM    3  N2  UNL     1       4.207  21.044  68.641  1.00  0.00    -0.347 N 
ATOM      4  H2  UNL     1       3.929  20.075  68.793  1.00  0.00     0.163 HD
ENDROOT
BRANCH   3   5
HETATM    5  C10 UNL     1       5.465  21.540  69.199  1.00  0.00     0.180 C 
BRANCH   5   6
HETATM    6  C11 UNL     1       6.602  20.683  68.819  1.00  0.00     0.243 C 
HETATM    7  O4  UNL     1       7.348  20.301  69.801  1.00  0.00    -0.271 OA
HETATM    8  N3  UNL     1       6.905  20.276  67.507  1.00  0.00    -0.344 N 
HETATM    9  C12 UNL     1       8.079  19.475  67.123  1.00  0.00     0.126 C 
HETATM   10  C15 UNL     1       6.204  20.467  66.271  1.00  0.00     0.111 C 
HETATM   11  C13 UNL     1       8.453  20.058  65.774  1.00  0.00     0.022 C 
HETATM   12  C14 UNL     1       7.301  20.936  65.327  1.00  0.00     0.029 C 
BRANCH  10  13
HETATM   13  C16 UNL     1       5.768  19.102  65.688  1.00  0.00     0.189 C 
BRANCH  13  14
HETATM   14  O5  UNL     1       4.452  19.108  65.294  1.00  0.00    -0.399 OA
ATOM     15  H5  UNL     1       4.308  19.672  64.543  1.00  0.00     0.209 HD
ENDBRANCH  13  14
ENDBRANCH  10  13
ENDBRANCH   5   6
BRANCH   5  16
HETATM   16  C17 UNL     1       5.343  21.573  70.721  1.00  0.00     0.009 C 
HETATM   17  C18 UNL     1       5.146  22.975  71.221  1.00  0.00     0.012 C 
HETATM   18  C19 UNL     1       4.224  20.652  71.163  1.00  0.00     0.012 C 
ENDBRANCH   5  16
ENDBRANCH   3   5
BRANCH   1  19
HETATM   19  C6  UNL     1       2.092  21.525  67.277  1.00  0.00     0.086 C 
BRANCH  19  20
HETATM   20  C5  UNL     1       1.099  22.639  67.430  1.00  0.00     0.014 C 
BRANCH  20  21
HETATM   21  C4  UNL     1      -0.215  22.238  67.962  1.00  0.00     0.001 C 
BRANCH  21  22
HETATM   22  C3  UNL     1      -1.367  22.646  67.089  1.00  0.00    -0.000 C 
BRANCH  22  23
HETATM   23  C2  UNL     1      -1.521  21.698  65.943  1.00  0.00    -0.005 C 
HETATM   24  C1  UNL     1      -1.839  20.336  66.543  1.00  0.00     0.005 C 
ENDBRANCH  22  23
ENDBRANCH  21  22
ENDBRANCH  20  21
ENDBRANCH  19  20
BRANCH  19  25
HETATM   25  C7  UNL     1       1.670  20.189  67.740  1.00  0.00     0.119 C 
BRANCH  25  26
HETATM   26  C8  UNL     1       1.787  19.167  66.693  1.00  0.00     0.241 C 
HETATM   27  O1  UNL     1       2.158  17.986  66.906  1.00  0.00    -0.271 OA
HETATM   28  N1  UNL     1       1.458  19.540  65.351  1.00  0.00    -0.237 N 
ATOM     29  H1  UNL     1       1.152  20.488  65.130  1.00  0.00     0.197 HD
BRANCH  28  30
HETATM   30  O2  UNL     1       1.564  18.606  64.389  1.00  0.00    -0.287 OA
ATOM     31  H2  UNL     1       0.859  17.976  64.297  1.00  0.00     0.244 HD
ENDBRANCH  28  30
ENDBRANCH  25  26
ENDBRANCH  19  25
ENDBRANCH   1  19
TORSDOF 13
ENDMDL
