MODEL 4
REMARK VINA RESULT: -7.723577134      1.792      5.181
REMARK  13 active torsions:
REMARK  status: ('A' for Active; 'I' for Inactive)
REMARK    1  A    between atoms: C2_2  and  C3_3 
REMARK    2  A    between atoms: C3_3  and  C4_4 
REMARK    3  A    between atoms: C4_4  and  C5_5 
REMARK    4  A    between atoms: C5_5  and  C6_6 
REMARK    5  A    between atoms: C6_6  and  C7_7 
REMARK    6  A    between atoms: C6_6  and  C9_14 
REMARK    7  A    between atoms: C7_7  and  C8_8 
REMARK       I    between atoms: C8_8  and  N1_10 
REMARK    8  A    between atoms: N1_10  and  O2_12 
REMARK       I    between atoms: C9_14  and  N2_16 
REMARK    9  A    between atoms: N2_16  and  C10_18 
REMARK   10  A    between atoms: C10_18  and  C11_19 
REMARK   11  A    between atoms: C10_18  and  C17_29 
REMARK       I    between atoms: C11_19  and  N3_21 
REMARK   12  A    between atoms: C15_25  and  C16_26 
REMARK   13  A    between atoms: C16_26  and  O5_27 
ROOT
HETATM    1  C9  UNL     1       3.788  19.498  68.019  1.00  0.00     0.223 C 
HETATM    2  O3  UNL     1       3.177  18.903  68.949  1.00  0.00    -0.273 OA
HETATM    3  N2  UNL     1       3.329  20.811  67.708  1.00  0.00    -0.347 N 
ATOM      4  H2  UNL     1       3.782  21.346  66.968  1.00  0.00     0.163 HD
ENDROOT
BRANCH   3   5
HETATM    5  C10 UNL     1       2.210  21.392  68.450  1.00  0.00     0.180 C 
BRANCH   5   6
HETATM    6  C11 UNL     1       1.214  21.992  67.545  1.00  0.00     0.243 C 
HETATM    7  O4  UNL     1       1.228  23.283  67.499  1.00  0.00    -0.271 OA
HETATM    8  N3  UNL     1       0.291  21.273  66.765  1.00  0.00    -0.344 N 
HETATM    9  C12 UNL     1      -0.746  21.878  65.913  1.00  0.00     0.126 C 
HETATM   10  C15 UNL     1       0.126  19.865  66.551  1.00  0.00     0.111 C 
HETATM   11  C13 UNL     1      -1.906  20.914  66.064  1.00  0.00     0.022 C 
HETATM   12  C14 UNL     1      -1.370  19.665  66.736  1.00  0.00     0.029 C 
BRANCH  10  13
HETATM   13  C16 UNL     1       0.370  19.518  65.064  1.00  0.00     0.189 C 
BRANCH  13  14
HETATM   14  O5  UNL     1       0.205  18.176  64.815  1.00  0.00    -0.399 OA
ATOM     15  H5  UNL     1       0.812  17.859  64.157  1.00  0.00     0.209 HD
ENDBRANCH  13  14
ENDBRANCH  10  13
ENDBRANCH   5   6
BRANCH   5  16
HETATM   16  C17 UNL     1       2.753  22.465  69.389  1.00  0.00     0.009 C 
HETATM   17  C18 UNL     1       2.679  22.023  70.822  1.00  0.00     0.012 C 
HETATM   18  C19 UNL     1       4.167  22.832  68.982  1.00  0.00     0.012 C 
ENDBRANCH   5  16
ENDBRANCH   3   5
BRANCH   1  19
HETATM   19  C6  UNL     1       4.894  18.816  67.340  1.00  0.00     0.086 C 
BRANCH  19  20
HETATM   20  C5  UNL     1       6.201  19.377  67.815  1.00  0.00     0.014 C 
BRANCH  20  21
HETATM   21  C4  UNL     1       6.847  20.329  66.894  1.00  0.00     0.001 C 
BRANCH  21  22
HETATM   22  C3  UNL     1       8.147  19.833  66.332  1.00  0.00    -0.000 C 
BRANCH  22  23
HETATM   23  C2  UNL     1       8.152  19.939  64.840  1.00  0.00    -0.005 C 
HETATM   24  C1  UNL     1       7.975  21.414  64.507  1.00  0.00     0.005 C 
ENDBRANCH  22  23
ENDBRANCH  21  22
ENDBRANCH  20  21
ENDBRANCH  19  20
BRANCH  19  25
HETATM   25  C7  UNL     1       4.677  18.778  65.881  1.00  0.00     0.119 C 
BRANCH  25  26
HETATM   26  C8  UNL     1       3.553  17.913  65.500  1.00  0.00     0.241 C 
HETATM   27  O1  UNL     1       3.194  17.715  64.314  1.00  0.00    -0.271 OA
HETATM   28  N1  UNL     1       2.827  17.258  66.545  1.00  0.00    -0.237 N 
ATOM     29  H1  UNL     1       3.083  17.389  67.524  1.00  0.00     0.197 HD
BRANCH  28  30
HETATM   30  O2  UNL     1       1.797  16.465  66.200  1.00  0.00    -0.287 OA
ATOM     31  H2  UNL     1       0.932  16.855  66.138  1.00  0.00     0.244 HD
ENDBRANCH  28  30
ENDBRANCH  25  26
ENDBRANCH  19  25
ENDBRANCH   1  19
TORSDOF 13
ENDMDL
