MODEL 1
REMARK VINA RESULT: -6.691482648      0.000      0.000
REMARK  4 active torsions:
REMARK  status: ('A' for Active; 'I' for Inactive)
REMARK    1  A    between atoms: O1_2  and  C2_3 
REMARK    2  A    between atoms: C7_8  and  O2_9 
REMARK    3  A    between atoms: N1_13  and  S1_14 
REMARK    4  A    between atoms: S1_14  and  N2_15 
ROOT
HETATM    1  C2  UNL     1      -4.745   1.213  15.048  1.00  0.00     0.102 A 
HETATM    2  C3  UNL     1      -4.740   2.546  15.481  1.00  0.00     0.047 A 
HETATM    3  C4  UNL     1      -4.374   3.529  14.600  1.00  0.00    -0.046 A 
HETATM    4  C5  UNL     1      -4.011   3.226  13.299  1.00  0.00    -0.030 A 
HETATM    5  C6  UNL     1      -4.024   1.904  12.895  1.00  0.00     0.049 A 
HETATM    6  C7  UNL     1      -4.389   0.891  13.759  1.00  0.00     0.102 A 
HETATM    7  C9  UNL     1      -3.610   4.269  12.324  1.00  0.00     0.105 C 
HETATM    8  C10 UNL     1      -2.612   3.760  11.333  1.00  0.00     0.032 C 
HETATM    9  N1  UNL     1      -3.180   5.483  12.967  1.00  0.00    -0.185 NA
HETATM   10  C11 UNL     1      -4.143   5.912  13.942  1.00  0.00     0.114 C 
HETATM   11  C12 UNL     1      -4.367   4.923  15.049  1.00  0.00     0.055 C 
ENDROOT
BRANCH   9  12
HETATM   12  S1  UNL     1      -1.621   5.377  13.667  1.00  0.00     0.297 S 
HETATM   13  O3  UNL     1      -1.519   4.199  14.626  1.00  0.00    -0.189 OA
HETATM   14  O4  UNL     1      -1.421   6.608  14.515  1.00  0.00    -0.189 OA
BRANCH  12  15
HETATM   15  N2  UNL     1      -0.375   5.344  12.502  1.00  0.00    -0.316 N 
ATOM     16  H22 UNL     1      -0.280   4.594  11.817  1.00  0.00     0.170 HD
ATOM     17  H21 UNL     1       0.250   6.148  12.569  1.00  0.00     0.170 HD
ENDBRANCH  12  15
ENDBRANCH   9  12
BRANCH   6  18
HETATM   18  O2  UNL     1      -4.401  -0.416  13.359  1.00  0.00    -0.353 OA
HETATM   19  C8  UNL     1      -4.065  -0.900  12.100  1.00  0.00     0.210 C 
ENDBRANCH   6  18
BRANCH   1  20
HETATM   20  O1  UNL     1      -5.111   0.194  15.912  1.00  0.00    -0.353 OA
HETATM   21  C1  UNL     1      -5.838   0.494  17.071  1.00  0.00     0.210 C 
ENDBRANCH   1  20
TORSDOF 4
ENDMDL
