MODEL 5
REMARK VINA RESULT: -6.261922091      2.248      3.694
REMARK  4 active torsions:
REMARK  status: ('A' for Active; 'I' for Inactive)
REMARK    1  A    between atoms: O1_2  and  C2_3 
REMARK    2  A    between atoms: C7_8  and  O2_9 
REMARK    3  A    between atoms: N1_13  and  S1_14 
REMARK    4  A    between atoms: S1_14  and  N2_15 
ROOT
HETATM    1  C2  UNL     1      -4.205   0.674  12.905  1.00  0.00     0.102 A 
HETATM    2  C3  UNL     1      -3.724   1.471  11.858  1.00  0.00     0.047 A 
HETATM    3  C4  UNL     1      -3.488   2.800  12.090  1.00  0.00    -0.046 A 
HETATM    4  C5  UNL     1      -3.717   3.361  13.334  1.00  0.00    -0.030 A 
HETATM    5  C6  UNL     1      -4.191   2.554  14.351  1.00  0.00     0.049 A 
HETATM    6  C7  UNL     1      -4.438   1.211  14.150  1.00  0.00     0.102 A 
HETATM    7  C9  UNL     1      -3.471   4.797  13.615  1.00  0.00     0.105 C 
HETATM    8  C10 UNL     1      -4.406   5.337  14.650  1.00  0.00     0.032 C 
HETATM    9  N1  UNL     1      -3.455   5.593  12.415  1.00  0.00    -0.185 NA
HETATM   10  C11 UNL     1      -2.583   5.017  11.432  1.00  0.00     0.114 C 
HETATM   11  C12 UNL     1      -2.986   3.637  10.997  1.00  0.00     0.055 C 
ENDROOT
BRANCH   9  12
HETATM   12  S1  UNL     1      -5.010   5.873  11.752  1.00  0.00     0.297 S 
HETATM   13  O3  UNL     1      -6.094   5.178  12.564  1.00  0.00    -0.189 OA
HETATM   14  O4  UNL     1      -5.044   5.224  10.392  1.00  0.00    -0.189 OA
BRANCH  12  15
HETATM   15  N2  UNL     1      -5.350   7.531  11.545  1.00  0.00    -0.316 N 
ATOM     16  H22 UNL     1      -4.621   8.232  11.414  1.00  0.00     0.170 HD
ATOM     17  H21 UNL     1      -6.349   7.735  11.566  1.00  0.00     0.170 HD
ENDBRANCH  12  15
ENDBRANCH   9  12
BRANCH   6  18
HETATM   18  O2  UNL     1      -4.906   0.414  15.155  1.00  0.00    -0.353 OA
HETATM   19  C8  UNL     1      -5.262   0.820  16.436  1.00  0.00     0.210 C 
ENDBRANCH   6  18
BRANCH   1  20
HETATM   20  O1  UNL     1      -4.453  -0.675  12.705  1.00  0.00    -0.353 OA
HETATM   21  C1  UNL     1      -3.816  -1.350  11.657  1.00  0.00     0.210 C 
ENDBRANCH   1  20
TORSDOF 4
ENDMDL
