MODEL 2
REMARK VINA RESULT: -6.538791039      0.937      1.094
REMARK  4 active torsions:
REMARK  status: ('A' for Active; 'I' for Inactive)
REMARK    1  A    between atoms: O1_2  and  C2_3 
REMARK    2  A    between atoms: C7_8  and  O2_9 
REMARK    3  A    between atoms: N1_13  and  S1_14 
REMARK    4  A    between atoms: S1_14  and  N2_15 
ROOT
HETATM    1  C2  UNL     1      -4.390   1.671  15.445  1.00  0.00     0.102 A 
HETATM    2  C3  UNL     1      -4.279   3.033  15.749  1.00  0.00     0.047 A 
HETATM    3  C4  UNL     1      -4.147   3.934  14.725  1.00  0.00    -0.046 A 
HETATM    4  C5  UNL     1      -4.120   3.517  13.405  1.00  0.00    -0.030 A 
HETATM    5  C6  UNL     1      -4.232   2.168  13.130  1.00  0.00     0.049 A 
HETATM    6  C7  UNL     1      -4.368   1.236  14.140  1.00  0.00     0.102 A 
HETATM    7  C9  UNL     1      -3.977   4.469  12.276  1.00  0.00     0.105 C 
HETATM    8  C10 UNL     1      -3.258   3.860  11.114  1.00  0.00     0.032 C 
HETATM    9  N1  UNL     1      -3.401   5.723  12.687  1.00  0.00    -0.185 NA
HETATM   10  C11 UNL     1      -4.090   6.250  13.831  1.00  0.00     0.114 C 
HETATM   11  C12 UNL     1      -4.029   5.360  15.039  1.00  0.00     0.055 C 
ENDROOT
BRANCH   9  12
HETATM   12  S1  UNL     1      -1.716   5.644  12.982  1.00  0.00     0.297 S 
HETATM   13  O3  UNL     1      -1.294   6.629  14.063  1.00  0.00    -0.189 OA
HETATM   14  O4  UNL     1      -1.016   6.097  11.726  1.00  0.00    -0.189 OA
BRANCH  12  15
HETATM   15  N2  UNL     1      -1.181   4.063  13.333  1.00  0.00    -0.316 N 
ATOM     16  H22 UNL     1      -0.402   3.870  13.962  1.00  0.00     0.170 HD
ATOM     17  H21 UNL     1      -1.723   3.347  12.849  1.00  0.00     0.170 HD
ENDBRANCH  12  15
ENDBRANCH   9  12
BRANCH   6  18
HETATM   18  O2  UNL     1      -4.478  -0.098  13.868  1.00  0.00    -0.353 OA
HETATM   19  C8  UNL     1      -4.141  -0.731  12.677  1.00  0.00     0.210 C 
ENDBRANCH   6  18
BRANCH   1  20
HETATM   20  O1  UNL     1      -4.527   0.733  16.456  1.00  0.00    -0.353 OA
HETATM   21  C1  UNL     1      -5.778   0.535  17.054  1.00  0.00     0.210 C 
ENDBRANCH   1  20
TORSDOF 4
ENDMDL
