MODEL 10
REMARK VINA RESULT: -9.095401418      4.990      9.768
REMARK  11 active torsions:
REMARK  status: ('A' for Active; 'I' for Inactive)
REMARK    1  A    between atoms: O1_1  and  C1_3 
REMARK    2  A    between atoms: C1_3  and  C2_4 
REMARK    3  A    between atoms: C2_4  and  O2_5 
REMARK    4  A    between atoms: O2_5  and  C3_6 
REMARK    5  A    between atoms: C3_6  and  C4_7 
REMARK    6  A    between atoms: C4_7  and  N1_8 
REMARK    7  A    between atoms: C9_17  and  N4_18 
REMARK    8  A    between atoms: N4_18  and  C10_20 
REMARK    9  A    between atoms: C12_24  and  O3_25 
REMARK   10  A    between atoms: O3_25  and  C13_26 
REMARK   11  A    between atoms: C17_30  and  C18_31 
ROOT
HETATM    1  N4  UNL     1      16.178  17.338  26.127  1.00  0.00    -0.339 N 
ATOM      2  H4  UNL     1      15.903  18.304  26.301  1.00  0.00     0.167 HD
ENDROOT
BRANCH   1   3
HETATM    3  C9  UNL     1      17.133  16.996  25.167  1.00  0.00     0.136 A 
HETATM    4  N3  UNL     1      17.263  15.676  24.794  1.00  0.00    -0.337 N 
HETATM    5  C8  UNL     1      18.146  15.301  23.872  1.00  0.00     0.182 A 
ATOM      6  H3  UNL     1      16.669  14.972  25.233  1.00  0.00     0.168 HD
HETATM    7  N2  UNL     1      18.959  16.161  23.248  1.00  0.00    -0.350 N 
HETATM    8  C7  UNL     1      18.871  17.481  23.582  1.00  0.00     0.065 A 
ATOM      9  H2  UNL     1      19.624  15.840  22.544  1.00  0.00     0.166 HD
HETATM   10  C6  UNL     1      19.555  18.582  23.124  1.00  0.00     0.049 A 
HETATM   11  C22 UNL     1      17.956  17.909  24.546  1.00  0.00     0.106 A 
HETATM   12  C5  UNL     1      19.070  19.652  23.792  1.00  0.00     0.094 A 
HETATM   13  N1  UNL     1      18.110  19.229  24.642  1.00  0.00    -0.350 N 
BRANCH  13  14
HETATM   14  C4  UNL     1      17.406  20.143  25.530  1.00  0.00     0.155 C 
BRANCH  14  15
HETATM   15  C3  UNL     1      17.569  21.568  24.979  1.00  0.00     0.187 C 
BRANCH  15  16
HETATM   16  O2  UNL     1      16.600  21.756  23.964  1.00  0.00    -0.387 OA
BRANCH  16  17
HETATM   17  C2  UNL     1      16.607  23.015  23.425  1.00  0.00     0.193 C 
BRANCH  17  18
HETATM   18  C1  UNL     1      17.847  23.742  23.944  1.00  0.00     0.190 C 
BRANCH  18  19
HETATM   19  O1  UNL     1      18.513  24.302  22.836  1.00  0.00    -0.399 OA
ATOM     20  H1  UNL     1      18.606  25.234  22.995  1.00  0.00     0.209 HD
ENDBRANCH  18  19
ENDBRANCH  17  18
ENDBRANCH  16  17
ENDBRANCH  15  16
ENDBRANCH  14  15
ENDBRANCH  13  14
ENDBRANCH   1   3
BRANCH   1  21
HETATM   21  C10 UNL     1      15.602  16.225  26.860  1.00  0.00     0.051 A 
HETATM   22  C11 UNL     1      16.451  15.207  27.270  1.00  0.00     0.119 A 
HETATM   23  N5  UNL     1      16.003  14.123  27.909  1.00  0.00    -0.343 N 
HETATM   24  C12 UNL     1      14.686  13.937  28.204  1.00  0.00     0.170 A 
ATOM     25  H5  UNL     1      16.673  13.406  28.188  1.00  0.00     0.167 HD
HETATM   26  C20 UNL     1      13.825  14.933  27.807  1.00  0.00     0.087 A 
HETATM   27 CL1  UNL     1      12.141  14.741  28.146  1.00  0.00    -0.080 Cl
HETATM   28  C21 UNL     1      14.277  16.080  27.133  1.00  0.00     0.059 A 
BRANCH  24  29
HETATM   29  O3  UNL     1      14.286  12.799  28.865  1.00  0.00    -0.292 OA
BRANCH  29  30
HETATM   30  C13 UNL     1      14.923  11.664  29.157  1.00  0.00     0.078 A 
HETATM   31  C14 UNL     1      14.277  10.470  29.301  1.00  0.00     0.037 A 
HETATM   32  C15 UNL     1      14.968   9.305  29.612  1.00  0.00     0.004 A 
HETATM   33  C16 UNL     1      16.329   9.362  29.776  1.00  0.00     0.016 A 
HETATM   34  C17 UNL     1      17.016  10.545  29.637  1.00  0.00     0.050 A 
HETATM   35  C19 UNL     1      16.306  11.679  29.328  1.00  0.00     0.053 A 
BRANCH  34  36
HETATM   36  C18 UNL     1      18.479  10.536  29.862  1.00  0.00     0.417 C 
HETATM   37  F1  UNL     1      19.079  11.185  28.807  1.00  0.00    -0.166 F 
HETATM   38  F2  UNL     1      18.793  11.225  31.029  1.00  0.00    -0.166 F 
HETATM   39  F3  UNL     1      18.960   9.260  29.933  1.00  0.00    -0.166 F 
ENDBRANCH  34  36
ENDBRANCH  29  30
ENDBRANCH  24  29
ENDBRANCH   1  21
TORSDOF 11
ENDMDL
