MODEL 2
REMARK VINA RESULT: -10.696711649      0.722      1.204
REMARK  11 active torsions:
REMARK  status: ('A' for Active; 'I' for Inactive)
REMARK    1  A    between atoms: O1_1  and  C1_3 
REMARK    2  A    between atoms: C1_3  and  C2_4 
REMARK    3  A    between atoms: C2_4  and  O2_5 
REMARK    4  A    between atoms: O2_5  and  C3_6 
REMARK    5  A    between atoms: C3_6  and  C4_7 
REMARK    6  A    between atoms: C4_7  and  N1_8 
REMARK    7  A    between atoms: C9_17  and  N4_18 
REMARK    8  A    between atoms: N4_18  and  C10_20 
REMARK    9  A    between atoms: C12_24  and  O3_25 
REMARK   10  A    between atoms: O3_25  and  C13_26 
REMARK   11  A    between atoms: C17_30  and  C18_31 
ROOT
HETATM    1  N4  UNL     1      16.296  13.964  27.277  1.00  0.00    -0.339 N 
ATOM      2  H4  UNL     1      15.370  13.540  27.334  1.00  0.00     0.167 HD
ENDROOT
BRANCH   1   3
HETATM    3  C9  UNL     1      17.410  13.410  27.913  1.00  0.00     0.136 A 
HETATM    4  N3  UNL     1      18.613  14.079  27.856  1.00  0.00    -0.337 N 
HETATM    5  C8  UNL     1      19.699  13.603  28.459  1.00  0.00     0.182 A 
ATOM      6  H3  UNL     1      18.672  14.959  27.343  1.00  0.00     0.168 HD
HETATM    7  N2  UNL     1      19.705  12.460  29.155  1.00  0.00    -0.350 N 
HETATM    8  C7  UNL     1      18.538  11.757  29.241  1.00  0.00     0.065 A 
ATOM      9  H2  UNL     1      20.556  12.123  29.607  1.00  0.00     0.166 HD
HETATM   10  C6  UNL     1      18.234  10.575  29.872  1.00  0.00     0.049 A 
HETATM   11  C22 UNL     1      17.381  12.228  28.619  1.00  0.00     0.106 A 
HETATM   12  C5  UNL     1      16.925  10.333  29.641  1.00  0.00     0.094 A 
HETATM   13  N1  UNL     1      16.428  11.335  28.887  1.00  0.00    -0.350 N 
BRANCH  13  14
HETATM   14  C4  UNL     1      15.042  11.355  28.441  1.00  0.00     0.155 C 
BRANCH  14  15
HETATM   15  C3  UNL     1      14.193  12.009  29.542  1.00  0.00     0.187 C 
BRANCH  15  16
HETATM   16  O2  UNL     1      13.783  13.282  29.077  1.00  0.00    -0.387 OA
BRANCH  16  17
HETATM   17  C2  UNL     1      12.451  13.349  28.765  1.00  0.00     0.193 C 
BRANCH  17  18
HETATM   18  C1  UNL     1      11.711  12.340  29.644  1.00  0.00     0.190 C 
BRANCH  18  19
HETATM   19  O1  UNL     1      10.806  11.638  28.823  1.00  0.00    -0.399 OA
ATOM     20  H1  UNL     1      10.959  10.709  28.952  1.00  0.00     0.209 HD
ENDBRANCH  18  19
ENDBRANCH  17  18
ENDBRANCH  16  17
ENDBRANCH  15  16
ENDBRANCH  14  15
ENDBRANCH  13  14
ENDBRANCH   1   3
BRANCH   1  21
HETATM   21  C10 UNL     1      16.545  15.184  26.531  1.00  0.00     0.051 A 
HETATM   22  C11 UNL     1      15.829  16.319  26.882  1.00  0.00     0.119 A 
HETATM   23  N5  UNL     1      15.960  17.473  26.222  1.00  0.00    -0.343 N 
HETATM   24  C12 UNL     1      16.800  17.620  25.159  1.00  0.00     0.170 A 
ATOM     25  H5  UNL     1      15.408  18.276  26.524  1.00  0.00     0.167 HD
HETATM   26  C20 UNL     1      17.519  16.508  24.793  1.00  0.00     0.087 A 
HETATM   27 CL1  UNL     1      18.592  16.637  23.442  1.00  0.00    -0.080 Cl
HETATM   28  C21 UNL     1      17.397  15.285  25.474  1.00  0.00     0.059 A 
BRANCH  24  29
HETATM   29  O3  UNL     1      16.889  18.834  24.520  1.00  0.00    -0.292 OA
BRANCH  29  30
HETATM   30  C13 UNL     1      17.708  19.874  24.685  1.00  0.00     0.078 A 
HETATM   31  C14 UNL     1      18.853  19.802  25.425  1.00  0.00     0.037 A 
HETATM   32  C15 UNL     1      19.683  20.905  25.584  1.00  0.00     0.004 A 
HETATM   33  C16 UNL     1      19.340  22.089  24.982  1.00  0.00     0.016 A 
HETATM   34  C17 UNL     1      18.196  22.201  24.227  1.00  0.00     0.050 A 
HETATM   35  C19 UNL     1      17.397  21.093  24.087  1.00  0.00     0.053 A 
BRANCH  34  36
HETATM   36  C18 UNL     1      17.874  23.519  23.636  1.00  0.00     0.417 C 
HETATM   37  F1  UNL     1      19.012  24.011  23.038  1.00  0.00    -0.166 F 
HETATM   38  F2  UNL     1      16.896  23.382  22.656  1.00  0.00    -0.166 F 
HETATM   39  F3  UNL     1      17.454  24.400  24.590  1.00  0.00    -0.166 F 
ENDBRANCH  34  36
ENDBRANCH  29  30
ENDBRANCH  24  29
ENDBRANCH   1  21
TORSDOF 11
ENDMDL
