MODEL 3
REMARK VINA RESULT: -10.561790050      1.111      1.886
REMARK  11 active torsions:
REMARK  status: ('A' for Active; 'I' for Inactive)
REMARK    1  A    between atoms: O1_1  and  C1_3 
REMARK    2  A    between atoms: C1_3  and  C2_4 
REMARK    3  A    between atoms: C2_4  and  O2_5 
REMARK    4  A    between atoms: O2_5  and  C3_6 
REMARK    5  A    between atoms: C3_6  and  C4_7 
REMARK    6  A    between atoms: C4_7  and  N1_8 
REMARK    7  A    between atoms: C9_17  and  N4_18 
REMARK    8  A    between atoms: N4_18  and  C10_20 
REMARK    9  A    between atoms: C12_24  and  O3_25 
REMARK   10  A    between atoms: O3_25  and  C13_26 
REMARK   11  A    between atoms: C17_30  and  C18_31 
ROOT
HETATM    1  N4  UNL     1      16.138  14.134  27.306  1.00  0.00    -0.339 N 
ATOM      2  H4  UNL     1      15.173  13.825  27.420  1.00  0.00     0.167 HD
ENDROOT
BRANCH   1   3
HETATM    3  C9  UNL     1      17.209  13.478  27.917  1.00  0.00     0.136 A 
HETATM    4  N3  UNL     1      18.457  14.059  27.880  1.00  0.00    -0.337 N 
HETATM    5  C8  UNL     1      19.507  13.482  28.462  1.00  0.00     0.182 A 
ATOM      6  H3  UNL     1      18.580  14.949  27.398  1.00  0.00     0.168 HD
HETATM    7  N2  UNL     1      19.429  12.318  29.117  1.00  0.00    -0.350 N 
HETATM    8  C7  UNL     1      18.214  11.701  29.183  1.00  0.00     0.065 A 
ATOM      9  H2  UNL     1      20.253  11.904  29.554  1.00  0.00     0.166 HD
HETATM   10  C6  UNL     1      17.823  10.523  29.773  1.00  0.00     0.049 A 
HETATM   11  C22 UNL     1      17.093  12.277  28.582  1.00  0.00     0.106 A 
HETATM   12  C5  UNL     1      16.500  10.386  29.539  1.00  0.00     0.094 A 
HETATM   13  N1  UNL     1      16.078  11.448  28.822  1.00  0.00    -0.350 N 
BRANCH  13  14
HETATM   14  C4  UNL     1      14.696  11.585  28.382  1.00  0.00     0.155 C 
BRANCH  14  15
HETATM   15  C3  UNL     1      13.917  12.333  29.475  1.00  0.00     0.187 C 
BRANCH  15  16
HETATM   16  O2  UNL     1      13.261  11.370  30.279  1.00  0.00    -0.387 OA
BRANCH  16  17
HETATM   17  C2  UNL     1      12.709  10.341  29.562  1.00  0.00     0.193 C 
BRANCH  17  18
HETATM   18  C1  UNL     1      12.839   9.065  30.394  1.00  0.00     0.190 C 
BRANCH  18  19
HETATM   19  O1  UNL     1      13.707   9.341  31.470  1.00  0.00    -0.399 OA
ATOM     20  H1  UNL     1      13.259   9.940  32.056  1.00  0.00     0.209 HD
ENDBRANCH  18  19
ENDBRANCH  17  18
ENDBRANCH  16  17
ENDBRANCH  15  16
ENDBRANCH  14  15
ENDBRANCH  13  14
ENDBRANCH   1   3
BRANCH   1  21
HETATM   21  C10 UNL     1      16.491  15.286  26.497  1.00  0.00     0.051 A 
HETATM   22  C11 UNL     1      15.829  16.481  26.742  1.00  0.00     0.119 A 
HETATM   23  N5  UNL     1      16.056  17.579  26.016  1.00  0.00    -0.343 N 
HETATM   24  C12 UNL     1      16.950  17.609  24.988  1.00  0.00     0.170 A 
ATOM     25  H5  UNL     1      15.540  18.431  26.241  1.00  0.00     0.167 HD
HETATM   26  C20 UNL     1      17.618  16.437  24.728  1.00  0.00     0.087 A 
HETATM   27 CL1  UNL     1      18.755  16.416  23.425  1.00  0.00    -0.080 Cl
HETATM   28  C21 UNL     1      17.393  15.270  25.478  1.00  0.00     0.059 A 
BRANCH  24  29
HETATM   29  O3  UNL     1      17.139  18.772  24.278  1.00  0.00    -0.292 OA
BRANCH  29  30
HETATM   30  C13 UNL     1      17.886  19.852  24.514  1.00  0.00     0.078 A 
HETATM   31  C14 UNL     1      19.000  19.823  25.303  1.00  0.00     0.037 A 
HETATM   32  C15 UNL     1      19.754  20.966  25.534  1.00  0.00     0.004 A 
HETATM   33  C16 UNL     1      19.366  22.148  24.955  1.00  0.00     0.016 A 
HETATM   34  C17 UNL     1      18.252  22.218  24.152  1.00  0.00     0.050 A 
HETATM   35  C19 UNL     1      17.528  21.071  23.941  1.00  0.00     0.053 A 
BRANCH  34  36
HETATM   36  C18 UNL     1      17.877  23.534  23.588  1.00  0.00     0.417 C 
HETATM   37  F1  UNL     1      18.996  24.087  23.008  1.00  0.00    -0.166 F 
HETATM   38  F2  UNL     1      16.910  23.378  22.600  1.00  0.00    -0.166 F 
HETATM   39  F3  UNL     1      17.415  24.375  24.559  1.00  0.00    -0.166 F 
ENDBRANCH  34  36
ENDBRANCH  29  30
ENDBRANCH  24  29
ENDBRANCH   1  21
TORSDOF 11
ENDMDL
