MODEL 12
REMARK VINA RESULT: -9.018783803      3.002      4.926
REMARK  11 active torsions:
REMARK  status: ('A' for Active; 'I' for Inactive)
REMARK    1  A    between atoms: O1_1  and  C1_3 
REMARK    2  A    between atoms: C1_3  and  C2_4 
REMARK    3  A    between atoms: C2_4  and  O2_5 
REMARK    4  A    between atoms: O2_5  and  C3_6 
REMARK    5  A    between atoms: C3_6  and  C4_7 
REMARK    6  A    between atoms: C4_7  and  N1_8 
REMARK    7  A    between atoms: C9_17  and  N4_18 
REMARK    8  A    between atoms: N4_18  and  C10_20 
REMARK    9  A    between atoms: C12_24  and  O3_25 
REMARK   10  A    between atoms: O3_25  and  C13_26 
REMARK   11  A    between atoms: C17_30  and  C18_31 
ROOT
HETATM    1  N4  UNL     1      13.677  12.683  27.858  1.00  0.00    -0.339 N 
ATOM      2  H4  UNL     1      14.027  11.772  27.563  1.00  0.00     0.167 HD
ENDROOT
BRANCH   1   3
HETATM    3  C9  UNL     1      12.477  12.831  28.558  1.00  0.00     0.136 A 
HETATM    4  N3  UNL     1      11.781  14.014  28.447  1.00  0.00    -0.337 N 
HETATM    5  C8  UNL     1      10.625  14.199  29.080  1.00  0.00     0.182 A 
ATOM      6  H3  UNL     1      12.159  14.765  27.868  1.00  0.00     0.168 HD
HETATM    7  N2  UNL     1      10.060  13.265  29.854  1.00  0.00    -0.350 N 
HETATM    8  C7  UNL     1      10.710  12.074  29.997  1.00  0.00     0.065 A 
ATOM      9  H2  UNL     1       9.171  13.439  30.323  1.00  0.00     0.166 HD
HETATM   10  C6  UNL     1      10.389  10.943  30.709  1.00  0.00     0.049 A 
HETATM   11  C22 UNL     1      11.925  11.848  29.349  1.00  0.00     0.106 A 
HETATM   12  C5  UNL     1      11.382  10.052  30.500  1.00  0.00     0.094 A 
HETATM   13  N1  UNL     1      12.297  10.612  29.681  1.00  0.00    -0.350 N 
BRANCH  13  14
HETATM   14  C4  UNL     1      13.511   9.913  29.283  1.00  0.00     0.155 C 
BRANCH  14  15
HETATM   15  C3  UNL     1      14.609  10.239  30.307  1.00  0.00     0.187 C 
BRANCH  15  16
HETATM   16  O2  UNL     1      15.315   9.043  30.584  1.00  0.00    -0.387 OA
BRANCH  16  17
HETATM   17  C2  UNL     1      14.523   7.924  30.575  1.00  0.00     0.193 C 
BRANCH  17  18
HETATM   18  C1  UNL     1      14.837   7.117  31.835  1.00  0.00     0.190 C 
BRANCH  18  19
HETATM   19  O1  UNL     1      14.416   7.874  32.946  1.00  0.00    -0.399 OA
ATOM     20  H1  UNL     1      15.078   7.789  33.622  1.00  0.00     0.209 HD
ENDBRANCH  18  19
ENDBRANCH  17  18
ENDBRANCH  16  17
ENDBRANCH  15  16
ENDBRANCH  14  15
ENDBRANCH  13  14
ENDBRANCH   1   3
BRANCH   1  21
HETATM   21  C10 UNL     1      14.394  13.914  27.579  1.00  0.00     0.051 A 
HETATM   22  C11 UNL     1      13.673  14.987  27.074  1.00  0.00     0.119 A 
HETATM   23  N5  UNL     1      14.256  16.143  26.746  1.00  0.00    -0.343 N 
HETATM   24  C12 UNL     1      15.595  16.354  26.881  1.00  0.00     0.170 A 
ATOM     25  H5  UNL     1      13.676  16.898  26.379  1.00  0.00     0.167 HD
HETATM   26  C20 UNL     1      16.331  15.305  27.380  1.00  0.00     0.087 A 
HETATM   27 CL1  UNL     1      18.037  15.516  27.560  1.00  0.00    -0.080 Cl
HETATM   28  C21 UNL     1      15.736  14.081  27.731  1.00  0.00     0.059 A 
BRANCH  24  29
HETATM   29  O3  UNL     1      16.137  17.567  26.525  1.00  0.00    -0.292 OA
BRANCH  29  30
HETATM   30  C13 UNL     1      16.882  17.942  25.484  1.00  0.00     0.078 A 
HETATM   31  C14 UNL     1      17.433  17.050  24.609  1.00  0.00     0.037 A 
HETATM   32  C15 UNL     1      18.209  17.472  23.537  1.00  0.00     0.004 A 
HETATM   33  C16 UNL     1      18.424  18.815  23.358  1.00  0.00     0.016 A 
HETATM   34  C17 UNL     1      17.885  19.746  24.216  1.00  0.00     0.050 A 
HETATM   35  C19 UNL     1      17.120  19.298  25.265  1.00  0.00     0.053 A 
BRANCH  34  36
HETATM   36  C18 UNL     1      18.186  21.175  23.979  1.00  0.00     0.417 C 
HETATM   37  F1  UNL     1      17.203  21.927  24.580  1.00  0.00    -0.166 F 
HETATM   38  F2  UNL     1      19.405  21.514  24.558  1.00  0.00    -0.166 F 
HETATM   39  F3  UNL     1      18.212  21.460  22.644  1.00  0.00    -0.166 F 
ENDBRANCH  34  36
ENDBRANCH  29  30
ENDBRANCH  24  29
ENDBRANCH   1  21
TORSDOF 11
ENDMDL
