MODEL 7
REMARK VINA RESULT: -9.525586629      2.682      4.601
REMARK  11 active torsions:
REMARK  status: ('A' for Active; 'I' for Inactive)
REMARK    1  A    between atoms: O1_1  and  C1_3 
REMARK    2  A    between atoms: C1_3  and  C2_4 
REMARK    3  A    between atoms: C2_4  and  O2_5 
REMARK    4  A    between atoms: O2_5  and  C3_6 
REMARK    5  A    between atoms: C3_6  and  C4_7 
REMARK    6  A    between atoms: C4_7  and  N1_8 
REMARK    7  A    between atoms: C9_17  and  N4_18 
REMARK    8  A    between atoms: N4_18  and  C10_20 
REMARK    9  A    between atoms: C12_24  and  O3_25 
REMARK   10  A    between atoms: O3_25  and  C13_26 
REMARK   11  A    between atoms: C17_30  and  C18_31 
ROOT
HETATM    1  N4  UNL     1      13.907  12.629  27.852  1.00  0.00    -0.339 N 
ATOM      2  H4  UNL     1      14.299  11.731  27.570  1.00  0.00     0.167 HD
ENDROOT
BRANCH   1   3
HETATM    3  C9  UNL     1      12.695  12.732  28.537  1.00  0.00     0.136 A 
HETATM    4  N3  UNL     1      11.957  13.890  28.421  1.00  0.00    -0.337 N 
HETATM    5  C8  UNL     1      10.788  14.031  29.040  1.00  0.00     0.182 A 
ATOM      6  H3  UNL     1      12.315  14.654  27.848  1.00  0.00     0.168 HD
HETATM    7  N2  UNL     1      10.248  13.075  29.806  1.00  0.00    -0.350 N 
HETATM    8  C7  UNL     1      10.939  11.908  29.954  1.00  0.00     0.065 A 
ATOM      9  H2  UNL     1       9.348  13.215  30.265  1.00  0.00     0.166 HD
HETATM   10  C6  UNL     1      10.651  10.765  30.660  1.00  0.00     0.049 A 
HETATM   11  C22 UNL     1      12.169  11.728  29.320  1.00  0.00     0.106 A 
HETATM   12  C5  UNL     1      11.678   9.910  30.461  1.00  0.00     0.094 A 
HETATM   13  N1  UNL     1      12.582  10.505  29.654  1.00  0.00    -0.350 N 
BRANCH  13  14
HETATM   14  C4  UNL     1      13.824   9.851  29.269  1.00  0.00     0.155 C 
BRANCH  14  15
HETATM   15  C3  UNL     1      14.897  10.210  30.309  1.00  0.00     0.187 C 
BRANCH  15  16
HETATM   16  O2  UNL     1      15.891  10.983  29.661  1.00  0.00    -0.387 OA
BRANCH  16  17
HETATM   17  C2  UNL     1      17.158  10.482  29.807  1.00  0.00     0.193 C 
BRANCH  17  18
HETATM   18  C1  UNL     1      18.144  11.563  29.367  1.00  0.00     0.190 C 
BRANCH  18  19
HETATM   19  O1  UNL     1      19.427  11.179  29.808  1.00  0.00    -0.399 OA
ATOM     20  H1  UNL     1      19.529  11.486  30.701  1.00  0.00     0.209 HD
ENDBRANCH  18  19
ENDBRANCH  17  18
ENDBRANCH  16  17
ENDBRANCH  15  16
ENDBRANCH  14  15
ENDBRANCH  13  14
ENDBRANCH   1   3
BRANCH   1  21
HETATM   21  C10 UNL     1      14.573  13.888  27.568  1.00  0.00     0.051 A 
HETATM   22  C11 UNL     1      13.814  14.918  27.030  1.00  0.00     0.119 A 
HETATM   23  N5  UNL     1      14.352  16.094  26.695  1.00  0.00    -0.343 N 
HETATM   24  C12 UNL     1      15.677  16.368  26.854  1.00  0.00     0.170 A 
ATOM     25  H5  UNL     1      13.746  16.816  26.304  1.00  0.00     0.167 HD
HETATM   26  C20 UNL     1      16.448  15.362  27.385  1.00  0.00     0.087 A 
HETATM   27 CL1  UNL     1      18.139  15.654  27.597  1.00  0.00    -0.080 Cl
HETATM   28  C21 UNL     1      15.902  14.118  27.744  1.00  0.00     0.059 A 
BRANCH  24  29
HETATM   29  O3  UNL     1      16.170  17.600  26.489  1.00  0.00    -0.292 OA
BRANCH  29  30
HETATM   30  C13 UNL     1      16.919  17.993  25.458  1.00  0.00     0.078 A 
HETATM   31  C14 UNL     1      17.486  17.115  24.579  1.00  0.00     0.037 A 
HETATM   32  C15 UNL     1      18.267  17.555  23.518  1.00  0.00     0.004 A 
HETATM   33  C16 UNL     1      18.468  18.902  23.353  1.00  0.00     0.016 A 
HETATM   34  C17 UNL     1      17.912  19.818  24.215  1.00  0.00     0.050 A 
HETATM   35  C19 UNL     1      17.145  19.352  25.254  1.00  0.00     0.053 A 
BRANCH  34  36
HETATM   36  C18 UNL     1      18.201  21.253  23.993  1.00  0.00     0.417 C 
HETATM   37  F1  UNL     1      17.196  21.988  24.580  1.00  0.00    -0.166 F 
HETATM   38  F2  UNL     1      19.403  21.603  24.599  1.00  0.00    -0.166 F 
HETATM   39  F3  UNL     1      18.250  21.547  22.661  1.00  0.00    -0.166 F 
ENDBRANCH  34  36
ENDBRANCH  29  30
ENDBRANCH  24  29
ENDBRANCH   1  21
TORSDOF 11
ENDMDL
