MODEL 1
REMARK VINA RESULT: -11.135249503      0.000      0.000
REMARK  11 active torsions:
REMARK  status: ('A' for Active; 'I' for Inactive)
REMARK    1  A    between atoms: O1_1  and  C1_3 
REMARK    2  A    between atoms: C1_3  and  C2_4 
REMARK    3  A    between atoms: C2_4  and  O2_5 
REMARK    4  A    between atoms: O2_5  and  C3_6 
REMARK    5  A    between atoms: C3_6  and  C4_7 
REMARK    6  A    between atoms: C4_7  and  N1_8 
REMARK    7  A    between atoms: C9_17  and  N4_18 
REMARK    8  A    between atoms: N4_18  and  C10_20 
REMARK    9  A    between atoms: C12_24  and  O3_25 
REMARK   10  A    between atoms: O3_25  and  C13_26 
REMARK   11  A    between atoms: C17_30  and  C18_31 
ROOT
HETATM    1  N4  UNL     1      16.165  14.031  27.331  1.00  0.00    -0.339 N 
ATOM      2  H4  UNL     1      15.212  13.682  27.430  1.00  0.00     0.167 HD
ENDROOT
BRANCH   1   3
HETATM    3  C9  UNL     1      17.254  13.408  27.945  1.00  0.00     0.136 A 
HETATM    4  N3  UNL     1      18.490  14.014  27.888  1.00  0.00    -0.337 N 
HETATM    5  C8  UNL     1      19.555  13.470  28.471  1.00  0.00     0.182 A 
ATOM      6  H3  UNL     1      18.590  14.898  27.390  1.00  0.00     0.168 HD
HETATM    7  N2  UNL     1      19.507  12.316  29.146  1.00  0.00    -0.350 N 
HETATM    8  C7  UNL     1      18.306  11.674  29.232  1.00  0.00     0.065 A 
ATOM      9  H2  UNL     1      20.343  11.927  29.584  1.00  0.00     0.166 HD
HETATM   10  C6  UNL     1      17.945  10.498  29.845  1.00  0.00     0.049 A 
HETATM   11  C22 UNL     1      17.169  12.216  28.630  1.00  0.00     0.106 A 
HETATM   12  C5  UNL     1      16.623  10.329  29.623  1.00  0.00     0.094 A 
HETATM   13  N1  UNL     1      16.173  11.370  28.892  1.00  0.00    -0.350 N 
BRANCH  13  14
HETATM   14  C4  UNL     1      14.786  11.470  28.461  1.00  0.00     0.155 C 
BRANCH  14  15
HETATM   15  C3  UNL     1      13.962  12.042  29.624  1.00  0.00     0.187 C 
BRANCH  15  16
HETATM   16  O2  UNL     1      13.763  13.422  29.380  1.00  0.00    -0.387 OA
BRANCH  16  17
HETATM   17  C2  UNL     1      12.752  13.682  28.493  1.00  0.00     0.193 C 
BRANCH  17  18
HETATM   18  C1  UNL     1      12.625  15.200  28.357  1.00  0.00     0.190 C 
BRANCH  18  19
HETATM   19  O1  UNL     1      12.862  15.766  29.625  1.00  0.00    -0.399 OA
ATOM     20  H1  UNL     1      12.389  16.589  29.668  1.00  0.00     0.209 HD
ENDBRANCH  18  19
ENDBRANCH  17  18
ENDBRANCH  16  17
ENDBRANCH  15  16
ENDBRANCH  14  15
ENDBRANCH  13  14
ENDBRANCH   1   3
BRANCH   1  21
HETATM   21  C10 UNL     1      16.482  15.207  26.542  1.00  0.00     0.051 A 
HETATM   22  C11 UNL     1      15.803  16.384  26.827  1.00  0.00     0.119 A 
HETATM   23  N5  UNL     1      15.997  17.502  26.123  1.00  0.00    -0.343 N 
HETATM   24  C12 UNL     1      16.869  17.572  25.079  1.00  0.00     0.170 A 
ATOM     25  H5  UNL     1      15.470  18.339  26.378  1.00  0.00     0.167 HD
HETATM   26  C20 UNL     1      17.552  16.418  24.778  1.00  0.00     0.087 A 
HETATM   27 CL1  UNL     1      18.663  16.448  23.453  1.00  0.00    -0.080 Cl
HETATM   28  C21 UNL     1      17.363  15.231  25.505  1.00  0.00     0.059 A 
BRANCH  24  29
HETATM   29  O3  UNL     1      17.023  18.754  24.393  1.00  0.00    -0.292 OA
BRANCH  29  30
HETATM   30  C13 UNL     1      17.803  19.815  24.604  1.00  0.00     0.078 A 
HETATM   31  C14 UNL     1      18.923  19.766  25.383  1.00  0.00     0.037 A 
HETATM   32  C15 UNL     1      19.712  20.891  25.589  1.00  0.00     0.004 A 
HETATM   33  C16 UNL     1      19.353  22.074  24.995  1.00  0.00     0.016 A 
HETATM   34  C17 UNL     1      18.233  22.164  24.201  1.00  0.00     0.050 A 
HETATM   35  C19 UNL     1      17.474  21.035  24.015  1.00  0.00     0.053 A 
BRANCH  34  36
HETATM   36  C18 UNL     1      17.891  23.481  23.620  1.00  0.00     0.417 C 
HETATM   37  F1  UNL     1      16.851  23.303  22.736  1.00  0.00    -0.166 F 
HETATM   38  F2  UNL     1      17.466  24.354  24.618  1.00  0.00    -0.166 F 
HETATM   39  F3  UNL     1      18.955  24.020  22.956  1.00  0.00    -0.166 F 
ENDBRANCH  34  36
ENDBRANCH  29  30
ENDBRANCH  24  29
ENDBRANCH   1  21
TORSDOF 11
ENDMDL
