MODEL 2
REMARK VINA RESULT: -9.493784992      1.696      5.340
REMARK  9 active torsions:
REMARK  status: ('A' for Active; 'I' for Inactive)
REMARK    1  A    between atoms: C1_2  and  C2_3 
REMARK    2  A    between atoms: C1_2  and  C14_15 
REMARK    3  A    between atoms: C2_3  and  C3_4 
REMARK    4  A    between atoms: C3_4  and  C4_5 
REMARK    5  A    between atoms: C4_5  and  C5_6 
REMARK    6  A    between atoms: C5_6  and  C6_7 
REMARK    7  A    between atoms: C6_7  and  C7_8 
REMARK    8  A    between atoms: C7_8  and  C8_9 
REMARK    9  A    between atoms: C15_20  and  C16_21 
ROOT
HETATM    1  C14 UNL     1      44.526 -45.234   2.717  1.00  0.00     0.211 A 
HETATM    2  N1  UNL     1      43.645 -45.964   2.004  1.00  0.00    -0.275 N 
ATOM      3  H1  UNL     1      42.829 -45.609   1.506  1.00  0.00     0.189 HD
HETATM    4  N2  UNL     1      44.039 -47.246   2.071  1.00  0.00    -0.276 N 
ATOM      5  H2  UNL     1      43.576 -48.041   1.630  1.00  0.00     0.189 HD
HETATM    6  C15 UNL     1      45.134 -47.296   2.809  1.00  0.00     0.191 A 
HETATM    7  O2  UNL     1      45.402 -46.082   3.181  1.00  0.00    -0.268 OA
ENDROOT
BRANCH   1   8
HETATM    8  C1  UNL     1      44.522 -43.792   2.940  1.00  0.00     0.201 C 
HETATM    9  O1  UNL     1      44.601 -43.007   1.961  1.00  0.00    -0.289 OA
BRANCH   8  10
HETATM   10  C2  UNL     1      44.430 -43.212   4.314  1.00  0.00     0.088 C 
BRANCH  10  11
HETATM   11  C3  UNL     1      43.296 -43.896   4.995  1.00  0.00     0.008 C 
BRANCH  11  12
HETATM   12  C4  UNL     1      42.554 -43.029   5.994  1.00  0.00     0.000 C 
BRANCH  12  13
HETATM   13  C5  UNL     1      43.444 -42.347   6.968  1.00  0.00     0.000 C 
BRANCH  13  14
HETATM   14  C6  UNL     1      43.733 -43.259   8.131  1.00  0.00     0.005 C 
BRANCH  14  15
HETATM   15  C7  UNL     1      45.140 -43.747   8.199  1.00  0.00     0.038 C 
BRANCH  15  16
HETATM   16  C8  UNL     1      45.190 -45.213   8.487  1.00  0.00    -0.058 A 
HETATM   17  C9  UNL     1      45.076 -46.122   7.456  1.00  0.00     0.007 A 
HETATM   18  C10 UNL     1      45.140 -47.480   7.703  1.00  0.00     0.001 A 
HETATM   19  C11 UNL     1      45.320 -47.884   9.009  1.00  0.00     0.000 A 
HETATM   20  C12 UNL     1      45.437 -46.977  10.061  1.00  0.00     0.001 A 
HETATM   21  C13 UNL     1      45.371 -45.611   9.798  1.00  0.00     0.007 A 
ENDBRANCH  15  16
ENDBRANCH  14  15
ENDBRANCH  13  14
ENDBRANCH  12  13
ENDBRANCH  11  12
ENDBRANCH  10  11
ENDBRANCH   8  10
ENDBRANCH   1   8
BRANCH   6  22
HETATM   22  C16 UNL     1      45.924 -48.470   3.168  1.00  0.00     0.085 A 
HETATM   23  C17 UNL     1      46.152 -48.853   4.475  1.00  0.00     0.034 A 
HETATM   24  C18 UNL     1      46.896 -49.933   4.828  1.00  0.00     0.004 A 
HETATM   25  C19 UNL     1      47.467 -50.709   3.825  1.00  0.00     0.017 A 
HETATM   26  C20 UNL     1      47.240 -50.329   2.524  1.00  0.00     0.088 A 
HETATM   27  N3  UNL     1      46.493 -49.245   2.228  1.00  0.00    -0.362 N 
ATOM     28  H3  UNL     1      46.352 -49.003   1.247  1.00  0.00     0.165 HD
ENDBRANCH   6  22
TORSDOF 9
ENDMDL
