MODEL 3
REMARK VINA RESULT: -9.452502070      2.316      5.755
REMARK  9 active torsions:
REMARK  status: ('A' for Active; 'I' for Inactive)
REMARK    1  A    between atoms: C1_2  and  C2_3 
REMARK    2  A    between atoms: C1_2  and  C14_15 
REMARK    3  A    between atoms: C2_3  and  C3_4 
REMARK    4  A    between atoms: C3_4  and  C4_5 
REMARK    5  A    between atoms: C4_5  and  C5_6 
REMARK    6  A    between atoms: C5_6  and  C6_7 
REMARK    7  A    between atoms: C6_7  and  C7_8 
REMARK    8  A    between atoms: C7_8  and  C8_9 
REMARK    9  A    between atoms: C15_20  and  C16_21 
ROOT
HETATM    1  C14 UNL     1      44.672 -46.409   2.871  1.00  0.00     0.211 A 
HETATM    2  N1  UNL     1      44.774 -47.282   1.848  1.00  0.00    -0.275 N 
ATOM      3  H1  UNL     1      44.421 -47.146   0.901  1.00  0.00     0.189 HD
HETATM    4  N2  UNL     1      45.427 -48.362   2.307  1.00  0.00    -0.276 N 
ATOM      5  H2  UNL     1      45.660 -49.196   1.768  1.00  0.00     0.189 HD
HETATM    6  C15 UNL     1      45.714 -48.153   3.579  1.00  0.00     0.191 A 
HETATM    7  O2  UNL     1      45.253 -46.980   3.889  1.00  0.00    -0.268 OA
ENDROOT
BRANCH   1   8
HETATM    8  C1  UNL     1      44.046 -45.091   2.865  1.00  0.00     0.201 C 
HETATM    9  O1  UNL     1      43.906 -44.469   1.782  1.00  0.00    -0.289 OA
BRANCH   8  10
HETATM   10  C2  UNL     1      43.563 -44.448   4.124  1.00  0.00     0.088 C 
BRANCH  10  11
HETATM   11  C3  UNL     1      44.559 -43.401   4.482  1.00  0.00     0.008 C 
BRANCH  11  12
HETATM   12  C4  UNL     1      45.523 -43.806   5.580  1.00  0.00     0.000 C 
BRANCH  12  13
HETATM   13  C5  UNL     1      44.863 -44.446   6.747  1.00  0.00     0.000 C 
BRANCH  13  14
HETATM   14  C6  UNL     1      44.923 -43.530   7.941  1.00  0.00     0.005 C 
BRANCH  14  15
HETATM   15  C7  UNL     1      43.592 -43.092   8.451  1.00  0.00     0.038 C 
BRANCH  15  16
HETATM   16  C8  UNL     1      42.953 -42.110   7.522  1.00  0.00    -0.058 A 
HETATM   17  C9  UNL     1      43.603 -40.935   7.210  1.00  0.00     0.007 A 
HETATM   18  C10 UNL     1      43.035 -40.025   6.338  1.00  0.00     0.001 A 
HETATM   19  C11 UNL     1      41.805 -40.339   5.799  1.00  0.00     0.000 A 
HETATM   20  C12 UNL     1      41.137 -41.524   6.105  1.00  0.00     0.001 A 
HETATM   21  C13 UNL     1      41.721 -42.431   6.985  1.00  0.00     0.007 A 
ENDBRANCH  15  16
ENDBRANCH  14  15
ENDBRANCH  13  14
ENDBRANCH  12  13
ENDBRANCH  11  12
ENDBRANCH  10  11
ENDBRANCH   8  10
ENDBRANCH   1   8
BRANCH   6  22
HETATM   22  C16 UNL     1      46.412 -49.044   4.502  1.00  0.00     0.085 A 
HETATM   23  C17 UNL     1      46.599 -50.388   4.253  1.00  0.00     0.034 A 
HETATM   24  C18 UNL     1      47.232 -51.235   5.106  1.00  0.00     0.004 A 
HETATM   25  C19 UNL     1      47.726 -50.731   6.305  1.00  0.00     0.017 A 
HETATM   26  C20 UNL     1      47.542 -49.392   6.553  1.00  0.00     0.088 A 
HETATM   27  N3  UNL     1      46.904 -48.595   5.670  1.00  0.00    -0.362 N 
ATOM     28  H3  UNL     1      46.791 -47.607   5.898  1.00  0.00     0.165 HD
ENDBRANCH   6  22
TORSDOF 9
ENDMDL
