MODEL 1
REMARK VINA RESULT: -9.606302235      0.000      0.000
REMARK  9 active torsions:
REMARK  status: ('A' for Active; 'I' for Inactive)
REMARK    1  A    between atoms: C1_2  and  C2_3 
REMARK    2  A    between atoms: C1_2  and  C14_15 
REMARK    3  A    between atoms: C2_3  and  C3_4 
REMARK    4  A    between atoms: C3_4  and  C4_5 
REMARK    5  A    between atoms: C4_5  and  C5_6 
REMARK    6  A    between atoms: C5_6  and  C6_7 
REMARK    7  A    between atoms: C6_7  and  C7_8 
REMARK    8  A    between atoms: C7_8  and  C8_9 
REMARK    9  A    between atoms: C15_20  and  C16_21 
ROOT
HETATM    1  C14 UNL     1      46.274 -48.787   2.727  1.00  0.00     0.211 A 
HETATM    2  N1  UNL     1      45.403 -48.561   1.723  1.00  0.00    -0.275 N 
ATOM      3  H1  UNL     1      45.230 -49.171   0.924  1.00  0.00     0.189 HD
HETATM    4  N2  UNL     1      44.806 -47.383   1.967  1.00  0.00    -0.276 N 
ATOM      5  H2  UNL     1      44.096 -46.938   1.386  1.00  0.00     0.189 HD
HETATM    6  C15 UNL     1      45.302 -46.902   3.093  1.00  0.00     0.191 A 
HETATM    7  O2  UNL     1      46.175 -47.760   3.526  1.00  0.00    -0.268 OA
ENDROOT
BRANCH   1   8
HETATM    8  C1  UNL     1      47.155 -49.936   2.908  1.00  0.00     0.201 C 
HETATM    9  O1  UNL     1      47.087 -50.908   2.114  1.00  0.00    -0.289 OA
BRANCH   8  10
HETATM   10  C2  UNL     1      48.147 -49.994   4.024  1.00  0.00     0.088 C 
BRANCH  10  11
HETATM   11  C3  UNL     1      47.418 -50.494   5.221  1.00  0.00     0.008 C 
BRANCH  11  12
HETATM   12  C4  UNL     1      48.110 -50.203   6.539  1.00  0.00     0.000 C 
BRANCH  12  13
HETATM   13  C5  UNL     1      47.520 -49.060   7.282  1.00  0.00     0.000 C 
BRANCH  13  14
HETATM   14  C6  UNL     1      46.137 -48.766   6.764  1.00  0.00     0.005 C 
BRANCH  14  15
HETATM   15  C7  UNL     1      45.106 -48.582   7.825  1.00  0.00     0.038 C 
BRANCH  15  16
HETATM   16  C8  UNL     1      45.177 -47.211   8.416  1.00  0.00    -0.058 A 
HETATM   17  C9  UNL     1      45.068 -46.104   7.602  1.00  0.00     0.007 A 
HETATM   18  C10 UNL     1      45.113 -44.829   8.134  1.00  0.00     0.001 A 
HETATM   19  C11 UNL     1      45.269 -44.712   9.499  1.00  0.00     0.000 A 
HETATM   20  C12 UNL     1      45.380 -45.822  10.335  1.00  0.00     0.001 A 
HETATM   21  C13 UNL     1      45.334 -47.101   9.785  1.00  0.00     0.007 A 
ENDBRANCH  15  16
ENDBRANCH  14  15
ENDBRANCH  13  14
ENDBRANCH  12  13
ENDBRANCH  11  12
ENDBRANCH  10  11
ENDBRANCH   8  10
ENDBRANCH   1   8
BRANCH   6  22
HETATM   22  C16 UNL     1      44.967 -45.648   3.761  1.00  0.00     0.085 A 
HETATM   23  C17 UNL     1      43.684 -45.324   4.153  1.00  0.00     0.034 A 
HETATM   24  C18 UNL     1      43.351 -44.156   4.761  1.00  0.00     0.004 A 
HETATM   25  C19 UNL     1      44.352 -43.222   5.010  1.00  0.00     0.017 A 
HETATM   26  C20 UNL     1      45.630 -43.545   4.621  1.00  0.00     0.088 A 
HETATM   27  N3  UNL     1      45.905 -44.720   4.019  1.00  0.00    -0.362 N 
ATOM     28  H3  UNL     1      46.869 -44.914   3.748  1.00  0.00     0.165 HD
ENDBRANCH   6  22
TORSDOF 9
ENDMDL
