MODEL 5
REMARK VINA RESULT: -4.272838894      1.084      1.982
REMARK  2 active torsions:
REMARK  status: ('A' for Active; 'I' for Inactive)
REMARK    1  A    between atoms: N1_2  and  C4_5 
REMARK    2  A    between atoms: C4_5  and  C5_6 
ROOT
HETATM    1  C1  UNL     1     -30.856 -28.953   8.480  1.00  0.00     0.272 C 
HETATM    2  N1  UNL     1     -29.666 -29.729   8.841  1.00  0.00    -0.069 N 
HETATM    3  C2  UNL     1     -28.543 -29.218   8.110  1.00  0.00     0.272 C 
HETATM    4  C3  UNL     1     -29.428 -29.637  10.265  1.00  0.00     0.272 C 
ENDROOT
BRANCH   2   5
HETATM    5  C4  UNL     1     -29.976 -31.109   8.534  1.00  0.00     0.348 C 
BRANCH   5   6
HETATM    6  C5  UNL     1     -29.129 -32.035   9.337  1.00  0.00     0.199 C 
HETATM    7  O1  UNL     1     -29.577 -32.595  10.373  1.00  0.00    -0.647 OA
HETATM    8  O2  UNL     1     -27.818 -32.324   8.989  1.00  0.00    -0.647 OA
ENDBRANCH   5   6
ENDBRANCH   2   5
TORSDOF 2
ENDMDL
