MODEL 9
REMARK VINA RESULT: -3.854304129      3.278      4.815
REMARK  2 active torsions:
REMARK  status: ('A' for Active; 'I' for Inactive)
REMARK    1  A    between atoms: N1_2  and  C4_5 
REMARK    2  A    between atoms: C4_5  and  C5_6 
ROOT
HETATM    1  C1  UNL     1     -29.141 -35.980   7.828  1.00  0.00     0.272 C 
HETATM    2  N1  UNL     1     -29.987 -35.206   8.740  1.00  0.00    -0.069 N 
HETATM    3  C2  UNL     1     -31.220 -34.899   8.076  1.00  0.00     0.272 C 
HETATM    4  C3  UNL     1     -30.237 -35.964   9.947  1.00  0.00     0.272 C 
ENDROOT
BRANCH   2   5
HETATM    5  C4  UNL     1     -29.220 -34.035   9.106  1.00  0.00     0.348 C 
BRANCH   5   6
HETATM    6  C5  UNL     1     -29.448 -32.926   8.137  1.00  0.00     0.199 C 
HETATM    7  O1  UNL     1     -30.326 -32.048   8.347  1.00  0.00    -0.647 OA
HETATM    8  O2  UNL     1     -28.714 -32.807   6.967  1.00  0.00    -0.647 OA
ENDBRANCH   5   6
ENDBRANCH   2   5
TORSDOF 2
ENDMDL
