MODEL 2
REMARK VINA RESULT: -4.380880384      1.052      1.947
REMARK  2 active torsions:
REMARK  status: ('A' for Active; 'I' for Inactive)
REMARK    1  A    between atoms: N1_2  and  C4_5 
REMARK    2  A    between atoms: C4_5  and  C5_6 
ROOT
HETATM    1  C1  UNL     1     -28.498 -29.257   8.103  1.00  0.00     0.272 C 
HETATM    2  N1  UNL     1     -29.617 -29.777   8.892  1.00  0.00    -0.069 N 
HETATM    3  C2  UNL     1     -29.309 -29.625  10.285  1.00  0.00     0.272 C 
HETATM    4  C3  UNL     1     -30.831 -29.064   8.562  1.00  0.00     0.272 C 
ENDROOT
BRANCH   2   5
HETATM    5  C4  UNL     1     -29.790 -31.156   8.486  1.00  0.00     0.348 C 
BRANCH   5   6
HETATM    6  C5  UNL     1     -29.050 -32.075   9.396  1.00  0.00     0.199 C 
HETATM    7  O1  UNL     1     -29.612 -32.594  10.396  1.00  0.00    -0.647 OA
HETATM    8  O2  UNL     1     -27.718 -32.401   9.189  1.00  0.00    -0.647 OA
ENDBRANCH   5   6
ENDBRANCH   2   5
TORSDOF 2
ENDMDL
