MODEL 1
REMARK VINA RESULT: -4.422447217      0.000      0.000
REMARK  2 active torsions:
REMARK  status: ('A' for Active; 'I' for Inactive)
REMARK    1  A    between atoms: N1_2  and  C4_5 
REMARK    2  A    between atoms: C4_5  and  C5_6 
ROOT
HETATM    1  C1  UNL     1     -29.044 -29.576  10.337  1.00  0.00     0.272 C 
HETATM    2  N1  UNL     1     -29.133 -29.832   8.897  1.00  0.00    -0.069 N 
HETATM    3  C2  UNL     1     -30.491 -29.643   8.479  1.00  0.00     0.272 C 
HETATM    4  C3  UNL     1     -28.253 -28.936   8.179  1.00  0.00     0.272 C 
ENDROOT
BRANCH   2   5
HETATM    5  C4  UNL     1     -28.649 -31.181   8.696  1.00  0.00     0.348 C 
BRANCH   5   6
HETATM    6  C5  UNL     1     -29.680 -32.180   9.094  1.00  0.00     0.199 C 
HETATM    7  O1  UNL     1     -30.455 -32.691   8.243  1.00  0.00    -0.647 OA
HETATM    8  O2  UNL     1     -29.839 -32.593  10.409  1.00  0.00    -0.647 OA
ENDBRANCH   5   6
ENDBRANCH   2   5
TORSDOF 2
ENDMDL
