MODEL 12
REMARK VINA RESULT: -3.782536147      3.143      4.634
REMARK  2 active torsions:
REMARK  status: ('A' for Active; 'I' for Inactive)
REMARK    1  A    between atoms: N1_2  and  C4_5 
REMARK    2  A    between atoms: C4_5  and  C5_6 
ROOT
HETATM    1  C1  UNL     1     -30.746 -35.345   9.303  1.00  0.00     0.272 C 
HETATM    2  N1  UNL     1     -29.422 -35.106   8.722  1.00  0.00    -0.069 N 
HETATM    3  C2  UNL     1     -28.428 -35.346   9.727  1.00  0.00     0.272 C 
HETATM    4  C3  UNL     1     -29.215 -35.977   7.587  1.00  0.00     0.272 C 
ENDROOT
BRANCH   2   5
HETATM    5  C4  UNL     1     -29.436 -33.743   8.236  1.00  0.00     0.348 C 
BRANCH   5   6
HETATM    6  C5  UNL     1     -28.844 -32.815   9.240  1.00  0.00     0.199 C 
HETATM    7  O1  UNL     1     -27.648 -32.431   9.148  1.00  0.00    -0.647 OA
HETATM    8  O2  UNL     1     -29.572 -32.332  10.317  1.00  0.00    -0.647 OA
ENDBRANCH   5   6
ENDBRANCH   2   5
TORSDOF 2
ENDMDL
