MODEL 3
REMARK VINA RESULT: -4.358042183      1.368      1.989
REMARK  2 active torsions:
REMARK  status: ('A' for Active; 'I' for Inactive)
REMARK    1  A    between atoms: N1_2  and  C4_5 
REMARK    2  A    between atoms: C4_5  and  C5_6 
ROOT
HETATM    1  C1  UNL     1     -30.753 -29.212   8.514  1.00  0.00     0.272 C 
HETATM    2  N1  UNL     1     -29.509 -29.904   8.862  1.00  0.00    -0.069 N 
HETATM    3  C2  UNL     1     -28.484 -29.496   7.946  1.00  0.00     0.272 C 
HETATM    4  C3  UNL     1     -29.128 -29.587  10.220  1.00  0.00     0.272 C 
ENDROOT
BRANCH   2   5
HETATM    5  C4  UNL     1     -29.805 -31.319   8.804  1.00  0.00     0.348 C 
BRANCH   5   6
HETATM    6  C5  UNL     1     -28.657 -32.080   8.236  1.00  0.00     0.199 C 
HETATM    7  O1  UNL     1     -28.730 -32.616   7.099  1.00  0.00    -0.647 OA
HETATM    8  O2  UNL     1     -27.463 -32.235   8.924  1.00  0.00    -0.647 OA
ENDBRANCH   5   6
ENDBRANCH   2   5
TORSDOF 2
ENDMDL
