MODEL 10
REMARK VINA RESULT: -3.812677594      3.902      4.977
REMARK  2 active torsions:
REMARK  status: ('A' for Active; 'I' for Inactive)
REMARK    1  A    between atoms: N1_2  and  C4_5 
REMARK    2  A    between atoms: C4_5  and  C5_6 
ROOT
HETATM    1  C1  UNL     1     -29.796 -35.251   6.254  1.00  0.00     0.272 C 
HETATM    2  N1  UNL     1     -29.907 -34.867   7.663  1.00  0.00    -0.069 N 
HETATM    3  C2  UNL     1     -29.303 -33.578   7.838  1.00  0.00     0.272 C 
HETATM    4  C3  UNL     1     -31.297 -34.832   8.060  1.00  0.00     0.272 C 
ENDROOT
BRANCH   2   5
HETATM    5  C4  UNL     1     -29.258 -35.917   8.419  1.00  0.00     0.348 C 
BRANCH   5   6
HETATM    6  C5  UNL     1     -28.796 -35.411   9.742  1.00  0.00     0.199 C 
HETATM    7  O1  UNL     1     -29.589 -35.316  10.716  1.00  0.00    -0.647 OA
HETATM    8  O2  UNL     1     -27.484 -35.022   9.966  1.00  0.00    -0.647 OA
ENDBRANCH   5   6
ENDBRANCH   2   5
TORSDOF 2
ENDMDL
