MODEL 4
REMARK VINA RESULT: -4.328669820      0.994      1.866
REMARK  2 active torsions:
REMARK  status: ('A' for Active; 'I' for Inactive)
REMARK    1  A    between atoms: N1_2  and  C4_5 
REMARK    2  A    between atoms: C4_5  and  C5_6 
ROOT
HETATM    1  C1  UNL     1     -28.408 -29.140   8.160  1.00  0.00     0.272 C 
HETATM    2  N1  UNL     1     -29.514 -29.735   8.914  1.00  0.00    -0.069 N 
HETATM    3  C2  UNL     1     -29.275 -29.538  10.315  1.00  0.00     0.272 C 
HETATM    4  C3  UNL     1     -30.766 -29.125   8.524  1.00  0.00     0.272 C 
ENDROOT
BRANCH   2   5
HETATM    5  C4  UNL     1     -29.562 -31.129   8.527  1.00  0.00     0.348 C 
BRANCH   5   6
HETATM    6  C5  UNL     1     -29.034 -32.001   9.613  1.00  0.00     0.199 C 
HETATM    7  O1  UNL     1     -27.802 -32.234   9.721  1.00  0.00    -0.647 OA
HETATM    8  O2  UNL     1     -29.866 -32.596  10.551  1.00  0.00    -0.647 OA
ENDBRANCH   5   6
ENDBRANCH   2   5
TORSDOF 2
ENDMDL
