MODEL 6
REMARK VINA RESULT: -3.564082697      2.220      3.107
REMARK  3 active torsions:
REMARK  status: ('A' for Active; 'I' for Inactive)
REMARK    1  A    between atoms: N1_2  and  C4_5 
REMARK    2  A    between atoms: C4_5  and  C5_6 
REMARK    3  A    between atoms: C5_6  and  O1_7 
ROOT
HETATM    1  C1  UNL     1      28.218  28.240   7.789  1.00  0.00     0.271 C 
HETATM    2  N1  UNL     1      29.182  29.170   8.394  1.00  0.00    -0.077 N 
HETATM    3  C2  UNL     1      30.498  28.592   8.182  1.00  0.00     0.271 C 
HETATM    4  C3  UNL     1      28.928  29.176   9.807  1.00  0.00     0.271 C 
ENDROOT
BRANCH   2   5
HETATM    5  C4  UNL     1      29.014  30.429   7.751  1.00  0.00     0.262 C 
BRANCH   5   6
HETATM    6  C5  UNL     1      29.658  31.586   8.449  1.00  0.00     0.192 C 
BRANCH   6   7
HETATM    7  O1  UNL     1      30.713  32.132   7.719  1.00  0.00    -0.399 OA
ATOM      8  H1  UNL     1      31.525  32.152   8.211  1.00  0.00     0.209 HD
ENDBRANCH   6   7
ENDBRANCH   5   6
ENDBRANCH   2   5
TORSDOF 3
ENDMDL
