MODEL 7
REMARK VINA RESULT: -3.564011170      2.166      3.020
REMARK  3 active torsions:
REMARK  status: ('A' for Active; 'I' for Inactive)
REMARK    1  A    between atoms: N1_2  and  C4_5 
REMARK    2  A    between atoms: C4_5  and  C5_6 
REMARK    3  A    between atoms: C5_6  and  O1_7 
ROOT
HETATM    1  C1  UNL     1      29.033  28.434   9.933  1.00  0.00     0.271 C 
HETATM    2  N1  UNL     1      29.623  29.122   8.777  1.00  0.00    -0.077 N 
HETATM    3  C2  UNL     1      28.684  28.960   7.680  1.00  0.00     0.271 C 
HETATM    4  C3  UNL     1      30.823  28.413   8.435  1.00  0.00     0.271 C 
ENDROOT
BRANCH   2   5
HETATM    5  C4  UNL     1      29.816  30.482   9.149  1.00  0.00     0.262 C 
BRANCH   5   6
HETATM    6  C5  UNL     1      29.577  31.477   8.056  1.00  0.00     0.192 C 
BRANCH   6   7
HETATM    7  O1  UNL     1      30.735  32.162   7.693  1.00  0.00    -0.399 OA
ATOM      8  H1  UNL     1      30.588  33.094   7.582  1.00  0.00     0.209 HD
ENDBRANCH   6   7
ENDBRANCH   5   6
ENDBRANCH   2   5
TORSDOF 3
ENDMDL
