MODEL 19
REMARK VINA RESULT: -3.232109421      5.189      5.802
REMARK  3 active torsions:
REMARK  status: ('A' for Active; 'I' for Inactive)
REMARK    1  A    between atoms: N1_2  and  C4_5 
REMARK    2  A    between atoms: C4_5  and  C5_6 
REMARK    3  A    between atoms: C5_6  and  O1_7 
ROOT
HETATM    1  C1  UNL     1      29.993  36.502   9.642  1.00  0.00     0.271 C 
HETATM    2  N1  UNL     1      29.508  35.334   8.895  1.00  0.00    -0.077 N 
HETATM    3  C2  UNL     1      29.175  35.809   7.563  1.00  0.00     0.271 C 
HETATM    4  C3  UNL     1      28.290  34.910   9.526  1.00  0.00     0.271 C 
ENDROOT
BRANCH   2   5
HETATM    5  C4  UNL     1      30.552  34.367   8.898  1.00  0.00     0.262 C 
BRANCH   5   6
HETATM    6  C5  UNL     1      31.378  34.326   7.650  1.00  0.00     0.192 C 
BRANCH   6   7
HETATM    7  O1  UNL     1      32.746  34.273   7.916  1.00  0.00    -0.399 OA
ATOM      8  H1  UNL     1      33.245  33.922   7.188  1.00  0.00     0.209 HD
ENDBRANCH   6   7
ENDBRANCH   5   6
ENDBRANCH   2   5
TORSDOF 3
ENDMDL
