MODEL 20
REMARK VINA RESULT: -3.212297883      4.953      5.481
REMARK  3 active torsions:
REMARK  status: ('A' for Active; 'I' for Inactive)
REMARK    1  A    between atoms: N1_2  and  C4_5 
REMARK    2  A    between atoms: C4_5  and  C5_6 
REMARK    3  A    between atoms: C5_6  and  O1_7 
ROOT
HETATM    1  C1  UNL     1      28.329  34.920   9.507  1.00  0.00     0.271 C 
HETATM    2  N1  UNL     1      29.511  35.524   8.876  1.00  0.00    -0.077 N 
HETATM    3  C2  UNL     1      29.845  36.695   9.668  1.00  0.00     0.271 C 
HETATM    4  C3  UNL     1      29.106  35.974   7.575  1.00  0.00     0.271 C 
ENDROOT
BRANCH   2   5
HETATM    5  C4  UNL     1      30.538  34.538   8.876  1.00  0.00     0.262 C 
BRANCH   5   6
HETATM    6  C5  UNL     1      31.031  34.142   7.519  1.00  0.00     0.192 C 
BRANCH   6   7
HETATM    7  O1  UNL     1      31.298  32.777   7.425  1.00  0.00    -0.399 OA
ATOM      8  H1  UNL     1      31.809  32.557   6.655  1.00  0.00     0.209 HD
ENDBRANCH   6   7
ENDBRANCH   5   6
ENDBRANCH   2   5
TORSDOF 3
ENDMDL
