MODEL 3
REMARK VINA RESULT: -3.715579505      2.023      2.919
REMARK  3 active torsions:
REMARK  status: ('A' for Active; 'I' for Inactive)
REMARK    1  A    between atoms: N1_2  and  C4_5 
REMARK    2  A    between atoms: C4_5  and  C5_6 
REMARK    3  A    between atoms: C5_6  and  O1_7 
ROOT
HETATM    1  C1  UNL     1      30.993  28.227   8.490  1.00  0.00     0.271 C 
HETATM    2  N1  UNL     1      29.704  28.928   8.570  1.00  0.00    -0.077 N 
HETATM    3  C2  UNL     1      29.143  28.607   9.871  1.00  0.00     0.271 C 
HETATM    4  C3  UNL     1      28.852  28.350   7.570  1.00  0.00     0.271 C 
ENDROOT
BRANCH   2   5
HETATM    5  C4  UNL     1      29.968  30.316   8.402  1.00  0.00     0.262 C 
BRANCH   5   6
HETATM    6  C5  UNL     1      29.244  31.216   9.355  1.00  0.00     0.192 C 
BRANCH   6   7
HETATM    7  O1  UNL     1      30.100  31.821  10.274  1.00  0.00    -0.399 OA
ATOM      8  H1  UNL     1      29.912  32.745  10.394  1.00  0.00     0.209 HD
ENDBRANCH   6   7
ENDBRANCH   5   6
ENDBRANCH   2   5
TORSDOF 3
ENDMDL
