MODEL 5
REMARK VINA RESULT: -3.671744000      2.012      2.993
REMARK  3 active torsions:
REMARK  status: ('A' for Active; 'I' for Inactive)
REMARK    1  A    between atoms: N1_2  and  C4_5 
REMARK    2  A    between atoms: C4_5  and  C5_6 
REMARK    3  A    between atoms: C5_6  and  O1_7 
ROOT
HETATM    1  C1  UNL     1      29.087  28.684   9.819  1.00  0.00     0.271 C 
HETATM    2  N1  UNL     1      29.764  28.920   8.537  1.00  0.00    -0.077 N 
HETATM    3  C2  UNL     1      28.926  28.318   7.514  1.00  0.00     0.271 C 
HETATM    4  C3  UNL     1      31.001  28.191   8.576  1.00  0.00     0.271 C 
ENDROOT
BRANCH   2   5
HETATM    5  C4  UNL     1      29.904  30.328   8.387  1.00  0.00     0.262 C 
BRANCH   5   6
HETATM    6  C5  UNL     1      29.228  31.145   9.444  1.00  0.00     0.192 C 
BRANCH   6   7
HETATM    7  O1  UNL     1      30.135  31.796  10.279  1.00  0.00    -0.399 OA
ATOM      8  H1  UNL     1      30.916  32.080   9.818  1.00  0.00     0.209 HD
ENDBRANCH   6   7
ENDBRANCH   5   6
ENDBRANCH   2   5
TORSDOF 3
ENDMDL
