MODEL 4
REMARK VINA RESULT: -3.685439534      1.999      3.025
REMARK  3 active torsions:
REMARK  status: ('A' for Active; 'I' for Inactive)
REMARK    1  A    between atoms: N1_2  and  C4_5 
REMARK    2  A    between atoms: C4_5  and  C5_6 
REMARK    3  A    between atoms: C5_6  and  O1_7 
ROOT
HETATM    1  C1  UNL     1      28.828  28.425   7.555  1.00  0.00     0.271 C 
HETATM    2  N1  UNL     1      29.731  28.935   8.597  1.00  0.00    -0.077 N 
HETATM    3  C2  UNL     1      30.967  28.182   8.472  1.00  0.00     0.271 C 
HETATM    4  C3  UNL     1      29.140  28.601   9.862  1.00  0.00     0.271 C 
ENDROOT
BRANCH   2   5
HETATM    5  C4  UNL     1      29.899  30.328   8.364  1.00  0.00     0.262 C 
BRANCH   5   6
HETATM    6  C5  UNL     1      29.232  31.221   9.363  1.00  0.00     0.192 C 
BRANCH   6   7
HETATM    7  O1  UNL     1      30.133  31.777  10.270  1.00  0.00    -0.399 OA
ATOM      8  H1  UNL     1      30.932  31.268  10.348  1.00  0.00     0.209 HD
ENDBRANCH   6   7
ENDBRANCH   5   6
ENDBRANCH   2   5
TORSDOF 3
ENDMDL
