MODEL 3
REMARK VINA RESULT: -5.598849940      1.021      1.492
REMARK  1 active torsions:
REMARK  status: ('A' for Active; 'I' for Inactive)
REMARK    1  A    between atoms: C5_7  and  C6_8 
ROOT
HETATM    1  C1  UNL     1      30.606  16.675   9.560  1.00  0.00     0.063 C 
HETATM    2  C2  UNL     1      31.733  15.854  10.211  1.00  0.00     0.280 C 
HETATM    3  N1  UNL     1      32.909  15.947   9.458  1.00  0.00    -0.376 N 
ATOM      4  H1  UNL     1      33.168  16.832   9.023  1.00  0.00     0.160 HD
HETATM    5  C3  UNL     1      33.737  14.816   9.303  1.00  0.00     0.060 C 
HETATM    6  C4  UNL     1      33.198  13.539   9.890  1.00  0.00     0.088 C 
HETATM    7  C5  UNL     1      31.700  13.590   9.549  1.00  0.00     0.292 C 
HETATM    8  N2  UNL     1      31.190  14.566  10.465  1.00  0.00    -0.040 N 
ATOM      9  H21 UNL     1      30.170  14.584  10.460  1.00  0.00     0.280 HD
ATOM     10  H22 UNL     1      31.339  14.284  11.433  1.00  0.00     0.280 HD
ENDROOT
BRANCH   7  11
HETATM   11  C6  UNL     1      31.072  12.268   9.675  1.00  0.00     0.205 C 
HETATM   12  O1  UNL     1      30.243  11.802   8.843  1.00  0.00    -0.646 OA
HETATM   13  O2  UNL     1      31.400  11.481  10.759  1.00  0.00    -0.646 OA
ENDBRANCH   7  11
TORSDOF 1
ENDMDL
