MODEL 14
REMARK VINA RESULT: -4.943627541      3.318      5.070
REMARK  1 active torsions:
REMARK  status: ('A' for Active; 'I' for Inactive)
REMARK    1  A    between atoms: C5_7  and  C6_8 
ROOT
HETATM    1  C1  UNL     1      31.162  10.328   6.367  1.00  0.00     0.063 C 
HETATM    2  C2  UNL     1      32.356  10.612   7.295  1.00  0.00     0.280 C 
HETATM    3  N1  UNL     1      32.468   9.617   8.274  1.00  0.00    -0.376 N 
ATOM      4  H1  UNL     1      32.282   8.643   8.035  1.00  0.00     0.160 HD
HETATM    5  C3  UNL     1      32.837   9.964   9.590  1.00  0.00     0.060 C 
HETATM    6  C4  UNL     1      32.971  11.440   9.853  1.00  0.00     0.088 C 
HETATM    7  C5  UNL     1      31.796  12.053   9.076  1.00  0.00     0.292 C 
HETATM    8  N2  UNL     1      32.223  11.963   7.712  1.00  0.00    -0.040 N 
ATOM      9  H21 UNL     1      31.604  12.485   7.092  1.00  0.00     0.280 HD
ATOM     10  H22 UNL     1      33.083  12.487   7.555  1.00  0.00     0.280 HD
ENDROOT
BRANCH   7  11
HETATM   11  C6  UNL     1      31.509  13.422   9.523  1.00  0.00     0.205 C 
HETATM   12  O1  UNL     1      31.528  14.429   8.759  1.00  0.00    -0.646 OA
HETATM   13  O2  UNL     1      31.198  13.633  10.850  1.00  0.00    -0.646 OA
ENDBRANCH   7  11
TORSDOF 1
ENDMDL
