MODEL 1
REMARK VINA RESULT: -6.340267106      0.000      0.000
REMARK  1 active torsions:
REMARK  status: ('A' for Active; 'I' for Inactive)
REMARK    1  A    between atoms: C5_7  and  C6_8 
ROOT
HETATM    1  C1  UNL     1      30.229  17.238  10.127  1.00  0.00     0.063 C 
HETATM    2  C2  UNL     1      31.634  16.644  10.335  1.00  0.00     0.280 C 
HETATM    3  N1  UNL     1      32.520  17.120   9.360  1.00  0.00    -0.376 N 
ATOM      4  H1  UNL     1      32.464  18.089   9.049  1.00  0.00     0.160 HD
HETATM    5  C3  UNL     1      33.489  16.257   8.810  1.00  0.00     0.060 C 
HETATM    6  C4  UNL     1      33.402  14.822   9.257  1.00  0.00     0.088 C 
HETATM    7  C5  UNL     1      31.891  14.545   9.289  1.00  0.00     0.292 C 
HETATM    8  N2  UNL     1      31.456  15.241  10.463  1.00  0.00    -0.040 N 
ATOM      9  H21 UNL     1      30.491  15.007  10.699  1.00  0.00     0.280 HD
ATOM     10  H22 UNL     1      31.915  14.883  11.300  1.00  0.00     0.280 HD
ENDROOT
BRANCH   7  11
HETATM   11  C6  UNL     1      31.606  13.105   9.308  1.00  0.00     0.205 C 
HETATM   12  O1  UNL     1      32.361  12.245   9.847  1.00  0.00    -0.646 OA
HETATM   13  O2  UNL     1      30.450  12.652   8.707  1.00  0.00    -0.646 OA
ENDBRANCH   7  11
TORSDOF 1
ENDMDL
