MODEL 2
REMARK VINA RESULT: -6.292771042      0.157      1.015
REMARK  1 active torsions:
REMARK  status: ('A' for Active; 'I' for Inactive)
REMARK    1  A    between atoms: C5_7  and  C6_8 
ROOT
HETATM    1  C1  UNL     1      30.225  17.232  10.046  1.00  0.00     0.063 C 
HETATM    2  C2  UNL     1      31.614  16.623  10.308  1.00  0.00     0.280 C 
HETATM    3  N1  UNL     1      32.553  17.131   9.402  1.00  0.00    -0.376 N 
ATOM      4  H1  UNL     1      32.517  18.112   9.126  1.00  0.00     0.160 HD
HETATM    5  C3  UNL     1      33.549  16.285   8.874  1.00  0.00     0.060 C 
HETATM    6  C4  UNL     1      33.434  14.834   9.261  1.00  0.00     0.088 C 
HETATM    7  C5  UNL     1      31.923  14.564   9.199  1.00  0.00     0.292 C 
HETATM    8  N2  UNL     1      31.425  15.217  10.373  1.00  0.00    -0.040 N 
ATOM      9  H21 UNL     1      30.448  14.980  10.546  1.00  0.00     0.280 HD
ATOM     10  H22 UNL     1      31.836  14.826  11.220  1.00  0.00     0.280 HD
ENDROOT
BRANCH   7  11
HETATM   11  C6  UNL     1      31.633  13.126   9.148  1.00  0.00     0.205 C 
HETATM   12  O1  UNL     1      30.525  12.644   8.773  1.00  0.00    -0.646 OA
HETATM   13  O2  UNL     1      32.619  12.239   9.528  1.00  0.00    -0.646 OA
ENDBRANCH   7  11
TORSDOF 1
ENDMDL
