MODEL 3
REMARK VINA RESULT: -9.198382169      0.898      1.706
REMARK  9 active torsions:
REMARK  status: ('A' for Active; 'I' for Inactive)
REMARK    1  A    between atoms: C2_2  and  O1_3 
REMARK    2  A    between atoms: C2_2  and  C3_5 
REMARK    3  A    between atoms: C3_5  and  N1_6 
REMARK    4  A    between atoms: C3_5  and  C21_27 
REMARK       I    between atoms: N1_6  and  C4_8 
REMARK    5  A    between atoms: C4_8  and  C5_10 
REMARK    6  A    between atoms: C8_13  and  C9_14 
REMARK    7  A    between atoms: C10_15  and  C11_16 
REMARK    8  A    between atoms: C12_17  and  C13_18 
REMARK       I    between atoms: C21_27  and  N3_29 
REMARK    9  A    between atoms: N3_29  and  O4_31 
ROOT
HETATM    1  C5  UNL     1      32.413  -8.860 -10.776  1.00  0.00     0.032 A 
HETATM    2  C6  UNL     1      32.629  -7.521 -10.986  1.00  0.00     0.018 A 
HETATM    3  C7  UNL     1      32.222  -6.891 -12.166  1.00  0.00     0.022 A 
HETATM    4  C8  UNL     1      31.590  -7.604 -13.153  1.00  0.00     0.018 A 
HETATM    5  C19 UNL     1      31.371  -8.951 -12.945  1.00  0.00     0.022 A 
HETATM    6  C20 UNL     1      31.778  -9.573 -11.769  1.00  0.00     0.018 A 
ENDROOT
BRANCH   1   7
HETATM    7  C4  UNL     1      32.822  -9.552  -9.561  1.00  0.00     0.252 C 
HETATM    8  N1  UNL     1      31.971  -9.770  -8.456  1.00  0.00    -0.341 N 
ATOM      9  H1  UNL     1      31.010  -9.427  -8.498  1.00  0.00     0.163 HD
HETATM   10  O2  UNL     1      34.008 -10.009  -9.436  1.00  0.00    -0.268 OA
BRANCH   8  11
HETATM   11  C3  UNL     1      32.422 -10.472  -7.249  1.00  0.00     0.207 C 
BRANCH  11  12
HETATM   12  C2  UNL     1      32.741  -9.494  -6.141  1.00  0.00     0.146 C 
HETATM   13  C1  UNL     1      33.082 -10.218  -4.865  1.00  0.00     0.042 C 
BRANCH  12  14
HETATM   14  O1  UNL     1      33.809  -8.716  -6.586  1.00  0.00    -0.393 OA
ATOM     15  H1  UNL     1      34.141  -9.027  -7.420  1.00  0.00     0.210 HD
ENDBRANCH  12  14
ENDBRANCH  11  12
BRANCH  11  16
HETATM   16  C21 UNL     1      31.382 -11.439  -6.836  1.00  0.00     0.266 C 
HETATM   17  O3  UNL     1      30.395 -11.108  -6.116  1.00  0.00    -0.269 OA
HETATM   18  N3  UNL     1      31.484 -12.793  -7.258  1.00  0.00    -0.236 N 
ATOM     19  H3  UNL     1      31.300 -13.022  -8.234  1.00  0.00     0.197 HD
BRANCH  18  20
HETATM   20  O4  UNL     1      31.793 -13.716  -6.464  1.00  0.00    -0.287 OA
ATOM     21  H4  UNL     1      31.986 -14.596  -6.766  1.00  0.00     0.244 HD
ENDBRANCH  18  20
ENDBRANCH  11  16
ENDBRANCH   8  11
ENDBRANCH   1   7
BRANCH   4  22
HETATM   22  C9  UNL     1      31.167  -6.951 -14.377  1.00  0.00    -0.053 C 
HETATM   23  C10 UNL     1      30.821  -6.392 -15.390  1.00  0.00    -0.009 C 
BRANCH  23  24
HETATM   24  C11 UNL     1      30.423  -5.715 -16.576  1.00  0.00    -0.009 C 
HETATM   25  C12 UNL     1      30.099  -5.130 -17.585  1.00  0.00    -0.053 C 
BRANCH  25  26
HETATM   26  C13 UNL     1      29.733  -4.417 -18.787  1.00  0.00     0.018 A 
HETATM   27  C14 UNL     1      28.419  -4.292 -19.178  1.00  0.00     0.022 A 
HETATM   28  C15 UNL     1      28.070  -3.612 -20.323  1.00  0.00     0.028 A 
HETATM   29  C16 UNL     1      29.022  -3.025 -21.135  1.00  0.00     0.046 A 
HETATM   30  N2  UNL     1      28.680  -2.320 -22.320  1.00  0.00    -0.102 NA
HETATM   31  C17 UNL     1      30.330  -3.166 -20.721  1.00  0.00     0.028 A 
HETATM   32  C18 UNL     1      30.696  -3.840 -19.581  1.00  0.00     0.022 A 
ENDBRANCH  25  26
ENDBRANCH  23  24
ENDBRANCH   4  22
TORSDOF 9
ENDMDL
