MODEL 1
REMARK VINA RESULT: -9.498490886      0.000      0.000
REMARK  9 active torsions:
REMARK  status: ('A' for Active; 'I' for Inactive)
REMARK    1  A    between atoms: C2_2  and  O1_3 
REMARK    2  A    between atoms: C2_2  and  C3_5 
REMARK    3  A    between atoms: C3_5  and  N1_6 
REMARK    4  A    between atoms: C3_5  and  C21_27 
REMARK       I    between atoms: N1_6  and  C4_8 
REMARK    5  A    between atoms: C4_8  and  C5_10 
REMARK    6  A    between atoms: C8_13  and  C9_14 
REMARK    7  A    between atoms: C10_15  and  C11_16 
REMARK    8  A    between atoms: C12_17  and  C13_18 
REMARK       I    between atoms: C21_27  and  N3_29 
REMARK    9  A    between atoms: N3_29  and  O4_31 
ROOT
HETATM    1  C5  UNL     1      32.198  -9.028 -10.841  1.00  0.00     0.032 A 
HETATM    2  C6  UNL     1      31.660  -9.703 -11.908  1.00  0.00     0.018 A 
HETATM    3  C7  UNL     1      31.303  -9.040 -13.086  1.00  0.00     0.022 A 
HETATM    4  C8  UNL     1      31.485  -7.686 -13.205  1.00  0.00     0.018 A 
HETATM    5  C19 UNL     1      32.027  -7.004 -12.133  1.00  0.00     0.022 A 
HETATM    6  C20 UNL     1      32.380  -7.668 -10.963  1.00  0.00     0.018 A 
ENDROOT
BRANCH   1   7
HETATM    7  C4  UNL     1      32.582  -9.681  -9.596  1.00  0.00     0.252 C 
HETATM    8  N1  UNL     1      31.669 -10.035  -8.579  1.00  0.00    -0.341 N 
ATOM      9  H1  UNL     1      30.679  -9.826  -8.711  1.00  0.00     0.163 HD
HETATM   10  O2  UNL     1      33.803  -9.975  -9.361  1.00  0.00    -0.268 OA
BRANCH   8  11
HETATM   11  C3  UNL     1      32.098 -10.692  -7.339  1.00  0.00     0.207 C 
BRANCH  11  12
HETATM   12  C2  UNL     1      32.051  -9.731  -6.173  1.00  0.00     0.146 C 
HETATM   13  C1  UNL     1      33.221  -8.783  -6.210  1.00  0.00     0.042 C 
BRANCH  12  14
HETATM   14  O1  UNL     1      30.839  -9.048  -6.263  1.00  0.00    -0.393 OA
ATOM     15  H1  UNL     1      30.532  -9.004  -7.161  1.00  0.00     0.210 HD
ENDBRANCH  12  14
ENDBRANCH  11  12
BRANCH  11  16
HETATM   16  C21 UNL     1      31.244 -11.876  -7.100  1.00  0.00     0.266 C 
HETATM   17  O3  UNL     1      31.405 -12.966  -7.723  1.00  0.00    -0.269 OA
HETATM   18  N3  UNL     1      30.200 -11.798  -6.138  1.00  0.00    -0.236 N 
ATOM     19  H3  UNL     1      30.441 -11.780  -5.148  1.00  0.00     0.197 HD
BRANCH  18  20
HETATM   20  O4  UNL     1      28.990 -11.751  -6.472  1.00  0.00    -0.287 OA
ATOM     21  H4  UNL     1      28.289 -11.866  -5.841  1.00  0.00     0.244 HD
ENDBRANCH  18  20
ENDBRANCH  11  16
ENDBRANCH   8  11
ENDBRANCH   1   7
BRANCH   4  22
HETATM   22  C9  UNL     1      31.116  -6.998 -14.428  1.00  0.00    -0.053 C 
HETATM   23  C10 UNL     1      30.804  -6.412 -15.437  1.00  0.00    -0.009 C 
BRANCH  23  24
HETATM   24  C11 UNL     1      30.433  -5.703 -16.613  1.00  0.00    -0.009 C 
HETATM   25  C12 UNL     1      30.128  -5.087 -17.609  1.00  0.00    -0.053 C 
BRANCH  25  26
HETATM   26  C13 UNL     1      29.776  -4.331 -18.789  1.00  0.00     0.018 A 
HETATM   27  C14 UNL     1      30.727  -3.665 -19.528  1.00  0.00     0.022 A 
HETATM   28  C15 UNL     1      30.392  -2.945 -20.652  1.00  0.00     0.028 A 
HETATM   29  C16 UNL     1      29.084  -2.856 -21.091  1.00  0.00     0.046 A 
HETATM   30  N2  UNL     1      28.720  -2.118 -22.250  1.00  0.00    -0.102 NA
HETATM   31  C17 UNL     1      28.151  -3.532 -20.333  1.00  0.00     0.028 A 
HETATM   32  C18 UNL     1      28.469  -4.255 -19.209  1.00  0.00     0.022 A 
ENDBRANCH  25  26
ENDBRANCH  23  24
ENDBRANCH   4  22
TORSDOF 9
ENDMDL
