MODEL 11
REMARK VINA RESULT: -7.372813097      6.842     13.927
REMARK  9 active torsions:
REMARK  status: ('A' for Active; 'I' for Inactive)
REMARK    1  A    between atoms: C2_2  and  O1_3 
REMARK    2  A    between atoms: C2_2  and  C3_5 
REMARK    3  A    between atoms: C3_5  and  N1_6 
REMARK    4  A    between atoms: C3_5  and  C21_27 
REMARK       I    between atoms: N1_6  and  C4_8 
REMARK    5  A    between atoms: C4_8  and  C5_10 
REMARK    6  A    between atoms: C8_13  and  C9_14 
REMARK    7  A    between atoms: C10_15  and  C11_16 
REMARK    8  A    between atoms: C12_17  and  C13_18 
REMARK       I    between atoms: C21_27  and  N3_29 
REMARK    9  A    between atoms: N3_29  and  O4_31 
ROOT
HETATM    1  C5  UNL     1      28.914  -3.348 -20.299  1.00  0.00     0.032 A 
HETATM    2  C6  UNL     1      28.026  -4.025 -19.502  1.00  0.00     0.018 A 
HETATM    3  C7  UNL     1      28.453  -4.744 -18.380  1.00  0.00     0.022 A 
HETATM    4  C8  UNL     1      29.782  -4.786 -18.046  1.00  0.00     0.018 A 
HETATM    5  C19 UNL     1      30.678  -4.105 -18.846  1.00  0.00     0.022 A 
HETATM    6  C20 UNL     1      30.248  -3.392 -19.961  1.00  0.00     0.018 A 
ENDROOT
BRANCH   1   7
HETATM    7  C4  UNL     1      28.510  -2.589 -21.475  1.00  0.00     0.252 C 
HETATM    8  N1  UNL     1      28.584  -1.182 -21.568  1.00  0.00    -0.341 N 
ATOM      9  H1  UNL     1      28.941  -0.654 -20.771  1.00  0.00     0.163 HD
HETATM   10  O2  UNL     1      28.054  -3.181 -22.512  1.00  0.00    -0.268 OA
BRANCH   8  11
HETATM   11  C3  UNL     1      28.165  -0.455 -22.772  1.00  0.00     0.207 C 
BRANCH  11  12
HETATM   12  C2  UNL     1      27.190   0.647 -22.427  1.00  0.00     0.146 C 
HETATM   13  C1  UNL     1      25.863   0.077 -21.999  1.00  0.00     0.042 C 
BRANCH  12  14
HETATM   14  O1  UNL     1      27.775   1.397 -21.408  1.00  0.00    -0.393 OA
ATOM     15  H1  UNL     1      28.404   2.020 -21.753  1.00  0.00     0.210 HD
ENDBRANCH  12  14
ENDBRANCH  11  12
BRANCH  11  16
HETATM   16  C21 UNL     1      29.364   0.076 -23.456  1.00  0.00     0.266 C 
HETATM   17  O3  UNL     1      30.301  -0.672 -23.863  1.00  0.00    -0.269 OA
HETATM   18  N3  UNL     1      29.480   1.477 -23.670  1.00  0.00    -0.236 N 
ATOM     19  H3  UNL     1      28.890   1.920 -24.373  1.00  0.00     0.197 HD
BRANCH  18  20
HETATM   20  O4  UNL     1      30.287   2.185 -23.018  1.00  0.00    -0.287 OA
ATOM     21  H4  UNL     1      30.037   2.619 -22.211  1.00  0.00     0.244 HD
ENDBRANCH  18  20
ENDBRANCH  11  16
ENDBRANCH   8  11
ENDBRANCH   1   7
BRANCH   4  22
HETATM   22  C9  UNL     1      30.225  -5.531 -16.882  1.00  0.00    -0.053 C 
HETATM   23  C10 UNL     1      30.596  -6.136 -15.905  1.00  0.00    -0.009 C 
BRANCH  23  24
HETATM   24  C11 UNL     1      31.033  -6.829 -14.743  1.00  0.00    -0.009 C 
HETATM   25  C12 UNL     1      31.409  -7.404 -13.745  1.00  0.00    -0.053 C 
BRANCH  25  26
HETATM   26  C13 UNL     1      31.866  -8.068 -12.547  1.00  0.00     0.018 A 
HETATM   27  C14 UNL     1      32.712  -7.446 -11.657  1.00  0.00     0.022 A 
HETATM   28  C15 UNL     1      33.147  -8.078 -10.514  1.00  0.00     0.028 A 
HETATM   29  C16 UNL     1      32.755  -9.368 -10.207  1.00  0.00     0.046 A 
HETATM   30  N2  UNL     1      33.194 -10.036  -9.032  1.00  0.00    -0.102 NA
HETATM   31  C17 UNL     1      31.908  -9.968 -11.116  1.00  0.00     0.028 A 
HETATM   32  C18 UNL     1      31.464  -9.351 -12.260  1.00  0.00     0.022 A 
ENDBRANCH  25  26
ENDBRANCH  23  24
ENDBRANCH   4  22
TORSDOF 9
ENDMDL
