MODEL 2
REMARK VINA RESULT: -9.426137151      0.692      1.028
REMARK  9 active torsions:
REMARK  status: ('A' for Active; 'I' for Inactive)
REMARK    1  A    between atoms: C2_2  and  O1_3 
REMARK    2  A    between atoms: C2_2  and  C3_5 
REMARK    3  A    between atoms: C3_5  and  N1_6 
REMARK    4  A    between atoms: C3_5  and  C21_27 
REMARK       I    between atoms: N1_6  and  C4_8 
REMARK    5  A    between atoms: C4_8  and  C5_10 
REMARK    6  A    between atoms: C8_13  and  C9_14 
REMARK    7  A    between atoms: C10_15  and  C11_16 
REMARK    8  A    between atoms: C12_17  and  C13_18 
REMARK       I    between atoms: C21_27  and  N3_29 
REMARK    9  A    between atoms: N3_29  and  O4_31 
ROOT
HETATM    1  C5  UNL     1      32.046  -8.910 -10.399  1.00  0.00     0.032 A 
HETATM    2  C6  UNL     1      31.747  -9.650 -11.515  1.00  0.00     0.018 A 
HETATM    3  C7  UNL     1      31.401  -9.040 -12.725  1.00  0.00     0.022 A 
HETATM    4  C8  UNL     1      31.353  -7.673 -12.826  1.00  0.00     0.018 A 
HETATM    5  C19 UNL     1      31.654  -6.925 -11.704  1.00  0.00     0.022 A 
HETATM    6  C20 UNL     1      31.997  -7.537 -10.503  1.00  0.00     0.018 A 
ENDROOT
BRANCH   1   7
HETATM    7  C4  UNL     1      32.410  -9.508  -9.121  1.00  0.00     0.252 C 
HETATM    8  N1  UNL     1      31.500  -9.717  -8.063  1.00  0.00    -0.341 N 
ATOM      9  H1  UNL     1      30.526  -9.438  -8.187  1.00  0.00     0.163 HD
HETATM   10  O2  UNL     1      33.610  -9.883  -8.892  1.00  0.00    -0.268 OA
BRANCH   8  11
HETATM   11  C3  UNL     1      31.908 -10.322  -6.789  1.00  0.00     0.207 C 
BRANCH  11  12
HETATM   12  C2  UNL     1      31.814  -9.322  -5.660  1.00  0.00     0.146 C 
HETATM   13  C1  UNL     1      33.028  -8.431  -5.627  1.00  0.00     0.042 C 
BRANCH  12  14
HETATM   14  O1  UNL     1      30.648  -8.587  -5.870  1.00  0.00    -0.393 OA
ATOM     15  H1  UNL     1      30.364  -8.639  -6.775  1.00  0.00     0.210 HD
ENDBRANCH  12  14
ENDBRANCH  11  12
BRANCH  11  16
HETATM   16  C21 UNL     1      31.070 -11.513  -6.531  1.00  0.00     0.266 C 
HETATM   17  O3  UNL     1      30.083 -11.490  -5.738  1.00  0.00    -0.269 OA
HETATM   18  N3  UNL     1      31.375 -12.735  -7.191  1.00  0.00    -0.236 N 
ATOM     19  H3  UNL     1      31.179 -12.821  -8.187  1.00  0.00     0.197 HD
BRANCH  18  20
HETATM   20  O4  UNL     1      31.879 -13.712  -6.583  1.00  0.00    -0.287 OA
ATOM     21  H4  UNL     1      32.806 -13.913  -6.634  1.00  0.00     0.244 HD
ENDBRANCH  18  20
ENDBRANCH  11  16
ENDBRANCH   8  11
ENDBRANCH   1   7
BRANCH   4  22
HETATM   22  C9  UNL     1      30.995  -7.039 -14.081  1.00  0.00    -0.053 C 
HETATM   23  C10 UNL     1      30.692  -6.498 -15.117  1.00  0.00    -0.009 C 
BRANCH  23  24
HETATM   24  C11 UNL     1      30.331  -5.842 -16.326  1.00  0.00    -0.009 C 
HETATM   25  C12 UNL     1      30.035  -5.271 -17.352  1.00  0.00    -0.053 C 
BRANCH  25  26
HETATM   26  C13 UNL     1      29.694  -4.568 -18.567  1.00  0.00     0.018 A 
HETATM   27  C14 UNL     1      30.663  -4.014 -19.374  1.00  0.00     0.022 A 
HETATM   28  C15 UNL     1      30.338  -3.345 -20.532  1.00  0.00     0.028 A 
HETATM   29  C16 UNL     1      29.025  -3.198 -20.939  1.00  0.00     0.046 A 
HETATM   30  N2  UNL     1      28.673  -2.510 -22.132  1.00  0.00    -0.102 NA
HETATM   31  C17 UNL     1      28.076  -3.762 -20.113  1.00  0.00     0.028 A 
HETATM   32  C18 UNL     1      28.382  -4.433 -18.955  1.00  0.00     0.022 A 
ENDBRANCH  25  26
ENDBRANCH  23  24
ENDBRANCH   4  22
TORSDOF 9
ENDMDL
