MODEL 10
REMARK VINA RESULT: -7.394812336      6.856     13.972
REMARK  9 active torsions:
REMARK  status: ('A' for Active; 'I' for Inactive)
REMARK    1  A    between atoms: C2_2  and  O1_3 
REMARK    2  A    between atoms: C2_2  and  C3_5 
REMARK    3  A    between atoms: C3_5  and  N1_6 
REMARK    4  A    between atoms: C3_5  and  C21_27 
REMARK       I    between atoms: N1_6  and  C4_8 
REMARK    5  A    between atoms: C4_8  and  C5_10 
REMARK    6  A    between atoms: C8_13  and  C9_14 
REMARK    7  A    between atoms: C10_15  and  C11_16 
REMARK    8  A    between atoms: C12_17  and  C13_18 
REMARK       I    between atoms: C21_27  and  N3_29 
REMARK    9  A    between atoms: N3_29  and  O4_31 
ROOT
HETATM    1  C5  UNL     1      28.960  -3.326 -20.311  1.00  0.00     0.032 A 
HETATM    2  C6  UNL     1      30.281  -3.374 -19.943  1.00  0.00     0.018 A 
HETATM    3  C7  UNL     1      30.700  -4.087 -18.815  1.00  0.00     0.022 A 
HETATM    4  C8  UNL     1      29.790  -4.763 -18.043  1.00  0.00     0.018 A 
HETATM    5  C19 UNL     1      28.460  -4.717 -18.410  1.00  0.00     0.022 A 
HETATM    6  C20 UNL     1      28.049  -4.006 -19.533  1.00  0.00     0.018 A 
ENDROOT
BRANCH   1   7
HETATM    7  C4  UNL     1      28.484  -2.594 -21.478  1.00  0.00     0.252 C 
HETATM    8  N1  UNL     1      28.499  -1.187 -21.583  1.00  0.00    -0.341 N 
ATOM      9  H1  UNL     1      28.862  -0.637 -20.804  1.00  0.00     0.163 HD
HETATM   10  O2  UNL     1      28.016  -3.214 -22.493  1.00  0.00    -0.268 OA
BRANCH   8  11
HETATM   11  C3  UNL     1      28.009  -0.488 -22.778  1.00  0.00     0.207 C 
BRANCH  11  12
HETATM   12  C2  UNL     1      27.069   0.635 -22.400  1.00  0.00     0.146 C 
HETATM   13  C1  UNL     1      25.747   0.092 -21.923  1.00  0.00     0.042 C 
BRANCH  12  14
HETATM   14  O1  UNL     1      27.705   1.374 -21.404  1.00  0.00    -0.393 OA
ATOM     15  H1  UNL     1      27.365   2.260 -21.359  1.00  0.00     0.210 HD
ENDBRANCH  12  14
ENDBRANCH  11  12
BRANCH  11  16
HETATM   16  C21 UNL     1      29.166   0.011 -23.553  1.00  0.00     0.266 C 
HETATM   17  O3  UNL     1      30.029  -0.765 -24.059  1.00  0.00    -0.269 OA
HETATM   18  N3  UNL     1      29.324   1.411 -23.744  1.00  0.00    -0.236 N 
ATOM     19  H3  UNL     1      28.695   1.897 -24.382  1.00  0.00     0.197 HD
BRANCH  18  20
HETATM   20  O4  UNL     1      30.216   2.067 -23.151  1.00  0.00    -0.287 OA
ATOM     21  H4  UNL     1      30.068   2.954 -22.845  1.00  0.00     0.244 HD
ENDBRANCH  18  20
ENDBRANCH  11  16
ENDBRANCH   8  11
ENDBRANCH   1   7
BRANCH   4  22
HETATM   22  C9  UNL     1      30.225  -5.504 -16.873  1.00  0.00    -0.053 C 
HETATM   23  C10 UNL     1      30.597  -6.107 -15.896  1.00  0.00    -0.009 C 
BRANCH  23  24
HETATM   24  C11 UNL     1      31.048  -6.800 -14.739  1.00  0.00    -0.009 C 
HETATM   25  C12 UNL     1      31.428  -7.377 -13.744  1.00  0.00    -0.053 C 
BRANCH  25  26
HETATM   26  C13 UNL     1      31.879  -8.043 -12.544  1.00  0.00     0.018 A 
HETATM   27  C14 UNL     1      31.473  -9.322 -12.235  1.00  0.00     0.022 A 
HETATM   28  C15 UNL     1      31.902  -9.957 -11.092  1.00  0.00     0.028 A 
HETATM   29  C16 UNL     1      32.760  -9.340 -10.200  1.00  0.00     0.046 A 
HETATM   30  N2  UNL     1      33.213  -9.981  -9.015  1.00  0.00    -0.102 NA
HETATM   31  C17 UNL     1      33.151  -8.060 -10.534  1.00  0.00     0.028 A 
HETATM   32  C18 UNL     1      32.732  -7.413 -11.671  1.00  0.00     0.022 A 
ENDBRANCH  25  26
ENDBRANCH  23  24
ENDBRANCH   4  22
TORSDOF 9
ENDMDL
