MODEL 8
REMARK VINA RESULT: -7.463847600      7.187     14.080
REMARK  9 active torsions:
REMARK  status: ('A' for Active; 'I' for Inactive)
REMARK    1  A    between atoms: C2_2  and  O1_3 
REMARK    2  A    between atoms: C2_2  and  C3_5 
REMARK    3  A    between atoms: C3_5  and  N1_6 
REMARK    4  A    between atoms: C3_5  and  C21_27 
REMARK       I    between atoms: N1_6  and  C4_8 
REMARK    5  A    between atoms: C4_8  and  C5_10 
REMARK    6  A    between atoms: C8_13  and  C9_14 
REMARK    7  A    between atoms: C10_15  and  C11_16 
REMARK    8  A    between atoms: C12_17  and  C13_18 
REMARK       I    between atoms: C21_27  and  N3_29 
REMARK    9  A    between atoms: N3_29  and  O4_31 
ROOT
HETATM    1  C5  UNL     1      28.922  -3.349 -20.355  1.00  0.00     0.032 A 
HETATM    2  C6  UNL     1      30.244  -3.385 -19.989  1.00  0.00     0.018 A 
HETATM    3  C7  UNL     1      30.670  -4.090 -18.858  1.00  0.00     0.022 A 
HETATM    4  C8  UNL     1      29.767  -4.771 -18.082  1.00  0.00     0.018 A 
HETATM    5  C19 UNL     1      28.436  -4.737 -18.448  1.00  0.00     0.022 A 
HETATM    6  C20 UNL     1      28.018  -4.034 -19.573  1.00  0.00     0.018 A 
ENDROOT
BRANCH   1   7
HETATM    7  C4  UNL     1      28.438  -2.627 -21.524  1.00  0.00     0.252 C 
HETATM    8  N1  UNL     1      28.223  -3.225 -22.784  1.00  0.00    -0.341 N 
ATOM      9  H1  UNL     1      28.412  -4.221 -22.897  1.00  0.00     0.163 HD
HETATM   10  O2  UNL     1      28.179  -1.377 -21.460  1.00  0.00    -0.268 OA
BRANCH   8  11
HETATM   11  C3  UNL     1      27.735  -2.460 -23.938  1.00  0.00     0.207 C 
BRANCH  11  12
HETATM   12  C2  UNL     1      28.824  -2.286 -24.972  1.00  0.00     0.146 C 
HETATM   13  C1  UNL     1      29.960  -3.245 -24.723  1.00  0.00     0.042 C 
BRANCH  12  14
HETATM   14  O1  UNL     1      28.237  -2.506 -26.217  1.00  0.00    -0.393 OA
ATOM     15  H1  UNL     1      28.115  -1.691 -26.692  1.00  0.00     0.210 HD
ENDBRANCH  12  14
ENDBRANCH  11  12
BRANCH  11  16
HETATM   16  C21 UNL     1      26.553  -3.144 -24.506  1.00  0.00     0.266 C 
HETATM   17  O3  UNL     1      26.472  -4.405 -24.587  1.00  0.00    -0.269 OA
HETATM   18  N3  UNL     1      25.460  -2.367 -24.980  1.00  0.00    -0.236 N 
ATOM     19  H3  UNL     1      24.857  -1.898 -24.306  1.00  0.00     0.197 HD
BRANCH  18  20
HETATM   20  O4  UNL     1      25.216  -2.242 -26.206  1.00  0.00    -0.287 OA
ATOM     21  H4  UNL     1      24.477  -1.735 -26.522  1.00  0.00     0.244 HD
ENDBRANCH  18  20
ENDBRANCH  11  16
ENDBRANCH   8  11
ENDBRANCH   1   7
BRANCH   4  22
HETATM   22  C9  UNL     1      30.209  -5.503 -16.910  1.00  0.00    -0.053 C 
HETATM   23  C10 UNL     1      30.579  -6.097 -15.926  1.00  0.00    -0.009 C 
BRANCH  23  24
HETATM   24  C11 UNL     1      31.015  -6.778 -14.756  1.00  0.00    -0.009 C 
HETATM   25  C12 UNL     1      31.393  -7.343 -13.754  1.00  0.00    -0.053 C 
BRANCH  25  26
HETATM   26  C13 UNL     1      31.855  -7.995 -12.551  1.00  0.00     0.018 A 
HETATM   27  C14 UNL     1      31.480  -9.283 -12.241  1.00  0.00     0.022 A 
HETATM   28  C15 UNL     1      31.921  -9.905 -11.095  1.00  0.00     0.028 A 
HETATM   29  C16 UNL     1      32.761  -9.266 -10.201  1.00  0.00     0.046 A 
HETATM   30  N2  UNL     1      33.226  -9.893  -9.014  1.00  0.00    -0.102 NA
HETATM   31  C17 UNL     1      33.121  -7.977 -10.537  1.00  0.00     0.028 A 
HETATM   32  C18 UNL     1      32.691  -7.342 -11.676  1.00  0.00     0.022 A 
ENDBRANCH  25  26
ENDBRANCH  23  24
ENDBRANCH   4  22
TORSDOF 9
ENDMDL
