MODEL 3
REMARK VINA RESULT: -8.226529359      2.163      3.853
REMARK  4 active torsions:
REMARK  status: ('A' for Active; 'I' for Inactive)
REMARK    1  A    between atoms: C4_5  and  N1_6 
REMARK       I    between atoms: N1_6  and  C5_8 
REMARK    2  A    between atoms: C5_8  and  C6_10 
REMARK    3  A    between atoms: C6_10  and  N2_11 
REMARK    4  A    between atoms: C16_22  and  C17_23 
ROOT
HETATM    1  N1  UNL     1       2.227   2.716  28.093  1.00  0.00    -0.319 N 
ATOM      2  H1  UNL     1       1.605   3.369  28.570  1.00  0.00     0.169 HD
HETATM    3  C5  UNL     1       1.976   1.303  28.142  1.00  0.00     0.240 C 
HETATM    4  O1  UNL     1       2.754   0.529  27.548  1.00  0.00    -0.271 OA
ENDROOT
BRANCH   1   5
HETATM    5  C4  UNL     1       3.365   3.197  27.364  1.00  0.00     0.091 A 
HETATM    6  S1  UNL     1       4.830   3.745  28.128  1.00  0.00    -0.083 SA
HETATM    7  C3  UNL     1       5.689   4.185  26.741  1.00  0.00     0.059 A 
HETATM    8  C2  UNL     1       4.842   3.904  25.715  1.00  0.00    -0.039 A 
HETATM    9  C1  UNL     1       5.290   4.176  24.275  1.00  0.00     0.050 C 
HETATM   10  C16 UNL     1       3.616   3.381  26.047  1.00  0.00     0.050 A 
BRANCH  10  11
HETATM   11  C17 UNL     1       2.632   3.065  24.964  1.00  0.00     0.134 A 
HETATM   12  N3  UNL     1       2.262   1.813  24.555  1.00  0.00    -0.336 N 
HETATM   13  C18 UNL     1       1.412   1.870  23.542  1.00  0.00     0.199 A 
ATOM     14  H3  UNL     1       2.598   0.947  24.976  1.00  0.00     0.168 HD
HETATM   15  N4  UNL     1       1.221   3.156  23.281  1.00  0.00    -0.295 N 
HETATM   16  N5  UNL     1       1.966   3.866  24.154  1.00  0.00    -0.284 N 
ATOM     17  H4  UNL     1       0.620   3.539  22.552  1.00  0.00     0.187 HD
ATOM     18  H5  UNL     1       2.009   4.885  24.184  1.00  0.00     0.188 HD
ENDBRANCH  10  11
ENDBRANCH   1   5
BRANCH   3  19
HETATM   19  C6  UNL     1       0.787   0.847  28.908  1.00  0.00     0.235 C 
BRANCH  19  20
HETATM   20  N2  UNL     1      -0.192   0.214  28.110  1.00  0.00    -0.309 N 
HETATM   21  C7  UNL     1      -0.497   0.736  26.827  1.00  0.00     0.225 C 
HETATM   22  O2  UNL     1      -0.337   1.954  26.559  1.00  0.00    -0.273 OA
HETATM   23  C8  UNL     1      -1.019  -0.191  25.785  1.00  0.00     0.108 C 
HETATM   24  C9  UNL     1      -2.201  -0.898  26.345  1.00  0.00     0.050 C 
HETATM   25  C10 UNL     1      -1.857  -1.487  27.680  1.00  0.00    -0.031 A 
HETATM   26  C11 UNL     1      -2.531  -2.628  28.092  1.00  0.00     0.009 A 
HETATM   27  C15 UNL     1      -0.907  -0.940  28.532  1.00  0.00     0.044 A 
HETATM   28  C12 UNL     1      -2.262  -3.191  29.307  1.00  0.00     0.001 A 
HETATM   29  C13 UNL     1      -1.311  -2.629  30.142  1.00  0.00     0.002 A 
HETATM   30  C14 UNL     1      -0.623  -1.499  29.766  1.00  0.00     0.030 A 
ENDBRANCH  19  20
ENDBRANCH   3  19
TORSDOF 4
ENDMDL
