MODEL 16
REMARK VINA RESULT: -7.857013493      3.227      5.675
REMARK  4 active torsions:
REMARK  status: ('A' for Active; 'I' for Inactive)
REMARK    1  A    between atoms: C4_5  and  N1_6 
REMARK       I    between atoms: N1_6  and  C5_8 
REMARK    2  A    between atoms: C5_8  and  C6_10 
REMARK    3  A    between atoms: C6_10  and  N2_11 
REMARK    4  A    between atoms: C16_22  and  C17_23 
ROOT
HETATM    1  N1  UNL     1       0.144  -0.754  30.755  1.00  0.00    -0.319 N 
ATOM      2  H1  UNL     1      -0.314  -0.404  31.596  1.00  0.00     0.169 HD
HETATM    3  C5  UNL     1       1.558  -1.007  30.747  1.00  0.00     0.240 C 
HETATM    4  O1  UNL     1       2.090  -1.437  29.704  1.00  0.00    -0.271 OA
ENDROOT
BRANCH   1   5
HETATM    5  C4  UNL     1      -0.615  -1.002  29.562  1.00  0.00     0.091 A 
HETATM    6  S1  UNL     1      -1.791  -2.279  29.424  1.00  0.00    -0.083 SA
HETATM    7  C3  UNL     1      -2.247  -2.027  27.816  1.00  0.00     0.059 A 
HETATM    8  C2  UNL     1      -1.494  -0.971  27.412  1.00  0.00    -0.039 A 
HETATM    9  C1  UNL     1      -1.643  -0.446  25.979  1.00  0.00     0.050 C 
HETATM   10  C16 UNL     1      -0.633  -0.430  28.336  1.00  0.00     0.050 A 
BRANCH  10  11
HETATM   11  C17 UNL     1       0.235   0.726  27.948  1.00  0.00     0.134 A 
HETATM   12  N3  UNL     1       1.529   0.648  27.512  1.00  0.00    -0.336 N 
HETATM   13  C18 UNL     1       2.038   1.851  27.299  1.00  0.00     0.199 A 
ATOM     14  H3  UNL     1       2.036  -0.225  27.369  1.00  0.00     0.168 HD
HETATM   15  N4  UNL     1       1.084   2.722  27.594  1.00  0.00    -0.295 N 
HETATM   16  N5  UNL     1      -0.003   2.023  27.984  1.00  0.00    -0.284 N 
ATOM     17  H4  UNL     1       1.158   3.737  27.537  1.00  0.00     0.187 HD
ATOM     18  H5  UNL     1      -0.889   2.442  28.268  1.00  0.00     0.188 HD
ENDBRANCH  10  11
ENDBRANCH   1   5
BRANCH   3  19
HETATM   19  C6  UNL     1       2.306  -0.738  32.002  1.00  0.00     0.235 C 
BRANCH  19  20
HETATM   20  N2  UNL     1       2.691   0.613  32.153  1.00  0.00    -0.309 N 
HETATM   21  C7  UNL     1       3.637   1.177  31.259  1.00  0.00     0.225 C 
HETATM   22  O2  UNL     1       4.499   0.467  30.681  1.00  0.00    -0.273 OA
HETATM   23  C8  UNL     1       3.596   2.645  31.009  1.00  0.00     0.108 C 
HETATM   24  C9  UNL     1       3.656   3.339  32.323  1.00  0.00     0.050 C 
HETATM   25  C10 UNL     1       2.622   2.769  33.247  1.00  0.00    -0.031 A 
HETATM   26  C11 UNL     1       2.094   3.589  34.234  1.00  0.00     0.009 A 
HETATM   27  C15 UNL     1       2.176   1.455  33.175  1.00  0.00     0.044 A 
HETATM   28  C12 UNL     1       1.161   3.109  35.109  1.00  0.00     0.001 A 
HETATM   29  C13 UNL     1       0.730   1.796  35.020  1.00  0.00     0.002 A 
HETATM   30  C14 UNL     1       1.231   0.954  34.053  1.00  0.00     0.030 A 
ENDBRANCH  19  20
ENDBRANCH   3  19
TORSDOF 4
ENDMDL
