MODEL 1
REMARK VINA RESULT: -8.398183208      0.000      0.000
REMARK  4 active torsions:
REMARK  status: ('A' for Active; 'I' for Inactive)
REMARK    1  A    between atoms: C4_5  and  N1_6 
REMARK       I    between atoms: N1_6  and  C5_8 
REMARK    2  A    between atoms: C5_8  and  C6_10 
REMARK    3  A    between atoms: C6_10  and  N2_11 
REMARK    4  A    between atoms: C16_22  and  C17_23 
ROOT
HETATM    1  N1  UNL     1      -0.072   1.060  25.989  1.00  0.00    -0.319 N 
ATOM      2  H1  UNL     1      -0.992   1.464  26.162  1.00  0.00     0.169 HD
HETATM    3  C5  UNL     1       0.787   0.709  27.085  1.00  0.00     0.240 C 
HETATM    4  O1  UNL     1       1.907   0.215  26.843  1.00  0.00    -0.271 OA
ENDROOT
BRANCH   1   5
HETATM    5  C4  UNL     1       0.383   0.833  24.647  1.00  0.00     0.091 A 
HETATM    6  S1  UNL     1      -0.200  -0.466  23.645  1.00  0.00    -0.083 SA
HETATM    7  C3  UNL     1       0.747  -0.173  22.277  1.00  0.00     0.059 A 
HETATM    8  C2  UNL     1       1.492   0.914  22.607  1.00  0.00    -0.039 A 
HETATM    9  C1  UNL     1       2.487   1.482  21.588  1.00  0.00     0.050 C 
HETATM   10  C16 UNL     1       1.297   1.445  23.860  1.00  0.00     0.050 A 
BRANCH  10  11
HETATM   11  C17 UNL     1       2.099   2.633  24.290  1.00  0.00     0.134 A 
HETATM   12  N3  UNL     1       3.203   2.608  25.098  1.00  0.00    -0.336 N 
HETATM   13  C18 UNL     1       3.653   3.830  25.334  1.00  0.00     0.199 A 
ATOM     14  H3  UNL     1       3.624   1.758  25.470  1.00  0.00     0.168 HD
HETATM   15  N4  UNL     1       2.850   4.661  24.685  1.00  0.00    -0.295 N 
HETATM   16  N5  UNL     1       1.914   3.919  24.056  1.00  0.00    -0.284 N 
ATOM     17  H4  UNL     1       2.925   5.678  24.666  1.00  0.00     0.187 HD
ATOM     18  H5  UNL     1       1.166   4.300  23.477  1.00  0.00     0.188 HD
ENDBRANCH  10  11
ENDBRANCH   1   5
BRANCH   3  19
HETATM   19  C6  UNL     1       0.278   0.959  28.458  1.00  0.00     0.235 C 
BRANCH  19  20
HETATM   20  N2  UNL     1       0.262  -0.194  29.275  1.00  0.00    -0.309 N 
HETATM   21  C7  UNL     1       1.257  -0.362  30.272  1.00  0.00     0.225 C 
HETATM   22  O2  UNL     1       2.394   0.162  30.158  1.00  0.00    -0.273 OA
HETATM   23  C8  UNL     1       0.933  -1.179  31.474  1.00  0.00     0.108 C 
HETATM   24  C9  UNL     1       0.441  -2.504  31.013  1.00  0.00     0.050 C 
HETATM   25  C10 UNL     1      -0.643  -2.319  29.994  1.00  0.00    -0.031 A 
HETATM   26  C11 UNL     1      -1.616  -3.302  29.878  1.00  0.00     0.009 A 
HETATM   27  C15 UNL     1      -0.714  -1.218  29.149  1.00  0.00     0.044 A 
HETATM   28  C12 UNL     1      -2.614  -3.183  28.953  1.00  0.00     0.001 A 
HETATM   29  C13 UNL     1      -2.667  -2.078  28.120  1.00  0.00     0.002 A 
HETATM   30  C14 UNL     1      -1.720  -1.084  28.207  1.00  0.00     0.030 A 
ENDBRANCH  19  20
ENDBRANCH   3  19
TORSDOF 4
ENDMDL
