MODEL 2
REMARK VINA RESULT: -8.250994083      1.116      2.423
REMARK  4 active torsions:
REMARK  status: ('A' for Active; 'I' for Inactive)
REMARK    1  A    between atoms: C4_5  and  N1_6 
REMARK       I    between atoms: N1_6  and  C5_8 
REMARK    2  A    between atoms: C5_8  and  C6_10 
REMARK    3  A    between atoms: C6_10  and  N2_11 
REMARK    4  A    between atoms: C16_22  and  C17_23 
ROOT
HETATM    1  N1  UNL     1      -0.330   0.813  25.497  1.00  0.00    -0.319 N 
ATOM      2  H1  UNL     1      -1.292   1.149  25.533  1.00  0.00     0.169 HD
HETATM    3  C5  UNL     1       0.368   0.469  26.704  1.00  0.00     0.240 C 
HETATM    4  O1  UNL     1       1.544   0.060  26.628  1.00  0.00    -0.271 OA
ENDROOT
BRANCH   1   5
HETATM    5  C4  UNL     1       0.347   0.677  24.239  1.00  0.00     0.091 A 
HETATM    6  S1  UNL     1      -0.015  -0.580  23.088  1.00  0.00    -0.083 SA
HETATM    7  C3  UNL     1       1.132  -0.182  21.912  1.00  0.00     0.059 A 
HETATM    8  C2  UNL     1       1.771   0.906  22.417  1.00  0.00    -0.039 A 
HETATM    9  C1  UNL     1       2.897   1.559  21.607  1.00  0.00     0.050 C 
HETATM   10  C16 UNL     1       1.354   1.359  23.646  1.00  0.00     0.050 A 
BRANCH  10  11
HETATM   11  C17 UNL     1       2.029   2.543  24.264  1.00  0.00     0.134 A 
HETATM   12  N3  UNL     1       2.967   2.505  25.258  1.00  0.00    -0.336 N 
HETATM   13  C18 UNL     1       3.332   3.724  25.622  1.00  0.00     0.199 A 
ATOM     14  H3  UNL     1       3.339   1.648  25.666  1.00  0.00     0.168 HD
HETATM   15  N4  UNL     1       2.636   4.566  24.871  1.00  0.00    -0.295 N 
HETATM   16  N5  UNL     1       1.853   3.834  24.051  1.00  0.00    -0.284 N 
ATOM     17  H4  UNL     1       2.684   5.584  24.907  1.00  0.00     0.187 HD
ATOM     18  H5  UNL     1       1.212   4.225  23.361  1.00  0.00     0.188 HD
ENDBRANCH  10  11
ENDBRANCH   1   5
BRANCH   3  19
HETATM   19  C6  UNL     1      -0.368   0.625  27.985  1.00  0.00     0.235 C 
BRANCH  19  20
HETATM   20  N2  UNL     1      -0.889  -0.588  28.490  1.00  0.00    -0.309 N 
HETATM   21  C7  UNL     1      -1.956  -1.230  27.811  1.00  0.00     0.225 C 
HETATM   22  O2  UNL     1      -2.775  -0.581  27.111  1.00  0.00    -0.273 OA
HETATM   23  C8  UNL     1      -2.097  -2.708  27.938  1.00  0.00     0.108 C 
HETATM   24  C9  UNL     1      -2.135  -3.044  29.386  1.00  0.00     0.050 C 
HETATM   25  C10 UNL     1      -0.978  -2.400  30.089  1.00  0.00    -0.031 A 
HETATM   26  C11 UNL     1      -0.472  -3.014  31.226  1.00  0.00     0.009 A 
HETATM   27  C15 UNL     1      -0.396  -1.212  29.667  1.00  0.00     0.044 A 
HETATM   28  C12 UNL     1       0.571  -2.456  31.909  1.00  0.00     0.001 A 
HETATM   29  C13 UNL     1       1.137  -1.270  31.472  1.00  0.00     0.002 A 
HETATM   30  C14 UNL     1       0.662  -0.634  30.347  1.00  0.00     0.030 A 
ENDBRANCH  19  20
ENDBRANCH   3  19
TORSDOF 4
ENDMDL
