MODEL 2
REMARK VINA RESULT: -9.833772257      0.075      1.406
REMARK  9 active torsions:
REMARK  status: ('A' for Active; 'I' for Inactive)
REMARK    1  A    between atoms: C2_2  and  C3_3 
REMARK    2  A    between atoms: C3_3  and  N1_4 
REMARK    3  A    between atoms: C4_5  and  C5_6 
REMARK    4  A    between atoms: C5_6  and  N2_7 
REMARK    5  A    between atoms: N2_7  and  C6_9 
REMARK    6  A    between atoms: C10_13  and  C11_14 
REMARK       I    between atoms: C11_14  and  N3_16 
REMARK    7  A    between atoms: N3_16  and  C12_18 
REMARK    8  A    between atoms: C12_18  and  C13_19 
REMARK    9  A    between atoms: C20_32  and  C21_33 
ROOT
HETATM    1  N2  UNL     1      37.756  -8.149  51.770  1.00  0.00    -0.383 N 
ATOM      2  H2  UNL     1      38.612  -8.618  51.474  1.00  0.00     0.160 HD
ENDROOT
BRANCH   1   3
HETATM    3  C5  UNL     1      37.031  -7.480  50.750  1.00  0.00     0.198 C 
BRANCH   3   4
HETATM    4  C4  UNL     1      37.211  -6.024  50.824  1.00  0.00     0.117 A 
HETATM    5  N1  UNL     1      36.328  -5.062  50.467  1.00  0.00    -0.317 N 
HETATM    6  C20 UNL     1      36.913  -3.889  50.736  1.00  0.00     0.151 A 
HETATM    7  N5  UNL     1      38.152  -4.133  51.253  1.00  0.00    -0.282 N 
HETATM    8  N4  UNL     1      38.333  -5.416  51.308  1.00  0.00    -0.286 N 
ATOM      9  H5  UNL     1      38.824  -3.425  51.548  1.00  0.00     0.188 HD
ATOM     10  H4  UNL     1      39.169  -5.888  51.652  1.00  0.00     0.188 HD
BRANCH   5  11
HETATM   11  C3  UNL     1      35.021  -5.244  49.925  1.00  0.00     0.132 C 
BRANCH  11  12
HETATM   12  C2  UNL     1      34.919  -5.339  48.442  1.00  0.00     0.016 C 
HETATM   13  C1  UNL     1      33.825  -4.580  47.788  1.00  0.00     0.006 C 
ENDBRANCH  11  12
ENDBRANCH   5  11
BRANCH   6  14
HETATM   14  C21 UNL     1      36.428  -2.514  50.576  1.00  0.00     0.080 A 
HETATM   15  C22 UNL     1      37.258  -1.421  50.713  1.00  0.00     0.050 A 
HETATM   16  C23 UNL     1      36.747  -0.151  50.547  1.00  0.00     0.091 A 
HETATM   17  N6  UNL     1      35.446   0.011  50.253  1.00  0.00    -0.362 N 
HETATM   18  C24 UNL     1      34.623  -1.055  50.117  1.00  0.00     0.180 A 
ATOM     19  H6  UNL     1      35.072   0.953  50.130  1.00  0.00     0.165 HD
HETATM   20  N7  UNL     1      35.154  -2.272  50.285  1.00  0.00    -0.349 N 
ATOM     21  H7  UNL     1      34.533  -3.076  50.183  1.00  0.00     0.166 HD
ENDBRANCH   6  14
ENDBRANCH   3   4
ENDBRANCH   1   3
BRANCH   1  22
HETATM   22  C6  UNL     1      37.439  -8.246  53.146  1.00  0.00     0.029 A 
HETATM   23  C7  UNL     1      36.307  -7.668  53.661  1.00  0.00     0.029 A 
HETATM   24  C8  UNL     1      36.017  -7.756  55.017  1.00  0.00     0.003 A 
HETATM   25  C9  UNL     1      36.878  -8.430  55.845  1.00  0.00     0.017 A 
HETATM   26  C10 UNL     1      38.044  -9.037  55.378  1.00  0.00     0.034 A 
HETATM   27  C19 UNL     1      38.275  -8.916  54.032  1.00  0.00     0.046 A 
BRANCH  26  28
HETATM   28  C11 UNL     1      38.890  -9.730  56.311  1.00  0.00     0.252 C 
HETATM   29  O1  UNL     1      38.428 -10.624  57.041  1.00  0.00    -0.268 OA
HETATM   30  N3  UNL     1      40.267  -9.394  56.406  1.00  0.00    -0.352 N 
ATOM     31  H3  UNL     1      40.645  -8.656  55.812  1.00  0.00     0.163 HD
BRANCH  30  32
HETATM   32  C12 UNL     1      41.134 -10.076  57.322  1.00  0.00     0.167 C 
BRANCH  32  33
HETATM   33  C13 UNL     1      42.145 -10.912  56.663  1.00  0.00     0.037 A 
HETATM   34  C14 UNL     1      41.860 -12.259  56.408  1.00  0.00     0.127 A 
HETATM   35  F1  UNL     1      40.617 -12.699  56.746  1.00  0.00    -0.205 F 
HETATM   36  C15 UNL     1      42.757 -13.124  55.844  1.00  0.00     0.043 A 
HETATM   37  C16 UNL     1      44.004 -12.669  55.503  1.00  0.00     0.006 A 
HETATM   38  C17 UNL     1      44.317 -11.342  55.745  1.00  0.00     0.043 A 
HETATM   39  C18 UNL     1      43.391 -10.465  56.323  1.00  0.00     0.127 A 
HETATM   40  F2  UNL     1      43.793  -9.204  56.554  1.00  0.00    -0.205 F 
ENDBRANCH  32  33
ENDBRANCH  30  32
ENDBRANCH  26  28
ENDBRANCH   1  22
TORSDOF 9
ENDMDL
