MODEL 3
REMARK VINA RESULT: -9.635663658      3.989      7.175
REMARK  9 active torsions:
REMARK  status: ('A' for Active; 'I' for Inactive)
REMARK    1  A    between atoms: C2_2  and  C3_3 
REMARK    2  A    between atoms: C3_3  and  N1_4 
REMARK    3  A    between atoms: C4_5  and  C5_6 
REMARK    4  A    between atoms: C5_6  and  N2_7 
REMARK    5  A    between atoms: N2_7  and  C6_9 
REMARK    6  A    between atoms: C10_13  and  C11_14 
REMARK       I    between atoms: C11_14  and  N3_16 
REMARK    7  A    between atoms: N3_16  and  C12_18 
REMARK    8  A    between atoms: C12_18  and  C13_19 
REMARK    9  A    between atoms: C20_32  and  C21_33 
ROOT
HETATM    1  N2  UNL     1      37.682  -8.734  51.589  1.00  0.00    -0.383 N 
ATOM      2  H2  UNL     1      37.940  -7.875  51.101  1.00  0.00     0.160 HD
ENDROOT
BRANCH   1   3
HETATM    3  C5  UNL     1      37.606  -9.903  50.788  1.00  0.00     0.198 C 
BRANCH   3   4
HETATM    4  C4  UNL     1      38.938 -10.370  50.385  1.00  0.00     0.117 A 
HETATM    5  N1  UNL     1      39.555 -11.520  50.742  1.00  0.00    -0.317 N 
HETATM    6  C20 UNL     1      40.737 -11.531  50.114  1.00  0.00     0.151 A 
HETATM    7  N5  UNL     1      40.843 -10.387  49.377  1.00  0.00    -0.282 N 
HETATM    8  N4  UNL     1      39.764  -9.688  49.538  1.00  0.00    -0.286 N 
ATOM      9  H5  UNL     1      41.640 -10.125  48.796  1.00  0.00     0.188 HD
ATOM     10  H4  UNL     1      39.565  -8.785  49.106  1.00  0.00     0.188 HD
BRANCH   5  11
HETATM   11  C3  UNL     1      39.053 -12.541  51.604  1.00  0.00     0.132 C 
BRANCH  11  12
HETATM   12  C2  UNL     1      39.513 -12.507  53.020  1.00  0.00     0.016 C 
HETATM   13  C1  UNL     1      39.896 -13.799  53.640  1.00  0.00     0.006 C 
ENDBRANCH  11  12
ENDBRANCH   5  11
BRANCH   6  14
HETATM   14  C21 UNL     1      41.813 -12.526  50.108  1.00  0.00     0.080 A 
HETATM   15  C22 UNL     1      42.719 -12.638  51.143  1.00  0.00     0.050 A 
HETATM   16  C23 UNL     1      43.708 -13.596  51.084  1.00  0.00     0.091 A 
HETATM   17  N6  UNL     1      43.782 -14.414  50.019  1.00  0.00    -0.362 N 
HETATM   18  C24 UNL     1      42.900 -14.312  48.998  1.00  0.00     0.180 A 
ATOM     19  H6  UNL     1      44.516 -15.122  49.981  1.00  0.00     0.165 HD
HETATM   20  N7  UNL     1      41.953 -13.369  49.090  1.00  0.00    -0.349 N 
ATOM     21  H7  UNL     1      41.288 -13.293  48.320  1.00  0.00     0.166 HD
ENDBRANCH   6  14
ENDBRANCH   3   4
ENDBRANCH   1   3
BRANCH   1  22
HETATM   22  C6  UNL     1      37.443  -8.610  52.979  1.00  0.00     0.029 A 
HETATM   23  C7  UNL     1      36.392  -7.873  53.460  1.00  0.00     0.029 A 
HETATM   24  C8  UNL     1      36.180  -7.744  54.828  1.00  0.00     0.003 A 
HETATM   25  C9  UNL     1      37.037  -8.365  55.700  1.00  0.00     0.017 A 
HETATM   26  C10 UNL     1      38.123  -9.126  55.268  1.00  0.00     0.034 A 
HETATM   27  C19 UNL     1      38.280  -9.215  53.909  1.00  0.00     0.046 A 
BRANCH  26  28
HETATM   28  C11 UNL     1      38.970  -9.748  56.249  1.00  0.00     0.252 C 
HETATM   29  O1  UNL     1      38.511 -10.590  57.040  1.00  0.00    -0.268 OA
HETATM   30  N3  UNL     1      40.346  -9.403  56.320  1.00  0.00    -0.352 N 
ATOM     31  H3  UNL     1      40.723  -8.707  55.676  1.00  0.00     0.163 HD
BRANCH  30  32
HETATM   32  C12 UNL     1      41.215 -10.015  57.283  1.00  0.00     0.167 C 
BRANCH  32  33
HETATM   33  C13 UNL     1      42.152 -10.981  56.698  1.00  0.00     0.037 A 
HETATM   34  C14 UNL     1      43.424 -10.550  56.302  1.00  0.00     0.127 A 
HETATM   35  F1  UNL     1      43.733  -9.245  56.542  1.00  0.00    -0.205 F 
HETATM   36  C15 UNL     1      44.344 -11.366  55.704  1.00  0.00     0.043 A 
HETATM   37  C16 UNL     1      44.024 -12.678  55.472  1.00  0.00     0.006 A 
HETATM   38  C17 UNL     1      42.773 -13.135  55.850  1.00  0.00     0.043 A 
HETATM   39  C18 UNL     1      41.839 -12.291  56.462  1.00  0.00     0.127 A 
HETATM   40  F2  UNL     1      40.637 -12.811  56.763  1.00  0.00    -0.205 F 
ENDBRANCH  32  33
ENDBRANCH  30  32
ENDBRANCH  26  28
ENDBRANCH   1  22
TORSDOF 9
ENDMDL
