MODEL 10
REMARK VINA RESULT: -8.940568970      5.193      8.183
REMARK  9 active torsions:
REMARK  status: ('A' for Active; 'I' for Inactive)
REMARK    1  A    between atoms: C2_2  and  C3_3 
REMARK    2  A    between atoms: C3_3  and  N1_4 
REMARK    3  A    between atoms: C4_5  and  C5_6 
REMARK    4  A    between atoms: C5_6  and  N2_7 
REMARK    5  A    between atoms: N2_7  and  C6_9 
REMARK    6  A    between atoms: C10_13  and  C11_14 
REMARK       I    between atoms: C11_14  and  N3_16 
REMARK    7  A    between atoms: N3_16  and  C12_18 
REMARK    8  A    between atoms: C12_18  and  C13_19 
REMARK    9  A    between atoms: C20_32  and  C21_33 
ROOT
HETATM    1  N2  UNL     1      37.956  -9.809  49.731  1.00  0.00    -0.383 N 
ATOM      2  H2  UNL     1      38.885 -10.231  49.714  1.00  0.00     0.160 HD
ENDROOT
BRANCH   1   3
HETATM    3  C5  UNL     1      37.074 -10.207  48.693  1.00  0.00     0.198 C 
BRANCH   3   4
HETATM    4  C4  UNL     1      36.530  -9.050  47.971  1.00  0.00     0.117 A 
HETATM    5  N1  UNL     1      35.372  -8.393  48.213  1.00  0.00    -0.317 N 
HETATM    6  C20 UNL     1      35.306  -7.394  47.324  1.00  0.00     0.151 A 
HETATM    7  N5  UNL     1      36.422  -7.443  46.539  1.00  0.00    -0.282 N 
HETATM    8  N4  UNL     1      37.159  -8.437  46.925  1.00  0.00    -0.286 N 
ATOM      9  H5  UNL     1      36.639  -6.803  45.774  1.00  0.00     0.188 HD
ATOM     10  H4  UNL     1      38.054  -8.712  46.519  1.00  0.00     0.188 HD
BRANCH   5  11
HETATM   11  C3  UNL     1      34.406  -8.684  49.222  1.00  0.00     0.132 C 
BRANCH  11  12
HETATM   12  C2  UNL     1      33.356  -9.682  48.876  1.00  0.00     0.016 C 
HETATM   13  C1  UNL     1      31.971  -9.179  48.708  1.00  0.00     0.006 C 
ENDBRANCH  11  12
ENDBRANCH   5  11
BRANCH   6  14
HETATM   14  C21 UNL     1      34.296  -6.351  47.123  1.00  0.00     0.080 A 
HETATM   15  C22 UNL     1      34.380  -5.118  47.736  1.00  0.00     0.050 A 
HETATM   16  C23 UNL     1      33.402  -4.174  47.507  1.00  0.00     0.091 A 
HETATM   17  N6  UNL     1      32.376  -4.462  46.689  1.00  0.00    -0.362 N 
HETATM   18  C24 UNL     1      32.283  -5.669  46.084  1.00  0.00     0.180 A 
ATOM     19  H6  UNL     1      31.655  -3.759  46.521  1.00  0.00     0.165 HD
HETATM   20  N7  UNL     1      33.251  -6.561  46.330  1.00  0.00    -0.349 N 
ATOM     21  H7  UNL     1      33.181  -7.471  45.873  1.00  0.00     0.166 HD
ENDBRANCH   6  14
ENDBRANCH   3   4
ENDBRANCH   1   3
BRANCH   1  22
HETATM   22  C6  UNL     1      37.708  -8.898  50.786  1.00  0.00     0.029 A 
HETATM   23  C7  UNL     1      37.075  -9.293  51.936  1.00  0.00     0.029 A 
HETATM   24  C8  UNL     1      36.821  -8.385  52.957  1.00  0.00     0.003 A 
HETATM   25  C9  UNL     1      37.212  -7.079  52.805  1.00  0.00     0.017 A 
HETATM   26  C10 UNL     1      37.859  -6.620  51.657  1.00  0.00     0.034 A 
HETATM   27  C19 UNL     1      38.081  -7.563  50.687  1.00  0.00     0.046 A 
BRANCH  26  28
HETATM   28  C11 UNL     1      38.242  -5.236  51.581  1.00  0.00     0.252 C 
HETATM   29  O1  UNL     1      39.431  -4.917  51.410  1.00  0.00    -0.268 OA
HETATM   30  N3  UNL     1      37.256  -4.220  51.700  1.00  0.00    -0.352 N 
ATOM     31  H3  UNL     1      36.281  -4.482  51.846  1.00  0.00     0.163 HD
BRANCH  30  32
HETATM   32  C12 UNL     1      37.609  -2.833  51.618  1.00  0.00     0.167 C 
BRANCH  32  33
HETATM   33  C13 UNL     1      36.583  -2.002  50.976  1.00  0.00     0.037 A 
HETATM   34  C14 UNL     1      36.763  -0.615  50.915  1.00  0.00     0.127 A 
HETATM   35  F1  UNL     1      37.929  -0.124  51.419  1.00  0.00    -0.205 F 
HETATM   36  C15 UNL     1      35.840   0.241  50.382  1.00  0.00     0.043 A 
HETATM   37  C16 UNL     1      34.672  -0.264  49.874  1.00  0.00     0.006 A 
HETATM   38  C17 UNL     1      34.463  -1.633  49.921  1.00  0.00     0.043 A 
HETATM   39  C18 UNL     1      35.415  -2.500  50.470  1.00  0.00     0.127 A 
HETATM   40  F2  UNL     1      35.113  -3.809  50.506  1.00  0.00    -0.205 F 
ENDBRANCH  32  33
ENDBRANCH  30  32
ENDBRANCH  26  28
ENDBRANCH   1  22
TORSDOF 9
ENDMDL
