MODEL 1
REMARK VINA RESULT: -9.858965146      0.000      0.000
REMARK  9 active torsions:
REMARK  status: ('A' for Active; 'I' for Inactive)
REMARK    1  A    between atoms: C2_2  and  C3_3 
REMARK    2  A    between atoms: C3_3  and  N1_4 
REMARK    3  A    between atoms: C4_5  and  C5_6 
REMARK    4  A    between atoms: C5_6  and  N2_7 
REMARK    5  A    between atoms: N2_7  and  C6_9 
REMARK    6  A    between atoms: C10_13  and  C11_14 
REMARK       I    between atoms: C11_14  and  N3_16 
REMARK    7  A    between atoms: N3_16  and  C12_18 
REMARK    8  A    between atoms: C12_18  and  C13_19 
REMARK    9  A    between atoms: C20_32  and  C21_33 
ROOT
HETATM    1  N2  UNL     1      37.843  -8.140  51.806  1.00  0.00    -0.383 N 
ATOM      2  H2  UNL     1      38.717  -8.584  51.522  1.00  0.00     0.160 HD
ENDROOT
BRANCH   1   3
HETATM    3  C5  UNL     1      37.116  -7.486  50.778  1.00  0.00     0.198 C 
BRANCH   3   4
HETATM    4  C4  UNL     1      37.277  -6.028  50.845  1.00  0.00     0.117 A 
HETATM    5  N1  UNL     1      36.382  -5.079  50.485  1.00  0.00    -0.317 N 
HETATM    6  C20 UNL     1      36.951  -3.896  50.747  1.00  0.00     0.151 A 
HETATM    7  N5  UNL     1      38.194  -4.123  51.264  1.00  0.00    -0.282 N 
HETATM    8  N4  UNL     1      38.392  -5.402  51.325  1.00  0.00    -0.286 N 
ATOM      9  H5  UNL     1      38.857  -3.404  51.555  1.00  0.00     0.188 HD
ATOM     10  H4  UNL     1      39.234  -5.862  51.671  1.00  0.00     0.188 HD
BRANCH   5  11
HETATM   11  C3  UNL     1      35.076  -5.281  49.945  1.00  0.00     0.132 C 
BRANCH  11  12
HETATM   12  C2  UNL     1      34.971  -5.363  48.462  1.00  0.00     0.016 C 
HETATM   13  C1  UNL     1      33.860  -4.619  47.819  1.00  0.00     0.006 C 
ENDBRANCH  11  12
ENDBRANCH   5  11
BRANCH   6  14
HETATM   14  C21 UNL     1      36.449  -2.529  50.580  1.00  0.00     0.080 A 
HETATM   15  C22 UNL     1      37.268  -1.425  50.693  1.00  0.00     0.050 A 
HETATM   16  C23 UNL     1      36.741  -0.163  50.522  1.00  0.00     0.091 A 
HETATM   17  N6  UNL     1      35.433  -0.019  50.247  1.00  0.00    -0.362 N 
HETATM   18  C24 UNL     1      34.620  -1.095  50.135  1.00  0.00     0.180 A 
ATOM     19  H6  UNL     1      35.047   0.917  50.120  1.00  0.00     0.165 HD
HETATM   20  N7  UNL     1      35.168  -2.305  50.307  1.00  0.00    -0.349 N 
ATOM     21  H7  UNL     1      34.555  -3.116  50.223  1.00  0.00     0.166 HD
ENDBRANCH   6  14
ENDBRANCH   3   4
ENDBRANCH   1   3
BRANCH   1  22
HETATM   22  C6  UNL     1      37.509  -8.252  53.177  1.00  0.00     0.029 A 
HETATM   23  C7  UNL     1      36.361  -7.696  53.680  1.00  0.00     0.029 A 
HETATM   24  C8  UNL     1      36.054  -7.798  55.032  1.00  0.00     0.003 A 
HETATM   25  C9  UNL     1      36.915  -8.465  55.867  1.00  0.00     0.017 A 
HETATM   26  C10 UNL     1      38.096  -9.049  55.411  1.00  0.00     0.034 A 
HETATM   27  C19 UNL     1      38.344  -8.915  54.070  1.00  0.00     0.046 A 
BRANCH  26  28
HETATM   28  C11 UNL     1      38.939  -9.736  56.352  1.00  0.00     0.252 C 
HETATM   29  O1  UNL     1      38.479 -10.635  57.077  1.00  0.00    -0.268 OA
HETATM   30  N3  UNL     1      40.313  -9.389  56.458  1.00  0.00    -0.352 N 
ATOM     31  H3  UNL     1      40.690  -8.647  55.868  1.00  0.00     0.163 HD
BRANCH  30  32
HETATM   32  C12 UNL     1      41.178 -10.064  57.381  1.00  0.00     0.167 C 
BRANCH  32  33
HETATM   33  C13 UNL     1      42.104 -11.004  56.739  1.00  0.00     0.037 A 
HETATM   34  C14 UNL     1      43.370 -10.556  56.341  1.00  0.00     0.127 A 
HETATM   35  F1  UNL     1      43.684  -9.263  56.633  1.00  0.00    -0.205 F 
HETATM   36  C15 UNL     1      44.278 -11.346  55.692  1.00  0.00     0.043 A 
HETATM   37  C16 UNL     1      43.953 -12.646  55.407  1.00  0.00     0.006 A 
HETATM   38  C17 UNL     1      42.708 -13.119  55.786  1.00  0.00     0.043 A 
HETATM   39  C18 UNL     1      41.785 -12.301  56.450  1.00  0.00     0.127 A 
HETATM   40  F2  UNL     1      40.588 -12.833  56.748  1.00  0.00    -0.205 F 
ENDBRANCH  32  33
ENDBRANCH  30  32
ENDBRANCH  26  28
ENDBRANCH   1  22
TORSDOF 9
ENDMDL
