MODEL 11
REMARK VINA RESULT: -8.928425382      3.101      5.017
REMARK  9 active torsions:
REMARK  status: ('A' for Active; 'I' for Inactive)
REMARK    1  A    between atoms: C2_2  and  C3_3 
REMARK    2  A    between atoms: C3_3  and  N1_4 
REMARK    3  A    between atoms: C4_5  and  C5_6 
REMARK    4  A    between atoms: C5_6  and  N2_7 
REMARK    5  A    between atoms: N2_7  and  C6_9 
REMARK    6  A    between atoms: C10_13  and  C11_14 
REMARK       I    between atoms: C11_14  and  N3_16 
REMARK    7  A    between atoms: N3_16  and  C12_18 
REMARK    8  A    between atoms: C12_18  and  C13_19 
REMARK    9  A    between atoms: C20_32  and  C21_33 
ROOT
HETATM    1  N2  UNL     1      37.741  -8.434  51.731  1.00  0.00    -0.383 N 
ATOM      2  H2  UNL     1      38.541  -8.998  51.440  1.00  0.00     0.160 HD
ENDROOT
BRANCH   1   3
HETATM    3  C5  UNL     1      37.049  -7.757  50.694  1.00  0.00     0.198 C 
BRANCH   3   4
HETATM    4  C4  UNL     1      36.220  -8.677  49.906  1.00  0.00     0.117 A 
HETATM    5  N1  UNL     1      35.892  -8.582  48.596  1.00  0.00    -0.317 N 
HETATM    6  C20 UNL     1      35.146  -9.655  48.309  1.00  0.00     0.151 A 
HETATM    7  N5  UNL     1      35.016 -10.404  49.443  1.00  0.00    -0.282 N 
HETATM    8  N4  UNL     1      35.660  -9.819  50.404  1.00  0.00    -0.286 N 
ATOM      9  H5  UNL     1      34.498 -11.279  49.521  1.00  0.00     0.188 HD
ATOM     10  H4  UNL     1      35.736 -10.154  51.364  1.00  0.00     0.188 HD
BRANCH   5  11
HETATM   11  C3  UNL     1      36.272  -7.554  47.682  1.00  0.00     0.132 C 
BRANCH  11  12
HETATM   12  C2  UNL     1      35.279  -6.470  47.442  1.00  0.00     0.016 C 
HETATM   13  C1  UNL     1      35.261  -5.342  48.405  1.00  0.00     0.006 C 
ENDBRANCH  11  12
ENDBRANCH   5  11
BRANCH   6  14
HETATM   14  C21 UNL     1      34.531 -10.089  47.052  1.00  0.00     0.080 A 
HETATM   15  C22 UNL     1      33.190  -9.905  46.786  1.00  0.00     0.050 A 
HETATM   16  C23 UNL     1      32.667 -10.331  45.584  1.00  0.00     0.091 A 
HETATM   17  N6  UNL     1      33.468 -10.921  44.680  1.00  0.00    -0.362 N 
HETATM   18  C24 UNL     1      34.784 -11.108  44.930  1.00  0.00     0.180 A 
ATOM     19  H6  UNL     1      33.076 -11.234  43.791  1.00  0.00     0.165 HD
HETATM   20  N7  UNL     1      35.257 -10.682  46.109  1.00  0.00    -0.349 N 
ATOM     21  H7  UNL     1      36.250 -10.822  46.297  1.00  0.00     0.166 HD
ENDBRANCH   6  14
ENDBRANCH   3   4
ENDBRANCH   1   3
BRANCH   1  22
HETATM   22  C6  UNL     1      37.461  -8.426  53.118  1.00  0.00     0.029 A 
HETATM   23  C7  UNL     1      36.365  -7.775  53.622  1.00  0.00     0.029 A 
HETATM   24  C8  UNL     1      36.111  -7.759  54.989  1.00  0.00     0.003 A 
HETATM   25  C9  UNL     1      36.973  -8.405  55.837  1.00  0.00     0.017 A 
HETATM   26  C10 UNL     1      38.104  -9.083  55.383  1.00  0.00     0.034 A 
HETATM   27  C19 UNL     1      38.300  -9.063  54.026  1.00  0.00     0.046 A 
BRANCH  26  28
HETATM   28  C11 UNL     1      38.953  -9.740  56.340  1.00  0.00     0.252 C 
HETATM   29  O1  UNL     1      38.499 -10.623  57.087  1.00  0.00    -0.268 OA
HETATM   30  N3  UNL     1      40.324  -9.381  56.436  1.00  0.00    -0.352 N 
ATOM     31  H3  UNL     1      40.696  -8.652  55.826  1.00  0.00     0.163 HD
BRANCH  30  32
HETATM   32  C12 UNL     1      41.195 -10.027  57.375  1.00  0.00     0.167 C 
BRANCH  32  33
HETATM   33  C13 UNL     1      42.129 -10.974  56.755  1.00  0.00     0.037 A 
HETATM   34  C14 UNL     1      43.402 -10.533  56.377  1.00  0.00     0.127 A 
HETATM   35  F1  UNL     1      43.716  -9.239  56.664  1.00  0.00    -0.205 F 
HETATM   36  C15 UNL     1      44.319 -11.330  55.749  1.00  0.00     0.043 A 
HETATM   37  C16 UNL     1      43.995 -12.632  55.468  1.00  0.00     0.006 A 
HETATM   38  C17 UNL     1      42.742 -13.098  55.828  1.00  0.00     0.043 A 
HETATM   39  C18 UNL     1      41.810 -12.273  56.470  1.00  0.00     0.127 A 
HETATM   40  F2  UNL     1      40.607 -12.799  56.751  1.00  0.00    -0.205 F 
ENDBRANCH  32  33
ENDBRANCH  30  32
ENDBRANCH  26  28
ENDBRANCH   1  22
TORSDOF 9
ENDMDL
