MODEL 1
REMARK VINA RESULT: -9.670273734      0.000      0.000
REMARK  2 active torsions:
REMARK  status: ('A' for Active; 'I' for Inactive)
REMARK    1  A    between atoms: C8_10  and  N1_11 
REMARK    2  A    between atoms: C9_14  and  O5_15 
ROOT
HETATM    1  C1  UNL     1      22.062  11.445  17.018  1.00  0.00     0.049 C 
HETATM    2  C2  UNL     1      22.767  10.146  17.003  1.00  0.00    -0.043 A 
HETATM    3  C3  UNL     1      23.354   9.652  15.845  1.00  0.00     0.090 A 
HETATM    4  C4  UNL     1      23.980   8.439  15.918  1.00  0.00     0.288 A 
HETATM    5  O1  UNL     1      24.519   7.978  14.872  1.00  0.00    -0.260 OA
HETATM    6  O2  UNL     1      24.031   7.755  17.051  1.00  0.00    -0.275 OA
HETATM    7  C5  UNL     1      23.487   8.201  18.144  1.00  0.00     0.091 A 
HETATM    8  C6  UNL     1      23.556   7.463  19.307  1.00  0.00     0.053 A 
HETATM    9  C7  UNL     1      22.976   7.943  20.465  1.00  0.00     0.013 A 
HETATM   10  C8  UNL     1      23.037   7.211  21.623  1.00  0.00     0.147 A 
HETATM   11  C9  UNL     1      22.468   7.647  22.799  1.00  0.00     0.099 A 
HETATM   12  C10 UNL     1      21.819   8.863  22.802  1.00  0.00     0.040 A 
HETATM   13  C11 UNL     1      21.742   9.625  21.647  1.00  0.00     0.015 A 
HETATM   14  C12 UNL     1      22.319   9.157  20.493  1.00  0.00    -0.022 A 
HETATM   15  C13 UNL     1      22.248   9.905  19.328  1.00  0.00     0.027 A 
HETATM   16  C14 UNL     1      22.828   9.420  18.177  1.00  0.00     0.005 A 
ENDROOT
BRANCH  10  17
HETATM   17  N1  UNL     1      23.696   5.973  21.627  1.00  0.00    -0.112 N 
HETATM   18  O3  UNL     1      24.849   5.907  22.075  1.00  0.00    -0.532 OA
HETATM   19  O4  UNL     1      23.078   4.848  21.142  1.00  0.00    -0.532 OA
ENDBRANCH  10  17
BRANCH  11  20
HETATM   20  O5  UNL     1      22.518   6.920  23.984  1.00  0.00    -0.358 OA
ATOM     21  H5  UNL     1      22.073   7.190  24.779  1.00  0.00     0.217 HD
ENDBRANCH  11  20
TORSDOF 2
ENDMDL
