MODEL 3
REMARK VINA RESULT: -9.279137372      1.251      1.481
REMARK  2 active torsions:
REMARK  status: ('A' for Active; 'I' for Inactive)
REMARK    1  A    between atoms: C8_10  and  N1_11 
REMARK    2  A    between atoms: C9_14  and  O5_15 
ROOT
HETATM    1  C1  UNL     1      22.621  10.836  16.974  1.00  0.00     0.049 C 
HETATM    2  C2  UNL     1      23.360   9.582  16.717  1.00  0.00    -0.043 A 
HETATM    3  C3  UNL     1      23.875   9.286  15.461  1.00  0.00     0.090 A 
HETATM    4  C4  UNL     1      24.539   8.102  15.309  1.00  0.00     0.288 A 
HETATM    5  O1  UNL     1      25.012   7.821  14.171  1.00  0.00    -0.260 OA
HETATM    6  O2  UNL     1      24.692   7.261  16.321  1.00  0.00    -0.275 OA
HETATM    7  C5  UNL     1      24.217   7.521  17.503  1.00  0.00     0.091 A 
HETATM    8  C6  UNL     1      24.392   6.623  18.535  1.00  0.00     0.053 A 
HETATM    9  C7  UNL     1      23.885   6.904  19.789  1.00  0.00     0.013 A 
HETATM   10  C8  UNL     1      24.052   6.014  20.818  1.00  0.00     0.147 A 
HETATM   11  C9  UNL     1      23.558   6.250  22.082  1.00  0.00     0.099 A 
HETATM   12  C10 UNL     1      22.877   7.425  22.310  1.00  0.00     0.040 A 
HETATM   13  C11 UNL     1      22.694   8.345  21.290  1.00  0.00     0.015 A 
HETATM   14  C12 UNL     1      23.198   8.075  20.043  1.00  0.00    -0.022 A 
HETATM   15  C13 UNL     1      23.019   8.982  19.010  1.00  0.00     0.027 A 
HETATM   16  C14 UNL     1      23.528   8.695  17.763  1.00  0.00     0.005 A 
ENDROOT
BRANCH  10  17
HETATM   17  N1  UNL     1      24.745   4.815  20.592  1.00  0.00    -0.112 N 
HETATM   18  O3  UNL     1      25.905   4.703  21.013  1.00  0.00    -0.532 OA
HETATM   19  O4  UNL     1      24.152   3.779  19.914  1.00  0.00    -0.532 OA
ENDBRANCH  10  17
BRANCH  11  20
HETATM   20  O5  UNL     1      23.716   5.359  23.139  1.00  0.00    -0.358 OA
ATOM     21  H5  UNL     1      23.139   4.619  23.286  1.00  0.00     0.217 HD
ENDBRANCH  11  20
TORSDOF 2
ENDMDL
