MODEL 14
REMARK VINA RESULT: -8.603926608      1.723      5.539
REMARK  2 active torsions:
REMARK  status: ('A' for Active; 'I' for Inactive)
REMARK    1  A    between atoms: C8_10  and  N1_11 
REMARK    2  A    between atoms: C9_14  and  O5_15 
ROOT
HETATM    1  C1  UNL     1      21.208  10.129  21.270  1.00  0.00     0.049 C 
HETATM    2  C2  UNL     1      22.027   8.898  21.305  1.00  0.00    -0.043 A 
HETATM    3  C3  UNL     1      22.161   8.148  22.467  1.00  0.00     0.090 A 
HETATM    4  C4  UNL     1      22.942   7.028  22.413  1.00  0.00     0.288 A 
HETATM    5  O1  UNL     1      23.072   6.336  23.463  1.00  0.00    -0.260 OA
HETATM    6  O2  UNL     1      23.553   6.665  21.295  1.00  0.00    -0.275 OA
HETATM    7  C5  UNL     1      23.440   7.354  20.199  1.00  0.00     0.091 A 
HETATM    8  C6  UNL     1      24.090   6.950  19.052  1.00  0.00     0.053 A 
HETATM    9  C7  UNL     1      23.966   7.687  17.891  1.00  0.00     0.013 A 
HETATM   10  C8  UNL     1      24.614   7.293  16.749  1.00  0.00     0.147 A 
HETATM   11  C9  UNL     1      24.524   8.000  15.571  1.00  0.00     0.099 A 
HETATM   12  C10 UNL     1      23.753   9.141  15.549  1.00  0.00     0.040 A 
HETATM   13  C11 UNL     1      23.085   9.564  16.687  1.00  0.00     0.015 A 
HETATM   14  C12 UNL     1      23.200   8.835  17.844  1.00  0.00    -0.022 A 
HETATM   15  C13 UNL     1      22.542   9.247  18.993  1.00  0.00     0.027 A 
HETATM   16  C14 UNL     1      22.670   8.506  20.147  1.00  0.00     0.005 A 
ENDROOT
BRANCH  10  17
HETATM   17  N1  UNL     1      25.402   6.132  16.764  1.00  0.00    -0.112 N 
HETATM   18  O3  UNL     1      24.852   5.030  16.620  1.00  0.00    -0.532 OA
HETATM   19  O4  UNL     1      26.761   6.208  16.938  1.00  0.00    -0.532 OA
ENDBRANCH  10  17
BRANCH  11  20
HETATM   20  O5  UNL     1      25.174   7.617  14.402  1.00  0.00    -0.358 OA
ATOM     21  H5  UNL     1      24.723   7.488  13.575  1.00  0.00     0.217 HD
ENDBRANCH  11  20
TORSDOF 2
ENDMDL
