MODEL 2
REMARK VINA RESULT: -9.529818137      2.787      3.747
REMARK  2 active torsions:
REMARK  status: ('A' for Active; 'I' for Inactive)
REMARK    1  A    between atoms: C8_10  and  N1_11 
REMARK    2  A    between atoms: C9_14  and  O5_15 
ROOT
HETATM    1  C1  UNL     1      22.785   9.994  17.157  1.00  0.00     0.049 C 
HETATM    2  C2  UNL     1      23.547   8.995  16.378  1.00  0.00    -0.043 A 
HETATM    3  C3  UNL     1      23.760   9.146  15.013  1.00  0.00     0.090 A 
HETATM    4  C4  UNL     1      24.469   8.171  14.369  1.00  0.00     0.288 A 
HETATM    5  O1  UNL     1      24.670   8.297  13.127  1.00  0.00    -0.260 OA
HETATM    6  O2  UNL     1      24.940   7.118  15.018  1.00  0.00    -0.275 OA
HETATM    7  C5  UNL     1      24.751   6.959  16.294  1.00  0.00     0.091 A 
HETATM    8  C6  UNL     1      25.254   5.849  16.939  1.00  0.00     0.053 A 
HETATM    9  C7  UNL     1      25.049   5.686  18.295  1.00  0.00     0.013 A 
HETATM   10  C8  UNL     1      25.542   4.582  18.941  1.00  0.00     0.147 A 
HETATM   11  C9  UNL     1      25.357   4.375  20.290  1.00  0.00     0.099 A 
HETATM   12  C10 UNL     1      24.651   5.317  21.006  1.00  0.00     0.040 A 
HETATM   13  C11 UNL     1      24.141   6.444  20.381  1.00  0.00     0.015 A 
HETATM   14  C12 UNL     1      24.344   6.615  19.034  1.00  0.00    -0.022 A 
HETATM   15  C13 UNL     1      23.837   7.734  18.393  1.00  0.00     0.027 A 
HETATM   16  C14 UNL     1      24.045   7.890  17.040  1.00  0.00     0.005 A 
ENDROOT
BRANCH  10  17
HETATM   17  N1  UNL     1      26.262   3.619  18.218  1.00  0.00    -0.112 N 
HETATM   18  O3  UNL     1      25.681   2.593  17.839  1.00  0.00    -0.532 OA
HETATM   19  O4  UNL     1      27.592   3.805  17.934  1.00  0.00    -0.532 OA
ENDBRANCH  10  17
BRANCH  11  20
HETATM   20  O5  UNL     1      25.850   3.263  20.964  1.00  0.00    -0.358 OA
ATOM     21  H5  UNL     1      26.458   3.323  21.692  1.00  0.00     0.217 HD
ENDBRANCH  11  20
TORSDOF 2
ENDMDL
