MODEL 15
REMARK VINA RESULT: -8.581975907      1.611      5.554
REMARK  2 active torsions:
REMARK  status: ('A' for Active; 'I' for Inactive)
REMARK    1  A    between atoms: C8_10  and  N1_11 
REMARK    2  A    between atoms: C9_14  and  O5_15 
ROOT
HETATM    1  C1  UNL     1      21.097   9.216  22.977  1.00  0.00     0.049 C 
HETATM    2  C2  UNL     1      21.986   8.174  22.420  1.00  0.00    -0.043 A 
HETATM    3  C3  UNL     1      22.423   7.103  23.190  1.00  0.00     0.090 A 
HETATM    4  C4  UNL     1      23.249   6.190  22.597  1.00  0.00     0.288 A 
HETATM    5  O1  UNL     1      23.653   5.210  23.287  1.00  0.00    -0.260 OA
HETATM    6  O2  UNL     1      23.622   6.314  21.333  1.00  0.00    -0.275 OA
HETATM    7  C5  UNL     1      23.224   7.309  20.598  1.00  0.00     0.091 A 
HETATM    8  C6  UNL     1      23.633   7.411  19.284  1.00  0.00     0.053 A 
HETATM    9  C7  UNL     1      23.207   8.471  18.508  1.00  0.00     0.013 A 
HETATM   10  C8  UNL     1      23.614   8.579  17.204  1.00  0.00     0.147 A 
HETATM   11  C9  UNL     1      23.219   9.622  16.394  1.00  0.00     0.099 A 
HETATM   12  C10 UNL     1      22.385  10.582  16.924  1.00  0.00     0.040 A 
HETATM   13  C11 UNL     1      21.957  10.498  18.239  1.00  0.00     0.015 A 
HETATM   14  C12 UNL     1      22.372   9.446  19.015  1.00  0.00    -0.022 A 
HETATM   15  C13 UNL     1      21.956   9.350  20.334  1.00  0.00     0.027 A 
HETATM   16  C14 UNL     1      22.385   8.290  21.102  1.00  0.00     0.005 A 
ENDROOT
BRANCH  10  17
HETATM   17  N1  UNL     1      24.464   7.605  16.658  1.00  0.00    -0.112 N 
HETATM   18  O3  UNL     1      24.059   6.917  15.710  1.00  0.00    -0.532 OA
HETATM   19  O4  UNL     1      25.724   7.411  17.165  1.00  0.00    -0.532 OA
ENDBRANCH  10  17
BRANCH  11  20
HETATM   20  O5  UNL     1      23.621   9.750  15.069  1.00  0.00    -0.358 OA
ATOM     21  H5  UNL     1      23.010   9.805  14.343  1.00  0.00     0.217 HD
ENDBRANCH  11  20
TORSDOF 2
ENDMDL
