MODEL 9
REMARK VINA RESULT: -5.279744259      4.616      5.584
REMARK  2 active torsions:
REMARK  status: ('A' for Active; 'I' for Inactive)
REMARK    1  A    between atoms: C1_2  and  C2_4 
REMARK    2  A    between atoms: C5_7  and  C6_8 
ROOT
HETATM    1  C2  UNL     1      -1.619  22.038  50.942  1.00  0.00     0.087 C 
HETATM    2  C3  UNL     1      -0.271  21.955  51.625  1.00  0.00     0.016 C 
HETATM    3  C4  UNL     1       0.229  23.365  51.877  1.00  0.00     0.016 C 
HETATM    4  C5  UNL     1       0.393  24.028  50.537  1.00  0.00     0.087 C 
HETATM    5  C7  UNL     1      -1.022  24.178  49.958  1.00  0.00     0.016 C 
HETATM    6  C8  UNL     1      -1.443  22.745  49.616  1.00  0.00     0.016 C 
ENDROOT
BRANCH   1   7
HETATM    7  C1  UNL     1      -2.231  20.733  50.721  1.00  0.00     0.177 C 
HETATM    8  O1  UNL     1      -2.907  20.519  49.686  1.00  0.00    -0.648 OA
HETATM    9  O2  UNL     1      -2.106  19.671  51.624  1.00  0.00    -0.648 OA
ENDBRANCH   1   7
BRANCH   4  10
HETATM   10  C6  UNL     1       0.977  25.359  50.594  1.00  0.00     0.177 C 
HETATM   11  O3  UNL     1       2.213  25.466  50.792  1.00  0.00    -0.648 OA
HETATM   12  O4  UNL     1       0.253  26.531  50.441  1.00  0.00    -0.648 OA
ENDBRANCH   4  10
TORSDOF 2
ENDMDL
