MODEL 3
REMARK VINA RESULT: -5.798221254      0.288      4.945
REMARK  2 active torsions:
REMARK  status: ('A' for Active; 'I' for Inactive)
REMARK    1  A    between atoms: C1_2  and  C2_4 
REMARK    2  A    between atoms: C5_7  and  C6_8 
ROOT
HETATM    1  C2  UNL     1       0.997  25.423  45.622  1.00  0.00     0.087 C 
HETATM    2  C3  UNL     1      -0.111  24.634  44.959  1.00  0.00     0.016 C 
HETATM    3  C4  UNL     1      -1.419  24.958  45.657  1.00  0.00     0.016 C 
HETATM    4  C5  UNL     1      -1.283  24.514  47.088  1.00  0.00     0.087 C 
HETATM    5  C7  UNL     1      -0.226  25.431  47.721  1.00  0.00     0.016 C 
HETATM    6  C8  UNL     1       1.090  24.995  47.070  1.00  0.00     0.016 C 
ENDROOT
BRANCH   1   7
HETATM    7  C1  UNL     1       2.292  25.245  44.976  1.00  0.00     0.177 C 
HETATM    8  O1  UNL     1       3.155  26.155  45.030  1.00  0.00    -0.648 OA
HETATM    9  O2  UNL     1       2.642  24.083  44.279  1.00  0.00    -0.648 OA
ENDBRANCH   1   7
BRANCH   4  10
HETATM   10  C6  UNL     1      -2.498  24.652  47.876  1.00  0.00     0.177 C 
HETATM   11  O3  UNL     1      -2.514  24.189  49.043  1.00  0.00    -0.648 OA
HETATM   12  O4  UNL     1      -3.653  25.268  47.420  1.00  0.00    -0.648 OA
ENDBRANCH   4  10
TORSDOF 2
ENDMDL
