MODEL 4
REMARK VINA RESULT: -5.535921957      1.084      1.245
REMARK  2 active torsions:
REMARK  status: ('A' for Active; 'I' for Inactive)
REMARK    1  A    between atoms: C1_2  and  C2_4 
REMARK    2  A    between atoms: C5_7  and  C6_8 
ROOT
HETATM    1  C2  UNL     1      -1.575  24.322  47.070  1.00  0.00     0.087 C 
HETATM    2  C3  UNL     1      -1.693  23.410  45.869  1.00  0.00     0.016 C 
HETATM    3  C4  UNL     1      -0.296  23.027  45.416  1.00  0.00     0.016 C 
HETATM    4  C5  UNL     1       0.405  24.294  45.009  1.00  0.00     0.087 C 
HETATM    5  C7  UNL     1       0.587  25.114  46.295  1.00  0.00     0.016 C 
HETATM    6  C8  UNL     1      -0.830  25.571  46.654  1.00  0.00     0.016 C 
ENDROOT
BRANCH   1   7
HETATM    7  C1  UNL     1      -2.867  24.692  47.638  1.00  0.00     0.177 C 
HETATM    8  O1  UNL     1      -3.496  25.679  47.185  1.00  0.00    -0.648 OA
HETATM    9  O2  UNL     1      -3.465  23.990  48.690  1.00  0.00    -0.648 OA
ENDBRANCH   1   7
BRANCH   4  10
HETATM   10  C6  UNL     1       1.728  24.090  44.439  1.00  0.00     0.177 C 
HETATM   11  O3  UNL     1       1.973  23.002  43.861  1.00  0.00    -0.648 OA
HETATM   12  O4  UNL     1       2.748  25.027  44.490  1.00  0.00    -0.648 OA
ENDBRANCH   4  10
TORSDOF 2
ENDMDL
