MODEL 8
REMARK VINA RESULT: -5.281062291      4.482      6.053
REMARK  2 active torsions:
REMARK  status: ('A' for Active; 'I' for Inactive)
REMARK    1  A    between atoms: C1_2  and  C2_4 
REMARK    2  A    between atoms: C5_7  and  C6_8 
ROOT
HETATM    1  C2  UNL     1      -3.362  22.893  48.586  1.00  0.00     0.087 C 
HETATM    2  C3  UNL     1      -3.469  21.438  48.184  1.00  0.00     0.016 C 
HETATM    3  C4  UNL     1      -3.157  20.579  49.396  1.00  0.00     0.016 C 
HETATM    4  C5  UNL     1      -1.740  20.878  49.803  1.00  0.00     0.087 C 
HETATM    5  C7  UNL     1      -1.736  22.331  50.301  1.00  0.00     0.016 C 
HETATM    6  C8  UNL     1      -1.943  23.165  49.033  1.00  0.00     0.016 C 
ENDROOT
BRANCH   1   7
HETATM    7  C1  UNL     1      -3.719  23.811  47.511  1.00  0.00     0.177 C 
HETATM    8  O1  UNL     1      -4.349  23.396  46.508  1.00  0.00    -0.648 OA
HETATM    9  O2  UNL     1      -3.390  25.171  47.531  1.00  0.00    -0.648 OA
ENDBRANCH   1   7
BRANCH   4  10
HETATM   10  C6  UNL     1      -1.242  20.050  50.891  1.00  0.00     0.177 C 
HETATM   11  O3  UNL     1      -2.072  19.476  51.638  1.00  0.00    -0.648 OA
HETATM   12  O4  UNL     1       0.103  19.849  51.159  1.00  0.00    -0.648 OA
ENDBRANCH   4  10
TORSDOF 2
ENDMDL
