MODEL 2
REMARK VINA RESULT: -6.003641181      0.136      4.971
REMARK  2 active torsions:
REMARK  status: ('A' for Active; 'I' for Inactive)
REMARK    1  A    between atoms: C1_2  and  C2_4 
REMARK    2  A    between atoms: C5_7  and  C6_8 
ROOT
HETATM    1  C2  UNL     1       1.139  25.479  45.671  1.00  0.00     0.087 C 
HETATM    2  C3  UNL     1       0.039  24.719  44.961  1.00  0.00     0.016 C 
HETATM    3  C4  UNL     1      -1.284  25.056  45.622  1.00  0.00     0.016 C 
HETATM    4  C5  UNL     1      -1.202  24.588  47.050  1.00  0.00     0.087 C 
HETATM    5  C7  UNL     1      -0.151  25.477  47.731  1.00  0.00     0.016 C 
HETATM    6  C8  UNL     1       1.178  25.028  47.115  1.00  0.00     0.016 C 
ENDROOT
BRANCH   1   7
HETATM    7  C1  UNL     1       2.451  25.289  45.065  1.00  0.00     0.177 C 
HETATM    8  O1  UNL     1       2.663  24.305  44.315  1.00  0.00    -0.648 OA
HETATM    9  O2  UNL     1       3.521  26.165  45.276  1.00  0.00    -0.648 OA
ENDBRANCH   1   7
BRANCH   4  10
HETATM   10  C6  UNL     1      -2.440  24.735  47.801  1.00  0.00     0.177 C 
HETATM   11  O3  UNL     1      -3.345  25.468  47.330  1.00  0.00    -0.648 OA
HETATM   12  O4  UNL     1      -2.690  24.113  49.013  1.00  0.00    -0.648 OA
ENDBRANCH   4  10
TORSDOF 2
ENDMDL
