MODEL 7
REMARK VINA RESULT: -5.309273892      4.586      6.599
REMARK  2 active torsions:
REMARK  status: ('A' for Active; 'I' for Inactive)
REMARK    1  A    between atoms: C1_2  and  C2_4 
REMARK    2  A    between atoms: C5_7  and  C6_8 
ROOT
HETATM    1  C2  UNL     1       0.342  24.069  50.372  1.00  0.00     0.087 C 
HETATM    2  C3  UNL     1       0.412  23.269  51.655  1.00  0.00     0.016 C 
HETATM    3  C4  UNL     1      -0.120  21.874  51.383  1.00  0.00     0.016 C 
HETATM    4  C5  UNL     1      -1.559  22.018  50.967  1.00  0.00     0.087 C 
HETATM    5  C7  UNL     1      -1.542  22.736  49.610  1.00  0.00     0.016 C 
HETATM    6  C8  UNL     1      -1.107  24.166  49.946  1.00  0.00     0.016 C 
ENDROOT
BRANCH   1   7
HETATM    7  C1  UNL     1       0.903  25.408  50.501  1.00  0.00     0.177 C 
HETATM    8  O1  UNL     1       0.183  26.417  50.300  1.00  0.00    -0.648 OA
HETATM    9  O2  UNL     1       2.238  25.644  50.847  1.00  0.00    -0.648 OA
ENDBRANCH   1   7
BRANCH   4  10
HETATM   10  C6  UNL     1      -2.256  20.755  50.776  1.00  0.00     0.177 C 
HETATM   11  O3  UNL     1      -2.996  20.623  49.770  1.00  0.00    -0.648 OA
HETATM   12  O4  UNL     1      -2.156  19.675  51.638  1.00  0.00    -0.648 OA
ENDBRANCH   4  10
TORSDOF 2
ENDMDL
