MODEL 1
REMARK VINA RESULT: -6.035410490      0.000      0.000
REMARK  2 active torsions:
REMARK  status: ('A' for Active; 'I' for Inactive)
REMARK    1  A    between atoms: C1_2  and  C2_4 
REMARK    2  A    between atoms: C5_7  and  C6_8 
ROOT
HETATM    1  C2  UNL     1      -1.221  24.623  47.016  1.00  0.00     0.087 C 
HETATM    2  C3  UNL     1      -1.264  24.950  45.538  1.00  0.00     0.016 C 
HETATM    3  C4  UNL     1       0.080  24.599  44.928  1.00  0.00     0.016 C 
HETATM    4  C5  UNL     1       1.114  25.465  45.596  1.00  0.00     0.087 C 
HETATM    5  C7  UNL     1       1.179  25.000  47.059  1.00  0.00     0.016 C 
HETATM    6  C8  UNL     1      -0.148  25.471  47.663  1.00  0.00     0.016 C 
ENDROOT
BRANCH   1   7
HETATM    7  C1  UNL     1      -2.494  24.850  47.690  1.00  0.00     0.177 C 
HETATM    8  O1  UNL     1      -3.305  25.695  47.240  1.00  0.00    -0.648 OA
HETATM    9  O2  UNL     1      -2.877  24.160  48.845  1.00  0.00    -0.648 OA
ENDBRANCH   1   7
BRANCH   4  10
HETATM   10  C6  UNL     1       2.453  25.333  45.044  1.00  0.00     0.177 C 
HETATM   11  O3  UNL     1       2.708  24.344  44.313  1.00  0.00    -0.648 OA
HETATM   12  O4  UNL     1       3.479  26.237  45.272  1.00  0.00    -0.648 OA
ENDBRANCH   4  10
TORSDOF 2
ENDMDL
