MODEL 5
REMARK VINA RESULT: -5.473985728      0.759      5.104
REMARK  2 active torsions:
REMARK  status: ('A' for Active; 'I' for Inactive)
REMARK    1  A    between atoms: C1_2  and  C2_4 
REMARK    2  A    between atoms: C5_7  and  C6_8 
ROOT
HETATM    1  C2  UNL     1       1.219  24.840  46.003  1.00  0.00     0.087 C 
HETATM    2  C3  UNL     1       0.513  26.148  46.282  1.00  0.00     0.016 C 
HETATM    3  C4  UNL     1      -0.487  25.927  47.402  1.00  0.00     0.016 C 
HETATM    4  C5  UNL     1      -1.490  24.918  46.912  1.00  0.00     0.087 C 
HETATM    5  C7  UNL     1      -0.726  23.595  46.760  1.00  0.00     0.016 C 
HETATM    6  C8  UNL     1       0.191  23.825  45.554  1.00  0.00     0.016 C 
ENDROOT
BRANCH   1   7
HETATM    7  C1  UNL     1       2.263  24.956  44.991  1.00  0.00     0.177 C 
HETATM    8  O1  UNL     1       2.446  24.031  44.164  1.00  0.00    -0.648 OA
HETATM    9  O2  UNL     1       3.098  26.074  44.885  1.00  0.00    -0.648 OA
ENDBRANCH   1   7
BRANCH   4  10
HETATM   10  C6  UNL     1      -2.592  24.674  47.831  1.00  0.00     0.177 C 
HETATM   11  O3  UNL     1      -3.748  25.028  47.490  1.00  0.00    -0.648 OA
HETATM   12  O4  UNL     1      -2.450  24.070  49.070  1.00  0.00    -0.648 OA
ENDBRANCH   4  10
TORSDOF 2
ENDMDL
