MODEL 5
REMARK VINA RESULT: -9.442888055      2.475      8.826
REMARK  13 active torsions:
REMARK  status: ('A' for Active; 'I' for Inactive)
REMARK    1  A    between atoms: C2_2  and  C4_4 
REMARK    2  A    between atoms: C4_4  and  N1_5 
REMARK    3  A    between atoms: N1_5  and  C5_6 
REMARK    4  A    between atoms: N1_5  and  S1_31 
REMARK    5  A    between atoms: C5_6  and  C6_7 
REMARK    6  A    between atoms: C6_7  and  O1_8 
REMARK    7  A    between atoms: C6_7  and  C7_10 
REMARK    8  A    between atoms: C7_10  and  C8_11 
REMARK    9  A    between atoms: C7_10  and  N2_18 
REMARK   10  A    between atoms: C8_11  and  C9_12 
REMARK       I    between atoms: N2_18  and  C15_20 
REMARK   11  A    between atoms: C15_20  and  O3_22 
REMARK   12  A    between atoms: O3_22  and  C16_23 
REMARK   13  A    between atoms: S1_31  and  C22_34 
ROOT
HETATM    1  C7  UNL     1      11.285  17.632  16.845  1.00  0.00     0.029 C 
ENDROOT
BRANCH   1   2
HETATM    2  C6  UNL     1      12.470  18.516  17.141  1.00  0.00     0.203 C 
BRANCH   2   3
HETATM    3  C5  UNL     1      12.414  19.867  16.554  1.00  0.00     0.119 C 
BRANCH   3   4
HETATM    4  N1  UNL     1      13.318  20.825  17.032  1.00  0.00    -0.262 N 
BRANCH   4   5
HETATM    5  C4  UNL     1      14.535  21.077  16.397  1.00  0.00     0.085 C 
BRANCH   5   6
HETATM    6  C2  UNL     1      14.595  20.711  14.919  1.00  0.00     0.017 C 
HETATM    7  C1  UNL     1      14.298  21.866  14.005  1.00  0.00     0.015 C 
HETATM    8  C3  UNL     1      15.922  20.089  14.551  1.00  0.00     0.015 C 
ENDBRANCH   5   6
ENDBRANCH   4   5
BRANCH   4   9
HETATM    9  S1  UNL     1      12.638  22.035  17.996  1.00  0.00     0.267 S 
HETATM   10  O6  UNL     1      11.686  22.845  17.128  1.00  0.00    -0.200 OA
HETATM   11  O7  UNL     1      11.852  21.465  19.170  1.00  0.00    -0.200 OA
BRANCH   9  12
HETATM   12  C22 UNL     1      13.818  23.159  18.660  1.00  0.00     0.080 A 
HETATM   13  C23 UNL     1      14.791  22.786  19.562  1.00  0.00     0.027 A 
HETATM   14  C24 UNL     1      15.705  23.688  20.074  1.00  0.00     0.028 A 
HETATM   15  C25 UNL     1      15.677  25.013  19.694  1.00  0.00     0.046 A 
HETATM   16  N3  UNL     1      16.626  25.955  20.225  1.00  0.00    -0.102 NA
HETATM   17  C26 UNL     1      14.711  25.402  18.794  1.00  0.00     0.028 A 
HETATM   18  C27 UNL     1      13.804  24.499  18.287  1.00  0.00     0.027 A 
ENDBRANCH   9  12
ENDBRANCH   4   9
ENDBRANCH   3   4
ENDBRANCH   2   3
BRANCH   2  19
HETATM   19  O1  UNL     1      12.498  18.653  18.551  1.00  0.00    -0.385 OA
ATOM     20  H1  UNL     1      12.030  17.917  18.926  1.00  0.00     0.211 HD
ENDBRANCH   2  19
ENDBRANCH   1   2
BRANCH   1  21
HETATM   21  C8  UNL     1      10.648  17.927  15.516  1.00  0.00     0.094 C 
BRANCH  21  22
HETATM   22  C9  UNL     1       9.466  17.129  15.190  1.00  0.00    -0.053 A 
HETATM   23  C10 UNL     1       9.643  15.800  14.804  1.00  0.00     0.007 A 
HETATM   24  C11 UNL     1       8.618  14.966  14.446  1.00  0.00     0.001 A 
HETATM   25  C12 UNL     1       7.326  15.461  14.466  1.00  0.00     0.000 A 
HETATM   26  C13 UNL     1       7.103  16.763  14.839  1.00  0.00     0.001 A 
HETATM   27  C14 UNL     1       8.184  17.583  15.198  1.00  0.00     0.007 A 
ENDBRANCH  21  22
ENDBRANCH   1  21
BRANCH   1  28
HETATM   28  N2  UNL     1      10.448  17.348  17.943  1.00  0.00    -0.307 N 
HETATM   29  C15 UNL     1       9.556  18.268  18.546  1.00  0.00     0.365 C 
HETATM   30  O2  UNL     1       9.475  19.423  18.115  1.00  0.00    -0.238 OA
ATOM     31  H2  UNL     1      10.488  16.406  18.333  1.00  0.00     0.170 HD
BRANCH  29  32
HETATM   32  O3  UNL     1       8.757  17.890  19.630  1.00  0.00    -0.296 OA
BRANCH  32  33
HETATM   33  C16 UNL     1       7.621  17.059  19.455  1.00  0.00     0.166 C 
HETATM   34  C17 UNL     1       7.764  15.752  20.163  1.00  0.00     0.204 C 
HETATM   35  O4  UNL     1       6.591  15.455  20.804  1.00  0.00    -0.358 OA
HETATM   36  C18 UNL     1       5.672  16.467  20.575  1.00  0.00     0.266 C 
HETATM   37  O5  UNL     1       4.986  16.846  21.722  1.00  0.00    -0.361 OA
HETATM   38  C21 UNL     1       6.477  17.699  20.215  1.00  0.00     0.075 C 
HETATM   39  C19 UNL     1       5.813  17.626  22.494  1.00  0.00     0.171 C 
HETATM   40  C20 UNL     1       6.867  18.224  21.557  1.00  0.00     0.038 C 
ENDBRANCH  32  33
ENDBRANCH  29  32
ENDBRANCH   1  28
TORSDOF 13
ENDMDL
