MODEL 3
REMARK VINA RESULT: -9.505278257      2.482      8.781
REMARK  13 active torsions:
REMARK  status: ('A' for Active; 'I' for Inactive)
REMARK    1  A    between atoms: C2_2  and  C4_4 
REMARK    2  A    between atoms: C4_4  and  N1_5 
REMARK    3  A    between atoms: N1_5  and  C5_6 
REMARK    4  A    between atoms: N1_5  and  S1_31 
REMARK    5  A    between atoms: C5_6  and  C6_7 
REMARK    6  A    between atoms: C6_7  and  O1_8 
REMARK    7  A    between atoms: C6_7  and  C7_10 
REMARK    8  A    between atoms: C7_10  and  C8_11 
REMARK    9  A    between atoms: C7_10  and  N2_18 
REMARK   10  A    between atoms: C8_11  and  C9_12 
REMARK       I    between atoms: N2_18  and  C15_20 
REMARK   11  A    between atoms: C15_20  and  O3_22 
REMARK   12  A    between atoms: O3_22  and  C16_23 
REMARK   13  A    between atoms: S1_31  and  C22_34 
ROOT
HETATM    1  C7  UNL     1      11.297  17.587  16.863  1.00  0.00     0.029 C 
ENDROOT
BRANCH   1   2
HETATM    2  C6  UNL     1      12.486  18.459  17.174  1.00  0.00     0.203 C 
BRANCH   2   3
HETATM    3  C5  UNL     1      12.442  19.817  16.601  1.00  0.00     0.119 C 
BRANCH   3   4
HETATM    4  N1  UNL     1      13.336  20.769  17.107  1.00  0.00    -0.262 N 
BRANCH   4   5
HETATM    5  C4  UNL     1      14.577  21.008  16.514  1.00  0.00     0.085 C 
BRANCH   5   6
HETATM    6  C2  UNL     1      14.635  20.813  15.005  1.00  0.00     0.017 C 
HETATM    7  C1  UNL     1      14.551  22.098  14.232  1.00  0.00     0.015 C 
HETATM    8  C3  UNL     1      15.864  20.039  14.588  1.00  0.00     0.015 C 
ENDBRANCH   5   6
ENDBRANCH   4   5
BRANCH   4   9
HETATM    9  S1  UNL     1      12.632  21.988  18.042  1.00  0.00     0.267 S 
HETATM   10  O6  UNL     1      11.644  22.740  17.164  1.00  0.00    -0.200 OA
HETATM   11  O7  UNL     1      11.881  21.432  19.245  1.00  0.00    -0.200 OA
BRANCH   9  12
HETATM   12  C22 UNL     1      13.786  23.167  18.653  1.00  0.00     0.080 A 
HETATM   13  C23 UNL     1      13.795  24.489  18.261  1.00  0.00     0.027 A 
HETATM   14  C24 UNL     1      14.715  25.396  18.751  1.00  0.00     0.028 A 
HETATM   15  C25 UNL     1      15.672  25.007  19.664  1.00  0.00     0.046 A 
HETATM   16  N3  UNL     1      16.633  25.949  20.176  1.00  0.00    -0.102 NA
HETATM   17  C26 UNL     1      15.679  23.690  20.065  1.00  0.00     0.028 A 
HETATM   18  C27 UNL     1      14.759  22.791  19.574  1.00  0.00     0.027 A 
ENDBRANCH   9  12
ENDBRANCH   4   9
ENDBRANCH   3   4
ENDBRANCH   2   3
BRANCH   2  19
HETATM   19  O1  UNL     1      12.509  18.581  18.584  1.00  0.00    -0.385 OA
ATOM     20  H1  UNL     1      13.092  17.914  18.926  1.00  0.00     0.211 HD
ENDBRANCH   2  19
ENDBRANCH   1   2
BRANCH   1  21
HETATM   21  C8  UNL     1      10.673  17.893  15.530  1.00  0.00     0.094 C 
BRANCH  21  22
HETATM   22  C9  UNL     1       9.558  17.031  15.140  1.00  0.00    -0.053 A 
HETATM   23  C10 UNL     1       8.263  17.548  15.193  1.00  0.00     0.007 A 
HETATM   24  C11 UNL     1       7.140  16.828  14.883  1.00  0.00     0.001 A 
HETATM   25  C12 UNL     1       7.288  15.510  14.492  1.00  0.00     0.000 A 
HETATM   26  C13 UNL     1       8.543  14.957  14.425  1.00  0.00     0.001 A 
HETATM   27  C14 UNL     1       9.667  15.732  14.753  1.00  0.00     0.007 A 
ENDBRANCH  21  22
ENDBRANCH   1  21
BRANCH   1  28
HETATM   28  N2  UNL     1      10.448  17.304  17.952  1.00  0.00    -0.307 N 
HETATM   29  C15 UNL     1       9.555  18.227  18.550  1.00  0.00     0.365 C 
HETATM   30  O2  UNL     1       9.485  19.384  18.121  1.00  0.00    -0.238 OA
ATOM     31  H2  UNL     1      10.479  16.361  18.340  1.00  0.00     0.170 HD
BRANCH  29  32
HETATM   32  O3  UNL     1       8.744  17.850  19.625  1.00  0.00    -0.296 OA
BRANCH  32  33
HETATM   33  C16 UNL     1       7.592  17.046  19.434  1.00  0.00     0.166 C 
HETATM   34  C17 UNL     1       7.706  15.726  20.122  1.00  0.00     0.204 C 
HETATM   35  O4  UNL     1       6.525  15.443  20.755  1.00  0.00    -0.358 OA
HETATM   36  C18 UNL     1       5.628  16.477  20.538  1.00  0.00     0.266 C 
HETATM   37  O5  UNL     1       4.945  16.852  21.689  1.00  0.00    -0.361 OA
HETATM   38  C21 UNL     1       6.459  17.698  20.199  1.00  0.00     0.075 C 
HETATM   39  C19 UNL     1       5.785  17.603  22.475  1.00  0.00     0.171 C 
HETATM   40  C20 UNL     1       6.855  18.194  21.551  1.00  0.00     0.038 C 
ENDBRANCH  32  33
ENDBRANCH  29  32
ENDBRANCH   1  28
TORSDOF 13
ENDMDL
