MODEL 6
REMARK VINA RESULT: -9.421199431      2.423      4.623
REMARK  13 active torsions:
REMARK  status: ('A' for Active; 'I' for Inactive)
REMARK    1  A    between atoms: C2_2  and  C4_4 
REMARK    2  A    between atoms: C4_4  and  N1_5 
REMARK    3  A    between atoms: N1_5  and  C5_6 
REMARK    4  A    between atoms: N1_5  and  S1_31 
REMARK    5  A    between atoms: C5_6  and  C6_7 
REMARK    6  A    between atoms: C6_7  and  O1_8 
REMARK    7  A    between atoms: C6_7  and  C7_10 
REMARK    8  A    between atoms: C7_10  and  C8_11 
REMARK    9  A    between atoms: C7_10  and  N2_18 
REMARK   10  A    between atoms: C8_11  and  C9_12 
REMARK       I    between atoms: N2_18  and  C15_20 
REMARK   11  A    between atoms: C15_20  and  O3_22 
REMARK   12  A    between atoms: O3_22  and  C16_23 
REMARK   13  A    between atoms: S1_31  and  C22_34 
ROOT
HETATM    1  C7  UNL     1      12.575  18.583  16.586  1.00  0.00     0.029 C 
ENDROOT
BRANCH   1   2
HETATM    2  C6  UNL     1      12.820  18.474  18.070  1.00  0.00     0.203 C 
BRANCH   2   3
HETATM    3  C5  UNL     1      11.666  18.805  18.927  1.00  0.00     0.119 C 
BRANCH   3   4
HETATM    4  N1  UNL     1      11.438  20.156  19.222  1.00  0.00    -0.262 N 
BRANCH   4   5
HETATM    5  C4  UNL     1      11.936  21.184  18.419  1.00  0.00     0.085 C 
BRANCH   5   6
HETATM    6  C2  UNL     1      13.030  22.039  19.046  1.00  0.00     0.017 C 
HETATM    7  C1  UNL     1      14.317  21.296  19.267  1.00  0.00     0.015 C 
HETATM    8  C3  UNL     1      13.289  23.292  18.243  1.00  0.00     0.015 C 
ENDBRANCH   5   6
ENDBRANCH   4   5
BRANCH   4   9
HETATM    9  S1  UNL     1      10.086  20.461  20.188  1.00  0.00     0.267 S 
HETATM   10  O6  UNL     1      10.572  20.700  21.610  1.00  0.00    -0.200 OA
HETATM   11  O7  UNL     1       9.313  21.690  19.730  1.00  0.00    -0.200 OA
BRANCH   9  12
HETATM   12  C22 UNL     1       8.943  19.124  20.248  1.00  0.00     0.080 A 
HETATM   13  C23 UNL     1       7.960  18.927  19.302  1.00  0.00     0.027 A 
HETATM   14  C24 UNL     1       7.071  17.871  19.372  1.00  0.00     0.028 A 
HETATM   15  C25 UNL     1       7.135  16.963  20.408  1.00  0.00     0.046 A 
HETATM   16  N3  UNL     1       6.209  15.864  20.485  1.00  0.00    -0.102 NA
HETATM   17  C26 UNL     1       8.110  17.146  21.362  1.00  0.00     0.028 A 
HETATM   18  C27 UNL     1       8.993  18.198  21.286  1.00  0.00     0.027 A 
ENDBRANCH   9  12
ENDBRANCH   4   9
ENDBRANCH   3   4
ENDBRANCH   2   3
BRANCH   2  19
HETATM   19  O1  UNL     1      13.159  17.119  18.300  1.00  0.00    -0.385 OA
ATOM     20  H1  UNL     1      13.445  16.745  17.475  1.00  0.00     0.211 HD
ENDBRANCH   2  19
ENDBRANCH   1   2
BRANCH   1  21
HETATM   21  C8  UNL     1      11.946  17.349  16.001  1.00  0.00     0.094 C 
BRANCH  21  22
HETATM   22  C9  UNL     1      10.543  17.480  15.609  1.00  0.00    -0.053 A 
HETATM   23  C10 UNL     1       9.959  16.458  14.860  1.00  0.00     0.007 A 
HETATM   24  C11 UNL     1       8.666  16.483  14.411  1.00  0.00     0.001 A 
HETATM   25  C12 UNL     1       7.884  17.584  14.711  1.00  0.00     0.000 A 
HETATM   26  C13 UNL     1       8.415  18.616  15.445  1.00  0.00     0.001 A 
HETATM   27  C14 UNL     1       9.747  18.548  15.886  1.00  0.00     0.007 A 
ENDBRANCH  21  22
ENDBRANCH   1  21
BRANCH   1  28
HETATM   28  N2  UNL     1      13.583  19.237  15.850  1.00  0.00    -0.307 N 
HETATM   29  C15 UNL     1      13.406  20.435  15.113  1.00  0.00     0.365 C 
HETATM   30  O2  UNL     1      12.297  20.980  15.080  1.00  0.00    -0.238 OA
ATOM     31  H2  UNL     1      14.512  18.817  15.847  1.00  0.00     0.170 HD
BRANCH  29  32
HETATM   32  O3  UNL     1      14.470  21.016  14.417  1.00  0.00    -0.296 OA
BRANCH  32  33
HETATM   33  C16 UNL     1      15.728  21.229  15.037  1.00  0.00     0.166 C 
HETATM   34  C17 UNL     1      16.843  20.576  14.289  1.00  0.00     0.204 C 
HETATM   35  O4  UNL     1      17.902  21.442  14.211  1.00  0.00    -0.358 OA
HETATM   36  C18 UNL     1      17.577  22.625  14.856  1.00  0.00     0.266 C 
HETATM   37  O5  UNL     1      17.951  23.753  14.137  1.00  0.00    -0.361 OA
HETATM   38  C21 UNL     1      16.064  22.697  14.877  1.00  0.00     0.075 C 
HETATM   39  C19 UNL     1      17.055  23.941  13.112  1.00  0.00     0.171 C 
HETATM   40  C20 UNL     1      15.756  23.238  13.519  1.00  0.00     0.038 C 
ENDBRANCH  32  33
ENDBRANCH  29  32
ENDBRANCH   1  28
TORSDOF 13
ENDMDL
