MODEL 2
REMARK VINA RESULT: -10.986822208      5.639     10.522
REMARK  14 active torsions:
REMARK  status: ('A' for Active; 'I' for Inactive)
REMARK    1  A    between atoms: C2_2  and  N1_5 
REMARK       I    between atoms: N1_5  and  C5_7 
REMARK    2  A    between atoms: C5_7  and  C6_9 
REMARK    3  A    between atoms: N2_18  and  C15_19 
REMARK    4  A    between atoms: C15_19  and  C16_20 
REMARK    5  A    between atoms: C16_20  and  O2_21 
REMARK    6  A    between atoms: C16_20  and  C17_23 
REMARK    7  A    between atoms: C17_23  and  C18_24 
REMARK    8  A    between atoms: C17_23  and  N3_31 
REMARK    9  A    between atoms: C18_24  and  C19_25 
REMARK       I    between atoms: N3_31  and  C25_33 
REMARK   10  A    between atoms: C25_33  and  C26_35 
REMARK   11  A    between atoms: C26_35  and  C27_36 
REMARK   12  A    between atoms: C26_35  and  N5_40 
REMARK   13  A    between atoms: C27_36  and  C28_37 
REMARK       I    between atoms: N5_40  and  C29_42 
REMARK   14  A    between atoms: C29_42  and  C30_44 
ROOT
HETATM    1  C17 UNL     1      -3.986   1.819   7.536  1.00  0.00     0.118 C 
ENDROOT
BRANCH   1   2
HETATM    2  C16 UNL     1      -4.541   0.490   7.051  1.00  0.00     0.154 C 
BRANCH   2   3
HETATM    3  C15 UNL     1      -5.995   0.558   6.815  1.00  0.00     0.129 C 
BRANCH   3   4
HETATM    4  N2  UNL     1      -6.755  -0.639   6.780  1.00  0.00    -0.279 NA
HETATM    5  C6  UNL     1      -8.141  -0.580   7.086  1.00  0.00     0.056 C 
HETATM    6  C7  UNL     1      -8.451   0.267   8.284  1.00  0.00     0.062 C 
HETATM    7  C8  UNL     1      -7.755  -0.393   9.459  1.00  0.00    -0.004 C 
HETATM    8  C9  UNL     1      -7.295   0.655  10.471  1.00  0.00     0.005 C 
HETATM    9  C13 UNL     1      -6.744  -1.411   9.145  1.00  0.00     0.003 C 
HETATM   10  C10 UNL     1      -6.954  -0.022  11.787  1.00  0.00     0.000 C 
HETATM   11  C11 UNL     1      -5.978  -1.121  11.524  1.00  0.00     0.000 C 
HETATM   12  C12 UNL     1      -5.547  -1.152  10.086  1.00  0.00     0.006 C 
HETATM   13  C14 UNL     1      -6.181  -1.534   7.796  1.00  0.00     0.100 C 
BRANCH   5  14
HETATM   14  C5  UNL     1      -9.066  -0.480   5.956  1.00  0.00     0.259 C 
HETATM   15  N1  UNL     1      -9.848   0.663   5.647  1.00  0.00    -0.348 N 
ATOM     16  H1  UNL     1      -9.782   1.490   6.240  1.00  0.00     0.163 HD
HETATM   17  O1  UNL     1      -9.204  -1.459   5.179  1.00  0.00    -0.267 OA
BRANCH  15  18
HETATM   18  C2  UNL     1     -10.753   0.675   4.486  1.00  0.00     0.022 C 
HETATM   19  C1  UNL     1     -11.333   2.067   4.351  1.00  0.00     0.037 C 
HETATM   20  C3  UNL     1     -11.847  -0.337   4.619  1.00  0.00     0.037 C 
HETATM   21  C4  UNL     1      -9.922   0.446   3.216  1.00  0.00     0.037 C 
ENDBRANCH  15  18
ENDBRANCH   5  14
ENDBRANCH   3   4
ENDBRANCH   2   3
BRANCH   2  22
HETATM   22  O2  UNL     1      -3.837   0.168   5.902  1.00  0.00    -0.392 OA
ATOM     23  H2  UNL     1      -3.102   0.752   5.754  1.00  0.00     0.210 HD
ENDBRANCH   2  22
ENDBRANCH   1   2
BRANCH   1  24
HETATM   24  C18 UNL     1      -4.633   2.267   8.817  1.00  0.00     0.066 C 
BRANCH  24  25
HETATM   25  C19 UNL     1      -3.781   1.991  10.000  1.00  0.00    -0.056 A 
HETATM   26  C20 UNL     1      -2.648   1.228   9.811  1.00  0.00     0.007 A 
HETATM   27  C21 UNL     1      -1.795   0.926  10.877  1.00  0.00     0.001 A 
HETATM   28  C22 UNL     1      -2.062   1.382  12.144  1.00  0.00     0.000 A 
HETATM   29  C23 UNL     1      -3.211   2.150  12.311  1.00  0.00     0.001 A 
HETATM   30  C24 UNL     1      -4.044   2.442  11.254  1.00  0.00     0.007 A 
ENDBRANCH  24  25
ENDBRANCH   1  24
BRANCH   1  31
HETATM   31  N3  UNL     1      -4.271   2.861   6.545  1.00  0.00    -0.352 N 
HETATM   32  C25 UNL     1      -3.599   4.109   6.514  1.00  0.00     0.241 C 
HETATM   33  O3  UNL     1      -2.723   4.290   7.395  1.00  0.00    -0.271 OA
ATOM     34  H3  UNL     1      -4.989   2.679   5.843  1.00  0.00     0.163 HD
BRANCH  32  35
HETATM   35  C26 UNL     1      -3.861   5.175   5.537  1.00  0.00     0.185 C 
BRANCH  35  36
HETATM   36  C27 UNL     1      -3.798   6.564   6.064  1.00  0.00     0.134 C 
BRANCH  36  37
HETATM   37  C28 UNL     1      -5.088   7.257   6.141  1.00  0.00     0.233 C 
HETATM   38  N4  UNL     1      -5.466   8.256   5.211  1.00  0.00    -0.062 NA
HETATM   39  O4  UNL     1      -5.903   6.949   7.086  1.00  0.00    -0.277 OA
ENDBRANCH  36  37
ENDBRANCH  35  36
BRANCH  35  40
HETATM   40  N5  UNL     1      -5.123   4.923   4.873  1.00  0.00    -0.342 N 
HETATM   41  C29 UNL     1      -5.234   4.726   3.456  1.00  0.00     0.268 C 
HETATM   42  O5  UNL     1      -4.213   4.772   2.749  1.00  0.00    -0.266 OA
ATOM     43  H5  UNL     1      -5.972   4.884   5.439  1.00  0.00     0.163 HD
BRANCH  41  44
HETATM   44  C30 UNL     1      -6.533   4.474   2.842  1.00  0.00     0.101 A 
HETATM   45  C31 UNL     1      -7.616   5.270   3.142  1.00  0.00     0.036 A 
HETATM   46  C32 UNL     1      -8.861   5.062   2.578  1.00  0.00     0.016 A 
HETATM   47  C33 UNL     1      -9.019   4.026   1.691  1.00  0.00    -0.009 A 
HETATM   48  C34 UNL     1     -10.247   3.768   1.092  1.00  0.00     0.013 A 
HETATM   49  C38 UNL     1      -7.915   3.240   1.405  1.00  0.00     0.043 A 
HETATM   50  C35 UNL     1     -10.399   2.729   0.203  1.00  0.00     0.001 A 
HETATM   51  C36 UNL     1      -9.296   1.947  -0.079  1.00  0.00     0.002 A 
HETATM   52  C37 UNL     1      -8.063   2.193   0.511  1.00  0.00     0.030 A 
HETATM   53  N6  UNL     1      -6.712   3.460   1.966  1.00  0.00    -0.351 N 
ATOM     54  H6  UNL     1      -5.926   2.856   1.728  1.00  0.00     0.166 HD
ENDBRANCH  41  44
ENDBRANCH  35  40
ENDBRANCH  32  35
ENDBRANCH   1  31
TORSDOF 14
ENDMDL
