MODEL 3
REMARK VINA RESULT: -10.883388522      0.582      1.096
REMARK  14 active torsions:
REMARK  status: ('A' for Active; 'I' for Inactive)
REMARK    1  A    between atoms: C2_2  and  N1_5 
REMARK       I    between atoms: N1_5  and  C5_7 
REMARK    2  A    between atoms: C5_7  and  C6_9 
REMARK    3  A    between atoms: N2_18  and  C15_19 
REMARK    4  A    between atoms: C15_19  and  C16_20 
REMARK    5  A    between atoms: C16_20  and  O2_21 
REMARK    6  A    between atoms: C16_20  and  C17_23 
REMARK    7  A    between atoms: C17_23  and  C18_24 
REMARK    8  A    between atoms: C17_23  and  N3_31 
REMARK    9  A    between atoms: C18_24  and  C19_25 
REMARK       I    between atoms: N3_31  and  C25_33 
REMARK   10  A    between atoms: C25_33  and  C26_35 
REMARK   11  A    between atoms: C26_35  and  C27_36 
REMARK   12  A    between atoms: C26_35  and  N5_40 
REMARK   13  A    between atoms: C27_36  and  C28_37 
REMARK       I    between atoms: N5_40  and  C29_42 
REMARK   14  A    between atoms: C29_42  and  C30_44 
ROOT
HETATM    1  C17 UNL     1      -0.040   4.831   9.990  1.00  0.00     0.118 C 
ENDROOT
BRANCH   1   2
HETATM    2  C16 UNL     1       1.164   5.743   9.820  1.00  0.00     0.154 C 
BRANCH   2   3
HETATM    3  C15 UNL     1       1.246   6.747  10.896  1.00  0.00     0.129 C 
BRANCH   3   4
HETATM    4  N2  UNL     1       2.494   7.348  11.199  1.00  0.00    -0.279 NA
HETATM    5  C6  UNL     1       2.533   8.410  12.143  1.00  0.00     0.056 C 
HETATM    6  C7  UNL     1       1.438   9.416  11.952  1.00  0.00     0.062 C 
HETATM    7  C8  UNL     1       1.654  10.021  10.579  1.00  0.00    -0.004 C 
HETATM    8  C9  UNL     1       0.319  10.391   9.936  1.00  0.00     0.005 C 
HETATM    9  C13 UNL     1       2.580   9.318   9.682  1.00  0.00     0.003 C 
HETATM   10  C10 UNL     1       0.560  11.322   8.760  1.00  0.00     0.000 C 
HETATM   11  C11 UNL     1       1.553  10.691   7.841  1.00  0.00     0.000 C 
HETATM   12  C12 UNL     1       1.922   9.306   8.285  1.00  0.00     0.006 C 
HETATM   13  C14 UNL     1       2.995   7.936   9.947  1.00  0.00     0.100 C 
BRANCH   5  14
HETATM   14  C5  UNL     1       2.866   8.057  13.524  1.00  0.00     0.259 C 
HETATM   15  N1  UNL     1       3.719   8.812  14.370  1.00  0.00    -0.348 N 
ATOM     16  H1  UNL     1       4.146   9.668  14.016  1.00  0.00     0.163 HD
HETATM   17  O1  UNL     1       2.380   7.016  14.032  1.00  0.00    -0.267 OA
BRANCH  15  18
HETATM   18  C2  UNL     1       3.997   8.382  15.749  1.00  0.00     0.022 C 
HETATM   19  C1  UNL     1       4.933   9.390  16.383  1.00  0.00     0.037 C 
HETATM   20  C3  UNL     1       4.596   7.011  15.798  1.00  0.00     0.037 C 
HETATM   21  C4  UNL     1       2.695   8.458  16.558  1.00  0.00     0.037 C 
ENDBRANCH  15  18
ENDBRANCH   5  14
ENDBRANCH   3   4
ENDBRANCH   2   3
BRANCH   2  22
HETATM   22  O2  UNL     1       2.277   4.918   9.784  1.00  0.00    -0.392 OA
ATOM     23  H2  UNL     1       2.667   4.876   8.919  1.00  0.00     0.210 HD
ENDBRANCH   2  22
ENDBRANCH   1   2
BRANCH   1  24
HETATM   24  C18 UNL     1       0.363   3.401  10.218  1.00  0.00     0.066 C 
BRANCH  24  25
HETATM   25  C19 UNL     1      -0.775   2.565  10.673  1.00  0.00    -0.056 A 
HETATM   26  C20 UNL     1      -0.741   1.219  10.377  1.00  0.00     0.007 A 
HETATM   27  C21 UNL     1      -1.776   0.366  10.772  1.00  0.00     0.001 A 
HETATM   28  C22 UNL     1      -2.858   0.847  11.468  1.00  0.00     0.000 A 
HETATM   29  C23 UNL     1      -2.871   2.209  11.756  1.00  0.00     0.001 A 
HETATM   30  C24 UNL     1      -1.845   3.040  11.361  1.00  0.00     0.007 A 
ENDBRANCH  24  25
ENDBRANCH   1  24
BRANCH   1  31
HETATM   31  N3  UNL     1      -0.841   4.842   8.761  1.00  0.00    -0.352 N 
HETATM   32  C25 UNL     1      -2.116   5.455   8.670  1.00  0.00     0.241 C 
HETATM   33  O3  UNL     1      -2.543   6.006   9.714  1.00  0.00    -0.271 OA
ATOM     34  H3  UNL     1      -0.462   4.385   7.931  1.00  0.00     0.163 HD
BRANCH  32  35
HETATM   35  C26 UNL     1      -2.945   5.483   7.457  1.00  0.00     0.185 C 
BRANCH  35  36
HETATM   36  C27 UNL     1      -3.690   6.746   7.213  1.00  0.00     0.134 C 
BRANCH  36  37
HETATM   37  C28 UNL     1      -3.539   7.307   5.866  1.00  0.00     0.233 C 
HETATM   38  N4  UNL     1      -2.626   8.352   5.581  1.00  0.00    -0.062 NA
HETATM   39  O4  UNL     1      -4.260   6.835   4.913  1.00  0.00    -0.277 OA
ENDBRANCH  36  37
ENDBRANCH  35  36
BRANCH  35  40
HETATM   40  N5  UNL     1      -3.836   4.341   7.455  1.00  0.00    -0.342 N 
HETATM   41  C29 UNL     1      -4.046   3.519   6.297  1.00  0.00     0.268 C 
HETATM   42  O5  UNL     1      -3.450   3.784   5.240  1.00  0.00    -0.266 OA
ATOM     43  H5  UNL     1      -4.335   4.110   8.314  1.00  0.00     0.163 HD
BRANCH  41  44
HETATM   44  C30 UNL     1      -4.955   2.379   6.354  1.00  0.00     0.101 A 
HETATM   45  C31 UNL     1      -6.210   2.455   5.792  1.00  0.00     0.036 A 
HETATM   46  C32 UNL     1      -7.097   1.395   5.825  1.00  0.00     0.016 A 
HETATM   47  C33 UNL     1      -6.710   0.229   6.439  1.00  0.00    -0.009 A 
HETATM   48  C34 UNL     1      -7.558  -0.870   6.503  1.00  0.00     0.013 A 
HETATM   49  C38 UNL     1      -5.443   0.177   6.996  1.00  0.00     0.043 A 
HETATM   50  C35 UNL     1      -7.165  -2.035   7.119  1.00  0.00     0.001 A 
HETATM   51  C36 UNL     1      -5.901  -2.084   7.674  1.00  0.00     0.002 A 
HETATM   52  C37 UNL     1      -5.042  -0.994   7.617  1.00  0.00     0.030 A 
HETATM   53  N6  UNL     1      -4.596   1.222   6.953  1.00  0.00    -0.351 N 
ATOM     54  H6  UNL     1      -3.672   1.140   7.377  1.00  0.00     0.166 HD
ENDBRANCH  41  44
ENDBRANCH  35  40
ENDBRANCH  32  35
ENDBRANCH   1  31
TORSDOF 14
ENDMDL
