MODEL 4
REMARK VINA RESULT: -10.835270230      5.604     10.817
REMARK  14 active torsions:
REMARK  status: ('A' for Active; 'I' for Inactive)
REMARK    1  A    between atoms: C2_2  and  N1_5 
REMARK       I    between atoms: N1_5  and  C5_7 
REMARK    2  A    between atoms: C5_7  and  C6_9 
REMARK    3  A    between atoms: N2_18  and  C15_19 
REMARK    4  A    between atoms: C15_19  and  C16_20 
REMARK    5  A    between atoms: C16_20  and  O2_21 
REMARK    6  A    between atoms: C16_20  and  C17_23 
REMARK    7  A    between atoms: C17_23  and  C18_24 
REMARK    8  A    between atoms: C17_23  and  N3_31 
REMARK    9  A    between atoms: C18_24  and  C19_25 
REMARK       I    between atoms: N3_31  and  C25_33 
REMARK   10  A    between atoms: C25_33  and  C26_35 
REMARK   11  A    between atoms: C26_35  and  C27_36 
REMARK   12  A    between atoms: C26_35  and  N5_40 
REMARK   13  A    between atoms: C27_36  and  C28_37 
REMARK       I    between atoms: N5_40  and  C29_42 
REMARK   14  A    between atoms: C29_42  and  C30_44 
ROOT
HETATM    1  C17 UNL     1      -4.454   1.900   7.802  1.00  0.00     0.118 C 
ENDROOT
BRANCH   1   2
HETATM    2  C16 UNL     1      -4.888   0.594   7.157  1.00  0.00     0.154 C 
BRANCH   2   3
HETATM    3  C15 UNL     1      -6.336   0.575   6.881  1.00  0.00     0.129 C 
BRANCH   3   4
HETATM    4  N2  UNL     1      -7.010  -0.668   6.762  1.00  0.00    -0.279 NA
HETATM    5  C6  UNL     1      -8.390  -0.734   7.093  1.00  0.00     0.056 C 
HETATM    6  C7  UNL     1      -8.735  -0.008   8.359  1.00  0.00     0.062 C 
HETATM    7  C8  UNL     1      -7.970  -0.705   9.467  1.00  0.00    -0.004 C 
HETATM    8  C9  UNL     1      -7.565   0.292  10.552  1.00  0.00     0.005 C 
HETATM    9  C13 UNL     1      -6.895  -1.619   9.058  1.00  0.00     0.003 C 
HETATM   10  C10 UNL     1      -7.149  -0.460  11.805  1.00  0.00     0.000 C 
HETATM   11  C11 UNL     1      -6.103  -1.460  11.441  1.00  0.00     0.000 C 
HETATM   12  C12 UNL     1      -5.701  -1.349   9.999  1.00  0.00     0.006 C 
HETATM   13  C14 UNL     1      -6.353  -1.596   7.696  1.00  0.00     0.100 C 
BRANCH   5  14
HETATM   14  C5  UNL     1      -9.343  -0.613   5.988  1.00  0.00     0.259 C 
HETATM   15  N1  UNL     1      -9.976   0.593   5.592  1.00  0.00    -0.348 N 
ATOM     16  H1  UNL     1      -9.772   1.455   6.097  1.00  0.00     0.163 HD
HETATM   17  O1  UNL     1      -9.646  -1.632   5.318  1.00  0.00    -0.267 OA
BRANCH  15  18
HETATM   18  C2  UNL     1     -10.922   0.621   4.465  1.00  0.00     0.022 C 
HETATM   19  C1  UNL     1     -11.383   2.050   4.267  1.00  0.00     0.037 C 
HETATM   20  C3  UNL     1     -12.095  -0.279   4.696  1.00  0.00     0.037 C 
HETATM   21  C4  UNL     1     -10.166   0.247   3.182  1.00  0.00     0.037 C 
ENDBRANCH  15  18
ENDBRANCH   5  14
ENDBRANCH   3   4
ENDBRANCH   2   3
BRANCH   2  22
HETATM   22  O2  UNL     1      -4.131   0.457   6.004  1.00  0.00    -0.392 OA
ATOM     23  H2  UNL     1      -3.313   0.937   6.051  1.00  0.00     0.210 HD
ENDBRANCH   2  22
ENDBRANCH   1   2
BRANCH   1  24
HETATM   24  C18 UNL     1      -4.825   1.961   9.257  1.00  0.00     0.066 C 
BRANCH  24  25
HETATM   25  C19 UNL     1      -3.631   2.020  10.136  1.00  0.00    -0.056 A 
HETATM   26  C20 UNL     1      -2.617   2.886   9.785  1.00  0.00     0.007 A 
HETATM   27  C21 UNL     1      -1.460   2.998  10.562  1.00  0.00     0.001 A 
HETATM   28  C22 UNL     1      -1.302   2.247  11.701  1.00  0.00     0.000 A 
HETATM   29  C23 UNL     1      -2.338   1.379  12.036  1.00  0.00     0.001 A 
HETATM   30  C24 UNL     1      -3.473   1.277  11.263  1.00  0.00     0.007 A 
ENDBRANCH  24  25
ENDBRANCH   1  24
BRANCH   1  31
HETATM   31  N3  UNL     1      -5.145   3.020   7.154  1.00  0.00    -0.352 N 
HETATM   32  C25 UNL     1      -4.589   3.759   6.080  1.00  0.00     0.241 C 
HETATM   33  O3  UNL     1      -3.448   3.404   5.693  1.00  0.00    -0.271 OA
ATOM     34  H3  UNL     1      -6.071   3.280   7.494  1.00  0.00     0.163 HD
BRANCH  32  35
HETATM   35  C26 UNL     1      -5.252   4.886   5.409  1.00  0.00     0.185 C 
BRANCH  35  36
HETATM   36  C27 UNL     1      -5.753   5.964   6.302  1.00  0.00     0.134 C 
BRANCH  36  37
HETATM   37  C28 UNL     1      -6.922   6.694   5.798  1.00  0.00     0.233 C 
HETATM   38  N4  UNL     1      -6.826   7.646   4.754  1.00  0.00    -0.062 NA
HETATM   39  O4  UNL     1      -8.072   6.462   6.323  1.00  0.00    -0.277 OA
ENDBRANCH  36  37
ENDBRANCH  35  36
BRANCH  35  40
HETATM   40  N5  UNL     1      -6.305   4.385   4.550  1.00  0.00    -0.342 N 
HETATM   41  C29 UNL     1      -6.200   4.367   3.119  1.00  0.00     0.268 C 
HETATM   42  O5  UNL     1      -5.170   4.797   2.573  1.00  0.00    -0.266 OA
ATOM     43  H5  UNL     1      -7.159   4.030   4.980  1.00  0.00     0.163 HD
BRANCH  41  44
HETATM   44  C30 UNL     1      -7.293   3.849   2.302  1.00  0.00     0.101 A 
HETATM   45  C31 UNL     1      -7.099   2.761   1.481  1.00  0.00     0.036 A 
HETATM   46  C32 UNL     1      -8.112   2.243   0.695  1.00  0.00     0.016 A 
HETATM   47  C33 UNL     1      -9.349   2.835   0.737  1.00  0.00    -0.009 A 
HETATM   48  C34 UNL     1     -10.406   2.359  -0.031  1.00  0.00     0.013 A 
HETATM   49  C38 UNL     1      -9.519   3.928   1.571  1.00  0.00     0.043 A 
HETATM   50  C35 UNL     1     -11.644   2.957   0.016  1.00  0.00     0.001 A 
HETATM   51  C36 UNL     1     -11.810   4.046   0.849  1.00  0.00     0.002 A 
HETATM   52  C37 UNL     1     -10.764   4.534   1.622  1.00  0.00     0.030 A 
HETATM   53  N6  UNL     1      -8.520   4.417   2.328  1.00  0.00    -0.351 N 
ATOM     54  H6  UNL     1      -8.689   5.224   2.927  1.00  0.00     0.166 HD
ENDBRANCH  41  44
ENDBRANCH  35  40
ENDBRANCH  32  35
ENDBRANCH   1  31
TORSDOF 14
ENDMDL
