MODEL 5
REMARK VINA RESULT: -10.788095168      5.634      9.589
REMARK  14 active torsions:
REMARK  status: ('A' for Active; 'I' for Inactive)
REMARK    1  A    between atoms: C2_2  and  N1_5 
REMARK       I    between atoms: N1_5  and  C5_7 
REMARK    2  A    between atoms: C5_7  and  C6_9 
REMARK    3  A    between atoms: N2_18  and  C15_19 
REMARK    4  A    between atoms: C15_19  and  C16_20 
REMARK    5  A    between atoms: C16_20  and  O2_21 
REMARK    6  A    between atoms: C16_20  and  C17_23 
REMARK    7  A    between atoms: C17_23  and  C18_24 
REMARK    8  A    between atoms: C17_23  and  N3_31 
REMARK    9  A    between atoms: C18_24  and  C19_25 
REMARK       I    between atoms: N3_31  and  C25_33 
REMARK   10  A    between atoms: C25_33  and  C26_35 
REMARK   11  A    between atoms: C26_35  and  C27_36 
REMARK   12  A    between atoms: C26_35  and  N5_40 
REMARK   13  A    between atoms: C27_36  and  C28_37 
REMARK       I    between atoms: N5_40  and  C29_42 
REMARK   14  A    between atoms: C29_42  and  C30_44 
ROOT
HETATM    1  C17 UNL     1      -4.163   2.105   7.476  1.00  0.00     0.118 C 
ENDROOT
BRANCH   1   2
HETATM    2  C16 UNL     1      -4.792   0.803   7.009  1.00  0.00     0.154 C 
BRANCH   2   3
HETATM    3  C15 UNL     1      -6.145   1.014   6.465  1.00  0.00     0.129 C 
BRANCH   3   4
HETATM    4  N2  UNL     1      -7.167   1.522   7.307  1.00  0.00    -0.279 NA
HETATM    5  C6  UNL     1      -7.990   0.606   8.017  1.00  0.00     0.056 C 
HETATM    6  C7  UNL     1      -8.451  -0.551   7.181  1.00  0.00     0.062 C 
HETATM    7  C8  UNL     1      -9.290   0.042   6.065  1.00  0.00    -0.004 C 
HETATM    8  C9  UNL     1      -9.149  -0.783   4.787  1.00  0.00     0.005 C 
HETATM    9  C13 UNL     1      -9.190   1.493   5.859  1.00  0.00     0.003 C 
HETATM   10  C10 UNL     1     -10.259  -0.415   3.818  1.00  0.00     0.000 C 
HETATM   11  C11 UNL     1     -10.255   1.064   3.621  1.00  0.00     0.000 C 
HETATM   12  C12 UNL     1      -9.109   1.720   4.334  1.00  0.00     0.006 C 
HETATM   13  C14 UNL     1      -8.093   2.271   6.444  1.00  0.00     0.100 C 
BRANCH   5  14
HETATM   14  C5  UNL     1      -7.609   0.305   9.398  1.00  0.00     0.259 C 
HETATM   15  N1  UNL     1      -6.447  -0.411   9.781  1.00  0.00    -0.348 N 
ATOM     16  H1  UNL     1      -5.811  -0.756   9.062  1.00  0.00     0.163 HD
HETATM   17  O1  UNL     1      -8.343   0.695  10.341  1.00  0.00    -0.267 OA
BRANCH  15  18
HETATM   18  C2  UNL     1      -6.142  -0.667  11.198  1.00  0.00     0.022 C 
HETATM   19  C1  UNL     1      -6.939  -1.874  11.646  1.00  0.00     0.037 C 
HETATM   20  C3  UNL     1      -6.457   0.515  12.060  1.00  0.00     0.037 C 
HETATM   21  C4  UNL     1      -4.667  -1.075  11.315  1.00  0.00     0.037 C 
ENDBRANCH  15  18
ENDBRANCH   5  14
ENDBRANCH   3   4
ENDBRANCH   2   3
BRANCH   2  22
HETATM   22  O2  UNL     1      -3.925   0.265   6.071  1.00  0.00    -0.392 OA
ATOM     23  H2  UNL     1      -4.069   0.621   5.202  1.00  0.00     0.210 HD
ENDBRANCH   2  22
ENDBRANCH   1   2
BRANCH   1  24
HETATM   24  C18 UNL     1      -4.685   2.535   8.819  1.00  0.00     0.066 C 
BRANCH  24  25
HETATM   25  C19 UNL     1      -3.735   2.224   9.915  1.00  0.00    -0.056 A 
HETATM   26  C20 UNL     1      -2.644   1.436   9.614  1.00  0.00     0.007 A 
HETATM   27  C21 UNL     1      -1.703   1.100  10.592  1.00  0.00     0.001 A 
HETATM   28  C22 UNL     1      -1.840   1.548  11.883  1.00  0.00     0.000 A 
HETATM   29  C23 UNL     1      -2.949   2.343  12.164  1.00  0.00     0.001 A 
HETATM   30  C24 UNL     1      -3.869   2.667  11.191  1.00  0.00     0.007 A 
ENDBRANCH  24  25
ENDBRANCH   1  24
BRANCH   1  31
HETATM   31  N3  UNL     1      -4.505   3.179   6.539  1.00  0.00    -0.352 N 
HETATM   32  C25 UNL     1      -3.739   4.364   6.401  1.00  0.00     0.241 C 
HETATM   33  O3  UNL     1      -2.724   4.458   7.135  1.00  0.00    -0.271 OA
ATOM     34  H3  UNL     1      -5.336   3.068   5.957  1.00  0.00     0.163 HD
BRANCH  32  35
HETATM   35  C26 UNL     1      -4.053   5.460   5.473  1.00  0.00     0.185 C 
BRANCH  35  36
HETATM   36  C27 UNL     1      -4.074   6.823   6.068  1.00  0.00     0.134 C 
BRANCH  36  37
HETATM   37  C28 UNL     1      -5.357   7.526   5.963  1.00  0.00     0.233 C 
HETATM   38  N4  UNL     1      -6.474   7.183   6.763  1.00  0.00    -0.062 NA
HETATM   39  O4  UNL     1      -5.471   8.486   5.116  1.00  0.00    -0.277 OA
ENDBRANCH  36  37
ENDBRANCH  35  36
BRANCH  35  40
HETATM   40  N5  UNL     1      -5.295   5.169   4.786  1.00  0.00    -0.342 N 
HETATM   41  C29 UNL     1      -5.350   4.796   3.402  1.00  0.00     0.268 C 
HETATM   42  O5  UNL     1      -4.298   4.714   2.746  1.00  0.00    -0.266 OA
ATOM     43  H5  UNL     1      -6.169   5.233   5.309  1.00  0.00     0.163 HD
BRANCH  41  44
HETATM   44  C30 UNL     1      -6.630   4.513   2.761  1.00  0.00     0.101 A 
HETATM   45  C31 UNL     1      -7.711   5.342   2.959  1.00  0.00     0.036 A 
HETATM   46  C32 UNL     1      -8.938   5.106   2.367  1.00  0.00     0.016 A 
HETATM   47  C33 UNL     1      -9.079   4.008   1.556  1.00  0.00    -0.009 A 
HETATM   48  C34 UNL     1     -10.289   3.719   0.934  1.00  0.00     0.013 A 
HETATM   49  C38 UNL     1      -7.978   3.189   1.372  1.00  0.00     0.043 A 
HETATM   50  C35 UNL     1     -10.424   2.617   0.122  1.00  0.00     0.001 A 
HETATM   51  C36 UNL     1      -9.324   1.803  -0.059  1.00  0.00     0.002 A 
HETATM   52  C37 UNL     1      -8.109   2.078   0.555  1.00  0.00     0.030 A 
HETATM   53  N6  UNL     1      -6.792   3.437   1.958  1.00  0.00    -0.351 N 
ATOM     54  H6  UNL     1      -6.007   2.807   1.796  1.00  0.00     0.166 HD
ENDBRANCH  41  44
ENDBRANCH  35  40
ENDBRANCH  32  35
ENDBRANCH   1  31
TORSDOF 14
ENDMDL
