MODEL 1
REMARK VINA RESULT: -11.147843187      0.000      0.000
REMARK  14 active torsions:
REMARK  status: ('A' for Active; 'I' for Inactive)
REMARK    1  A    between atoms: C2_2  and  N1_5 
REMARK       I    between atoms: N1_5  and  C5_7 
REMARK    2  A    between atoms: C5_7  and  C6_9 
REMARK    3  A    between atoms: N2_18  and  C15_19 
REMARK    4  A    between atoms: C15_19  and  C16_20 
REMARK    5  A    between atoms: C16_20  and  O2_21 
REMARK    6  A    between atoms: C16_20  and  C17_23 
REMARK    7  A    between atoms: C17_23  and  C18_24 
REMARK    8  A    between atoms: C17_23  and  N3_31 
REMARK    9  A    between atoms: C18_24  and  C19_25 
REMARK       I    between atoms: N3_31  and  C25_33 
REMARK   10  A    between atoms: C25_33  and  C26_35 
REMARK   11  A    between atoms: C26_35  and  C27_36 
REMARK   12  A    between atoms: C26_35  and  N5_40 
REMARK   13  A    between atoms: C27_36  and  C28_37 
REMARK       I    between atoms: N5_40  and  C29_42 
REMARK   14  A    between atoms: C29_42  and  C30_44 
ROOT
HETATM    1  C17 UNL     1      -0.075   4.814  10.158  1.00  0.00     0.118 C 
ENDROOT
BRANCH   1   2
HETATM    2  C16 UNL     1       1.094   5.729   9.835  1.00  0.00     0.154 C 
BRANCH   2   3
HETATM    3  C15 UNL     1       1.213   6.830  10.808  1.00  0.00     0.129 C 
BRANCH   3   4
HETATM    4  N2  UNL     1       2.490   7.375  11.095  1.00  0.00    -0.279 NA
HETATM    5  C6  UNL     1       2.588   8.434  12.038  1.00  0.00     0.056 C 
HETATM    6  C7  UNL     1       1.535   9.488  11.861  1.00  0.00     0.062 C 
HETATM    7  C8  UNL     1       1.761  10.084  10.485  1.00  0.00    -0.004 C 
HETATM    8  C9  UNL     1       0.435  10.512   9.858  1.00  0.00     0.005 C 
HETATM    9  C13 UNL     1       2.644   9.340   9.577  1.00  0.00     0.003 C 
HETATM   10  C10 UNL     1       0.703  11.432   8.679  1.00  0.00     0.000 C 
HETATM   11  C11 UNL     1       1.656  10.758   7.749  1.00  0.00     0.000 C 
HETATM   12  C12 UNL     1       1.969   9.357   8.188  1.00  0.00     0.006 C 
HETATM   13  C14 UNL     1       3.001   7.941   9.838  1.00  0.00     0.100 C 
BRANCH   5  14
HETATM   14  C5  UNL     1       2.922   8.067  13.415  1.00  0.00     0.259 C 
HETATM   15  N1  UNL     1       3.718   8.848  14.292  1.00  0.00    -0.348 N 
ATOM     16  H1  UNL     1       4.100   9.736  13.965  1.00  0.00     0.163 HD
HETATM   17  O1  UNL     1       2.489   6.987  13.891  1.00  0.00    -0.267 OA
BRANCH  15  18
HETATM   18  C2  UNL     1       4.002   8.400  15.665  1.00  0.00     0.022 C 
HETATM   19  C1  UNL     1       4.804   9.479  16.361  1.00  0.00     0.037 C 
HETATM   20  C3  UNL     1       4.745   7.101  15.687  1.00  0.00     0.037 C 
HETATM   21  C4  UNL     1       2.677   8.307  16.433  1.00  0.00     0.037 C 
ENDBRANCH  15  18
ENDBRANCH   5  14
ENDBRANCH   3   4
ENDBRANCH   2   3
BRANCH   2  22
HETATM   22  O2  UNL     1       2.223   4.926   9.809  1.00  0.00    -0.392 OA
ATOM     23  H2  UNL     1       2.013   4.006   9.909  1.00  0.00     0.210 HD
ENDBRANCH   2  22
ENDBRANCH   1   2
BRANCH   1  24
HETATM   24  C18 UNL     1       0.380   3.453  10.604  1.00  0.00     0.066 C 
BRANCH  24  25
HETATM   25  C19 UNL     1      -0.760   2.534  10.848  1.00  0.00    -0.056 A 
HETATM   26  C20 UNL     1      -0.667   1.251  10.352  1.00  0.00     0.007 A 
HETATM   27  C21 UNL     1      -1.699   0.327  10.541  1.00  0.00     0.001 A 
HETATM   28  C22 UNL     1      -2.836   0.673  11.228  1.00  0.00     0.000 A 
HETATM   29  C23 UNL     1      -2.909   1.974  11.719  1.00  0.00     0.001 A 
HETATM   30  C24 UNL     1      -1.886   2.876  11.527  1.00  0.00     0.007 A 
ENDBRANCH  24  25
ENDBRANCH   1  24
BRANCH   1  31
HETATM   31  N3  UNL     1      -0.882   4.604   8.951  1.00  0.00    -0.352 N 
HETATM   32  C25 UNL     1      -2.125   5.247   8.725  1.00  0.00     0.241 C 
HETATM   33  O3  UNL     1      -2.518   6.029   9.626  1.00  0.00    -0.271 OA
ATOM     34  H3  UNL     1      -0.531   3.962   8.240  1.00  0.00     0.163 HD
BRANCH  32  35
HETATM   35  C26 UNL     1      -2.959   5.058   7.529  1.00  0.00     0.185 C 
BRANCH  35  36
HETATM   36  C27 UNL     1      -3.893   6.170   7.212  1.00  0.00     0.134 C 
BRANCH  36  37
HETATM   37  C28 UNL     1      -3.528   6.972   6.040  1.00  0.00     0.233 C 
HETATM   38  N4  UNL     1      -2.542   7.989   6.097  1.00  0.00    -0.062 NA
HETATM   39  O4  UNL     1      -4.122   6.747   4.923  1.00  0.00    -0.277 OA
ENDBRANCH  36  37
ENDBRANCH  35  36
BRANCH  35  40
HETATM   40  N5  UNL     1      -3.661   3.795   7.626  1.00  0.00    -0.342 N 
HETATM   41  C29 UNL     1      -3.857   2.925   6.502  1.00  0.00     0.268 C 
HETATM   42  O5  UNL     1      -3.414   3.252   5.388  1.00  0.00    -0.266 OA
ATOM     43  H5  UNL     1      -4.032   3.511   8.533  1.00  0.00     0.163 HD
BRANCH  41  44
HETATM   44  C30 UNL     1      -4.572   1.662   6.658  1.00  0.00     0.101 A 
HETATM   45  C31 UNL     1      -4.115   0.702   7.532  1.00  0.00     0.036 A 
HETATM   46  C32 UNL     1      -4.767  -0.505   7.707  1.00  0.00     0.016 A 
HETATM   47  C33 UNL     1      -5.908  -0.749   6.983  1.00  0.00    -0.009 A 
HETATM   48  C34 UNL     1      -6.607  -1.944   7.116  1.00  0.00     0.013 A 
HETATM   49  C38 UNL     1      -6.348   0.232   6.111  1.00  0.00     0.043 A 
HETATM   50  C35 UNL     1      -7.749  -2.183   6.389  1.00  0.00     0.001 A 
HETATM   51  C36 UNL     1      -8.185  -1.202   5.520  1.00  0.00     0.002 A 
HETATM   52  C37 UNL     1      -7.498  -0.003   5.376  1.00  0.00     0.030 A 
HETATM   53  N6  UNL     1      -5.697   1.400   5.956  1.00  0.00    -0.351 N 
ATOM     54  H6  UNL     1      -6.056   2.095   5.302  1.00  0.00     0.166 HD
ENDBRANCH  41  44
ENDBRANCH  35  40
ENDBRANCH  32  35
ENDBRANCH   1  31
TORSDOF 14
ENDMDL
