MODEL 5
REMARK VINA RESULT: -8.007679938      2.936      6.144
REMARK  3 active torsions:
REMARK  status: ('A' for Active; 'I' for Inactive)
REMARK    1  A    between atoms: C3_7  and  C4_8 
REMARK    2  A    between atoms: N2_10  and  C6_11 
REMARK    3  A    between atoms: C12_19  and  C13_20 
ROOT
HETATM    1  C4  UNL     1      13.780   8.012 -35.313  1.00  0.00     0.020 A 
HETATM    2  C5  UNL     1      14.087   6.977 -34.442  1.00  0.00     0.128 A 
HETATM    3  N2  UNL     1      15.437   6.900 -34.334  1.00  0.00    -0.267 N 
HETATM    4  N3  UNL     1      15.931   7.848 -35.108  1.00  0.00    -0.293 N 
ATOM      5  H3  UNL     1      16.928   8.025 -35.224  1.00  0.00     0.187 HD
HETATM    6  C12 UNL     1      14.967   8.554 -35.725  1.00  0.00     0.069 A 
ENDROOT
BRANCH   1   7
HETATM    7  C3  UNL     1      12.426   8.423 -35.724  1.00  0.00     0.215 C 
HETATM    8  C2  UNL     1      11.828   9.310 -34.677  1.00  0.00     0.253 C 
HETATM    9  N1  UNL     1      10.476   8.945 -34.534  1.00  0.00    -0.277 N 
HETATM   10  O2  UNL     1      12.506  10.198 -34.088  1.00  0.00    -0.270 OA
HETATM   11  C1  UNL     1      10.284   7.698 -35.166  1.00  0.00     0.323 C 
ATOM     12  H1  UNL     1       9.757   9.489 -34.056  1.00  0.00     0.173 HD
HETATM   13  O1  UNL     1       9.196   7.071 -35.232  1.00  0.00    -0.247 OA
HETATM   14  N4  UNL     1      11.514   7.288 -35.700  1.00  0.00    -0.325 N 
ATOM     15  H4  UNL     1      11.735   6.346 -36.021  1.00  0.00     0.165 HD
ENDBRANCH   1   7
BRANCH   6  16
HETATM   16  C13 UNL     1      15.267   9.644 -36.635  1.00  0.00    -0.007 A 
HETATM   17  C14 UNL     1      16.569   9.982 -36.932  1.00  0.00     0.017 A 
HETATM   18  C15 UNL     1      16.909  11.014 -37.774  1.00  0.00     0.043 A 
HETATM   19  C16 UNL     1      15.848  11.729 -38.337  1.00  0.00     0.116 A 
HETATM   20  F1  UNL     1      16.183  12.752 -39.172  1.00  0.00    -0.206 F 
HETATM   21  C17 UNL     1      14.543  11.442 -38.080  1.00  0.00     0.043 A 
HETATM   22  C18 UNL     1      14.268  10.376 -37.211  1.00  0.00     0.017 A 
ENDBRANCH   6  16
BRANCH   3  23
HETATM   23  C6  UNL     1      16.194   5.988 -33.552  1.00  0.00     0.056 A 
HETATM   24  C7  UNL     1      17.382   6.413 -32.999  1.00  0.00     0.031 A 
HETATM   25  C8  UNL     1      18.158   5.561 -32.227  1.00  0.00     0.002 A 
HETATM   26  C9  UNL     1      17.730   4.271 -32.012  1.00  0.00     0.000 A 
HETATM   27  C10 UNL     1      16.530   3.813 -32.560  1.00  0.00     0.002 A 
HETATM   28  C11 UNL     1      15.772   4.699 -33.334  1.00  0.00     0.031 A 
ENDBRANCH   3  23
TORSDOF 3
ENDMDL
