MODEL 2
REMARK VINA RESULT: -8.224393297      1.037      1.307
REMARK  3 active torsions:
REMARK  status: ('A' for Active; 'I' for Inactive)
REMARK    1  A    between atoms: C3_7  and  C4_8 
REMARK    2  A    between atoms: N2_10  and  C6_11 
REMARK    3  A    between atoms: C12_19  and  C13_20 
ROOT
HETATM    1  C4  UNL     1      14.015   8.371 -35.301  1.00  0.00     0.020 A 
HETATM    2  C5  UNL     1      14.069   9.334 -36.299  1.00  0.00     0.128 A 
HETATM    3  N2  UNL     1      15.373   9.554 -36.604  1.00  0.00    -0.267 N 
HETATM    4  N3  UNL     1      16.081   8.759 -35.825  1.00  0.00    -0.293 N 
ATOM      5  H3  UNL     1      17.100   8.713 -35.836  1.00  0.00     0.187 HD
HETATM    6  C12 UNL     1      15.305   8.018 -35.014  1.00  0.00     0.069 A 
ENDROOT
BRANCH   1   7
HETATM    7  C3  UNL     1      12.789   7.854 -34.666  1.00  0.00     0.215 C 
HETATM    8  C2  UNL     1      12.184   6.792 -35.529  1.00  0.00     0.253 C 
HETATM    9  N1  UNL     1      10.788   6.979 -35.513  1.00  0.00    -0.277 N 
HETATM   10  O2  UNL     1      12.891   5.928 -36.120  1.00  0.00    -0.270 OA
HETATM   11  C1  UNL     1      10.517   8.258 -34.983  1.00  0.00     0.323 C 
ATOM     12  H1  UNL     1      10.091   6.304 -35.831  1.00  0.00     0.173 HD
HETATM   13  O1  UNL     1       9.375   8.757 -34.823  1.00  0.00    -0.247 OA
HETATM   14  N4  UNL     1      11.742   8.865 -34.669  1.00  0.00    -0.325 N 
ATOM     15  H4  UNL     1      11.877   9.857 -34.474  1.00  0.00     0.165 HD
ENDBRANCH   1   7
BRANCH   6  16
HETATM   16  C13 UNL     1      15.859   7.076 -34.060  1.00  0.00    -0.007 A 
HETATM   17  C14 UNL     1      17.122   7.253 -33.540  1.00  0.00     0.017 A 
HETATM   18  C15 UNL     1      17.700   6.383 -32.645  1.00  0.00     0.043 A 
HETATM   19  C16 UNL     1      16.931   5.278 -32.272  1.00  0.00     0.116 A 
HETATM   20  F1  UNL     1      17.502   4.415 -31.385  1.00  0.00    -0.206 F 
HETATM   21  C17 UNL     1      15.678   5.050 -32.752  1.00  0.00     0.043 A 
HETATM   22  C18 UNL     1      15.150   5.978 -33.662  1.00  0.00     0.017 A 
ENDBRANCH   6  16
BRANCH   3  23
HETATM   23  C6  UNL     1      15.898  10.457 -37.567  1.00  0.00     0.056 A 
HETATM   24  C7  UNL     1      17.242  10.755 -37.535  1.00  0.00     0.031 A 
HETATM   25  C8  UNL     1      17.804  11.630 -38.454  1.00  0.00     0.002 A 
HETATM   26  C9  UNL     1      17.000  12.207 -39.411  1.00  0.00     0.000 A 
HETATM   27  C10 UNL     1      15.634  11.924 -39.466  1.00  0.00     0.002 A 
HETATM   28  C11 UNL     1      15.101  11.036 -38.524  1.00  0.00     0.031 A 
ENDBRANCH   3  23
TORSDOF 3
ENDMDL
