MODEL 4
REMARK VINA RESULT: -8.133615925      4.375      7.191
REMARK  3 active torsions:
REMARK  status: ('A' for Active; 'I' for Inactive)
REMARK    1  A    between atoms: C3_7  and  C4_8 
REMARK    2  A    between atoms: N2_10  and  C6_11 
REMARK    3  A    between atoms: C12_19  and  C13_20 
ROOT
HETATM    1  C4  UNL     1      11.309   9.468 -34.865  1.00  0.00     0.020 A 
HETATM    2  C5  UNL     1      12.652   9.209 -34.631  1.00  0.00     0.128 A 
HETATM    3  N2  UNL     1      12.875   7.892 -34.866  1.00  0.00    -0.267 N 
HETATM    4  N3  UNL     1      11.718   7.372 -35.228  1.00  0.00    -0.293 N 
ATOM      5  H3  UNL     1      11.585   6.389 -35.467  1.00  0.00     0.187 HD
HETATM    6  C12 UNL     1      10.733   8.287 -35.244  1.00  0.00     0.069 A 
ENDROOT
BRANCH   1   7
HETATM    7  C3  UNL     1      10.641  10.773 -34.708  1.00  0.00     0.215 C 
HETATM    8  C2  UNL     1      10.921  11.630 -35.903  1.00  0.00     0.253 C 
HETATM    9  N1  UNL     1      11.155  12.939 -35.439  1.00  0.00    -0.277 N 
HETATM   10  O2  UNL     1      10.921  11.161 -37.076  1.00  0.00    -0.270 OA
HETATM   11  C1  UNL     1      11.367  12.885 -34.045  1.00  0.00     0.323 C 
ATOM     12  H1  UNL     1      11.170  13.782 -36.013  1.00  0.00     0.173 HD
HETATM   13  O1  UNL     1      11.605  13.870 -33.302  1.00  0.00    -0.247 OA
HETATM   14  N4  UNL     1      11.263  11.545 -33.642  1.00  0.00    -0.325 N 
ATOM     15  H4  UNL     1      11.575  11.172 -32.746  1.00  0.00     0.165 HD
ENDBRANCH   1   7
BRANCH   6  16
HETATM   16  C13 UNL     1       9.367   7.949 -35.602  1.00  0.00    -0.007 A 
HETATM   17  C14 UNL     1       8.621   7.093 -34.822  1.00  0.00     0.017 A 
HETATM   18  C15 UNL     1       7.330   6.728 -35.122  1.00  0.00     0.043 A 
HETATM   19  C16 UNL     1       6.786   7.279 -36.286  1.00  0.00     0.116 A 
HETATM   20  F1  UNL     1       5.506   6.918 -36.585  1.00  0.00    -0.206 F 
HETATM   21  C17 UNL     1       7.474   8.129 -37.095  1.00  0.00     0.043 A 
HETATM   22  C18 UNL     1       8.787   8.459 -36.729  1.00  0.00     0.017 A 
ENDBRANCH   6  16
BRANCH   3  23
HETATM   23  C6  UNL     1      14.103   7.187 -34.753  1.00  0.00     0.056 A 
HETATM   24  C7  UNL     1      15.205   7.846 -34.258  1.00  0.00     0.031 A 
HETATM   25  C8  UNL     1      16.428   7.202 -34.127  1.00  0.00     0.002 A 
HETATM   26  C9  UNL     1      16.534   5.881 -34.500  1.00  0.00     0.000 A 
HETATM   27  C10 UNL     1      15.433   5.188 -35.006  1.00  0.00     0.002 A 
HETATM   28  C11 UNL     1      14.216   5.869 -35.124  1.00  0.00     0.031 A 
ENDBRANCH   3  23
TORSDOF 3
ENDMDL
