MODEL 3
REMARK VINA RESULT: -8.146615079      4.359      7.277
REMARK  3 active torsions:
REMARK  status: ('A' for Active; 'I' for Inactive)
REMARK    1  A    between atoms: C3_7  and  C4_8 
REMARK    2  A    between atoms: N2_10  and  C6_11 
REMARK    3  A    between atoms: C12_19  and  C13_20 
ROOT
HETATM    1  C4  UNL     1      11.096   9.557 -34.833  1.00  0.00     0.020 A 
HETATM    2  C5  UNL     1      12.452   9.363 -34.605  1.00  0.00     0.128 A 
HETATM    3  N2  UNL     1      12.737   8.058 -34.838  1.00  0.00    -0.267 N 
HETATM    4  N3  UNL     1      11.604   7.482 -35.193  1.00  0.00    -0.293 N 
ATOM      5  H3  UNL     1      11.518   6.493 -35.429  1.00  0.00     0.187 HD
HETATM    6  C12 UNL     1      10.576   8.348 -35.207  1.00  0.00     0.069 A 
ENDROOT
BRANCH   1   7
HETATM    7  C3  UNL     1      10.368  10.828 -34.676  1.00  0.00     0.215 C 
HETATM    8  C2  UNL     1      10.619  11.704 -35.863  1.00  0.00     0.253 C 
HETATM    9  N1  UNL     1      10.789  13.020 -35.390  1.00  0.00    -0.277 N 
HETATM   10  O2  UNL     1      10.652  11.243 -37.038  1.00  0.00    -0.270 OA
HETATM   11  C1  UNL     1      10.988  12.967 -33.994  1.00  0.00     0.323 C 
ATOM     12  H1  UNL     1      10.770  13.867 -35.959  1.00  0.00     0.173 HD
HETATM   13  O1  UNL     1      11.173  13.959 -33.243  1.00  0.00    -0.247 OA
HETATM   14  N4  UNL     1      10.943  11.622 -33.600  1.00  0.00    -0.325 N 
ATOM     15  H4  UNL     1      11.263  11.258 -32.702  1.00  0.00     0.165 HD
ENDBRANCH   1   7
BRANCH   6  16
HETATM   16  C13 UNL     1       9.227   7.945 -35.557  1.00  0.00    -0.007 A 
HETATM   17  C14 UNL     1       8.630   8.394 -36.714  1.00  0.00     0.017 A 
HETATM   18  C15 UNL     1       7.350   8.055 -37.085  1.00  0.00     0.043 A 
HETATM   19  C16 UNL     1       6.657   7.209 -36.216  1.00  0.00     0.116 A 
HETATM   20  F1  UNL     1       5.389   6.872 -36.583  1.00  0.00    -0.206 F 
HETATM   21  C17 UNL     1       7.194   6.733 -35.059  1.00  0.00     0.043 A 
HETATM   22  C18 UNL     1       8.505   7.119 -34.742  1.00  0.00     0.017 A 
ENDBRANCH   6  16
BRANCH   3  23
HETATM   23  C6  UNL     1      13.998   7.413 -34.729  1.00  0.00     0.056 A 
HETATM   24  C7  UNL     1      14.082   6.066 -35.003  1.00  0.00     0.031 A 
HETATM   25  C8  UNL     1      15.290   5.389 -34.911  1.00  0.00     0.002 A 
HETATM   26  C9  UNL     1      16.420   6.081 -34.541  1.00  0.00     0.000 A 
HETATM   27  C10 UNL     1      16.366   7.447 -34.257  1.00  0.00     0.002 A 
HETATM   28  C11 UNL     1      15.130   8.097 -34.359  1.00  0.00     0.031 A 
ENDBRANCH   3  23
TORSDOF 3
ENDMDL
