MODEL 1
REMARK VINA RESULT: -9.027891592      0.000      0.000
REMARK  3 active torsions:
REMARK  status: ('A' for Active; 'I' for Inactive)
REMARK    1  A    between atoms: C3_7  and  C4_8 
REMARK    2  A    between atoms: N2_10  and  C6_11 
REMARK    3  A    between atoms: C12_19  and  C13_20 
ROOT
HETATM    1  C4  UNL     1      14.829   7.787 -34.887  1.00  0.00     0.020 A 
HETATM    2  C5  UNL     1      15.045   8.863 -35.735  1.00  0.00     0.128 A 
HETATM    3  N2  UNL     1      16.384   9.044 -35.856  1.00  0.00    -0.267 N 
HETATM    4  N3  UNL     1      16.958   8.117 -35.113  1.00  0.00    -0.293 N 
ATOM      5  H3  UNL     1      17.967   8.013 -35.012  1.00  0.00     0.187 HD
HETATM    6  C12 UNL     1      16.058   7.326 -34.502  1.00  0.00     0.069 A 
ENDROOT
BRANCH   1   7
HETATM    7  C3  UNL     1      13.514   7.265 -34.471  1.00  0.00     0.215 C 
HETATM    8  C2  UNL     1      12.973   6.359 -35.532  1.00  0.00     0.253 C 
HETATM    9  N1  UNL     1      11.594   6.624 -35.652  1.00  0.00    -0.277 N 
HETATM   10  O2  UNL     1      13.708   5.538 -36.148  1.00  0.00    -0.270 OA
HETATM   11  C1  UNL     1      11.317   7.838 -34.990  1.00  0.00     0.323 C 
ATOM     12  H1  UNL     1      10.913   6.037 -36.134  1.00  0.00     0.173 HD
HETATM   13  O1  UNL     1      10.186   8.379 -34.897  1.00  0.00    -0.247 OA
HETATM   14  N4  UNL     1      12.519   8.328 -34.459  1.00  0.00    -0.325 N 
ATOM     15  H4  UNL     1      12.672   9.277 -34.119  1.00  0.00     0.165 HD
ENDBRANCH   1   7
BRANCH   6  16
HETATM   16  C13 UNL     1      16.451   6.240 -33.624  1.00  0.00    -0.007 A 
HETATM   17  C14 UNL     1      17.494   6.387 -32.737  1.00  0.00     0.017 A 
HETATM   18  C15 UNL     1      17.917   5.387 -31.893  1.00  0.00     0.043 A 
HETATM   19  C16 UNL     1      17.223   4.176 -31.973  1.00  0.00     0.116 A 
HETATM   20  F1  UNL     1      17.641   3.184 -31.137  1.00  0.00    -0.206 F 
HETATM   21  C17 UNL     1      16.186   3.972 -32.829  1.00  0.00     0.043 A 
HETATM   22  C18 UNL     1      15.807   5.036 -33.661  1.00  0.00     0.017 A 
ENDBRANCH   6  16
BRANCH   3  23
HETATM   23  C6  UNL     1      17.060  10.029 -36.624  1.00  0.00     0.056 A 
HETATM   24  C7  UNL     1      18.356  10.357 -36.292  1.00  0.00     0.031 A 
HETATM   25  C8  UNL     1      19.060  11.312 -37.011  1.00  0.00     0.002 A 
HETATM   26  C9  UNL     1      18.449  11.939 -38.073  1.00  0.00     0.000 A 
HETATM   27  C10 UNL     1      17.137  11.627 -38.433  1.00  0.00     0.002 A 
HETATM   28  C11 UNL     1      16.456  10.658 -37.685  1.00  0.00     0.031 A 
ENDBRANCH   3  23
TORSDOF 3
ENDMDL
