MODEL 1
REMARK VINA RESULT: -10.175623432      0.000      0.000
REMARK  12 active torsions:
REMARK  status: ('A' for Active; 'I' for Inactive)
REMARK    1  A    between atoms: C5_8  and  C6_9 
REMARK    2  A    between atoms: C6_9  and  C7_10 
REMARK    3  A    between atoms: C7_10  and  C8_11 
REMARK    4  A    between atoms: N2_14  and  S1_15 
REMARK    5  A    between atoms: S1_15  and  C11_18 
REMARK    6  A    between atoms: C11_18  and  C12_19 
REMARK    7  A    between atoms: C12_19  and  C14_21 
REMARK    8  A    between atoms: C12_19  and  N5_33 
REMARK    9  A    between atoms: C14_21  and  C15_22 
REMARK   10  A    between atoms: C15_22  and  C17_24 
REMARK   11  A    between atoms: N5_33  and  O4_34 
REMARK   12  A    between atoms: N5_33  and  C21_36 
ROOT
HETATM    1  C11 UNL     1       8.405 -14.920  12.448  1.00  0.00     0.191 C 
ENDROOT
BRANCH   1   2
HETATM    2  S1  UNL     1       9.824 -14.966  13.446  1.00  0.00     0.214 S 
HETATM    3  O2  UNL     1       9.822 -13.947  14.579  1.00  0.00    -0.211 OA
HETATM    4  O3  UNL     1      11.002 -14.570  12.568  1.00  0.00    -0.211 OA
BRANCH   2   5
HETATM    5  N2  UNL     1      10.130 -16.482  14.203  1.00  0.00    -0.211 NA
HETATM    6  C10 UNL     1      11.055 -16.415  15.294  1.00  0.00     0.107 C 
HETATM    7  C9  UNL     1      10.840 -17.493  16.329  1.00  0.00     0.020 C 
HETATM    8  C8  UNL     1       9.448 -17.445  16.957  1.00  0.00    -0.012 C 
HETATM    9  C23 UNL     1       8.613 -16.547  16.061  1.00  0.00     0.020 C 
HETATM   10  C22 UNL     1       8.829 -17.014  14.634  1.00  0.00     0.107 C 
BRANCH   8  11
HETATM   11  C7  UNL     1       9.598 -16.865  18.308  1.00  0.00     0.009 C 
BRANCH  11  12
HETATM   12  C6  UNL     1       8.937 -15.583  18.629  1.00  0.00     0.043 C 
BRANCH  12  13
HETATM   13  C5  UNL     1       9.588 -14.722  19.614  1.00  0.00    -0.003 A 
HETATM   14  C2  UNL     1       9.731 -14.844  20.959  1.00  0.00     0.037 A 
HETATM   15  C1  UNL     1       9.209 -15.860  21.879  1.00  0.00     0.071 C 
HETATM   16  N1  UNL     1      10.473 -13.758  21.376  1.00  0.00    -0.265 N 
HETATM   17  O1  UNL     1      10.766 -13.023  20.371  1.00  0.00    -0.242 OA
ATOM     18  H1  UNL     1      10.747 -13.570  22.340  1.00  0.00     0.194 HD
HETATM   19  C3  UNL     1      10.265 -13.543  19.278  1.00  0.00     0.080 A 
HETATM   20  C4  UNL     1      10.382 -12.999  17.924  1.00  0.00     0.079 C 
ENDBRANCH  12  13
ENDBRANCH  11  12
ENDBRANCH   8  11
ENDBRANCH   2   5
ENDBRANCH   1   2
BRANCH   1  21
HETATM   21  C12 UNL     1       8.527 -14.101  11.162  1.00  0.00     0.073 C 
HETATM   22  C13 UNL     1       9.590 -13.079  11.345  1.00  0.00     0.042 C 
BRANCH  21  23
HETATM   23  C14 UNL     1       7.151 -13.462  11.068  1.00  0.00     0.046 C 
BRANCH  23  24
HETATM   24  C15 UNL     1       7.021 -12.036  10.837  1.00  0.00     0.052 C 
HETATM   25  C16 UNL     1       5.702 -11.621  11.590  1.00  0.00     0.018 C 
BRANCH  24  26
HETATM   26  C17 UNL     1       6.640 -11.666   9.414  1.00  0.00     0.084 A 
HETATM   27  N3  UNL     1       5.386 -11.265   9.137  1.00  0.00    -0.352 N 
HETATM   28  C18 UNL     1       5.016 -10.912   7.894  1.00  0.00     0.133 A 
ATOM     29  H3  UNL     1       4.698 -11.228   9.890  1.00  0.00     0.166 HD
HETATM   30  C19 UNL     1       5.927 -10.951   6.846  1.00  0.00     0.147 A 
HETATM   31  F1  UNL     1       5.551 -10.594   5.592  1.00  0.00    -0.203 F 
HETATM   32  C20 UNL     1       7.207 -11.363   7.144  1.00  0.00     0.133 A 
HETATM   33  N4  UNL     1       7.523 -11.705   8.406  1.00  0.00    -0.352 N 
ATOM     34  H4  UNL     1       8.476 -12.007   8.604  1.00  0.00     0.166 HD
ENDBRANCH  24  26
ENDBRANCH  23  24
ENDBRANCH  21  23
BRANCH  21  35
HETATM   35  N5  UNL     1       8.760 -15.043  10.091  1.00  0.00    -0.225 N 
BRANCH  35  36
HETATM   36  O4  UNL     1       8.461 -16.372  10.227  1.00  0.00    -0.284 OA
ATOM     37  H4  UNL     1       7.707 -16.664  10.726  1.00  0.00     0.245 HD
ENDBRANCH  35  36
BRANCH  35  38
HETATM   38  C21 UNL     1       9.281 -14.638   8.835  1.00  0.00     0.377 C 
HETATM   39  O5  UNL     1      10.448 -15.013   8.518  1.00  0.00    -0.281 OA
ENDBRANCH  35  38
ENDBRANCH  21  35
ENDBRANCH   1  21
TORSDOF 12
ENDMDL
