MODEL 2
REMARK VINA RESULT: -10.128651982      0.642      1.661
REMARK  12 active torsions:
REMARK  status: ('A' for Active; 'I' for Inactive)
REMARK    1  A    between atoms: C5_8  and  C6_9 
REMARK    2  A    between atoms: C6_9  and  C7_10 
REMARK    3  A    between atoms: C7_10  and  C8_11 
REMARK    4  A    between atoms: N2_14  and  S1_15 
REMARK    5  A    between atoms: S1_15  and  C11_18 
REMARK    6  A    between atoms: C11_18  and  C12_19 
REMARK    7  A    between atoms: C12_19  and  C14_21 
REMARK    8  A    between atoms: C12_19  and  N5_33 
REMARK    9  A    between atoms: C14_21  and  C15_22 
REMARK   10  A    between atoms: C15_22  and  C17_24 
REMARK   11  A    between atoms: N5_33  and  O4_34 
REMARK   12  A    between atoms: N5_33  and  C21_36 
ROOT
HETATM    1  C11 UNL     1       8.318 -14.917  12.056  1.00  0.00     0.191 C 
ENDROOT
BRANCH   1   2
HETATM    2  S1  UNL     1       9.758 -15.043  13.016  1.00  0.00     0.214 S 
HETATM    3  O2  UNL     1       9.919 -13.932  14.046  1.00  0.00    -0.211 OA
HETATM    4  O3  UNL     1      10.941 -14.874  12.074  1.00  0.00    -0.211 OA
BRANCH   2   5
HETATM    5  N2  UNL     1       9.912 -16.509  13.906  1.00  0.00    -0.211 NA
HETATM    6  C10 UNL     1      10.580 -16.362  15.163  1.00  0.00     0.107 C 
HETATM    7  C9  UNL     1      10.161 -17.389  16.189  1.00  0.00     0.020 C 
HETATM    8  C8  UNL     1       8.667 -17.340  16.501  1.00  0.00    -0.012 C 
HETATM    9  C23 UNL     1       8.033 -16.510  15.398  1.00  0.00     0.020 C 
HETATM   10  C22 UNL     1       8.555 -17.048  14.078  1.00  0.00     0.107 C 
BRANCH   8  11
HETATM   11  C7  UNL     1       8.516 -16.686  17.818  1.00  0.00     0.009 C 
BRANCH  11  12
HETATM   12  C6  UNL     1       9.685 -16.576  18.716  1.00  0.00     0.043 C 
BRANCH  12  13
HETATM   13  C5  UNL     1       9.944 -15.273  19.323  1.00  0.00    -0.003 A 
HETATM   14  C2  UNL     1      10.213 -14.062  18.770  1.00  0.00     0.037 A 
HETATM   15  C1  UNL     1      10.403 -13.682  17.366  1.00  0.00     0.071 C 
HETATM   16  N1  UNL     1      10.328 -13.169  19.815  1.00  0.00    -0.265 N 
HETATM   17  O1  UNL     1      10.145 -13.778  20.926  1.00  0.00    -0.242 OA
ATOM     18  H1  UNL     1      10.529 -12.174  19.718  1.00  0.00     0.194 HD
HETATM   19  C3  UNL     1       9.910 -15.047  20.704  1.00  0.00     0.080 A 
HETATM   20  C4  UNL     1       9.651 -16.072  21.717  1.00  0.00     0.079 C 
ENDBRANCH  12  13
ENDBRANCH  11  12
ENDBRANCH   8  11
ENDBRANCH   2   5
ENDBRANCH   1   2
BRANCH   1  21
HETATM   21  C12 UNL     1       8.440 -14.071  10.788  1.00  0.00     0.073 C 
HETATM   22  C13 UNL     1       9.393 -12.959  11.045  1.00  0.00     0.042 C 
BRANCH  21  23
HETATM   23  C14 UNL     1       7.019 -13.558  10.619  1.00  0.00     0.046 C 
BRANCH  23  24
HETATM   24  C15 UNL     1       6.762 -12.133  10.524  1.00  0.00     0.052 C 
HETATM   25  C16 UNL     1       5.359 -11.927  11.208  1.00  0.00     0.018 C 
BRANCH  24  26
HETATM   26  C17 UNL     1       6.445 -11.648   9.121  1.00  0.00     0.084 A 
HETATM   27  N3  UNL     1       7.382 -11.716   8.158  1.00  0.00    -0.352 N 
HETATM   28  C18 UNL     1       7.131 -11.313   6.900  1.00  0.00     0.133 A 
ATOM     29  H3  UNL     1       8.306 -12.082   8.388  1.00  0.00     0.166 HD
HETATM   30  C19 UNL     1       5.886 -10.808   6.552  1.00  0.00     0.147 A 
HETATM   31  F1  UNL     1       5.636 -10.402   5.281  1.00  0.00    -0.203 F 
HETATM   32  C20 UNL     1       4.935 -10.744   7.548  1.00  0.00     0.133 A 
HETATM   33  N4  UNL     1       5.240 -11.161   8.789  1.00  0.00    -0.352 N 
ATOM     34  H4  UNL     1       4.521 -11.105   9.511  1.00  0.00     0.166 HD
ENDBRANCH  24  26
ENDBRANCH  23  24
ENDBRANCH  21  23
BRANCH  21  35
HETATM   35  N5  UNL     1       8.821 -14.971   9.723  1.00  0.00    -0.225 N 
BRANCH  35  36
HETATM   36  O4  UNL     1       8.555 -16.313   9.789  1.00  0.00    -0.284 OA
ATOM     37  H4  UNL     1       9.055 -16.892  10.353  1.00  0.00     0.245 HD
ENDBRANCH  35  36
BRANCH  35  38
HETATM   38  C21 UNL     1       9.459 -14.511   8.543  1.00  0.00     0.377 C 
HETATM   39  O5  UNL     1      10.659 -14.856   8.335  1.00  0.00    -0.281 OA
ENDBRANCH  35  38
ENDBRANCH  21  35
ENDBRANCH   1  21
TORSDOF 12
ENDMDL
