MODEL 3
REMARK VINA RESULT: -10.059976943      2.811      4.555
REMARK  12 active torsions:
REMARK  status: ('A' for Active; 'I' for Inactive)
REMARK    1  A    between atoms: C5_8  and  C6_9 
REMARK    2  A    between atoms: C6_9  and  C7_10 
REMARK    3  A    between atoms: C7_10  and  C8_11 
REMARK    4  A    between atoms: N2_14  and  S1_15 
REMARK    5  A    between atoms: S1_15  and  C11_18 
REMARK    6  A    between atoms: C11_18  and  C12_19 
REMARK    7  A    between atoms: C12_19  and  C14_21 
REMARK    8  A    between atoms: C12_19  and  N5_33 
REMARK    9  A    between atoms: C14_21  and  C15_22 
REMARK   10  A    between atoms: C15_22  and  C17_24 
REMARK   11  A    between atoms: N5_33  and  O4_34 
REMARK   12  A    between atoms: N5_33  and  C21_36 
ROOT
HETATM    1  C11 UNL     1       7.990 -13.916   9.167  1.00  0.00     0.191 C 
ENDROOT
BRANCH   1   2
HETATM    2  S1  UNL     1       9.182 -14.414  10.325  1.00  0.00     0.214 S 
HETATM    3  O2  UNL     1      10.593 -14.522   9.759  1.00  0.00    -0.211 OA
HETATM    4  O3  UNL     1       8.826 -15.829  10.755  1.00  0.00    -0.211 OA
BRANCH   2   5
HETATM    5  N2  UNL     1       9.327 -13.392  11.704  1.00  0.00    -0.211 NA
HETATM    6  C10 UNL     1       8.749 -13.934  12.896  1.00  0.00     0.107 C 
HETATM    7  C9  UNL     1       9.403 -13.430  14.161  1.00  0.00     0.020 C 
HETATM    8  C8  UNL     1      10.893 -13.759  14.231  1.00  0.00    -0.012 C 
HETATM    9  C23 UNL     1      11.300 -14.169  12.827  1.00  0.00     0.020 C 
HETATM   10  C22 UNL     1      10.760 -13.114  11.879  1.00  0.00     0.107 C 
BRANCH   8  11
HETATM   11  C7  UNL     1      11.049 -14.879  15.183  1.00  0.00     0.009 C 
BRANCH  11  12
HETATM   12  C6  UNL     1       9.966 -15.176  16.144  1.00  0.00     0.043 C 
BRANCH  12  13
HETATM   13  C5  UNL     1       9.552 -16.572  16.277  1.00  0.00    -0.003 A 
HETATM   14  C2  UNL     1       9.040 -17.447  15.374  1.00  0.00     0.037 A 
HETATM   15  C1  UNL     1       8.666 -17.249  13.970  1.00  0.00     0.071 C 
HETATM   16  N1  UNL     1       8.874 -18.645  16.038  1.00  0.00    -0.265 N 
HETATM   17  O1  UNL     1       9.253 -18.521  17.254  1.00  0.00    -0.242 OA
ATOM     18  H1  UNL     1       8.505 -19.500  15.622  1.00  0.00     0.194 HD
HETATM   19  C3  UNL     1       9.672 -17.299  17.467  1.00  0.00     0.080 A 
HETATM   20  C4  UNL     1      10.184 -16.765  18.731  1.00  0.00     0.079 C 
ENDBRANCH  12  13
ENDBRANCH  11  12
ENDBRANCH   8  11
ENDBRANCH   2   5
ENDBRANCH   1   2
BRANCH   1  21
HETATM   21  C12 UNL     1       8.102 -12.470   8.682  1.00  0.00     0.073 C 
HETATM   22  C13 UNL     1       7.856 -11.560   9.830  1.00  0.00     0.042 C 
BRANCH  21  23
HETATM   23  C14 UNL     1       6.978 -12.397   7.662  1.00  0.00     0.046 C 
BRANCH  23  24
HETATM   24  C15 UNL     1       6.705 -11.155   6.961  1.00  0.00     0.052 C 
HETATM   25  C16 UNL     1       5.165 -10.902   7.168  1.00  0.00     0.018 C 
BRANCH  24  26
HETATM   26  C17 UNL     1       6.753 -11.268   5.448  1.00  0.00     0.084 A 
HETATM   27  N3  UNL     1       7.821 -10.805   4.773  1.00  0.00    -0.352 N 
HETATM   28  C18 UNL     1       7.907 -10.904   3.435  1.00  0.00     0.133 A 
ATOM     29  H3  UNL     1       8.584 -10.367   5.290  1.00  0.00     0.166 HD
HETATM   30  C19 UNL     1       6.886 -11.492   2.701  1.00  0.00     0.147 A 
HETATM   31  F1  UNL     1       6.976 -11.590   1.350  1.00  0.00    -0.203 F 
HETATM   32  C20 UNL     1       5.799 -11.962   3.405  1.00  0.00     0.133 A 
HETATM   33  N4  UNL     1       5.765 -11.837   4.743  1.00  0.00    -0.352 N 
ATOM     34  H4  UNL     1       4.950 -12.192   5.244  1.00  0.00     0.166 HD
ENDBRANCH  24  26
ENDBRANCH  23  24
ENDBRANCH  21  23
BRANCH  21  35
HETATM   35  N5  UNL     1       9.402 -12.339   8.063  1.00  0.00    -0.225 N 
BRANCH  35  36
HETATM   36  O4  UNL     1      10.393 -11.584   8.631  1.00  0.00    -0.284 OA
ATOM     37  H4  UNL     1      11.285 -11.607   8.305  1.00  0.00     0.245 HD
ENDBRANCH  35  36
BRANCH  35  38
HETATM   38  C21 UNL     1       9.730 -13.008   6.857  1.00  0.00     0.377 C 
HETATM   39  O5  UNL     1      10.137 -12.317   5.877  1.00  0.00    -0.281 OA
ENDBRANCH  35  38
ENDBRANCH  21  35
ENDBRANCH   1  21
TORSDOF 12
ENDMDL
