MODEL 20
REMARK VINA RESULT: -6.591043969      1.759      2.863
REMARK  5 active torsions:
REMARK  status: ('A' for Active; 'I' for Inactive)
REMARK    1  A    between atoms: N1_1  and  C1_5 
REMARK    2  A    between atoms: C1_5  and  C2_6 
REMARK    3  A    between atoms: C2_6  and  N2_7 
REMARK    4  A    between atoms: N2_7  and  S1_9 
REMARK    5  A    between atoms: S1_9  and  C3_12 
ROOT
HETATM    1  C3  UNL     1      28.781   8.372  67.251  1.00  0.00     0.092 A 
HETATM    2  C4  UNL     1      27.638   7.614  67.356  1.00  0.00     0.028 A 
HETATM    3  C5  UNL     1      26.748   7.754  68.401  1.00  0.00     0.026 A 
HETATM    4  C6  UNL     1      27.000   8.687  69.385  1.00  0.00     0.045 A 
HETATM    5 CL1  UNL     1      25.883   8.882  70.719  1.00  0.00    -0.083 Cl
HETATM    6  C7  UNL     1      28.129   9.455  69.309  1.00  0.00     0.000 A 
HETATM    7  C8  UNL     1      28.390  10.383  70.302  1.00  0.00     0.031 A 
HETATM    8  C9  UNL     1      29.535  11.161  70.250  1.00  0.00     0.088 A 
HETATM    9  N3  UNL     1      30.364  10.978  69.212  1.00  0.00    -0.374 N 
ATOM     10  H3  UNL     1      31.210  11.544  69.161  1.00  0.00     0.164 HD
HETATM   11  C10 UNL     1      30.130  10.085  68.237  1.00  0.00     0.101 A 
HETATM   12  C11 UNL     1      29.003   9.291  68.250  1.00  0.00     0.015 A 
ENDROOT
BRANCH   1  13
HETATM   13  S1  UNL     1      29.810   8.165  65.872  1.00  0.00     0.259 S 
HETATM   14  O1  UNL     1      31.257   8.173  66.336  1.00  0.00    -0.201 OA
HETATM   15  O2  UNL     1      29.656   9.376  64.988  1.00  0.00    -0.201 OA
BRANCH  13  16
HETATM   16  N2  UNL     1      29.585   6.716  65.009  1.00  0.00    -0.314 N 
ATOM     17  H2  UNL     1      28.827   6.557  64.345  1.00  0.00     0.172 HD
BRANCH  16  18
HETATM   18  C2  UNL     1      30.616   5.723  65.338  1.00  0.00     0.159 C 
BRANCH  18  19
HETATM   19  C1  UNL     1      30.176   4.938  66.577  1.00  0.00     0.249 C 
BRANCH  19  20
HETATM   20  N1  UNL     1      30.972   5.271  67.715  1.00  0.00    -0.078 N 
ATOM     21  H13 UNL     1      31.406   4.443  68.123  1.00  0.00     0.274 HD
ATOM     22  H12 UNL     1      31.817   5.774  67.445  1.00  0.00     0.274 HD
ATOM     23  H11 UNL     1      30.433   5.790  68.408  1.00  0.00     0.274 HD
ENDBRANCH  19  20
ENDBRANCH  18  19
ENDBRANCH  16  18
ENDBRANCH  13  16
ENDBRANCH   1  13
TORSDOF 5
ENDMDL
