MODEL 11
REMARK VINA RESULT: -7.041483161      1.838      2.736
REMARK  5 active torsions:
REMARK  status: ('A' for Active; 'I' for Inactive)
REMARK    1  A    between atoms: N1_1  and  C1_5 
REMARK    2  A    between atoms: C1_5  and  C2_6 
REMARK    3  A    between atoms: C2_6  and  N2_7 
REMARK    4  A    between atoms: N2_7  and  S1_9 
REMARK    5  A    between atoms: S1_9  and  C3_12 
ROOT
HETATM    1  C3  UNL     1      28.773   8.706  67.978  1.00  0.00     0.092 A 
HETATM    2  C4  UNL     1      27.854   7.803  67.496  1.00  0.00     0.028 A 
HETATM    3  C5  UNL     1      26.629   7.598  68.096  1.00  0.00     0.026 A 
HETATM    4  C6  UNL     1      26.297   8.321  69.223  1.00  0.00     0.045 A 
HETATM    5 CL1  UNL     1      24.746   8.078  69.998  1.00  0.00    -0.083 Cl
HETATM    6  C7  UNL     1      27.190   9.227  69.727  1.00  0.00     0.000 A 
HETATM    7  C8  UNL     1      26.864   9.944  70.865  1.00  0.00     0.031 A 
HETATM    8  C9  UNL     1      27.759  10.856  71.398  1.00  0.00     0.088 A 
HETATM    9  N3  UNL     1      28.936  11.009  70.773  1.00  0.00    -0.374 N 
ATOM     10  H3  UNL     1      29.605  11.677  71.155  1.00  0.00     0.164 HD
HETATM   11  C10 UNL     1      29.273  10.325  69.668  1.00  0.00     0.101 A 
HETATM   12  C11 UNL     1      28.411   9.409  69.104  1.00  0.00     0.015 A 
ENDROOT
BRANCH   1  13
HETATM   13  S1  UNL     1      30.263   8.936  67.124  1.00  0.00     0.259 S 
HETATM   14  O1  UNL     1      31.415   8.557  68.040  1.00  0.00    -0.201 OA
HETATM   15  O2  UNL     1      30.424  10.409  66.852  1.00  0.00    -0.201 OA
BRANCH  13  16
HETATM   16  N2  UNL     1      30.440   8.006  65.710  1.00  0.00    -0.314 N 
ATOM     17  H2  UNL     1      29.930   8.180  64.843  1.00  0.00     0.172 HD
BRANCH  16  18
HETATM   18  C2  UNL     1      31.416   6.924  65.891  1.00  0.00     0.159 C 
BRANCH  18  19
HETATM   19  C1  UNL     1      30.691   5.677  66.405  1.00  0.00     0.249 C 
BRANCH  19  20
HETATM   20  N1  UNL     1      30.993   5.428  67.778  1.00  0.00    -0.078 N 
ATOM     21  H13 UNL     1      31.203   6.292  68.278  1.00  0.00     0.274 HD
ATOM     22  H12 UNL     1      30.162   5.145  68.298  1.00  0.00     0.274 HD
ATOM     23  H11 UNL     1      31.746   4.746  67.876  1.00  0.00     0.274 HD
ENDBRANCH  19  20
ENDBRANCH  18  19
ENDBRANCH  16  18
ENDBRANCH  13  16
ENDBRANCH   1  13
TORSDOF 5
ENDMDL
