MODEL 14
REMARK VINA RESULT: -6.906490498      2.383      3.391
REMARK  5 active torsions:
REMARK  status: ('A' for Active; 'I' for Inactive)
REMARK    1  A    between atoms: N1_1  and  C1_5 
REMARK    2  A    between atoms: C1_5  and  C2_6 
REMARK    3  A    between atoms: C2_6  and  N2_7 
REMARK    4  A    between atoms: N2_7  and  S1_9 
REMARK    5  A    between atoms: S1_9  and  C3_12 
ROOT
HETATM    1  C3  UNL     1      28.827   8.872  68.101  1.00  0.00     0.092 A 
HETATM    2  C4  UNL     1      27.996   7.928  67.544  1.00  0.00     0.028 A 
HETATM    3  C5  UNL     1      26.760   7.621  68.076  1.00  0.00     0.026 A 
HETATM    4  C6  UNL     1      26.328   8.278  69.209  1.00  0.00     0.045 A 
HETATM    5 CL1  UNL     1      24.762   7.904  69.898  1.00  0.00    -0.083 Cl
HETATM    6  C7  UNL     1      27.132   9.222  69.786  1.00  0.00     0.000 A 
HETATM    7  C8  UNL     1      26.705   9.873  70.930  1.00  0.00     0.031 A 
HETATM    8  C9  UNL     1      27.510  10.822  71.537  1.00  0.00     0.088 A 
HETATM    9  N3  UNL     1      28.702  11.076  70.977  1.00  0.00    -0.374 N 
ATOM     10  H3  UNL     1      29.305  11.773  71.413  1.00  0.00     0.164 HD
HETATM   11  C10 UNL     1      29.136  10.457  69.867  1.00  0.00     0.101 A 
HETATM   12  C11 UNL     1      28.366   9.507  69.231  1.00  0.00     0.015 A 
ENDROOT
BRANCH   1  13
HETATM   13  S1  UNL     1      30.337   9.231  67.329  1.00  0.00     0.259 S 
HETATM   14  O1  UNL     1      31.450   8.518  68.078  1.00  0.00    -0.201 OA
HETATM   15  O2  UNL     1      30.608  10.704  67.498  1.00  0.00    -0.201 OA
BRANCH  13  16
HETATM   16  N2  UNL     1      30.455   8.745  65.703  1.00  0.00    -0.314 N 
ATOM     17  H2  UNL     1      29.679   8.769  65.041  1.00  0.00     0.172 HD
BRANCH  16  18
HETATM   18  C2  UNL     1      31.810   8.287  65.371  1.00  0.00     0.159 C 
BRANCH  18  19
HETATM   19  C1  UNL     1      32.637   9.482  64.888  1.00  0.00     0.249 C 
BRANCH  19  20
HETATM   20  N1  UNL     1      33.458  10.004  65.934  1.00  0.00    -0.078 N 
ATOM     21  H13 UNL     1      33.068  10.862  66.323  1.00  0.00     0.274 HD
ATOM     22  H12 UNL     1      33.415   9.420  66.769  1.00  0.00     0.274 HD
ATOM     23  H11 UNL     1      34.420  10.139  65.621  1.00  0.00     0.274 HD
ENDBRANCH  19  20
ENDBRANCH  18  19
ENDBRANCH  16  18
ENDBRANCH  13  16
ENDBRANCH   1  13
TORSDOF 5
ENDMDL
