MODEL 5
REMARK VINA RESULT: -10.115514790      1.636      2.112
REMARK  13 active torsions:
REMARK  status: ('A' for Active; 'I' for Inactive)
REMARK    1  A    between atoms: C2_2  and  C4_4 
REMARK    2  A    between atoms: C4_4  and  C5_5 
REMARK    3  A    between atoms: C5_5  and  N1_6 
REMARK    4  A    between atoms: C5_5  and  C23_33 
REMARK       I    between atoms: N1_6  and  C6_8 
REMARK    5  A    between atoms: C6_8  and  C7_10 
REMARK    6  A    between atoms: C7_10  and  O2_11 
REMARK    7  A    between atoms: C7_10  and  C8_13 
REMARK    8  A    between atoms: C8_13  and  N2_14 
REMARK    9  A    between atoms: C8_13  and  C9_18 
REMARK   10  A    between atoms: C9_18  and  C10_19 
REMARK   11  A    between atoms: C13_22  and  O3_23 
REMARK   12  A    between atoms: O3_23  and  C14_24 
REMARK   13  A    between atoms: C14_24  and  C15_25 
ROOT
HETATM    1  C8  UNL     1      12.549  11.743  12.575  1.00  0.00     0.225 C 
ENDROOT
BRANCH   1   2
HETATM    2  C7  UNL     1      13.430  11.969  11.361  1.00  0.00     0.240 C 
BRANCH   2   3
HETATM    3  C6  UNL     1      14.186  10.760  10.958  1.00  0.00     0.249 C 
HETATM    4  N1  UNL     1      15.555  10.658  11.283  1.00  0.00    -0.344 N 
ATOM      5  H1  UNL     1      16.008  11.418  11.791  1.00  0.00     0.163 HD
HETATM    6  O1  UNL     1      13.653   9.812  10.332  1.00  0.00    -0.271 OA
BRANCH   4   7
HETATM    7  C5  UNL     1      16.352   9.454  10.894  1.00  0.00     0.185 C 
BRANCH   7   8
HETATM    8  C4  UNL     1      17.047   9.828   9.644  1.00  0.00     0.040 C 
BRANCH   8   9
HETATM    9  C2  UNL     1      16.613   9.281   8.352  1.00  0.00    -0.020 C 
HETATM   10  C1  UNL     1      17.557   9.288   7.210  1.00  0.00     0.009 C 
HETATM   11  C3  UNL     1      16.010   7.872   8.497  1.00  0.00     0.009 C 
ENDBRANCH   8   9
ENDBRANCH   7   8
BRANCH   7  12
HETATM   12  C23 UNL     1      17.114   9.106  12.067  1.00  0.00     0.196 C 
HETATM   13  O4  UNL     1      16.530   8.967  13.197  1.00  0.00    -0.646 OA
HETATM   14  O5  UNL     1      18.474   8.892  12.096  1.00  0.00    -0.646 OA
ENDBRANCH   7  12
ENDBRANCH   4   7
ENDBRANCH   2   3
BRANCH   2  15
HETATM   15  O2  UNL     1      12.608  12.374  10.303  1.00  0.00    -0.384 OA
ATOM     16  H2  UNL     1      13.014  13.106   9.855  1.00  0.00     0.210 HD
ENDBRANCH   2  15
ENDBRANCH   1   2
BRANCH   1  17
HETATM   17  N2  UNL     1      11.259  12.333  12.284  1.00  0.00    -0.072 N 
ATOM     18  H23 UNL     1      10.975  13.032  12.971  1.00  0.00     0.274 HD
ATOM     19  H22 UNL     1      11.275  12.948  11.471  1.00  0.00     0.274 HD
ATOM     20  H21 UNL     1      10.590  11.568  12.194  1.00  0.00     0.274 HD
ENDBRANCH   1  17
BRANCH   1  21
HETATM   21  C9  UNL     1      13.158  12.359  13.775  1.00  0.00     0.074 C 
BRANCH  21  22
HETATM   22  C10 UNL     1      12.866  11.720  15.056  1.00  0.00    -0.056 A 
HETATM   23  C11 UNL     1      12.021  12.371  15.932  1.00  0.00     0.010 A 
HETATM   24  C12 UNL     1      11.677  11.861  17.161  1.00  0.00     0.037 A 
HETATM   25  C13 UNL     1      12.190  10.629  17.569  1.00  0.00     0.069 A 
HETATM   26  C21 UNL     1      13.026   9.981  16.707  1.00  0.00     0.037 A 
HETATM   27  C22 UNL     1      13.362  10.515  15.468  1.00  0.00     0.010 A 
BRANCH  25  28
HETATM   28  O3  UNL     1      11.839  10.111  18.817  1.00  0.00    -0.347 OA
BRANCH  28  29
HETATM   29  C14 UNL     1      12.680  10.173  19.935  1.00  0.00     0.214 C 
BRANCH  29  30
HETATM   30  C15 UNL     1      13.354   8.838  20.071  1.00  0.00    -0.034 A 
HETATM   31  C16 UNL     1      14.698   8.738  20.397  1.00  0.00     0.009 A 
HETATM   32  C17 UNL     1      15.291   7.499  20.513  1.00  0.00     0.001 A 
HETATM   33  C18 UNL     1      14.586   6.331  20.314  1.00  0.00     0.000 A 
HETATM   34  C19 UNL     1      13.242   6.469  19.989  1.00  0.00     0.001 A 
HETATM   35  C20 UNL     1      12.630   7.687  19.868  1.00  0.00     0.009 A 
ENDBRANCH  29  30
ENDBRANCH  28  29
ENDBRANCH  25  28
ENDBRANCH  21  22
ENDBRANCH   1  21
TORSDOF 13
ENDMDL
