MODEL 4
REMARK VINA RESULT: -10.149247490      1.399      1.773
REMARK  13 active torsions:
REMARK  status: ('A' for Active; 'I' for Inactive)
REMARK    1  A    between atoms: C2_2  and  C4_4 
REMARK    2  A    between atoms: C4_4  and  C5_5 
REMARK    3  A    between atoms: C5_5  and  N1_6 
REMARK    4  A    between atoms: C5_5  and  C23_33 
REMARK       I    between atoms: N1_6  and  C6_8 
REMARK    5  A    between atoms: C6_8  and  C7_10 
REMARK    6  A    between atoms: C7_10  and  O2_11 
REMARK    7  A    between atoms: C7_10  and  C8_13 
REMARK    8  A    between atoms: C8_13  and  N2_14 
REMARK    9  A    between atoms: C8_13  and  C9_18 
REMARK   10  A    between atoms: C9_18  and  C10_19 
REMARK   11  A    between atoms: C13_22  and  O3_23 
REMARK   12  A    between atoms: O3_23  and  C14_24 
REMARK   13  A    between atoms: C14_24  and  C15_25 
ROOT
HETATM    1  C8  UNL     1      12.570  11.772  12.559  1.00  0.00     0.225 C 
ENDROOT
BRANCH   1   2
HETATM    2  C7  UNL     1      13.608  11.862  11.459  1.00  0.00     0.240 C 
BRANCH   2   3
HETATM    3  C6  UNL     1      14.480  10.666  11.383  1.00  0.00     0.249 C 
HETATM    4  N1  UNL     1      15.400  10.545  10.320  1.00  0.00    -0.344 N 
ATOM      5  H1  UNL     1      15.453  11.281   9.616  1.00  0.00     0.163 HD
HETATM    6  O1  UNL     1      14.434   9.746  12.235  1.00  0.00    -0.271 OA
BRANCH   4   7
HETATM    7  C5  UNL     1      16.297   9.353  10.209  1.00  0.00     0.185 C 
BRANCH   7   8
HETATM    8  C4  UNL     1      16.134   8.864   8.824  1.00  0.00     0.040 C 
BRANCH   8   9
HETATM    9  C2  UNL     1      15.790   7.462   8.558  1.00  0.00    -0.020 C 
HETATM   10  C1  UNL     1      16.173   6.856   7.261  1.00  0.00     0.009 C 
HETATM   11  C3  UNL     1      16.241   6.533   9.700  1.00  0.00     0.009 C 
ENDBRANCH   8   9
ENDBRANCH   7   8
BRANCH   7  12
HETATM   12  C23 UNL     1      17.587   9.804  10.669  1.00  0.00     0.196 C 
HETATM   13  O4  UNL     1      18.068  10.915  10.254  1.00  0.00    -0.646 OA
HETATM   14  O5  UNL     1      18.393   9.129  11.558  1.00  0.00    -0.646 OA
ENDBRANCH   7  12
ENDBRANCH   4   7
ENDBRANCH   2   3
BRANCH   2  15
HETATM   15  O2  UNL     1      12.934  12.019  10.243  1.00  0.00    -0.384 OA
ATOM     16  H2  UNL     1      12.004  12.115  10.411  1.00  0.00     0.210 HD
ENDBRANCH   2  15
ENDBRANCH   1   2
BRANCH   1  17
HETATM   17  N2  UNL     1      11.358  12.386  12.056  1.00  0.00    -0.072 N 
ATOM     18  H23 UNL     1      11.419  13.402  11.995  1.00  0.00     0.274 HD
ATOM     19  H22 UNL     1      11.200  12.204  11.065  1.00  0.00     0.274 HD
ATOM     20  H21 UNL     1      10.590  12.067  12.648  1.00  0.00     0.274 HD
ENDBRANCH   1  17
BRANCH   1  21
HETATM   21  C9  UNL     1      13.050  12.463  13.777  1.00  0.00     0.074 C 
BRANCH  21  22
HETATM   22  C10 UNL     1      12.788  11.798  15.051  1.00  0.00    -0.056 A 
HETATM   23  C11 UNL     1      11.958  12.427  15.957  1.00  0.00     0.010 A 
HETATM   24  C12 UNL     1      11.642  11.890  17.183  1.00  0.00     0.037 A 
HETATM   25  C13 UNL     1      12.170  10.653  17.556  1.00  0.00     0.069 A 
HETATM   26  C21 UNL     1      12.991  10.028  16.664  1.00  0.00     0.037 A 
HETATM   27  C22 UNL     1      13.298  10.588  15.429  1.00  0.00     0.010 A 
BRANCH  25  28
HETATM   28  O3  UNL     1      11.847  10.110  18.800  1.00  0.00    -0.347 OA
BRANCH  28  29
HETATM   29  C14 UNL     1      12.700  10.179  19.909  1.00  0.00     0.214 C 
BRANCH  29  30
HETATM   30  C15 UNL     1      13.367   8.840  20.053  1.00  0.00    -0.034 A 
HETATM   31  C16 UNL     1      14.718   8.736  20.342  1.00  0.00     0.009 A 
HETATM   32  C17 UNL     1      15.305   7.494  20.467  1.00  0.00     0.001 A 
HETATM   33  C18 UNL     1      14.584   6.328  20.314  1.00  0.00     0.000 A 
HETATM   34  C19 UNL     1      13.232   6.472  20.025  1.00  0.00     0.001 A 
HETATM   35  C20 UNL     1      12.628   7.692  19.896  1.00  0.00     0.009 A 
ENDBRANCH  29  30
ENDBRANCH  28  29
ENDBRANCH  25  28
ENDBRANCH  21  22
ENDBRANCH   1  21
TORSDOF 13
ENDMDL
