MODEL 20
REMARK VINA RESULT: -8.879653989      2.676      4.789
REMARK  13 active torsions:
REMARK  status: ('A' for Active; 'I' for Inactive)
REMARK    1  A    between atoms: C2_2  and  C4_4 
REMARK    2  A    between atoms: C4_4  and  C5_5 
REMARK    3  A    between atoms: C5_5  and  N1_6 
REMARK    4  A    between atoms: C5_5  and  C23_33 
REMARK       I    between atoms: N1_6  and  C6_8 
REMARK    5  A    between atoms: C6_8  and  C7_10 
REMARK    6  A    between atoms: C7_10  and  O2_11 
REMARK    7  A    between atoms: C7_10  and  C8_13 
REMARK    8  A    between atoms: C8_13  and  N2_14 
REMARK    9  A    between atoms: C8_13  and  C9_18 
REMARK   10  A    between atoms: C9_18  and  C10_19 
REMARK   11  A    between atoms: C13_22  and  O3_23 
REMARK   12  A    between atoms: O3_23  and  C14_24 
REMARK   13  A    between atoms: C14_24  and  C15_25 
ROOT
HETATM    1  C8  UNL     1      16.500   9.683  10.661  1.00  0.00     0.225 C 
ENDROOT
BRANCH   1   2
HETATM    2  C7  UNL     1      17.355   9.541   9.417  1.00  0.00     0.240 C 
BRANCH   2   3
HETATM    3  C6  UNL     1      17.487   8.138   8.959  1.00  0.00     0.249 C 
HETATM    4  N1  UNL     1      16.538   7.612   8.058  1.00  0.00    -0.344 N 
ATOM      5  H1  UNL     1      15.773   8.202   7.733  1.00  0.00     0.163 HD
HETATM    6  O1  UNL     1      18.418   7.390   9.344  1.00  0.00    -0.271 OA
BRANCH   4   7
HETATM    7  C5  UNL     1      16.638   6.200   7.572  1.00  0.00     0.185 C 
BRANCH   7   8
HETATM    8  C4  UNL     1      15.659   5.437   8.375  1.00  0.00     0.040 C 
BRANCH   8   9
HETATM    9  C2  UNL     1      16.096   4.338   9.244  1.00  0.00    -0.020 C 
HETATM   10  C1  UNL     1      17.282   3.538   8.859  1.00  0.00     0.009 C 
HETATM   11  C3  UNL     1      16.247   4.788  10.710  1.00  0.00     0.009 C 
ENDBRANCH   8   9
ENDBRANCH   7   8
BRANCH   7  12
HETATM   12  C23 UNL     1      16.492   6.279   6.140  1.00  0.00     0.196 C 
HETATM   13  O4  UNL     1      16.143   7.380   5.587  1.00  0.00    -0.646 OA
HETATM   14  O5  UNL     1      16.705   5.241   5.262  1.00  0.00    -0.646 OA
ENDBRANCH   7  12
ENDBRANCH   4   7
ENDBRANCH   2   3
BRANCH   2  15
HETATM   15  O2  UNL     1      16.768  10.305   8.402  1.00  0.00    -0.384 OA
ATOM     16  H2  UNL     1      17.043  11.210   8.492  1.00  0.00     0.210 HD
ENDBRANCH   2  15
ENDBRANCH   1   2
BRANCH   1  17
HETATM   17  N2  UNL     1      16.485   8.394  11.320  1.00  0.00    -0.072 N 
ATOM     18  H23 UNL     1      15.555   8.115  11.633  1.00  0.00     0.274 HD
ATOM     19  H22 UNL     1      16.647   7.616  10.681  1.00  0.00     0.274 HD
ATOM     20  H21 UNL     1      17.165   8.435  12.079  1.00  0.00     0.274 HD
ENDBRANCH   1  17
BRANCH   1  21
HETATM   21  C9  UNL     1      15.131  10.111  10.298  1.00  0.00     0.074 C 
BRANCH  21  22
HETATM   22  C10 UNL     1      14.311  10.658  11.376  1.00  0.00    -0.056 A 
HETATM   23  C11 UNL     1      14.663  10.364  12.678  1.00  0.00     0.010 A 
HETATM   24  C12 UNL     1      13.965  10.828  13.767  1.00  0.00     0.037 A 
HETATM   25  C13 UNL     1      12.842  11.636  13.579  1.00  0.00     0.069 A 
HETATM   26  C21 UNL     1      12.490  11.929  12.295  1.00  0.00     0.037 A 
HETATM   27  C22 UNL     1      13.210  11.450  11.206  1.00  0.00     0.010 A 
BRANCH  25  28
HETATM   28  O3  UNL     1      12.135  12.107  14.687  1.00  0.00    -0.347 OA
BRANCH  28  29
HETATM   29  C14 UNL     1      12.759  12.555  15.858  1.00  0.00     0.214 C 
BRANCH  29  30
HETATM   30  C15 UNL     1      12.446  11.567  16.946  1.00  0.00    -0.034 A 
HETATM   31  C16 UNL     1      13.302  10.515  17.232  1.00  0.00     0.009 A 
HETATM   32  C17 UNL     1      12.988   9.622  18.236  1.00  0.00     0.001 A 
HETATM   33  C18 UNL     1      11.834   9.738  18.980  1.00  0.00     0.000 A 
HETATM   34  C19 UNL     1      11.001  10.805  18.666  1.00  0.00     0.001 A 
HETATM   35  C20 UNL     1      11.289  11.703  17.675  1.00  0.00     0.009 A 
ENDBRANCH  29  30
ENDBRANCH  28  29
ENDBRANCH  25  28
ENDBRANCH  21  22
ENDBRANCH   1  21
TORSDOF 13
ENDMDL
