MODEL 1
REMARK VINA RESULT: -10.290824646      0.000      0.000
REMARK  13 active torsions:
REMARK  status: ('A' for Active; 'I' for Inactive)
REMARK    1  A    between atoms: C2_2  and  C4_4 
REMARK    2  A    between atoms: C4_4  and  C5_5 
REMARK    3  A    between atoms: C5_5  and  N1_6 
REMARK    4  A    between atoms: C5_5  and  C23_33 
REMARK       I    between atoms: N1_6  and  C6_8 
REMARK    5  A    between atoms: C6_8  and  C7_10 
REMARK    6  A    between atoms: C7_10  and  O2_11 
REMARK    7  A    between atoms: C7_10  and  C8_13 
REMARK    8  A    between atoms: C8_13  and  N2_14 
REMARK    9  A    between atoms: C8_13  and  C9_18 
REMARK   10  A    between atoms: C9_18  and  C10_19 
REMARK   11  A    between atoms: C13_22  and  O3_23 
REMARK   12  A    between atoms: O3_23  and  C14_24 
REMARK   13  A    between atoms: C14_24  and  C15_25 
ROOT
HETATM    1  C8  UNL     1      12.544  11.836  12.504  1.00  0.00     0.225 C 
ENDROOT
BRANCH   1   2
HETATM    2  C7  UNL     1      13.591  11.921  11.412  1.00  0.00     0.240 C 
BRANCH   2   3
HETATM    3  C6  UNL     1      14.448  10.714  11.333  1.00  0.00     0.249 C 
HETATM    4  N1  UNL     1      15.397  10.605  10.295  1.00  0.00    -0.344 N 
ATOM      5  H1  UNL     1      15.482  11.357   9.611  1.00  0.00     0.163 HD
HETATM    6  O1  UNL     1      14.363   9.775  12.160  1.00  0.00    -0.271 OA
BRANCH   4   7
HETATM    7  C5  UNL     1      16.280   9.403  10.182  1.00  0.00     0.185 C 
BRANCH   7   8
HETATM    8  C4  UNL     1      16.127   8.931   8.790  1.00  0.00     0.040 C 
BRANCH   8   9
HETATM    9  C2  UNL     1      15.782   7.532   8.505  1.00  0.00    -0.020 C 
HETATM   10  C1  UNL     1      16.218   6.926   7.225  1.00  0.00     0.009 C 
HETATM   11  C3  UNL     1      16.173   6.597   9.664  1.00  0.00     0.009 C 
ENDBRANCH   8   9
ENDBRANCH   7   8
BRANCH   7  12
HETATM   12  C23 UNL     1      17.571   9.833  10.661  1.00  0.00     0.196 C 
HETATM   13  O4  UNL     1      18.046  10.967  10.306  1.00  0.00    -0.646 OA
HETATM   14  O5  UNL     1      18.382   9.113  11.508  1.00  0.00    -0.646 OA
ENDBRANCH   7  12
ENDBRANCH   4   7
ENDBRANCH   2   3
BRANCH   2  15
HETATM   15  O2  UNL     1      12.928  12.096  10.193  1.00  0.00    -0.384 OA
ATOM     16  H2  UNL     1      12.065  12.459  10.355  1.00  0.00     0.210 HD
ENDBRANCH   2  15
ENDBRANCH   1   2
BRANCH   1  17
HETATM   17  N2  UNL     1      11.334  12.442  11.986  1.00  0.00    -0.072 N 
ATOM     18  H23 UNL     1      11.446  13.431  11.763  1.00  0.00     0.274 HD
ATOM     19  H22 UNL     1      11.097  12.121  11.048  1.00  0.00     0.274 HD
ATOM     20  H21 UNL     1      10.594  12.268  12.667  1.00  0.00     0.274 HD
ENDBRANCH   1  17
BRANCH   1  21
HETATM   21  C9  UNL     1      13.010  12.537  13.721  1.00  0.00     0.074 C 
BRANCH  21  22
HETATM   22  C10 UNL     1      12.817  11.842  14.991  1.00  0.00    -0.056 A 
HETATM   23  C11 UNL     1      12.038  12.449  15.956  1.00  0.00     0.010 A 
HETATM   24  C12 UNL     1      11.788  11.883  17.183  1.00  0.00     0.037 A 
HETATM   25  C13 UNL     1      12.332  10.637  17.497  1.00  0.00     0.069 A 
HETATM   26  C21 UNL     1      13.103  10.032  16.547  1.00  0.00     0.037 A 
HETATM   27  C22 UNL     1      13.344  10.622  15.311  1.00  0.00     0.010 A 
BRANCH  25  28
HETATM   28  O3  UNL     1      12.076  10.063  18.743  1.00  0.00    -0.347 OA
BRANCH  28  29
HETATM   29  C14 UNL     1      10.949  10.378  19.512  1.00  0.00     0.214 C 
BRANCH  29  30
HETATM   30  C15 UNL     1      11.003   9.545  20.761  1.00  0.00    -0.034 A 
HETATM   31  C16 UNL     1      10.684  10.079  21.999  1.00  0.00     0.009 A 
HETATM   32  C17 UNL     1      10.745   9.291  23.129  1.00  0.00     0.001 A 
HETATM   33  C18 UNL     1      11.116   7.964  23.074  1.00  0.00     0.000 A 
HETATM   34  C19 UNL     1      11.428   7.463  21.816  1.00  0.00     0.001 A 
HETATM   35  C20 UNL     1      11.376   8.224  20.681  1.00  0.00     0.009 A 
ENDBRANCH  29  30
ENDBRANCH  28  29
ENDBRANCH  25  28
ENDBRANCH  21  22
ENDBRANCH   1  21
TORSDOF 13
ENDMDL
