MODEL 15
REMARK VINA RESULT: -9.096592389      3.351      5.422
REMARK  13 active torsions:
REMARK  status: ('A' for Active; 'I' for Inactive)
REMARK    1  A    between atoms: C2_2  and  C4_4 
REMARK    2  A    between atoms: C4_4  and  C5_5 
REMARK    3  A    between atoms: C5_5  and  N1_6 
REMARK    4  A    between atoms: C5_5  and  C23_33 
REMARK       I    between atoms: N1_6  and  C6_8 
REMARK    5  A    between atoms: C6_8  and  C7_10 
REMARK    6  A    between atoms: C7_10  and  O2_11 
REMARK    7  A    between atoms: C7_10  and  C8_13 
REMARK    8  A    between atoms: C8_13  and  N2_14 
REMARK    9  A    between atoms: C8_13  and  C9_18 
REMARK   10  A    between atoms: C9_18  and  C10_19 
REMARK   11  A    between atoms: C13_22  and  O3_23 
REMARK   12  A    between atoms: O3_23  and  C14_24 
REMARK   13  A    between atoms: C14_24  and  C15_25 
ROOT
HETATM    1  C8  UNL     1      12.691  11.585  12.515  1.00  0.00     0.225 C 
ENDROOT
BRANCH   1   2
HETATM    2  C7  UNL     1      13.502  11.890  11.272  1.00  0.00     0.240 C 
BRANCH   2   3
HETATM    3  C6  UNL     1      14.237  10.712  10.753  1.00  0.00     0.249 C 
HETATM    4  N1  UNL     1      15.647  10.707  10.784  1.00  0.00    -0.344 N 
ATOM      5  H1  UNL     1      16.144  11.513  11.163  1.00  0.00     0.163 HD
HETATM    6  O1  UNL     1      13.651   9.709  10.281  1.00  0.00    -0.271 OA
BRANCH   4   7
HETATM    7  C5  UNL     1      16.425   9.536  10.271  1.00  0.00     0.185 C 
BRANCH   7   8
HETATM    8  C4  UNL     1      16.396   9.660   8.798  1.00  0.00     0.040 C 
BRANCH   8   9
HETATM    9  C2  UNL     1      16.553   8.477   7.942  1.00  0.00    -0.020 C 
HETATM   10  C1  UNL     1      17.915   8.008   7.597  1.00  0.00     0.009 C 
HETATM   11  C3  UNL     1      15.725   7.283   8.455  1.00  0.00     0.009 C 
ENDBRANCH   8   9
ENDBRANCH   7   8
BRANCH   7  12
HETATM   12  C23 UNL     1      17.683   9.576  10.974  1.00  0.00     0.196 C 
HETATM   13  O4  UNL     1      18.727  10.044  10.402  1.00  0.00    -0.646 OA
HETATM   14  O5  UNL     1      17.883   9.146  12.266  1.00  0.00    -0.646 OA
ENDBRANCH   7  12
ENDBRANCH   4   7
ENDBRANCH   2   3
BRANCH   2  15
HETATM   15  O2  UNL     1      12.623  12.355  10.287  1.00  0.00    -0.384 OA
ATOM     16  H2  UNL     1      13.064  13.010   9.759  1.00  0.00     0.210 HD
ENDBRANCH   2  15
ENDBRANCH   1   2
BRANCH   1  17
HETATM   17  N2  UNL     1      11.638  12.577  12.594  1.00  0.00    -0.072 N 
ATOM     18  H23 UNL     1      11.809  13.390  12.002  1.00  0.00     0.274 HD
ATOM     19  H22 UNL     1      10.770  12.274  12.152  1.00  0.00     0.274 HD
ATOM     20  H21 UNL     1      11.522  12.817  13.578  1.00  0.00     0.274 HD
ENDBRANCH   1  17
BRANCH   1  21
HETATM   21  C9  UNL     1      13.553  11.628  13.717  1.00  0.00     0.074 C 
BRANCH  21  22
HETATM   22  C10 UNL     1      13.817  10.353  14.378  1.00  0.00    -0.056 A 
HETATM   23  C11 UNL     1      14.674   9.463  13.762  1.00  0.00     0.010 A 
HETATM   24  C12 UNL     1      14.995   8.238  14.296  1.00  0.00     0.037 A 
HETATM   25  C13 UNL     1      14.443   7.848  15.517  1.00  0.00     0.069 A 
HETATM   26  C21 UNL     1      13.595   8.723  16.130  1.00  0.00     0.037 A 
HETATM   27  C22 UNL     1      13.284   9.958  15.573  1.00  0.00     0.010 A 
BRANCH  25  28
HETATM   28  O3  UNL     1      14.770   6.603  16.059  1.00  0.00    -0.347 OA
BRANCH  28  29
HETATM   29  C14 UNL     1      15.958   5.926  15.755  1.00  0.00     0.214 C 
BRANCH  29  30
HETATM   30  C15 UNL     1      15.726   5.147  14.491  1.00  0.00    -0.034 A 
HETATM   31  C16 UNL     1      16.679   5.103  13.486  1.00  0.00     0.009 A 
HETATM   32  C17 UNL     1      16.438   4.381  12.335  1.00  0.00     0.001 A 
HETATM   33  C18 UNL     1      15.263   3.687  12.142  1.00  0.00     0.000 A 
HETATM   34  C19 UNL     1      14.331   3.754  13.171  1.00  0.00     0.001 A 
HETATM   35  C20 UNL     1      14.546   4.463  14.321  1.00  0.00     0.009 A 
ENDBRANCH  29  30
ENDBRANCH  28  29
ENDBRANCH  25  28
ENDBRANCH  21  22
ENDBRANCH   1  21
TORSDOF 13
ENDMDL
