MODEL 3
REMARK VINA RESULT: -10.158372820      1.204      1.578
REMARK  13 active torsions:
REMARK  status: ('A' for Active; 'I' for Inactive)
REMARK    1  A    between atoms: C2_2  and  C4_4 
REMARK    2  A    between atoms: C4_4  and  C5_5 
REMARK    3  A    between atoms: C5_5  and  N1_6 
REMARK    4  A    between atoms: C5_5  and  C23_33 
REMARK       I    between atoms: N1_6  and  C6_8 
REMARK    5  A    between atoms: C6_8  and  C7_10 
REMARK    6  A    between atoms: C7_10  and  O2_11 
REMARK    7  A    between atoms: C7_10  and  C8_13 
REMARK    8  A    between atoms: C8_13  and  N2_14 
REMARK    9  A    between atoms: C8_13  and  C9_18 
REMARK   10  A    between atoms: C9_18  and  C10_19 
REMARK   11  A    between atoms: C13_22  and  O3_23 
REMARK   12  A    between atoms: O3_23  and  C14_24 
REMARK   13  A    between atoms: C14_24  and  C15_25 
ROOT
HETATM    1  C8  UNL     1      12.503  11.823  12.580  1.00  0.00     0.225 C 
ENDROOT
BRANCH   1   2
HETATM    2  C7  UNL     1      13.412  12.070  11.392  1.00  0.00     0.240 C 
BRANCH   2   3
HETATM    3  C6  UNL     1      14.274  10.909  11.068  1.00  0.00     0.249 C 
HETATM    4  N1  UNL     1      15.525  10.775  11.707  1.00  0.00    -0.344 N 
ATOM      5  H1  UNL     1      15.821  11.478  12.383  1.00  0.00     0.163 HD
HETATM    6  O1  UNL     1      13.934  10.031  10.239  1.00  0.00    -0.271 OA
BRANCH   4   7
HETATM    7  C5  UNL     1      16.423   9.617  11.407  1.00  0.00     0.185 C 
BRANCH   7   8
HETATM    8  C4  UNL     1      17.486  10.158  10.533  1.00  0.00     0.040 C 
BRANCH   8   9
HETATM    9  C2  UNL     1      17.853   9.476   9.286  1.00  0.00    -0.020 C 
HETATM   10  C1  UNL     1      17.744   8.000   9.210  1.00  0.00     0.009 C 
HETATM   11  C3  UNL     1      17.152  10.097   8.063  1.00  0.00     0.009 C 
ENDBRANCH   8   9
ENDBRANCH   7   8
BRANCH   7  12
HETATM   12  C23 UNL     1      16.760   9.054  12.691  1.00  0.00     0.196 C 
HETATM   13  O4  UNL     1      15.841   8.791  13.541  1.00  0.00    -0.646 OA
HETATM   14  O5  UNL     1      18.034   8.750  13.114  1.00  0.00    -0.646 OA
ENDBRANCH   7  12
ENDBRANCH   4   7
ENDBRANCH   2   3
BRANCH   2  15
HETATM   15  O2  UNL     1      12.606  12.369  10.288  1.00  0.00    -0.384 OA
ATOM     16  H2  UNL     1      12.341  11.560   9.866  1.00  0.00     0.210 HD
ENDBRANCH   2  15
ENDBRANCH   1   2
BRANCH   1  17
HETATM   17  N2  UNL     1      11.194  12.335  12.232  1.00  0.00    -0.072 N 
ATOM     18  H23 UNL     1      11.233  13.175  11.655  1.00  0.00     0.274 HD
ATOM     19  H22 UNL     1      10.698  11.743  11.567  1.00  0.00     0.274 HD
ATOM     20  H21 UNL     1      10.682  12.473  13.103  1.00  0.00     0.274 HD
ENDBRANCH   1  17
BRANCH   1  21
HETATM   21  C9  UNL     1      13.035  12.499  13.785  1.00  0.00     0.074 C 
BRANCH  21  22
HETATM   22  C10 UNL     1      12.841  11.811  15.058  1.00  0.00    -0.056 A 
HETATM   23  C11 UNL     1      12.091  12.440  16.032  1.00  0.00     0.010 A 
HETATM   24  C12 UNL     1      11.843  11.883  17.265  1.00  0.00     0.037 A 
HETATM   25  C13 UNL     1      12.360  10.624  17.574  1.00  0.00     0.069 A 
HETATM   26  C21 UNL     1      13.102   9.998  16.615  1.00  0.00     0.037 A 
HETATM   27  C22 UNL     1      13.341  10.579  15.375  1.00  0.00     0.010 A 
BRANCH  25  28
HETATM   28  O3  UNL     1      12.106  10.060  18.825  1.00  0.00    -0.347 OA
BRANCH  28  29
HETATM   29  C14 UNL     1      11.015  10.427  19.622  1.00  0.00     0.214 C 
BRANCH  29  30
HETATM   30  C15 UNL     1      11.033   9.557  20.847  1.00  0.00    -0.034 A 
HETATM   31  C16 UNL     1      10.698  10.060  22.094  1.00  0.00     0.009 A 
HETATM   32  C17 UNL     1      10.725   9.238  23.201  1.00  0.00     0.001 A 
HETATM   33  C18 UNL     1      11.078   7.908  23.114  1.00  0.00     0.000 A 
HETATM   34  C19 UNL     1      11.407   7.439  21.847  1.00  0.00     0.001 A 
HETATM   35  C20 UNL     1      11.388   8.234  20.734  1.00  0.00     0.009 A 
ENDBRANCH  29  30
ENDBRANCH  28  29
ENDBRANCH  25  28
ENDBRANCH  21  22
ENDBRANCH   1  21
TORSDOF 13
ENDMDL
