MODEL 2
REMARK VINA RESULT: -10.205366676      0.862      1.454
REMARK  13 active torsions:
REMARK  status: ('A' for Active; 'I' for Inactive)
REMARK    1  A    between atoms: C2_2  and  C4_4 
REMARK    2  A    between atoms: C4_4  and  C5_5 
REMARK    3  A    between atoms: C5_5  and  N1_6 
REMARK    4  A    between atoms: C5_5  and  C23_33 
REMARK       I    between atoms: N1_6  and  C6_8 
REMARK    5  A    between atoms: C6_8  and  C7_10 
REMARK    6  A    between atoms: C7_10  and  O2_11 
REMARK    7  A    between atoms: C7_10  and  C8_13 
REMARK    8  A    between atoms: C8_13  and  N2_14 
REMARK    9  A    between atoms: C8_13  and  C9_18 
REMARK   10  A    between atoms: C9_18  and  C10_19 
REMARK   11  A    between atoms: C13_22  and  O3_23 
REMARK   12  A    between atoms: O3_23  and  C14_24 
REMARK   13  A    between atoms: C14_24  and  C15_25 
ROOT
HETATM    1  C8  UNL     1      12.555  11.769  12.562  1.00  0.00     0.225 C 
ENDROOT
BRANCH   1   2
HETATM    2  C7  UNL     1      13.414  11.988  11.333  1.00  0.00     0.240 C 
BRANCH   2   3
HETATM    3  C6  UNL     1      14.167  10.778  10.926  1.00  0.00     0.249 C 
HETATM    4  N1  UNL     1      15.525  10.654  11.284  1.00  0.00    -0.344 N 
ATOM      5  H1  UNL     1      15.974  11.398  11.818  1.00  0.00     0.163 HD
HETATM    6  O1  UNL     1      13.640   9.848  10.268  1.00  0.00    -0.271 OA
BRANCH   4   7
HETATM    7  C5  UNL     1      16.319   9.447  10.893  1.00  0.00     0.185 C 
BRANCH   7   8
HETATM    8  C4  UNL     1      17.031   9.828   9.655  1.00  0.00     0.040 C 
BRANCH   8   9
HETATM    9  C2  UNL     1      16.624   9.277   8.356  1.00  0.00    -0.020 C 
HETATM   10  C1  UNL     1      17.588   9.291   7.230  1.00  0.00     0.009 C 
HETATM   11  C3  UNL     1      16.029   7.863   8.492  1.00  0.00     0.009 C 
ENDBRANCH   8   9
ENDBRANCH   7   8
BRANCH   7  12
HETATM   12  C23 UNL     1      17.065   9.083  12.072  1.00  0.00     0.196 C 
HETATM   13  O4  UNL     1      16.458   8.864  13.177  1.00  0.00    -0.646 OA
HETATM   14  O5  UNL     1      18.432   8.935  12.131  1.00  0.00    -0.646 OA
ENDBRANCH   7  12
ENDBRANCH   4   7
ENDBRANCH   2   3
BRANCH   2  15
HETATM   15  O2  UNL     1      12.574  12.382  10.286  1.00  0.00    -0.384 OA
ATOM     16  H2  UNL     1      13.101  12.720   9.571  1.00  0.00     0.210 HD
ENDBRANCH   2  15
ENDBRANCH   1   2
BRANCH   1  17
HETATM   17  N2  UNL     1      11.240  12.298  12.266  1.00  0.00    -0.072 N 
ATOM     18  H23 UNL     1      11.191  13.314  12.342  1.00  0.00     0.274 HD
ATOM     19  H22 UNL     1      10.995  12.229  11.279  1.00  0.00     0.274 HD
ATOM     20  H21 UNL     1      10.577  11.820  12.877  1.00  0.00     0.274 HD
ENDBRANCH   1  17
BRANCH   1  21
HETATM   21  C9  UNL     1      13.151  12.450  13.734  1.00  0.00     0.074 C 
BRANCH  21  22
HETATM   22  C10 UNL     1      12.819  11.900  15.046  1.00  0.00    -0.056 A 
HETATM   23  C11 UNL     1      13.288  10.641  15.364  1.00  0.00     0.010 A 
HETATM   24  C12 UNL     1      13.039  10.030  16.570  1.00  0.00     0.037 A 
HETATM   25  C13 UNL     1      12.280  10.690  17.538  1.00  0.00     0.069 A 
HETATM   26  C21 UNL     1      11.815  11.934  17.229  1.00  0.00     0.037 A 
HETATM   27  C22 UNL     1      12.078  12.534  16.003  1.00  0.00     0.010 A 
BRANCH  25  28
HETATM   28  O3  UNL     1      12.029  10.068  18.762  1.00  0.00    -0.347 OA
BRANCH  28  29
HETATM   29  C14 UNL     1      10.940  10.398  19.578  1.00  0.00     0.214 C 
BRANCH  29  30
HETATM   30  C15 UNL     1      11.004   9.522  20.798  1.00  0.00    -0.034 A 
HETATM   31  C16 UNL     1      10.715  10.020  22.058  1.00  0.00     0.009 A 
HETATM   32  C17 UNL     1      10.783   9.193  23.161  1.00  0.00     0.001 A 
HETATM   33  C18 UNL     1      11.134   7.864  23.055  1.00  0.00     0.000 A 
HETATM   34  C19 UNL     1      11.416   7.400  21.775  1.00  0.00     0.001 A 
HETATM   35  C20 UNL     1      11.355   8.200  20.667  1.00  0.00     0.009 A 
ENDBRANCH  29  30
ENDBRANCH  28  29
ENDBRANCH  25  28
ENDBRANCH  21  22
ENDBRANCH   1  21
TORSDOF 13
ENDMDL
