MODEL 10
REMARK VINA RESULT: -10.809625708      1.818      2.442
REMARK  7 active torsions:
REMARK  status: ('A' for Active; 'I' for Inactive)
REMARK    1  A    between atoms: C1_2  and  C2_3 
REMARK       I    between atoms: C1_2  and  N5_36 
REMARK    2  A    between atoms: C2_3  and  C3_4 
REMARK    3  A    between atoms: C3_4  and  C4_5 
REMARK    4  A    between atoms: C12_15  and  C13_16 
REMARK    5  A    between atoms: N3_20  and  C15_21 
REMARK    6  A    between atoms: N5_36  and  C26_38 
REMARK    7  A    between atoms: C26_38  and  C27_39 
ROOT
HETATM    1  C4  UNL     1      -7.543  -3.284 -12.487  1.00  0.00    -0.057 A 
HETATM    2  C5  UNL     1      -8.877  -3.564 -12.645  1.00  0.00     0.008 A 
HETATM    3  C6  UNL     1      -9.193  -4.708 -13.392  1.00  0.00     0.013 A 
HETATM    4  C7  UNL     1      -8.265  -5.527 -13.952  1.00  0.00    -0.022 A 
HETATM    5  C8  UNL     1      -8.797  -6.602 -14.648  1.00  0.00     0.014 C 
HETATM    6  C9  UNL     1      -8.202  -7.474 -15.526  1.00  0.00     0.031 C 
HETATM    7  C10 UNL     1      -6.863  -7.625 -15.815  1.00  0.00     0.046 A 
HETATM    8  N1  UNL     1      -6.609  -8.550 -16.742  1.00  0.00    -0.364 N 
ATOM      9  H1  UNL     1      -7.374  -9.073 -17.168  1.00  0.00     0.165 HD
HETATM   10  C11 UNL     1      -5.345  -8.789 -17.109  1.00  0.00     0.100 A 
HETATM   11  C12 UNL     1      -4.246  -8.110 -16.566  1.00  0.00    -0.007 A 
HETATM   12  C21 UNL     1      -4.509  -7.157 -15.612  1.00  0.00     0.031 A 
HETATM   13  C22 UNL     1      -5.820  -6.925 -15.247  1.00  0.00     0.042 A 
HETATM   14  C23 UNL     1      -5.854  -5.929 -14.271  1.00  0.00     0.195 C 
HETATM   15  O2  UNL     1      -4.737  -5.641 -13.769  1.00  0.00    -0.287 OA
HETATM   16  C24 UNL     1      -6.921  -5.220 -13.779  1.00  0.00     0.026 A 
HETATM   17  C25 UNL     1      -6.555  -4.104 -13.050  1.00  0.00     0.023 A 
ENDROOT
BRANCH   1  18
HETATM   18  C3  UNL     1      -7.103  -2.127 -11.687  1.00  0.00     0.048 C 
BRANCH  18  19
HETATM   19  C2  UNL     1      -6.479  -1.054 -12.518  1.00  0.00     0.107 C 
BRANCH  19  20
HETATM   20  C1  UNL     1      -5.100  -1.305 -12.938  1.00  0.00     0.218 C 
HETATM   21  O1  UNL     1      -4.334  -2.098 -12.366  1.00  0.00    -0.274 OA
HETATM   22  N5  UNL     1      -4.564  -0.603 -14.090  1.00  0.00    -0.355 N 
ATOM     23  H5  UNL     1      -5.144   0.062 -14.600  1.00  0.00     0.162 HD
BRANCH  22  24
HETATM   24  C26 UNL     1      -3.199  -0.852 -14.509  1.00  0.00     0.179 C 
BRANCH  24  25
HETATM   25  C27 UNL     1      -2.475   0.451 -14.362  1.00  0.00     0.026 A 
HETATM   26  C28 UNL     1      -2.644   1.216 -13.254  1.00  0.00     0.027 A 
HETATM   27  C29 UNL     1      -1.949   2.405 -13.154  1.00  0.00     0.003 A 
HETATM   28  C30 UNL     1      -1.107   2.798 -14.163  1.00  0.00     0.017 A 
HETATM   29  C31 UNL     1      -0.962   1.980 -15.287  1.00  0.00     0.088 A 
HETATM   30  N6  UNL     1      -1.646   0.839 -15.352  1.00  0.00    -0.368 N 
ATOM     31  H6  UNL     1      -1.539   0.243 -16.172  1.00  0.00     0.165 HD
ENDBRANCH  24  25
ENDBRANCH  22  24
ENDBRANCH  19  20
ENDBRANCH  18  19
ENDBRANCH   1  18
BRANCH  11  32
HETATM   32  C13 UNL     1      -2.892  -8.419 -17.012  1.00  0.00     0.009 A 
HETATM   33  C14 UNL     1      -2.567  -8.782 -18.301  1.00  0.00     0.121 A 
HETATM   34  N2  UNL     1      -1.237  -8.981 -18.327  1.00  0.00    -0.309 N 
HETATM   35  N3  UNL     1      -0.686  -8.771 -17.143  1.00  0.00    -0.298 N 
ATOM     36  H2  UNL     1      -0.717  -9.261 -19.159  1.00  0.00     0.186 HD
HETATM   37  C20 UNL     1      -1.705  -8.423 -16.325  1.00  0.00     0.124 A 
BRANCH  35  38
HETATM   38  C15 UNL     1       0.739  -8.892 -16.799  1.00  0.00     0.110 C 
HETATM   39  C16 UNL     1       1.608  -8.418 -17.934  1.00  0.00     0.055 C 
HETATM   40  C17 UNL     1       2.135  -7.013 -17.734  1.00  0.00     0.234 C 
HETATM   41  N4  UNL     1       2.968  -6.920 -16.549  1.00  0.00    -0.075 N 
HETATM   42  C18 UNL     1       2.505  -7.814 -15.504  1.00  0.00     0.234 C 
ATOM     43  H42 UNL     1       3.950  -7.080 -16.770  1.00  0.00     0.277 HD
ATOM     44  H41 UNL     1       3.035  -5.958 -16.215  1.00  0.00     0.277 HD
HETATM   45  C19 UNL     1       1.000  -7.995 -15.609  1.00  0.00     0.055 C 
ENDBRANCH  35  38
ENDBRANCH  11  32
TORSDOF 7
ENDMDL
