MODEL 16
REMARK VINA RESULT: -10.209056316      2.691      6.847
REMARK  7 active torsions:
REMARK  status: ('A' for Active; 'I' for Inactive)
REMARK    1  A    between atoms: C1_2  and  C2_3 
REMARK       I    between atoms: C1_2  and  N5_36 
REMARK    2  A    between atoms: C2_3  and  C3_4 
REMARK    3  A    between atoms: C3_4  and  C4_5 
REMARK    4  A    between atoms: C12_15  and  C13_16 
REMARK    5  A    between atoms: N3_20  and  C15_21 
REMARK    6  A    between atoms: N5_36  and  C26_38 
REMARK    7  A    between atoms: C26_38  and  C27_39 
ROOT
HETATM    1  C4  UNL     1      -5.468  -0.350 -12.980  1.00  0.00    -0.057 A 
HETATM    2  C5  UNL     1      -5.037   0.871 -12.526  1.00  0.00     0.008 A 
HETATM    3  C6  UNL     1      -3.680   1.169 -12.718  1.00  0.00     0.013 A 
HETATM    4  C7  UNL     1      -2.797   0.325 -13.315  1.00  0.00    -0.022 A 
HETATM    5  C8  UNL     1      -1.505   0.821 -13.403  1.00  0.00     0.014 C 
HETATM    6  C9  UNL     1      -0.327   0.182 -13.706  1.00  0.00     0.031 C 
HETATM    7  C10 UNL     1      -0.141  -1.097 -14.183  1.00  0.00     0.046 A 
HETATM    8  N1  UNL     1       1.140  -1.432 -14.352  1.00  0.00    -0.364 N 
ATOM      9  H1  UNL     1       1.878  -0.763 -14.133  1.00  0.00     0.165 HD
HETATM   10  C11 UNL     1       1.451  -2.649 -14.811  1.00  0.00     0.100 A 
HETATM   11  C12 UNL     1       0.490  -3.618 -15.132  1.00  0.00    -0.007 A 
HETATM   12  C21 UNL     1      -0.829  -3.272 -14.957  1.00  0.00     0.031 A 
HETATM   13  C22 UNL     1      -1.128  -2.011 -14.482  1.00  0.00     0.042 A 
HETATM   14  C23 UNL     1      -2.514  -1.877 -14.386  1.00  0.00     0.195 C 
HETATM   15  O2  UNL     1      -3.175  -2.783 -14.954  1.00  0.00    -0.287 OA
HETATM   16  C24 UNL     1      -3.258  -0.906 -13.764  1.00  0.00     0.026 A 
HETATM   17  C25 UNL     1      -4.588  -1.248 -13.600  1.00  0.00     0.023 A 
ENDROOT
BRANCH   1  18
HETATM   18  C3  UNL     1      -6.883  -0.744 -12.861  1.00  0.00     0.048 C 
BRANCH  18  19
HETATM   19  C2  UNL     1      -7.062  -2.042 -12.144  1.00  0.00     0.107 C 
BRANCH  19  20
HETATM   20  C1  UNL     1      -7.860  -3.046 -12.850  1.00  0.00     0.218 C 
HETATM   21  O1  UNL     1      -8.915  -2.793 -13.457  1.00  0.00    -0.274 OA
HETATM   22  N5  UNL     1      -7.421  -4.429 -12.861  1.00  0.00    -0.355 N 
ATOM     23  H5  UNL     1      -6.564  -4.699 -12.379  1.00  0.00     0.162 HD
BRANCH  22  24
HETATM   24  C26 UNL     1      -8.208  -5.424 -13.561  1.00  0.00     0.179 C 
BRANCH  24  25
HETATM   25  C27 UNL     1      -7.234  -6.238 -14.358  1.00  0.00     0.026 A 
HETATM   26  C28 UNL     1      -5.913  -6.232 -14.053  1.00  0.00     0.027 A 
HETATM   27  C29 UNL     1      -5.051  -7.004 -14.806  1.00  0.00     0.003 A 
HETATM   28  C30 UNL     1      -5.533  -7.760 -15.844  1.00  0.00     0.017 A 
HETATM   29  C31 UNL     1      -6.902  -7.738 -16.126  1.00  0.00     0.088 A 
HETATM   30  N6  UNL     1      -7.706  -6.983 -15.379  1.00  0.00    -0.368 N 
ATOM     31  H6  UNL     1      -8.705  -6.968 -15.585  1.00  0.00     0.165 HD
ENDBRANCH  24  25
ENDBRANCH  22  24
ENDBRANCH  19  20
ENDBRANCH  18  19
ENDBRANCH   1  18
BRANCH  11  32
HETATM   32  C13 UNL     1       0.898  -4.927 -15.627  1.00  0.00     0.009 A 
HETATM   33  C14 UNL     1       2.050  -5.577 -15.239  1.00  0.00     0.121 A 
HETATM   34  N2  UNL     1       2.080  -6.748 -15.900  1.00  0.00    -0.309 N 
HETATM   35  N3  UNL     1       1.027  -6.895 -16.685  1.00  0.00    -0.298 N 
ATOM     36  H2  UNL     1       2.826  -7.438 -15.806  1.00  0.00     0.186 HD
HETATM   37  C20 UNL     1       0.291  -5.772 -16.522  1.00  0.00     0.124 A 
BRANCH  35  38
HETATM   38  C15 UNL     1       0.726  -8.045 -17.552  1.00  0.00     0.110 C 
HETATM   39  C16 UNL     1      -0.321  -8.930 -16.928  1.00  0.00     0.055 C 
HETATM   40  C17 UNL     1      -1.705  -8.705 -17.495  1.00  0.00     0.234 C 
HETATM   41  N4  UNL     1      -1.754  -8.999 -18.916  1.00  0.00    -0.075 N 
HETATM   42  C18 UNL     1      -0.501  -8.668 -19.569  1.00  0.00     0.234 C 
ATOM     43  H42 UNL     1      -2.020  -9.968 -19.088  1.00  0.00     0.277 HD
ATOM     44  H41 UNL     1      -2.543  -8.536 -19.366  1.00  0.00     0.277 HD
HETATM   45  C19 UNL     1       0.164  -7.506 -18.850  1.00  0.00     0.055 C 
ENDBRANCH  35  38
ENDBRANCH  11  32
TORSDOF 7
ENDMDL
