MODEL 19
REMARK VINA RESULT: -9.743648743      2.908      7.950
REMARK  7 active torsions:
REMARK  status: ('A' for Active; 'I' for Inactive)
REMARK    1  A    between atoms: C1_2  and  C2_3 
REMARK       I    between atoms: C1_2  and  N5_36 
REMARK    2  A    between atoms: C2_3  and  C3_4 
REMARK    3  A    between atoms: C3_4  and  C4_5 
REMARK    4  A    between atoms: C12_15  and  C13_16 
REMARK    5  A    between atoms: N3_20  and  C15_21 
REMARK    6  A    between atoms: N5_36  and  C26_38 
REMARK    7  A    between atoms: C26_38  and  C27_39 
ROOT
HETATM    1  C4  UNL     1       1.468  -4.450 -16.548  1.00  0.00    -0.057 A 
HETATM    2  C5  UNL     1       2.240  -5.362 -17.223  1.00  0.00     0.008 A 
HETATM    3  C6  UNL     1       1.573  -6.470 -17.764  1.00  0.00     0.013 A 
HETATM    4  C7  UNL     1       0.234  -6.678 -17.651  1.00  0.00    -0.022 A 
HETATM    5  C8  UNL     1      -0.217  -7.838 -18.262  1.00  0.00     0.014 C 
HETATM    6  C9  UNL     1      -1.421  -8.489 -18.152  1.00  0.00     0.031 C 
HETATM    7  C10 UNL     1      -2.578  -8.061 -17.537  1.00  0.00     0.046 A 
HETATM    8  N1  UNL     1      -3.575  -8.946 -17.581  1.00  0.00    -0.364 N 
ATOM      9  H1  UNL     1      -3.443  -9.846 -18.042  1.00  0.00     0.165 HD
HETATM   10  C11 UNL     1      -4.751  -8.646 -17.018  1.00  0.00     0.100 A 
HETATM   11  C12 UNL     1      -5.004  -7.430 -16.368  1.00  0.00    -0.007 A 
HETATM   12  C21 UNL     1      -3.975  -6.520 -16.323  1.00  0.00     0.031 A 
HETATM   13  C22 UNL     1      -2.771  -6.848 -16.910  1.00  0.00     0.042 A 
HETATM   14  C23 UNL     1      -1.880  -5.787 -16.749  1.00  0.00     0.195 C 
HETATM   15  O2  UNL     1      -2.401  -4.714 -16.351  1.00  0.00    -0.287 OA
HETATM   16  C24 UNL     1      -0.525  -5.741 -16.961  1.00  0.00     0.026 A 
HETATM   17  C25 UNL     1       0.085  -4.629 -16.409  1.00  0.00     0.023 A 
ENDROOT
BRANCH   1  18
HETATM   18  C3  UNL     1       2.065  -3.231 -15.975  1.00  0.00     0.048 C 
BRANCH  18  19
HETATM   19  C2  UNL     1       1.487  -2.875 -14.644  1.00  0.00     0.107 C 
BRANCH  19  20
HETATM   20  C1  UNL     1       0.802  -1.583 -14.581  1.00  0.00     0.218 C 
HETATM   21  O1  UNL     1       1.388  -0.489 -14.518  1.00  0.00    -0.274 OA
HETATM   22  N5  UNL     1      -0.649  -1.543 -14.591  1.00  0.00    -0.355 N 
ATOM     23  H5  UNL     1      -1.186  -2.408 -14.639  1.00  0.00     0.162 HD
BRANCH  22  24
HETATM   24  C26 UNL     1      -1.329  -0.265 -14.531  1.00  0.00     0.179 C 
BRANCH  24  25
HETATM   25  C27 UNL     1      -2.696  -0.547 -13.986  1.00  0.00     0.026 A 
HETATM   26  C28 UNL     1      -3.130  -1.823 -13.831  1.00  0.00     0.027 A 
HETATM   27  C29 UNL     1      -4.393  -2.039 -13.316  1.00  0.00     0.003 A 
HETATM   28  C30 UNL     1      -5.187  -0.976 -12.971  1.00  0.00     0.017 A 
HETATM   29  C31 UNL     1      -4.702   0.323 -13.146  1.00  0.00     0.088 A 
HETATM   30  N6  UNL     1      -3.479   0.497 -13.645  1.00  0.00    -0.368 N 
ATOM     31  H6  UNL     1      -3.125   1.445 -13.773  1.00  0.00     0.165 HD
ENDBRANCH  24  25
ENDBRANCH  22  24
ENDBRANCH  19  20
ENDBRANCH  18  19
ENDBRANCH   1  18
BRANCH  11  32
HETATM   32  C13 UNL     1      -6.310  -7.168 -15.773  1.00  0.00     0.009 A 
HETATM   33  C14 UNL     1      -7.471  -7.811 -16.143  1.00  0.00     0.121 A 
HETATM   34  N2  UNL     1      -8.456  -7.309 -15.377  1.00  0.00    -0.309 N 
HETATM   35  N3  UNL     1      -8.007  -6.388 -14.542  1.00  0.00    -0.298 N 
ATOM     36  H2  UNL     1      -9.432  -7.603 -15.435  1.00  0.00     0.186 HD
HETATM   37  C20 UNL     1      -6.680  -6.295 -14.781  1.00  0.00     0.124 A 
BRANCH  35  38
HETATM   38  C15 UNL     1      -8.796  -5.628 -13.559  1.00  0.00     0.110 C 
HETATM   39  C16 UNL     1      -7.975  -5.320 -12.334  1.00  0.00     0.055 C 
HETATM   40  C17 UNL     1      -7.427  -3.910 -12.324  1.00  0.00     0.234 C 
HETATM   41  N4  UNL     1      -8.492  -2.924 -12.329  1.00  0.00    -0.075 N 
HETATM   42  C18 UNL     1      -9.640  -3.386 -13.086  1.00  0.00     0.234 C 
ATOM     43  H42 UNL     1      -8.754  -2.653 -11.381  1.00  0.00     0.277 HD
ATOM     44  H41 UNL     1      -8.162  -2.019 -12.666  1.00  0.00     0.277 HD
HETATM   45  C19 UNL     1      -9.182  -4.313 -14.200  1.00  0.00     0.055 C 
ENDBRANCH  35  38
ENDBRANCH  11  32
TORSDOF 7
ENDMDL
