MODEL 18
REMARK VINA RESULT: -9.944451906      1.805      2.576
REMARK  7 active torsions:
REMARK  status: ('A' for Active; 'I' for Inactive)
REMARK    1  A    between atoms: C1_2  and  C2_3 
REMARK       I    between atoms: C1_2  and  N5_36 
REMARK    2  A    between atoms: C2_3  and  C3_4 
REMARK    3  A    between atoms: C3_4  and  C4_5 
REMARK    4  A    between atoms: C12_15  and  C13_16 
REMARK    5  A    between atoms: N3_20  and  C15_21 
REMARK    6  A    between atoms: N5_36  and  C26_38 
REMARK    7  A    between atoms: C26_38  and  C27_39 
ROOT
HETATM    1  C4  UNL     1      -7.207  -4.160 -12.487  1.00  0.00    -0.057 A 
HETATM    2  C5  UNL     1      -8.494  -4.477 -12.839  1.00  0.00     0.008 A 
HETATM    3  C6  UNL     1      -8.651  -5.493 -13.792  1.00  0.00     0.013 A 
HETATM    4  C7  UNL     1      -7.615  -6.158 -14.369  1.00  0.00    -0.022 A 
HETATM    5  C8  UNL     1      -7.997  -7.127 -15.285  1.00  0.00     0.014 C 
HETATM    6  C9  UNL     1      -7.255  -7.807 -16.219  1.00  0.00     0.031 C 
HETATM    7  C10 UNL     1      -5.886  -7.839 -16.373  1.00  0.00     0.046 A 
HETATM    8  N1  UNL     1      -5.473  -8.581 -17.402  1.00  0.00    -0.364 N 
ATOM      9  H1  UNL     1      -6.152  -9.062 -17.993  1.00  0.00     0.165 HD
HETATM   10  C11 UNL     1      -4.164  -8.691 -17.657  1.00  0.00     0.100 A 
HETATM   11  C12 UNL     1      -3.177  -8.058 -16.889  1.00  0.00    -0.007 A 
HETATM   12  C21 UNL     1      -3.604  -7.294 -15.829  1.00  0.00     0.031 A 
HETATM   13  C22 UNL     1      -4.959  -7.193 -15.584  1.00  0.00     0.042 A 
HETATM   14  C23 UNL     1      -5.162  -6.379 -14.470  1.00  0.00     0.195 C 
HETATM   15  O2  UNL     1      -4.127  -6.124 -13.804  1.00  0.00    -0.287 OA
HETATM   16  C24 UNL     1      -6.321  -5.817 -13.996  1.00  0.00     0.026 A 
HETATM   17  C25 UNL     1      -6.111  -4.823 -13.058  1.00  0.00     0.023 A 
ENDROOT
BRANCH   1  18
HETATM   18  C3  UNL     1      -6.933  -3.134 -11.465  1.00  0.00     0.048 C 
BRANCH  18  19
HETATM   19  C2  UNL     1      -7.597  -1.830 -11.765  1.00  0.00     0.107 C 
BRANCH  19  20
HETATM   20  C1  UNL     1      -6.884  -0.961 -12.702  1.00  0.00     0.218 C 
HETATM   21  O1  UNL     1      -7.258  -0.739 -13.865  1.00  0.00    -0.274 OA
HETATM   22  N5  UNL     1      -5.661  -0.305 -12.277  1.00  0.00    -0.355 N 
ATOM     23  H5  UNL     1      -5.302  -0.449 -11.334  1.00  0.00     0.162 HD
BRANCH  22  24
HETATM   24  C26 UNL     1      -4.954   0.559 -13.202  1.00  0.00     0.179 C 
BRANCH  24  25
HETATM   25  C27 UNL     1      -3.687  -0.160 -13.554  1.00  0.00     0.026 A 
HETATM   26  C28 UNL     1      -3.574  -1.498 -13.364  1.00  0.00     0.027 A 
HETATM   27  C29 UNL     1      -2.393  -2.123 -13.711  1.00  0.00     0.003 A 
HETATM   28  C30 UNL     1      -1.357  -1.394 -14.239  1.00  0.00     0.017 A 
HETATM   29  C31 UNL     1      -1.515  -0.017 -14.419  1.00  0.00     0.088 A 
HETATM   30  N6  UNL     1      -2.668   0.554 -14.074  1.00  0.00    -0.368 N 
ATOM     31  H6  UNL     1      -2.783   1.559 -14.206  1.00  0.00     0.165 HD
ENDBRANCH  24  25
ENDBRANCH  22  24
ENDBRANCH  19  20
ENDBRANCH  18  19
ENDBRANCH   1  18
BRANCH  11  32
HETATM   32  C13 UNL     1      -1.767  -8.218 -17.221  1.00  0.00     0.009 A 
HETATM   33  C14 UNL     1      -0.730  -7.890 -16.375  1.00  0.00     0.121 A 
HETATM   34  N2  UNL     1       0.412  -8.179 -17.024  1.00  0.00    -0.309 N 
HETATM   35  N3  UNL     1       0.179  -8.671 -18.229  1.00  0.00    -0.298 N 
ATOM     36  H2  UNL     1       1.344  -8.037 -16.633  1.00  0.00     0.186 HD
HETATM   37  C20 UNL     1      -1.166  -8.697 -18.359  1.00  0.00     0.124 A 
BRANCH  35  38
HETATM   38  C15 UNL     1       1.183  -9.097 -19.217  1.00  0.00     0.110 C 
HETATM   39  C16 UNL     1       1.889 -10.347 -18.760  1.00  0.00     0.055 C 
HETATM   40  C17 UNL     1       1.358 -11.603 -19.415  1.00  0.00     0.234 C 
HETATM   41  N4  UNL     1       1.534 -11.570 -20.855  1.00  0.00    -0.075 N 
HETATM   42  C18 UNL     1       1.407 -10.220 -21.373  1.00  0.00     0.234 C 
ATOM     43  H42 UNL     1       2.418 -11.995 -21.133  1.00  0.00     0.277 HD
ATOM     44  H41 UNL     1       0.894 -12.211 -21.324  1.00  0.00     0.277 HD
HETATM   45  C19 UNL     1       0.453  -9.421 -20.502  1.00  0.00     0.055 C 
ENDBRANCH  35  38
ENDBRANCH  11  32
TORSDOF 7
ENDMDL
