MODEL 17
REMARK VINA RESULT: -9.954033681      3.473      6.969
REMARK  7 active torsions:
REMARK  status: ('A' for Active; 'I' for Inactive)
REMARK    1  A    between atoms: C1_2  and  C2_3 
REMARK       I    between atoms: C1_2  and  N5_36 
REMARK    2  A    between atoms: C2_3  and  C3_4 
REMARK    3  A    between atoms: C3_4  and  C4_5 
REMARK    4  A    between atoms: C12_15  and  C13_16 
REMARK    5  A    between atoms: N3_20  and  C15_21 
REMARK    6  A    between atoms: N5_36  and  C26_38 
REMARK    7  A    between atoms: C26_38  and  C27_39 
ROOT
HETATM    1  C4  UNL     1      -3.926  -1.999 -13.304  1.00  0.00    -0.057 A 
HETATM    2  C5  UNL     1      -3.022  -1.275 -12.569  1.00  0.00     0.008 A 
HETATM    3  C6  UNL     1      -1.679  -1.364 -12.964  1.00  0.00     0.013 A 
HETATM    4  C7  UNL     1      -1.245  -2.116 -14.010  1.00  0.00    -0.022 A 
HETATM    5  C8  UNL     1       0.124  -2.058 -14.226  1.00  0.00     0.014 C 
HETATM    6  C9  UNL     1       0.934  -2.848 -15.004  1.00  0.00     0.031 C 
HETATM    7  C10 UNL     1       0.572  -3.805 -15.927  1.00  0.00     0.046 A 
HETATM    8  N1  UNL     1       1.606  -4.421 -16.503  1.00  0.00    -0.364 N 
ATOM      9  H1  UNL     1       2.561  -4.169 -16.248  1.00  0.00     0.165 HD
HETATM   10  C11 UNL     1       1.385  -5.371 -17.419  1.00  0.00     0.100 A 
HETATM   11  C12 UNL     1       0.101  -5.769 -17.818  1.00  0.00    -0.007 A 
HETATM   12  C21 UNL     1      -0.963  -5.133 -17.223  1.00  0.00     0.031 A 
HETATM   13  C22 UNL     1      -0.713  -4.156 -16.282  1.00  0.00     0.042 A 
HETATM   14  C23 UNL     1      -1.926  -3.648 -15.817  1.00  0.00     0.195 C 
HETATM   15  O2  UNL     1      -2.934  -3.983 -16.490  1.00  0.00    -0.287 OA
HETATM   16  C24 UNL     1      -2.181  -2.841 -14.737  1.00  0.00     0.026 A 
HETATM   17  C25 UNL     1      -3.519  -2.786 -14.390  1.00  0.00     0.023 A 
ENDROOT
BRANCH   1  18
HETATM   18  C3  UNL     1      -5.367  -1.944 -12.997  1.00  0.00     0.048 C 
BRANCH  18  19
HETATM   19  C2  UNL     1      -5.816  -3.077 -12.133  1.00  0.00     0.107 C 
BRANCH  19  20
HETATM   20  C1  UNL     1      -6.643  -4.085 -12.798  1.00  0.00     0.218 C 
HETATM   21  O1  UNL     1      -7.870  -3.976 -12.966  1.00  0.00    -0.274 OA
HETATM   22  N5  UNL     1      -6.024  -5.296 -13.302  1.00  0.00    -0.355 N 
ATOM     23  H5  UNL     1      -5.021  -5.445 -13.193  1.00  0.00     0.162 HD
BRANCH  22  24
HETATM   24  C26 UNL     1      -6.841  -6.295 -13.964  1.00  0.00     0.179 C 
BRANCH  24  25
HETATM   25  C27 UNL     1      -5.942  -6.981 -14.947  1.00  0.00     0.026 A 
HETATM   26  C28 UNL     1      -4.627  -6.656 -15.028  1.00  0.00     0.027 A 
HETATM   27  C29 UNL     1      -3.833  -7.320 -15.941  1.00  0.00     0.003 A 
HETATM   28  C30 UNL     1      -4.373  -8.288 -16.749  1.00  0.00     0.017 A 
HETATM   29  C31 UNL     1      -5.732  -8.592 -16.634  1.00  0.00     0.088 A 
HETATM   30  N6  UNL     1      -6.470  -7.934 -15.743  1.00  0.00    -0.368 N 
ATOM     31  H6  UNL     1      -7.462  -8.156 -15.659  1.00  0.00     0.165 HD
ENDBRANCH  24  25
ENDBRANCH  22  24
ENDBRANCH  19  20
ENDBRANCH  18  19
ENDBRANCH   1  18
BRANCH  11  32
HETATM   32  C13 UNL     1      -0.070  -6.813 -18.820  1.00  0.00     0.009 A 
HETATM   33  C14 UNL     1      -0.889  -7.911 -18.662  1.00  0.00     0.121 A 
HETATM   34  N2  UNL     1      -0.788  -8.639 -19.788  1.00  0.00    -0.309 N 
HETATM   35  N3  UNL     1       0.039  -8.085 -20.659  1.00  0.00    -0.298 N 
ATOM     36  H2  UNL     1      -1.289  -9.513 -19.951  1.00  0.00     0.186 HD
HETATM   37  C20 UNL     1       0.487  -6.955 -20.066  1.00  0.00     0.124 A 
BRANCH  35  38
HETATM   38  C15 UNL     1       0.391  -8.598 -21.992  1.00  0.00     0.110 C 
HETATM   39  C16 UNL     1       0.839  -7.480 -22.897  1.00  0.00     0.055 C 
HETATM   40  C17 UNL     1       2.344  -7.385 -23.024  1.00  0.00     0.234 C 
HETATM   41  N4  UNL     1       2.909  -8.592 -23.598  1.00  0.00    -0.075 N 
HETATM   42  C18 UNL     1       2.161  -9.770 -23.198  1.00  0.00     0.234 C 
ATOM     43  H42 UNL     1       2.984  -8.524 -24.612  1.00  0.00     0.277 HD
ATOM     44  H41 UNL     1       3.899  -8.685 -23.371  1.00  0.00     0.277 HD
HETATM   45  C19 UNL     1       1.553  -9.552 -21.823  1.00  0.00     0.055 C 
ENDBRANCH  35  38
ENDBRANCH  11  32
TORSDOF 7
ENDMDL
