MODEL 5
REMARK VINA RESULT: -9.652738211      1.535      2.377
REMARK  14 active torsions:
REMARK  status: ('A' for Active; 'I' for Inactive)
REMARK    1  A    between atoms: N5_13  and  C6_14 
REMARK    2  A    between atoms: C7_16  and  C8_17 
REMARK    3  A    between atoms: C8_17  and  O2_18 
REMARK    4  A    between atoms: O2_18  and  P1_19 
REMARK    5  A    between atoms: P1_19  and  O5_22 
REMARK    6  A    between atoms: O5_22  and  P2_23 
REMARK    7  A    between atoms: P2_23  and  O8_26 
REMARK    8  A    between atoms: O8_26  and  C9_27 
REMARK    9  A    between atoms: C9_27  and  C10_28 
REMARK   10  A    between atoms: C11_30  and  O10_31 
REMARK   11  A    between atoms: C12_33  and  O11_34 
REMARK   12  A    between atoms: C13_36  and  O12_37 
REMARK   13  A    between atoms: C14_39  and  O13_40 
REMARK   14  A    between atoms: C15_42  and  O14_43 
ROOT
HETATM    1  C6  UNL     1      15.644  20.653  14.815  1.00  0.00     0.262 C 
HETATM    2  O1  UNL     1      15.846  19.871  13.636  1.00  0.00    -0.353 OA
HETATM    3  C7  UNL     1      15.703  18.631  14.203  1.00  0.00     0.180 C 
HETATM    4  C14 UNL     1      14.296  18.798  14.931  1.00  0.00     0.182 C 
HETATM    5  C15 UNL     1      14.158  20.292  14.951  1.00  0.00     0.198 C 
ENDROOT
BRANCH   3   6
HETATM    6  C8  UNL     1      15.515  17.439  13.329  1.00  0.00     0.216 C 
BRANCH   6   7
HETATM    7  O2  UNL     1      14.515  17.769  12.396  1.00  0.00    -0.287 OA
BRANCH   7   8
HETATM    8  P1  UNL     1      15.189  17.525  10.894  1.00  0.00     0.417 P 
HETATM    9  O3  UNL     1      14.199  16.970   9.681  1.00  0.00    -0.624 OA
HETATM   10  O4  UNL     1      15.746  16.198  11.170  1.00  0.00    -0.624 OA
BRANCH   8  11
HETATM   11  O5  UNL     1      16.599  18.272  10.581  1.00  0.00    -0.180 OA
BRANCH  11  12
HETATM   12  P2  UNL     1      16.814  19.264   9.459  1.00  0.00     0.417 P 
HETATM   13  O6  UNL     1      18.019  19.962  10.297  1.00  0.00    -0.624 OA
HETATM   14  O7  UNL     1      15.249  19.908   9.717  1.00  0.00    -0.624 OA
BRANCH  12  15
HETATM   15  O8  UNL     1      16.889  18.139   8.325  1.00  0.00    -0.287 OA
BRANCH  15  16
HETATM   16  C9  UNL     1      16.763  18.477   7.014  1.00  0.00     0.216 C 
BRANCH  16  17
HETATM   17  C10 UNL     1      18.062  18.240   6.280  1.00  0.00     0.180 C 
HETATM   18  O9  UNL     1      17.883  18.342   4.937  1.00  0.00    -0.349 OA
HETATM   19  C11 UNL     1      17.915  19.703   4.664  1.00  0.00     0.288 C 
HETATM   20  C12 UNL     1      18.872  20.328   5.658  1.00  0.00     0.204 C 
HETATM   21  C13 UNL     1      19.149  19.197   6.624  1.00  0.00     0.182 C 
BRANCH  19  22
HETATM   22  O10 UNL     1      18.424  19.841   3.373  1.00  0.00    -0.369 OA
ATOM     23  H10 UNL     1      17.692  20.071   2.813  1.00  0.00     0.212 HD
ENDBRANCH  19  22
BRANCH  20  24
HETATM   24  O11 UNL     1      20.021  20.749   5.049  1.00  0.00    -0.388 OA
ATOM     25  H11 UNL     1      20.399  21.495   5.499  1.00  0.00     0.210 HD
ENDBRANCH  20  24
BRANCH  21  26
HETATM   26  O12 UNL     1      20.357  18.527   6.332  1.00  0.00    -0.390 OA
ATOM     27  H12 UNL     1      20.141  17.602   6.311  1.00  0.00     0.210 HD
ENDBRANCH  21  26
ENDBRANCH  16  17
ENDBRANCH  15  16
ENDBRANCH  12  15
ENDBRANCH  11  12
ENDBRANCH   8  11
ENDBRANCH   7   8
ENDBRANCH   6   7
ENDBRANCH   3   6
BRANCH   4  28
HETATM   28  O13 UNL     1      14.317  18.318  16.196  1.00  0.00    -0.390 OA
ATOM     29  H13 UNL     1      14.095  17.395  16.232  1.00  0.00     0.210 HD
ENDBRANCH   4  28
BRANCH   1  30
HETATM   30  N5  UNL     1      15.783  22.037  14.611  1.00  0.00    -0.297 N 
HETATM   31  C3  UNL     1      16.563  22.924  15.288  1.00  0.00     0.142 A 
HETATM   32  N3  UNL     1      17.289  22.844  16.373  1.00  0.00    -0.336 N 
HETATM   33  C4  UNL     1      16.355  24.147  14.685  1.00  0.00     0.119 A 
HETATM   34  C2  UNL     1      17.862  23.979  16.897  1.00  0.00     0.183 A 
ATOM     35  H3  UNL     1      17.431  21.943  16.828  1.00  0.00     0.168 HD
HETATM   36  N2  UNL     1      17.632  25.178  16.297  1.00  0.00    -0.339 N 
HETATM   37  C1  UNL     1      16.889  25.326  15.193  1.00  0.00     0.148 A 
ATOM     38  H2  UNL     1      18.049  26.012  16.711  1.00  0.00     0.167 HD
HETATM   39  N1  UNL     1      16.520  26.561  14.599  1.00  0.00    -0.080 NA
HETATM   40  N4  UNL     1      15.491  23.970  13.684  1.00  0.00    -0.346 N 
HETATM   41  C5  UNL     1      15.116  22.706  13.634  1.00  0.00     0.188 A 
ATOM     42  H4  UNL     1      15.169  24.703  13.052  1.00  0.00     0.167 HD
ENDBRANCH   1  30
BRANCH   5  43
HETATM   43  O14 UNL     1      13.563  20.767  16.079  1.00  0.00    -0.388 OA
ATOM     44  H14 UNL     1      13.882  21.614  16.367  1.00  0.00     0.210 HD
ENDBRANCH   5  43
TORSDOF 14
ENDMDL
