MODEL 12
REMARK VINA RESULT: -9.109383998      2.931      4.249
REMARK  14 active torsions:
REMARK  status: ('A' for Active; 'I' for Inactive)
REMARK    1  A    between atoms: N5_13  and  C6_14 
REMARK    2  A    between atoms: C7_16  and  C8_17 
REMARK    3  A    between atoms: C8_17  and  O2_18 
REMARK    4  A    between atoms: O2_18  and  P1_19 
REMARK    5  A    between atoms: P1_19  and  O5_22 
REMARK    6  A    between atoms: O5_22  and  P2_23 
REMARK    7  A    between atoms: P2_23  and  O8_26 
REMARK    8  A    between atoms: O8_26  and  C9_27 
REMARK    9  A    between atoms: C9_27  and  C10_28 
REMARK   10  A    between atoms: C11_30  and  O10_31 
REMARK   11  A    between atoms: C12_33  and  O11_34 
REMARK   12  A    between atoms: C13_36  and  O12_37 
REMARK   13  A    between atoms: C14_39  and  O13_40 
REMARK   14  A    between atoms: C15_42  and  O14_43 
ROOT
HETATM    1  C6  UNL     1      14.129  19.664  14.605  1.00  0.00     0.262 C 
HETATM    2  O1  UNL     1      13.563  18.561  13.894  1.00  0.00    -0.353 OA
HETATM    3  C7  UNL     1      14.691  18.173  13.217  1.00  0.00     0.180 C 
HETATM    4  C14 UNL     1      15.723  18.022  14.421  1.00  0.00     0.182 C 
HETATM    5  C15 UNL     1      15.020  18.792  15.501  1.00  0.00     0.198 C 
ENDROOT
BRANCH   3   6
HETATM    6  C8  UNL     1      14.726  16.844  12.546  1.00  0.00     0.216 C 
BRANCH   6   7
HETATM    7  O2  UNL     1      15.893  16.812  11.761  1.00  0.00    -0.287 OA
BRANCH   7   8
HETATM    8  P1  UNL     1      15.421  17.219  10.218  1.00  0.00     0.417 P 
HETATM    9  O3  UNL     1      13.926  16.708   9.704  1.00  0.00    -0.624 OA
HETATM   10  O4  UNL     1      16.128  16.135   9.531  1.00  0.00    -0.624 OA
BRANCH   8  11
HETATM   11  O5  UNL     1      16.203  18.452   9.501  1.00  0.00    -0.180 OA
BRANCH  11  12
HETATM   12  P2  UNL     1      16.167  19.886   9.981  1.00  0.00     0.417 P 
HETATM   13  O6  UNL     1      17.204  19.519  11.178  1.00  0.00    -0.624 OA
HETATM   14  O7  UNL     1      14.504  19.729  10.355  1.00  0.00    -0.624 OA
BRANCH  12  15
HETATM   15  O8  UNL     1      16.467  20.498   8.534  1.00  0.00    -0.287 OA
BRANCH  15  16
HETATM   16  C9  UNL     1      16.878  19.692   7.520  1.00  0.00     0.216 C 
BRANCH  16  17
HETATM   17  C10 UNL     1      16.779  20.414   6.197  1.00  0.00     0.180 C 
HETATM   18  O9  UNL     1      17.923  21.096   5.933  1.00  0.00    -0.349 OA
HETATM   19  C11 UNL     1      18.802  20.154   5.413  1.00  0.00     0.288 C 
HETATM   20  C12 UNL     1      17.965  19.148   4.651  1.00  0.00     0.204 C 
HETATM   21  C13 UNL     1      16.549  19.526   5.024  1.00  0.00     0.182 C 
BRANCH  19  22
HETATM   22  O10 UNL     1      19.641  20.832   4.529  1.00  0.00    -0.369 OA
ATOM     23  H10 UNL     1      20.418  20.296   4.424  1.00  0.00     0.212 HD
ENDBRANCH  19  22
BRANCH  20  24
HETATM   24  O11 UNL     1      18.164  19.252   3.302  1.00  0.00    -0.388 OA
ATOM     25  H11 UNL     1      17.703  18.569   2.829  1.00  0.00     0.210 HD
ENDBRANCH  20  24
BRANCH  21  26
HETATM   26  O12 UNL     1      15.935  20.335   4.044  1.00  0.00    -0.390 OA
ATOM     27  H12 UNL     1      15.024  20.409   4.304  1.00  0.00     0.210 HD
ENDBRANCH  21  26
ENDBRANCH  16  17
ENDBRANCH  15  16
ENDBRANCH  12  15
ENDBRANCH  11  12
ENDBRANCH   8  11
ENDBRANCH   7   8
ENDBRANCH   6   7
ENDBRANCH   3   6
BRANCH   4  28
HETATM   28  O13 UNL     1      16.915  18.597  14.146  1.00  0.00    -0.390 OA
ATOM     29  H13 UNL     1      16.822  19.503  13.875  1.00  0.00     0.210 HD
ENDBRANCH   4  28
BRANCH   1  30
HETATM   30  N5  UNL     1      13.202  20.367  15.394  1.00  0.00    -0.297 N 
HETATM   31  C3  UNL     1      11.936  20.008  15.747  1.00  0.00     0.142 A 
HETATM   32  N3  UNL     1      11.141  19.034  15.389  1.00  0.00    -0.336 N 
HETATM   33  C4  UNL     1      11.462  21.029  16.543  1.00  0.00     0.119 A 
HETATM   34  C2  UNL     1       9.838  19.019  15.827  1.00  0.00     0.183 A 
ATOM     35  H3  UNL     1      11.487  18.285  14.789  1.00  0.00     0.168 HD
HETATM   36  N2  UNL     1       9.384  20.044  16.598  1.00  0.00    -0.339 N 
HETATM   37  C1  UNL     1      10.144  21.075  16.986  1.00  0.00     0.148 A 
ATOM     38  H2  UNL     1       8.409  20.027  16.896  1.00  0.00     0.167 HD
HETATM   39  N1  UNL     1       9.692  22.224  17.685  1.00  0.00    -0.080 NA
HETATM   40  N4  UNL     1      12.425  21.945  16.656  1.00  0.00    -0.346 N 
HETATM   41  C5  UNL     1      13.479  21.575  15.953  1.00  0.00     0.188 A 
ATOM     42  H4  UNL     1      12.358  22.802  17.204  1.00  0.00     0.167 HD
ENDBRANCH   1  30
BRANCH   5  43
HETATM   43  O14 UNL     1      15.864  19.489  16.308  1.00  0.00    -0.388 OA
ATOM     44  H14 UNL     1      15.432  20.076  16.918  1.00  0.00     0.210 HD
ENDBRANCH   5  43
TORSDOF 14
ENDMDL
