MODEL 19
REMARK VINA RESULT: -8.880240464      1.742      2.917
REMARK  14 active torsions:
REMARK  status: ('A' for Active; 'I' for Inactive)
REMARK    1  A    between atoms: N5_13  and  C6_14 
REMARK    2  A    between atoms: C7_16  and  C8_17 
REMARK    3  A    between atoms: C8_17  and  O2_18 
REMARK    4  A    between atoms: O2_18  and  P1_19 
REMARK    5  A    between atoms: P1_19  and  O5_22 
REMARK    6  A    between atoms: O5_22  and  P2_23 
REMARK    7  A    between atoms: P2_23  and  O8_26 
REMARK    8  A    between atoms: O8_26  and  C9_27 
REMARK    9  A    between atoms: C9_27  and  C10_28 
REMARK   10  A    between atoms: C11_30  and  O10_31 
REMARK   11  A    between atoms: C12_33  and  O11_34 
REMARK   12  A    between atoms: C13_36  and  O12_37 
REMARK   13  A    between atoms: C14_39  and  O13_40 
REMARK   14  A    between atoms: C15_42  and  O14_43 
ROOT
HETATM    1  C6  UNL     1      15.781  21.737  15.334  1.00  0.00     0.262 C 
HETATM    2  O1  UNL     1      16.153  21.160  14.080  1.00  0.00    -0.353 OA
HETATM    3  C7  UNL     1      16.042  19.841  14.438  1.00  0.00     0.180 C 
HETATM    4  C14 UNL     1      14.562  19.817  15.025  1.00  0.00     0.182 C 
HETATM    5  C15 UNL     1      14.318  21.280  15.252  1.00  0.00     0.198 C 
ENDROOT
BRANCH   3   6
HETATM    6  C8  UNL     1      16.025  18.791  13.381  1.00  0.00     0.216 C 
BRANCH   6   7
HETATM    7  O2  UNL     1      16.520  19.386  12.206  1.00  0.00    -0.287 OA
BRANCH   7   8
HETATM    8  P1  UNL     1      15.653  18.719  10.952  1.00  0.00     0.417 P 
HETATM    9  O3  UNL     1      14.613  19.708  10.115  1.00  0.00    -0.624 OA
HETATM   10  O4  UNL     1      14.586  18.140  11.772  1.00  0.00    -0.624 OA
BRANCH   8  11
HETATM   11  O5  UNL     1      16.203  17.323  10.326  1.00  0.00    -0.180 OA
BRANCH  11  12
HETATM   12  P2  UNL     1      15.993  16.884   8.894  1.00  0.00     0.417 P 
HETATM   13  O6  UNL     1      14.388  16.822   9.140  1.00  0.00    -0.624 OA
HETATM   14  O7  UNL     1      16.856  15.437   9.200  1.00  0.00    -0.624 OA
BRANCH  12  15
HETATM   15  O8  UNL     1      16.879  18.067   8.281  1.00  0.00    -0.287 OA
BRANCH  15  16
HETATM   16  C9  UNL     1      16.769  18.395   6.966  1.00  0.00     0.216 C 
BRANCH  16  17
HETATM   17  C10 UNL     1      18.089  18.193   6.259  1.00  0.00     0.180 C 
HETATM   18  O9  UNL     1      17.947  18.354   4.918  1.00  0.00    -0.349 OA
HETATM   19  C11 UNL     1      17.984  19.727   4.706  1.00  0.00     0.288 C 
HETATM   20  C12 UNL     1      18.911  20.307   5.754  1.00  0.00     0.204 C 
HETATM   21  C13 UNL     1      19.164  19.135   6.677  1.00  0.00     0.182 C 
BRANCH  19  22
HETATM   22  O10 UNL     1      18.529  19.923   3.438  1.00  0.00    -0.369 OA
ATOM     23  H10 UNL     1      17.818  19.822   2.816  1.00  0.00     0.212 HD
ENDBRANCH  19  22
BRANCH  20  24
HETATM   24  O11 UNL     1      20.075  20.757   5.198  1.00  0.00    -0.388 OA
ATOM     25  H11 UNL     1      20.439  20.122   4.592  1.00  0.00     0.210 HD
ENDBRANCH  20  24
BRANCH  21  26
HETATM   26  O12 UNL     1      20.381  18.481   6.389  1.00  0.00    -0.390 OA
ATOM     27  H12 UNL     1      20.818  18.370   7.225  1.00  0.00     0.210 HD
ENDBRANCH  21  26
ENDBRANCH  16  17
ENDBRANCH  15  16
ENDBRANCH  12  15
ENDBRANCH  11  12
ENDBRANCH   8  11
ENDBRANCH   7   8
ENDBRANCH   6   7
ENDBRANCH   3   6
BRANCH   4  28
HETATM   28  O13 UNL     1      14.490  19.148  16.198  1.00  0.00    -0.390 OA
ATOM     29  H13 UNL     1      14.464  18.207  16.073  1.00  0.00     0.210 HD
ENDBRANCH   4  28
BRANCH   1  30
HETATM   30  N5  UNL     1      15.843  23.141  15.355  1.00  0.00    -0.297 N 
HETATM   31  C3  UNL     1      16.786  23.945  15.920  1.00  0.00     0.142 A 
HETATM   32  N3  UNL     1      17.808  23.724  16.705  1.00  0.00    -0.336 N 
HETATM   33  C4  UNL     1      16.397  25.238  15.639  1.00  0.00     0.119 A 
HETATM   34  C2  UNL     1      18.505  24.785  17.234  1.00  0.00     0.183 A 
ATOM     35  H3  UNL     1      18.087  22.768  16.925  1.00  0.00     0.168 HD
HETATM   36  N2  UNL     1      18.096  26.053  16.959  1.00  0.00    -0.339 N 
HETATM   37  C1  UNL     1      17.052  26.343  16.173  1.00  0.00     0.148 A 
ATOM     38  H2  UNL     1      18.614  26.826  17.376  1.00  0.00     0.167 HD
HETATM   39  N1  UNL     1      16.513  27.636  15.952  1.00  0.00    -0.080 NA
HETATM   40  N4  UNL     1      15.271  25.184  14.927  1.00  0.00    -0.346 N 
HETATM   41  C5  UNL     1      14.906  23.927  14.760  1.00  0.00     0.188 A 
ATOM     42  H4  UNL     1      14.768  25.993  14.564  1.00  0.00     0.167 HD
ENDBRANCH   1  30
BRANCH   5  43
HETATM   43  O14 UNL     1      13.582  21.541  16.367  1.00  0.00    -0.388 OA
ATOM     44  H14 UNL     1      13.988  21.265  17.181  1.00  0.00     0.210 HD
ENDBRANCH   5  43
TORSDOF 14
ENDMDL
