MODEL 10
REMARK VINA RESULT: -9.261387857      5.418     10.584
REMARK  14 active torsions:
REMARK  status: ('A' for Active; 'I' for Inactive)
REMARK    1  A    between atoms: N5_13  and  C6_14 
REMARK    2  A    between atoms: C7_16  and  C8_17 
REMARK    3  A    between atoms: C8_17  and  O2_18 
REMARK    4  A    between atoms: O2_18  and  P1_19 
REMARK    5  A    between atoms: P1_19  and  O5_22 
REMARK    6  A    between atoms: O5_22  and  P2_23 
REMARK    7  A    between atoms: P2_23  and  O8_26 
REMARK    8  A    between atoms: O8_26  and  C9_27 
REMARK    9  A    between atoms: C9_27  and  C10_28 
REMARK   10  A    between atoms: C11_30  and  O10_31 
REMARK   11  A    between atoms: C12_33  and  O11_34 
REMARK   12  A    between atoms: C13_36  and  O12_37 
REMARK   13  A    between atoms: C14_39  and  O13_40 
REMARK   14  A    between atoms: C15_42  and  O14_43 
ROOT
HETATM    1  C6  UNL     1      18.086  19.721   4.935  1.00  0.00     0.262 C 
HETATM    2  O1  UNL     1      17.091  19.170   5.800  1.00  0.00    -0.353 OA
HETATM    3  C7  UNL     1      17.842  18.151   6.328  1.00  0.00     0.180 C 
HETATM    4  C14 UNL     1      19.118  18.957   6.838  1.00  0.00     0.182 C 
HETATM    5  C15 UNL     1      18.970  20.242   6.077  1.00  0.00     0.198 C 
ENDROOT
BRANCH   3   6
HETATM    6  C8  UNL     1      17.360  17.436   7.543  1.00  0.00     0.216 C 
BRANCH   6   7
HETATM    7  O2  UNL     1      15.966  17.617   7.598  1.00  0.00    -0.287 OA
BRANCH   7   8
HETATM    8  P1  UNL     1      15.561  17.583   9.212  1.00  0.00     0.417 P 
HETATM    9  O3  UNL     1      16.318  16.463  10.178  1.00  0.00    -0.624 OA
HETATM   10  O4  UNL     1      14.349  16.771   9.067  1.00  0.00    -0.624 OA
BRANCH   8  11
HETATM   11  O5  UNL     1      14.842  18.905   9.828  1.00  0.00    -0.180 OA
BRANCH  11  12
HETATM   12  P2  UNL     1      15.580  20.120  10.344  1.00  0.00     0.417 P 
HETATM   13  O6  UNL     1      14.166  20.839  10.699  1.00  0.00    -0.624 OA
HETATM   14  O7  UNL     1      16.204  20.420   8.778  1.00  0.00    -0.624 OA
BRANCH  12  15
HETATM   15  O8  UNL     1      16.549  19.270  11.292  1.00  0.00    -0.287 OA
BRANCH  15  16
HETATM   16  C9  UNL     1      16.511  19.439  12.640  1.00  0.00     0.216 C 
BRANCH  16  17
HETATM   17  C10 UNL     1      15.838  18.259  13.302  1.00  0.00     0.180 C 
HETATM   18  O9  UNL     1      16.376  18.021  14.526  1.00  0.00    -0.349 OA
HETATM   19  C11 UNL     1      15.757  18.921  15.383  1.00  0.00     0.288 C 
HETATM   20  C12 UNL     1      14.349  19.124  14.863  1.00  0.00     0.204 C 
HETATM   21  C13 UNL     1      14.374  18.426  13.521  1.00  0.00     0.182 C 
BRANCH  19  22
HETATM   22  O10 UNL     1      15.711  18.316  16.638  1.00  0.00    -0.369 OA
ATOM     23  H10 UNL     1      15.727  19.016  17.280  1.00  0.00     0.212 HD
ENDBRANCH  19  22
BRANCH  20  24
HETATM   24  O11 UNL     1      13.423  18.560  15.695  1.00  0.00    -0.388 OA
ATOM     25  H11 UNL     1      13.096  19.188  16.328  1.00  0.00     0.210 HD
ENDBRANCH  20  24
BRANCH  21  26
HETATM   26  O12 UNL     1      13.845  17.119  13.587  1.00  0.00    -0.390 OA
ATOM     27  H12 UNL     1      12.933  17.197  13.332  1.00  0.00     0.210 HD
ENDBRANCH  21  26
ENDBRANCH  16  17
ENDBRANCH  15  16
ENDBRANCH  12  15
ENDBRANCH  11  12
ENDBRANCH   8  11
ENDBRANCH   7   8
ENDBRANCH   6   7
ENDBRANCH   3   6
BRANCH   4  28
HETATM   28  O13 UNL     1      20.275  18.347   6.496  1.00  0.00    -0.390 OA
ATOM     29  H13 UNL     1      20.657  18.720   5.709  1.00  0.00     0.210 HD
ENDBRANCH   4  28
BRANCH   1  30
HETATM   30  N5  UNL     1      17.630  20.798   4.155  1.00  0.00    -0.297 N 
HETATM   31  C3  UNL     1      18.156  21.301   3.004  1.00  0.00     0.142 A 
HETATM   32  N3  UNL     1      19.262  21.078   2.344  1.00  0.00    -0.336 N 
HETATM   33  C4  UNL     1      17.324  22.335   2.628  1.00  0.00     0.119 A 
HETATM   34  C2  UNL     1      19.584  21.865   1.263  1.00  0.00     0.183 A 
ATOM     35  H3  UNL     1      19.885  20.322   2.630  1.00  0.00     0.168 HD
HETATM   36  N2  UNL     1      18.759  22.891   0.918  1.00  0.00    -0.339 N 
HETATM   37  C1  UNL     1      17.621  23.176   1.561  1.00  0.00     0.148 A 
ATOM     38  H2  UNL     1      19.024  23.475   0.126  1.00  0.00     0.167 HD
HETATM   39  N1  UNL     1      16.790  24.301   1.320  1.00  0.00    -0.080 NA
HETATM   40  N4  UNL     1      16.343  22.421   3.528  1.00  0.00    -0.346 N 
HETATM   41  C5  UNL     1      16.519  21.515   4.471  1.00  0.00     0.188 A 
ATOM     42  H4  UNL     1      15.572  23.088   3.492  1.00  0.00     0.167 HD
ENDBRANCH   1  30
BRANCH   5  43
HETATM   43  O14 UNL     1      20.156  20.774   5.676  1.00  0.00    -0.388 OA
ATOM     44  H14 UNL     1      20.783  20.913   6.375  1.00  0.00     0.210 HD
ENDBRANCH   5  43
TORSDOF 14
ENDMDL
