MODEL 3
REMARK VINA RESULT: -10.070556664      2.962      4.186
REMARK  14 active torsions:
REMARK  status: ('A' for Active; 'I' for Inactive)
REMARK    1  A    between atoms: N5_13  and  C6_14 
REMARK    2  A    between atoms: C7_16  and  C8_17 
REMARK    3  A    between atoms: C8_17  and  O2_18 
REMARK    4  A    between atoms: O2_18  and  P1_19 
REMARK    5  A    between atoms: P1_19  and  O5_22 
REMARK    6  A    between atoms: O5_22  and  P2_23 
REMARK    7  A    between atoms: P2_23  and  O8_26 
REMARK    8  A    between atoms: O8_26  and  C9_27 
REMARK    9  A    between atoms: C9_27  and  C10_28 
REMARK   10  A    between atoms: C11_30  and  O10_31 
REMARK   11  A    between atoms: C12_33  and  O11_34 
REMARK   12  A    between atoms: C13_36  and  O12_37 
REMARK   13  A    between atoms: C14_39  and  O13_40 
REMARK   14  A    between atoms: C15_42  and  O14_43 
ROOT
HETATM    1  C6  UNL     1      13.581  20.224  14.240  1.00  0.00     0.262 C 
HETATM    2  O1  UNL     1      13.748  18.806  14.291  1.00  0.00    -0.353 OA
HETATM    3  C7  UNL     1      14.605  18.678  13.228  1.00  0.00     0.180 C 
HETATM    4  C14 UNL     1      15.737  19.723  13.631  1.00  0.00     0.182 C 
HETATM    5  C15 UNL     1      15.021  20.536  14.671  1.00  0.00     0.198 C 
ENDROOT
BRANCH   3   6
HETATM    6  C8  UNL     1      15.349  17.402  13.031  1.00  0.00     0.216 C 
BRANCH   6   7
HETATM    7  O2  UNL     1      14.643  16.661  12.066  1.00  0.00    -0.287 OA
BRANCH   7   8
HETATM    8  P1  UNL     1      15.261  17.122  10.591  1.00  0.00     0.417 P 
HETATM    9  O3  UNL     1      14.270  17.001   9.263  1.00  0.00    -0.624 OA
HETATM   10  O4  UNL     1      15.957  15.866  10.298  1.00  0.00    -0.624 OA
BRANCH   8  11
HETATM   11  O5  UNL     1      16.574  18.080  10.600  1.00  0.00    -0.180 OA
BRANCH  11  12
HETATM   12  P2  UNL     1      16.867  19.144   9.566  1.00  0.00     0.417 P 
HETATM   13  O6  UNL     1      18.022  19.769  10.523  1.00  0.00    -0.624 OA
HETATM   14  O7  UNL     1      15.293  19.788   9.769  1.00  0.00    -0.624 OA
BRANCH  12  15
HETATM   15  O8  UNL     1      17.005  18.099   8.362  1.00  0.00    -0.287 OA
BRANCH  15  16
HETATM   16  C9  UNL     1      16.863  18.512   7.075  1.00  0.00     0.216 C 
BRANCH  16  17
HETATM   17  C10 UNL     1      18.138  18.275   6.300  1.00  0.00     0.180 C 
HETATM   18  O9  UNL     1      17.909  18.341   4.963  1.00  0.00    -0.349 OA
HETATM   19  C11 UNL     1      17.912  19.695   4.655  1.00  0.00     0.288 C 
HETATM   20  C12 UNL     1      18.894  20.358   5.599  1.00  0.00     0.204 C 
HETATM   21  C13 UNL     1      19.223  19.255   6.582  1.00  0.00     0.182 C 
BRANCH  19  22
HETATM   22  O10 UNL     1      18.372  19.808   3.344  1.00  0.00    -0.369 OA
ATOM     23  H10 UNL     1      17.664  19.520   2.780  1.00  0.00     0.212 HD
ENDBRANCH  19  22
BRANCH  20  24
HETATM   24  O11 UNL     1      20.014  20.780   4.939  1.00  0.00    -0.388 OA
ATOM     25  H11 UNL     1      20.644  21.167   5.535  1.00  0.00     0.210 HD
ENDBRANCH  20  24
BRANCH  21  26
HETATM   26  O12 UNL     1      20.429  18.595   6.262  1.00  0.00    -0.390 OA
ATOM     27  H12 UNL     1      20.627  18.839   5.366  1.00  0.00     0.210 HD
ENDBRANCH  21  26
ENDBRANCH  16  17
ENDBRANCH  15  16
ENDBRANCH  12  15
ENDBRANCH  11  12
ENDBRANCH   8  11
ENDBRANCH   7   8
ENDBRANCH   6   7
ENDBRANCH   3   6
BRANCH   4  28
HETATM   28  O13 UNL     1      16.095  20.513  12.593  1.00  0.00    -0.390 OA
ATOM     29  H13 UNL     1      16.499  21.323  12.881  1.00  0.00     0.210 HD
ENDBRANCH   4  28
BRANCH   1  30
HETATM   30  N5  UNL     1      12.679  20.725  15.195  1.00  0.00    -0.297 N 
HETATM   31  C3  UNL     1      11.493  20.196  15.607  1.00  0.00     0.142 A 
HETATM   32  N3  UNL     1      10.758  19.197  15.194  1.00  0.00    -0.336 N 
HETATM   33  C4  UNL     1      11.011  21.056  16.571  1.00  0.00     0.119 A 
HETATM   34  C2  UNL     1       9.512  18.994  15.740  1.00  0.00     0.183 A 
ATOM     35  H3  UNL     1      11.108  18.569  14.471  1.00  0.00     0.168 HD
HETATM   36  N2  UNL     1       9.047  19.863  16.678  1.00  0.00    -0.339 N 
HETATM   37  C1  UNL     1       9.746  20.910  17.131  1.00  0.00     0.148 A 
ATOM     38  H2  UNL     1       8.113  19.708  17.056  1.00  0.00     0.167 HD
HETATM   39  N1  UNL     1       9.265  21.910  18.015  1.00  0.00    -0.080 NA
HETATM   40  N4  UNL     1      11.894  22.045  16.719  1.00  0.00    -0.346 N 
HETATM   41  C5  UNL     1      12.900  21.876  15.883  1.00  0.00     0.188 A 
ATOM     42  H4  UNL     1      11.804  22.816  17.380  1.00  0.00     0.167 HD
ENDBRANCH   1  30
BRANCH   5  43
HETATM   43  O14 UNL     1      15.345  21.857  14.644  1.00  0.00    -0.388 OA
ATOM     44  H14 UNL     1      15.546  22.231  15.494  1.00  0.00     0.210 HD
ENDBRANCH   5  43
TORSDOF 14
ENDMDL
