MODEL 3
REMARK VINA RESULT: -10.201104687      5.640     11.372
REMARK  14 active torsions:
REMARK  status: ('A' for Active; 'I' for Inactive)
REMARK    1  A    between atoms: N5_13  and  C6_14 
REMARK    2  A    between atoms: C7_16  and  C8_17 
REMARK    3  A    between atoms: C8_17  and  O2_18 
REMARK    4  A    between atoms: O2_18  and  P1_19 
REMARK    5  A    between atoms: P1_19  and  O5_22 
REMARK    6  A    between atoms: O5_22  and  P2_23 
REMARK    7  A    between atoms: P2_23  and  O8_26 
REMARK    8  A    between atoms: O8_26  and  C9_27 
REMARK    9  A    between atoms: C9_27  and  C10_28 
REMARK   10  A    between atoms: C11_30  and  O10_31 
REMARK   11  A    between atoms: C12_33  and  O11_34 
REMARK   12  A    between atoms: C13_36  and  O12_37 
REMARK   13  A    between atoms: C14_39  and  O13_40 
REMARK   14  A    between atoms: C15_42  and  O14_43 
ROOT
HETATM    1  C6  UNL     1     -27.363  20.259 -25.287  1.00  0.00     0.262 C 
HETATM    2  O1  UNL     1     -26.331  20.008 -24.331  1.00  0.00    -0.353 OA
HETATM    3  C7  UNL     1     -26.090  18.696 -24.653  1.00  0.00     0.180 C 
HETATM    4  C14 UNL     1     -25.840  18.817 -26.221  1.00  0.00     0.182 C 
HETATM    5  C15 UNL     1     -26.431  20.168 -26.504  1.00  0.00     0.198 C 
ENDROOT
BRANCH   3   6
HETATM    6  C8  UNL     1     -24.859  18.028 -24.144  1.00  0.00     0.216 C 
BRANCH   6   7
HETATM    7  O2  UNL     1     -25.117  17.655 -22.812  1.00  0.00    -0.287 OA
BRANCH   7   8
HETATM    8  P1  UNL     1     -25.783  16.132 -22.881  1.00  0.00     0.417 P 
HETATM    9  O3  UNL     1     -27.084  15.899 -23.888  1.00  0.00    -0.624 OA
HETATM   10  O4  UNL     1     -26.618  16.256 -21.683  1.00  0.00    -0.624 OA
BRANCH   8  11
HETATM   11  O5  UNL     1     -24.867  14.894 -22.359  1.00  0.00    -0.180 OA
BRANCH  11  12
HETATM   12  P2  UNL     1     -24.412  13.740 -23.223  1.00  0.00     0.417 P 
HETATM   13  O6  UNL     1     -23.099  13.545 -22.285  1.00  0.00    -0.624 OA
HETATM   14  O7  UNL     1     -24.231  14.797 -24.558  1.00  0.00    -0.624 OA
BRANCH  12  15
HETATM   15  O8  UNL     1     -25.822  12.987 -23.160  1.00  0.00    -0.287 OA
BRANCH  15  16
HETATM   16  C9  UNL     1     -26.056  12.049 -22.205  1.00  0.00     0.216 C 
BRANCH  16  17
HETATM   17  C10 UNL     1     -25.354  10.756 -22.550  1.00  0.00     0.180 C 
HETATM   18  O9  UNL     1     -25.103  10.029 -21.431  1.00  0.00    -0.349 OA
HETATM   19  C11 UNL     1     -26.292   9.369 -21.146  1.00  0.00     0.288 C 
HETATM   20  C12 UNL     1     -26.960   9.078 -22.474  1.00  0.00     0.204 C 
HETATM   21  C13 UNL     1     -26.120   9.861 -23.460  1.00  0.00     0.182 C 
BRANCH  19  22
HETATM   22  O10 UNL     1     -25.946   8.170 -20.523  1.00  0.00    -0.369 OA
ATOM     23  H10 UNL     1     -25.832   7.527 -21.212  1.00  0.00     0.212 HD
ENDBRANCH  19  22
BRANCH  20  24
HETATM   24  O11 UNL     1     -26.941   7.742 -22.761  1.00  0.00    -0.388 OA
ATOM     25  H11 UNL     1     -27.780   7.446 -23.093  1.00  0.00     0.210 HD
ENDBRANCH  20  24
BRANCH  21  26
HETATM   26  O12 UNL     1     -25.159   9.053 -24.103  1.00  0.00    -0.390 OA
ATOM     27  H12 UNL     1     -24.998   9.464 -24.944  1.00  0.00     0.210 HD
ENDBRANCH  21  26
ENDBRANCH  16  17
ENDBRANCH  15  16
ENDBRANCH  12  15
ENDBRANCH  11  12
ENDBRANCH   8  11
ENDBRANCH   7   8
ENDBRANCH   6   7
ENDBRANCH   3   6
BRANCH   4  28
HETATM   28  O13 UNL     1     -26.505  17.867 -26.917  1.00  0.00    -0.390 OA
ATOM     29  H13 UNL     1     -27.440  18.035 -26.950  1.00  0.00     0.210 HD
ENDBRANCH   4  28
BRANCH   1  30
HETATM   30  N5  UNL     1     -27.913  21.550 -25.204  1.00  0.00    -0.297 N 
HETATM   31  C3  UNL     1     -27.279  22.753 -25.273  1.00  0.00     0.142 A 
HETATM   32  N3  UNL     1     -26.021  23.112 -25.293  1.00  0.00    -0.336 N 
HETATM   33  C4  UNL     1     -28.267  23.708 -25.162  1.00  0.00     0.119 A 
HETATM   34  C2  UNL     1     -25.689  24.444 -25.223  1.00  0.00     0.183 A 
ATOM     35  H3  UNL     1     -25.289  22.405 -25.361  1.00  0.00     0.168 HD
HETATM   36  N2  UNL     1     -26.678  25.370 -25.096  1.00  0.00    -0.339 N 
HETATM   37  C1  UNL     1     -27.981  25.065 -25.058  1.00  0.00     0.148 A 
ATOM     38  H2  UNL     1     -26.411  26.352 -25.025  1.00  0.00     0.167 HD
HETATM   39  N1  UNL     1     -29.040  25.976 -24.807  1.00  0.00    -0.080 NA
HETATM   40  N4  UNL     1     -29.436  23.078 -25.042  1.00  0.00    -0.346 N 
HETATM   41  C5  UNL     1     -29.244  21.773 -25.044  1.00  0.00     0.188 A 
ATOM     42  H4  UNL     1     -30.344  23.537 -24.960  1.00  0.00     0.167 HD
ENDBRANCH   1  30
BRANCH   5  43
HETATM   43  O14 UNL     1     -27.063  20.243 -27.706  1.00  0.00    -0.388 OA
ATOM     44  H14 UNL     1     -26.801  20.980 -28.244  1.00  0.00     0.210 HD
ENDBRANCH   5  43
TORSDOF 14
ENDMDL
