MODEL 20
REMARK VINA RESULT: -9.492753130      1.282      2.271
REMARK  14 active torsions:
REMARK  status: ('A' for Active; 'I' for Inactive)
REMARK    1  A    between atoms: N5_13  and  C6_14 
REMARK    2  A    between atoms: C7_16  and  C8_17 
REMARK    3  A    between atoms: C8_17  and  O2_18 
REMARK    4  A    between atoms: O2_18  and  P1_19 
REMARK    5  A    between atoms: P1_19  and  O5_22 
REMARK    6  A    between atoms: O5_22  and  P2_23 
REMARK    7  A    between atoms: P2_23  and  O8_26 
REMARK    8  A    between atoms: O8_26  and  C9_27 
REMARK    9  A    between atoms: C9_27  and  C10_28 
REMARK   10  A    between atoms: C11_30  and  O10_31 
REMARK   11  A    between atoms: C12_33  and  O11_34 
REMARK   12  A    between atoms: C13_36  and  O12_37 
REMARK   13  A    between atoms: C14_39  and  O13_40 
REMARK   14  A    between atoms: C15_42  and  O14_43 
ROOT
HETATM    1  C6  UNL     1     -25.242  11.325 -22.714  1.00  0.00     0.262 C 
HETATM    2  O1  UNL     1     -25.666  12.633 -23.104  1.00  0.00    -0.353 OA
HETATM    3  C7  UNL     1     -25.750  13.186 -21.852  1.00  0.00     0.180 C 
HETATM    4  C14 UNL     1     -24.301  12.854 -21.282  1.00  0.00     0.182 C 
HETATM    5  C15 UNL     1     -23.857  11.781 -22.234  1.00  0.00     0.198 C 
ENDROOT
BRANCH   3   6
HETATM    6  C8  UNL     1     -25.862  14.665 -21.707  1.00  0.00     0.216 C 
BRANCH   6   7
HETATM    7  O2  UNL     1     -25.150  15.236 -22.779  1.00  0.00    -0.287 OA
BRANCH   7   8
HETATM    8  P1  UNL     1     -25.967  16.628 -23.184  1.00  0.00     0.417 P 
HETATM    9  O3  UNL     1     -25.846  17.926 -22.154  1.00  0.00    -0.624 OA
HETATM   10  O4  UNL     1     -27.273  16.218 -22.659  1.00  0.00    -0.624 OA
BRANCH   8  11
HETATM   11  O5  UNL     1     -26.421  16.800 -24.736  1.00  0.00    -0.180 OA
BRANCH  11  12
HETATM   12  P2  UNL     1     -25.788  17.765 -25.713  1.00  0.00     0.417 P 
HETATM   13  O6  UNL     1     -26.098  16.742 -26.937  1.00  0.00    -0.624 OA
HETATM   14  O7  UNL     1     -24.274  17.572 -24.937  1.00  0.00    -0.624 OA
BRANCH  12  15
HETATM   15  O8  UNL     1     -26.639  19.019 -25.202  1.00  0.00    -0.287 OA
BRANCH  15  16
HETATM   16  C9  UNL     1     -26.026  20.205 -24.943  1.00  0.00     0.216 C 
BRANCH  16  17
HETATM   17  C10 UNL     1     -26.274  21.184 -26.067  1.00  0.00     0.180 C 
HETATM   18  O9  UNL     1     -27.572  21.582 -26.082  1.00  0.00    -0.349 OA
HETATM   19  C11 UNL     1     -27.663  22.581 -25.121  1.00  0.00     0.288 C 
HETATM   20  C12 UNL     1     -26.331  23.302 -25.111  1.00  0.00     0.204 C 
HETATM   21  C13 UNL     1     -25.462  22.429 -25.990  1.00  0.00     0.182 C 
BRANCH  19  22
HETATM   22  O10 UNL     1     -28.665  23.454 -25.542  1.00  0.00    -0.369 OA
ATOM     23  H10 UNL     1     -28.378  23.820 -26.370  1.00  0.00     0.212 HD
ENDBRANCH  19  22
BRANCH  20  24
HETATM   24  O11 UNL     1     -26.441  24.564 -25.624  1.00  0.00    -0.388 OA
ATOM     25  H11 UNL     1     -25.588  24.949 -25.786  1.00  0.00     0.210 HD
ENDBRANCH  20  24
BRANCH  21  26
HETATM   26  O12 UNL     1     -25.380  22.916 -27.313  1.00  0.00    -0.390 OA
ATOM     27  H12 UNL     1     -25.000  22.211 -27.824  1.00  0.00     0.210 HD
ENDBRANCH  21  26
ENDBRANCH  16  17
ENDBRANCH  15  16
ENDBRANCH  12  15
ENDBRANCH  11  12
ENDBRANCH   8  11
ENDBRANCH   7   8
ENDBRANCH   6   7
ENDBRANCH   3   6
BRANCH   4  28
HETATM   28  O13 UNL     1     -24.349  12.363 -20.023  1.00  0.00    -0.390 OA
ATOM     29  H13 UNL     1     -23.783  12.843 -19.430  1.00  0.00     0.210 HD
ENDBRANCH   4  28
BRANCH   1  30
HETATM   30  N5  UNL     1     -25.104  10.428 -23.787  1.00  0.00    -0.297 N 
HETATM   31  C3  UNL     1     -25.832   9.311 -24.064  1.00  0.00     0.142 A 
HETATM   32  N3  UNL     1     -26.748   8.645 -23.410  1.00  0.00    -0.336 N 
HETATM   33  C4  UNL     1     -25.313   8.802 -25.236  1.00  0.00     0.119 A 
HETATM   34  C2  UNL     1     -27.206   7.447 -23.905  1.00  0.00     0.183 A 
ATOM     35  H3  UNL     1     -27.122   9.014 -22.535  1.00  0.00     0.168 HD
HETATM   36  N2  UNL     1     -26.669   6.953 -25.053  1.00  0.00    -0.339 N 
HETATM   37  C1  UNL     1     -25.722   7.581 -25.761  1.00  0.00     0.148 A 
ATOM     38  H2  UNL     1     -27.007   6.053 -25.395  1.00  0.00     0.167 HD
HETATM   39  N1  UNL     1     -25.047   7.057 -26.893  1.00  0.00    -0.080 NA
HETATM   40  N4  UNL     1     -24.323   9.604 -25.630  1.00  0.00    -0.346 N 
HETATM   41  C5  UNL     1     -24.165  10.583 -24.758  1.00  0.00     0.188 A 
ATOM     42  H4  UNL     1     -23.770   9.480 -26.478  1.00  0.00     0.167 HD
ENDBRANCH   1  30
BRANCH   5  43
HETATM   43  O14 UNL     1     -23.114  10.805 -21.643  1.00  0.00    -0.388 OA
ATOM     44  H14 UNL     1     -22.327  11.116 -21.212  1.00  0.00     0.210 HD
ENDBRANCH   5  43
TORSDOF 14
ENDMDL
