MODEL 5
REMARK VINA RESULT: -10.042902694      6.281     12.064
REMARK  14 active torsions:
REMARK  status: ('A' for Active; 'I' for Inactive)
REMARK    1  A    between atoms: N5_13  and  C6_14 
REMARK    2  A    between atoms: C7_16  and  C8_17 
REMARK    3  A    between atoms: C8_17  and  O2_18 
REMARK    4  A    between atoms: O2_18  and  P1_19 
REMARK    5  A    between atoms: P1_19  and  O5_22 
REMARK    6  A    between atoms: O5_22  and  P2_23 
REMARK    7  A    between atoms: P2_23  and  O8_26 
REMARK    8  A    between atoms: O8_26  and  C9_27 
REMARK    9  A    between atoms: C9_27  and  C10_28 
REMARK   10  A    between atoms: C11_30  and  O10_31 
REMARK   11  A    between atoms: C12_33  and  O11_34 
REMARK   12  A    between atoms: C13_36  and  O12_37 
REMARK   13  A    between atoms: C14_39  and  O13_40 
REMARK   14  A    between atoms: C15_42  and  O14_43 
ROOT
HETATM    1  C6  UNL     1     -26.731  22.409 -25.806  1.00  0.00     0.262 C 
HETATM    2  O1  UNL     1     -27.354  21.177 -25.438  1.00  0.00    -0.353 OA
HETATM    3  C7  UNL     1     -26.394  20.327 -25.924  1.00  0.00     0.180 C 
HETATM    4  C14 UNL     1     -25.092  20.913 -25.218  1.00  0.00     0.182 C 
HETATM    5  C15 UNL     1     -25.577  22.272 -24.802  1.00  0.00     0.198 C 
ENDROOT
BRANCH   3   6
HETATM    6  C8  UNL     1     -26.407  18.893 -25.519  1.00  0.00     0.216 C 
BRANCH   6   7
HETATM    7  O2  UNL     1     -25.472  18.754 -24.477  1.00  0.00    -0.287 OA
BRANCH   7   8
HETATM    8  P1  UNL     1     -26.199  17.787 -23.334  1.00  0.00     0.417 P 
HETATM    9  O3  UNL     1     -27.707  18.225 -22.792  1.00  0.00    -0.624 OA
HETATM   10  O4  UNL     1     -25.516  18.356 -22.169  1.00  0.00    -0.624 OA
BRANCH   8  11
HETATM   11  O5  UNL     1     -25.634  16.270 -23.174  1.00  0.00    -0.180 OA
BRANCH  11  12
HETATM   12  P2  UNL     1     -26.493  15.062 -22.874  1.00  0.00     0.417 P 
HETATM   13  O6  UNL     1     -27.650  15.628 -23.865  1.00  0.00    -0.624 OA
HETATM   14  O7  UNL     1     -26.609  15.540 -21.234  1.00  0.00    -0.624 OA
BRANCH  12  15
HETATM   15  O8  UNL     1     -25.324  14.013 -23.177  1.00  0.00    -0.287 OA
BRANCH  15  16
HETATM   16  C9  UNL     1     -25.610  12.693 -23.329  1.00  0.00     0.216 C 
BRANCH  16  17
HETATM   17  C10 UNL     1     -26.059  12.095 -22.016  1.00  0.00     0.180 C 
HETATM   18  O9  UNL     1     -27.163  11.323 -22.190  1.00  0.00    -0.349 OA
HETATM   19  C11 UNL     1     -26.689  10.099 -22.646  1.00  0.00     0.288 C 
HETATM   20  C12 UNL     1     -25.334   9.886 -22.002  1.00  0.00     0.204 C 
HETATM   21  C13 UNL     1     -25.047  11.224 -21.357  1.00  0.00     0.182 C 
BRANCH  19  22
HETATM   22  O10 UNL     1     -27.581   9.128 -22.193  1.00  0.00    -0.369 OA
ATOM     23  H10 UNL     1     -27.092   8.317 -22.126  1.00  0.00     0.212 HD
ENDBRANCH  19  22
BRANCH  20  24
HETATM   24  O11 UNL     1     -25.375   8.887 -21.070  1.00  0.00    -0.388 OA
ATOM     25  H11 UNL     1     -25.920   9.126 -20.329  1.00  0.00     0.210 HD
ENDBRANCH  20  24
BRANCH  21  26
HETATM   26  O12 UNL     1     -25.369  11.235 -19.982  1.00  0.00    -0.390 OA
ATOM     27  H12 UNL     1     -25.222  12.127 -19.690  1.00  0.00     0.210 HD
ENDBRANCH  21  26
ENDBRANCH  16  17
ENDBRANCH  15  16
ENDBRANCH  12  15
ENDBRANCH  11  12
ENDBRANCH   8  11
ENDBRANCH   7   8
ENDBRANCH   6   7
ENDBRANCH   3   6
BRANCH   4  28
HETATM   28  O13 UNL     1     -24.057  21.035 -26.078  1.00  0.00    -0.390 OA
ATOM     29  H13 UNL     1     -23.674  21.905 -26.057  1.00  0.00     0.210 HD
ENDBRANCH   4  28
BRANCH   1  30
HETATM   30  N5  UNL     1     -27.497  23.548 -25.500  1.00  0.00    -0.297 N 
HETATM   31  C3  UNL     1     -27.189  24.860 -25.694  1.00  0.00     0.142 A 
HETATM   32  N3  UNL     1     -26.105  25.488 -26.068  1.00  0.00    -0.336 N 
HETATM   33  C4  UNL     1     -28.281  25.574 -25.247  1.00  0.00     0.119 A 
HETATM   34  C2  UNL     1     -26.063  26.861 -26.033  1.00  0.00     0.183 A 
ATOM     35  H3  UNL     1     -25.291  24.959 -26.385  1.00  0.00     0.168 HD
HETATM   36  N2  UNL     1     -27.144  27.548 -25.573  1.00  0.00    -0.339 N 
HETATM   37  C1  UNL     1     -28.277  26.963 -25.166  1.00  0.00     0.148 A 
ATOM     38  H2  UNL     1     -27.088  28.566 -25.536  1.00  0.00     0.167 HD
HETATM   39  N1  UNL     1     -29.383  27.620 -24.568  1.00  0.00    -0.080 NA
HETATM   40  N4  UNL     1     -29.194  24.703 -24.817  1.00  0.00    -0.346 N 
HETATM   41  C5  UNL     1     -28.734  23.473 -24.941  1.00  0.00     0.188 A 
ATOM     42  H4  UNL     1     -30.112  24.951 -24.448  1.00  0.00     0.167 HD
ENDBRANCH   1  30
BRANCH   5  43
HETATM   43  O14 UNL     1     -24.627  23.240 -24.898  1.00  0.00    -0.388 OA
ATOM     44  H14 UNL     1     -24.861  24.065 -24.490  1.00  0.00     0.210 HD
ENDBRANCH   5  43
TORSDOF 14
ENDMDL
