MODEL 2
REMARK VINA RESULT: -10.217313320      4.803      9.733
REMARK  14 active torsions:
REMARK  status: ('A' for Active; 'I' for Inactive)
REMARK    1  A    between atoms: N5_13  and  C6_14 
REMARK    2  A    between atoms: C7_16  and  C8_17 
REMARK    3  A    between atoms: C8_17  and  O2_18 
REMARK    4  A    between atoms: O2_18  and  P1_19 
REMARK    5  A    between atoms: P1_19  and  O5_22 
REMARK    6  A    between atoms: O5_22  and  P2_23 
REMARK    7  A    between atoms: P2_23  and  O8_26 
REMARK    8  A    between atoms: O8_26  and  C9_27 
REMARK    9  A    between atoms: C9_27  and  C10_28 
REMARK   10  A    between atoms: C11_30  and  O10_31 
REMARK   11  A    between atoms: C12_33  and  O11_34 
REMARK   12  A    between atoms: C13_36  and  O12_37 
REMARK   13  A    between atoms: C14_39  and  O13_40 
REMARK   14  A    between atoms: C15_42  and  O14_43 
ROOT
HETATM    1  C6  UNL     1     -25.394  16.694 -23.144  1.00  0.00     0.262 C 
HETATM    2  O1  UNL     1     -24.381  15.874 -23.728  1.00  0.00    -0.353 OA
HETATM    3  C7  UNL     1     -24.283  14.946 -22.722  1.00  0.00     0.180 C 
HETATM    4  C14 UNL     1     -25.807  14.509 -22.574  1.00  0.00     0.182 C 
HETATM    5  C15 UNL     1     -26.502  15.639 -23.277  1.00  0.00     0.198 C 
ENDROOT
BRANCH   3   6
HETATM    6  C8  UNL     1     -23.564  13.665 -22.970  1.00  0.00     0.216 C 
BRANCH   6   7
HETATM    7  O2  UNL     1     -22.353  13.732 -22.257  1.00  0.00    -0.287 OA
BRANCH   7   8
HETATM    8  P1  UNL     1     -22.505  12.663 -20.991  1.00  0.00     0.417 P 
HETATM    9  O3  UNL     1     -23.897  12.726 -20.085  1.00  0.00    -0.624 OA
HETATM   10  O4  UNL     1     -21.731  13.439 -20.018  1.00  0.00    -0.624 OA
BRANCH   8  11
HETATM   11  O5  UNL     1     -21.547  11.349 -21.006  1.00  0.00    -0.180 OA
BRANCH  11  12
HETATM   12  P2  UNL     1     -21.634  10.236 -22.026  1.00  0.00     0.417 P 
HETATM   13  O6  UNL     1     -20.642   9.319 -21.122  1.00  0.00    -0.624 OA
HETATM   14  O7  UNL     1     -20.877  11.234 -23.194  1.00  0.00    -0.624 OA
BRANCH  12  15
HETATM   15  O8  UNL     1     -23.233  10.252 -22.076  1.00  0.00    -0.287 OA
BRANCH  15  16
HETATM   16  C9  UNL     1     -23.886   9.964 -23.233  1.00  0.00     0.216 C 
BRANCH  16  17
HETATM   17  C10 UNL     1     -25.324  10.420 -23.155  1.00  0.00     0.180 C 
HETATM   18  O9  UNL     1     -26.123   9.624 -23.912  1.00  0.00    -0.349 OA
HETATM   19  C11 UNL     1     -26.380   8.506 -23.128  1.00  0.00     0.288 C 
HETATM   20  C12 UNL     1     -26.406   8.977 -21.689  1.00  0.00     0.204 C 
HETATM   21  C13 UNL     1     -25.905  10.402 -21.784  1.00  0.00     0.182 C 
BRANCH  19  22
HETATM   22  O10 UNL     1     -27.642   8.041 -23.493  1.00  0.00    -0.369 OA
ATOM     23  H10 UNL     1     -27.557   7.676 -24.366  1.00  0.00     0.212 HD
ENDBRANCH  19  22
BRANCH  20  24
HETATM   24  O11 UNL     1     -27.671   8.934 -21.172  1.00  0.00    -0.388 OA
ATOM     25  H11 UNL     1     -27.712   9.346 -20.317  1.00  0.00     0.210 HD
ENDBRANCH  20  24
BRANCH  21  26
HETATM   26  O12 UNL     1     -26.958  11.341 -21.801  1.00  0.00    -0.390 OA
ATOM     27  H12 UNL     1     -27.092  11.594 -20.896  1.00  0.00     0.210 HD
ENDBRANCH  21  26
ENDBRANCH  16  17
ENDBRANCH  15  16
ENDBRANCH  12  15
ENDBRANCH  11  12
ENDBRANCH   8  11
ENDBRANCH   7   8
ENDBRANCH   6   7
ENDBRANCH   3   6
BRANCH   4  28
HETATM   28  O13 UNL     1     -26.199  14.459 -21.281  1.00  0.00    -0.390 OA
ATOM     29  H13 UNL     1     -27.096  14.159 -21.190  1.00  0.00     0.210 HD
ENDBRANCH   4  28
BRANCH   1  30
HETATM   30  N5  UNL     1     -25.721  17.827 -23.909  1.00  0.00    -0.297 N 
HETATM   31  C3  UNL     1     -25.939  17.916 -25.250  1.00  0.00     0.142 A 
HETATM   32  N3  UNL     1     -25.793  17.082 -26.246  1.00  0.00    -0.336 N 
HETATM   33  C4  UNL     1     -26.248  19.238 -25.496  1.00  0.00     0.119 A 
HETATM   34  C2  UNL     1     -25.967  17.522 -27.537  1.00  0.00     0.183 A 
ATOM     35  H3  UNL     1     -25.551  16.107 -26.066  1.00  0.00     0.168 HD
HETATM   36  N2  UNL     1     -26.254  18.833 -27.761  1.00  0.00    -0.339 N 
HETATM   37  C1  UNL     1     -26.405  19.736 -26.785  1.00  0.00     0.148 A 
ATOM     38  H2  UNL     1     -26.361  19.145 -28.726  1.00  0.00     0.167 HD
HETATM   39  N1  UNL     1     -26.585  21.132 -26.966  1.00  0.00    -0.080 NA
HETATM   40  N4  UNL     1     -26.218  19.890 -24.333  1.00  0.00    -0.346 N 
HETATM   41  C5  UNL     1     -25.882  19.061 -23.363  1.00  0.00     0.188 A 
ATOM     42  H4  UNL     1     -26.425  20.881 -24.212  1.00  0.00     0.167 HD
ENDBRANCH   1  30
BRANCH   5  43
HETATM   43  O14 UNL     1     -27.686  15.987 -22.706  1.00  0.00    -0.388 OA
ATOM     44  H14 UNL     1     -28.201  15.255 -22.387  1.00  0.00     0.210 HD
ENDBRANCH   5  43
TORSDOF 14
ENDMDL
