MODEL 3
REMARK VINA RESULT: -7.339561949      1.905      3.160
REMARK  10 active torsions:
REMARK  status: ('A' for Active; 'I' for Inactive)
REMARK    1  A    between atoms: N4_10  and  C5_11 
REMARK    2  A    between atoms: C6_13  and  C7_14 
REMARK    3  A    between atoms: C7_14  and  O2_15 
REMARK    4  A    between atoms: O2_15  and  P1_16 
REMARK    5  A    between atoms: P1_16  and  O5_19 
REMARK    6  A    between atoms: O5_19  and  P2_20 
REMARK    7  A    between atoms: P2_20  and  N5_23 
REMARK    8  A    between atoms: N5_23  and  P3_25 
REMARK    9  A    between atoms: C8_29  and  O11_30 
REMARK   10  A    between atoms: C9_32  and  O12_33 
ROOT
HETATM    1  C5  UNL     1      -0.174 -18.941   8.165  1.00  0.00     0.262 C 
HETATM    2  O1  UNL     1      -0.796 -18.079   7.304  1.00  0.00    -0.353 OA
HETATM    3  C6  UNL     1      -2.147 -18.301   7.573  1.00  0.00     0.180 C 
HETATM    4  C8  UNL     1      -2.210 -18.159   9.064  1.00  0.00     0.182 C 
HETATM    5  C9  UNL     1      -0.851 -18.633   9.505  1.00  0.00     0.198 C 
ENDROOT
BRANCH   3   6
HETATM    6  C7  UNL     1      -3.052 -17.394   6.825  1.00  0.00     0.216 C 
BRANCH   6   7
HETATM    7  O2  UNL     1      -2.314 -16.996   5.693  1.00  0.00    -0.287 OA
BRANCH   7   8
HETATM    8  P1  UNL     1      -2.379 -15.498   5.394  1.00  0.00     0.417 P 
HETATM    9  O3  UNL     1      -4.061 -15.603   5.450  1.00  0.00    -0.624 OA
HETATM   10  O4  UNL     1      -1.632 -15.097   6.807  1.00  0.00    -0.624 OA
BRANCH   8  11
HETATM   11  O5  UNL     1      -1.604 -15.641   3.984  1.00  0.00    -0.186 OA
BRANCH  11  12
HETATM   12  P2  UNL     1      -2.213 -15.442   2.610  1.00  0.00     0.379 P 
HETATM   13  O6  UNL     1      -0.867 -16.028   1.884  1.00  0.00    -0.629 OA
HETATM   14  O7  UNL     1      -2.407 -13.832   2.801  1.00  0.00    -0.629 OA
BRANCH  12  15
HETATM   15  N5  UNL     1      -3.535 -16.498   2.984  1.00  0.00    -0.218 N 
ATOM     16  H5  UNL     1      -3.520 -17.052   3.841  1.00  0.00     0.179 HD
BRANCH  15  17
HETATM   17  P3  UNL     1      -4.812 -16.607   1.955  1.00  0.00     0.381 P 
HETATM   18  O8  UNL     1      -5.860 -15.350   1.754  1.00  0.00    -0.622 OA
HETATM   19  O9  UNL     1      -4.131 -16.268   0.615  1.00  0.00    -0.622 OA
HETATM   20  O10 UNL     1      -5.226 -18.111   1.229  1.00  0.00    -0.622 OA
ENDBRANCH  15  17
ENDBRANCH  12  15
ENDBRANCH  11  12
ENDBRANCH   8  11
ENDBRANCH   7   8
ENDBRANCH   6   7
ENDBRANCH   3   6
BRANCH   4  21
HETATM   21  O11 UNL     1      -3.243 -18.913   9.598  1.00  0.00    -0.390 OA
ATOM     22  H11 UNL     1      -3.994 -18.930   9.017  1.00  0.00     0.210 HD
ENDBRANCH   4  21
BRANCH   1  23
HETATM   23  N4  UNL     1       1.232 -18.725   8.320  1.00  0.00    -0.297 N 
HETATM   24  C2  UNL     1       2.203 -19.524   8.802  1.00  0.00     0.146 A 
HETATM   25  N2  UNL     1       2.125 -20.760   9.278  1.00  0.00    -0.314 N 
HETATM   26  C3  UNL     1       3.409 -18.857   8.745  1.00  0.00     0.146 A 
HETATM   27  C1  UNL     1       3.273 -21.353   9.710  1.00  0.00     0.196 A 
ATOM     28  H2  UNL     1       1.232 -21.251   9.320  1.00  0.00     0.170 HD
HETATM   29  N1  UNL     1       3.227 -22.654  10.217  1.00  0.00    -0.063 NA
HETATM   30  N6  UNL     1       4.463 -20.711   9.659  1.00  0.00    -0.295 N 
HETATM   31  C10 UNL     1       4.558 -19.461   9.180  1.00  0.00     0.278 A 
ATOM     32  H6  UNL     1       5.303 -21.185   9.990  1.00  0.00     0.171 HD
HETATM   33  O13 UNL     1       5.645 -18.821   9.113  1.00  0.00    -0.265 OA
HETATM   34  N3  UNL     1       3.159 -17.662   8.228  1.00  0.00    -0.345 N 
HETATM   35  C4  UNL     1       1.846 -17.574   7.969  1.00  0.00     0.188 A 
ATOM     36  H3  UNL     1       3.850 -16.932   8.057  1.00  0.00     0.167 HD
ENDBRANCH   1  23
BRANCH   5  37
HETATM   37  O12 UNL     1      -0.911 -19.772  10.273  1.00  0.00    -0.388 OA
ATOM     38  H12 UNL     1      -0.909 -19.542  11.195  1.00  0.00     0.210 HD
ENDBRANCH   5  37
TORSDOF 10
ENDMDL
