MODEL 4
REMARK VINA RESULT: -7.302049742      1.901      3.006
REMARK  10 active torsions:
REMARK  status: ('A' for Active; 'I' for Inactive)
REMARK    1  A    between atoms: N4_10  and  C5_11 
REMARK    2  A    between atoms: C6_13  and  C7_14 
REMARK    3  A    between atoms: C7_14  and  O2_15 
REMARK    4  A    between atoms: O2_15  and  P1_16 
REMARK    5  A    between atoms: P1_16  and  O5_19 
REMARK    6  A    between atoms: O5_19  and  P2_20 
REMARK    7  A    between atoms: P2_20  and  N5_23 
REMARK    8  A    between atoms: N5_23  and  P3_25 
REMARK    9  A    between atoms: C8_29  and  O11_30 
REMARK   10  A    between atoms: C9_32  and  O12_33 
ROOT
HETATM    1  C5  UNL     1      -0.102 -18.894   7.705  1.00  0.00     0.262 C 
HETATM    2  O1  UNL     1      -0.448 -18.574   6.420  1.00  0.00    -0.353 OA
HETATM    3  C6  UNL     1      -1.842 -18.565   6.474  1.00  0.00     0.180 C 
HETATM    4  C8  UNL     1      -2.118 -17.669   7.644  1.00  0.00     0.182 C 
HETATM    5  C9  UNL     1      -0.930 -17.907   8.537  1.00  0.00     0.198 C 
ENDROOT
BRANCH   3   6
HETATM    6  C7  UNL     1      -2.476 -18.137   5.203  1.00  0.00     0.216 C 
BRANCH   6   7
HETATM    7  O2  UNL     1      -1.552 -17.251   4.616  1.00  0.00    -0.287 OA
BRANCH   7   8
HETATM    8  P1  UNL     1      -2.187 -16.045   3.924  1.00  0.00     0.417 P 
HETATM    9  O3  UNL     1      -1.527 -15.061   5.124  1.00  0.00    -0.624 OA
HETATM   10  O4  UNL     1      -1.276 -16.238   2.564  1.00  0.00    -0.624 OA
BRANCH   8  11
HETATM   11  O5  UNL     1      -3.690 -16.617   4.080  1.00  0.00    -0.186 OA
BRANCH  11  12
HETATM   12  P2  UNL     1      -4.934 -16.034   3.442  1.00  0.00     0.379 P 
HETATM   13  O6  UNL     1      -4.765 -14.642   4.287  1.00  0.00    -0.629 OA
HETATM   14  O7  UNL     1      -5.914 -17.216   3.996  1.00  0.00    -0.629 OA
BRANCH  12  15
HETATM   15  N5  UNL     1      -4.254 -16.181   1.855  1.00  0.00    -0.218 N 
ATOM     16  H5  UNL     1      -3.661 -16.979   1.625  1.00  0.00     0.179 HD
BRANCH  15  17
HETATM   17  P3  UNL     1      -4.565 -15.033   0.721  1.00  0.00     0.381 P 
HETATM   18  O8  UNL     1      -5.692 -13.856   0.979  1.00  0.00    -0.622 OA
HETATM   19  O9  UNL     1      -3.434 -14.028   1.012  1.00  0.00    -0.622 OA
HETATM   20  O10 UNL     1      -3.890 -15.155  -0.857  1.00  0.00    -0.622 OA
ENDBRANCH  15  17
ENDBRANCH  12  15
ENDBRANCH  11  12
ENDBRANCH   8  11
ENDBRANCH   7   8
ENDBRANCH   6   7
ENDBRANCH   3   6
BRANCH   4  21
HETATM   21  O11 UNL     1      -3.322 -17.992   8.252  1.00  0.00    -0.390 OA
ATOM     22  H11 UNL     1      -4.058 -17.636   7.769  1.00  0.00     0.210 HD
ENDBRANCH   4  21
BRANCH   1  23
HETATM   23  N4  UNL     1       1.278 -18.691   8.024  1.00  0.00    -0.297 N 
HETATM   24  C2  UNL     1       2.193 -19.519   8.565  1.00  0.00     0.146 A 
HETATM   25  N2  UNL     1       2.066 -20.777   8.963  1.00  0.00    -0.314 N 
HETATM   26  C3  UNL     1       3.396 -18.853   8.675  1.00  0.00     0.146 A 
HETATM   27  C1  UNL     1       3.162 -21.396   9.485  1.00  0.00     0.196 A 
ATOM     28  H2  UNL     1       1.175 -21.267   8.881  1.00  0.00     0.170 HD
HETATM   29  N1  UNL     1       3.065 -22.722   9.914  1.00  0.00    -0.063 NA
HETATM   30  N6  UNL     1       4.349 -20.757   9.598  1.00  0.00    -0.295 N 
HETATM   31  C10 UNL     1       4.492 -19.484   9.200  1.00  0.00     0.278 A 
ATOM     32  H6  UNL     1       5.149 -21.251   9.992  1.00  0.00     0.171 HD
HETATM   33  O13 UNL     1       5.579 -18.845   9.285  1.00  0.00    -0.265 OA
HETATM   34  N3  UNL     1       3.201 -17.632   8.198  1.00  0.00    -0.345 N 
HETATM   35  C4  UNL     1       1.924 -17.526   7.803  1.00  0.00     0.188 A 
ATOM     36  H3  UNL     1       3.905 -16.896   8.142  1.00  0.00     0.167 HD
ENDBRANCH   1  23
BRANCH   5  37
HETATM   37  O12 UNL     1      -1.275 -18.480   9.738  1.00  0.00    -0.388 OA
ATOM     38  H12 UNL     1      -0.548 -18.424  10.346  1.00  0.00     0.210 HD
ENDBRANCH   5  37
TORSDOF 10
ENDMDL
