MODEL 1
REMARK VINA RESULT: -9.303522026      0.000      0.000
REMARK  15 active torsions:
REMARK  status: ('A' for Active; 'I' for Inactive)
REMARK    1  A    between atoms: O1_2  and  C2_3 
REMARK    2  A    between atoms: C5_6  and  S1_7 
REMARK    3  A    between atoms: S1_7  and  N1_10 
REMARK    4  A    between atoms: N1_10  and  C6_11 
REMARK    5  A    between atoms: N1_10  and  C10_15 
REMARK    6  A    between atoms: C6_11  and  C7_12 
REMARK    7  A    between atoms: C10_15  and  C11_16 
REMARK    8  A    between atoms: C11_16  and  O4_17 
REMARK    9  A    between atoms: C11_16  and  C12_19 
REMARK   10  A    between atoms: C12_19  and  C13_20 
REMARK   11  A    between atoms: C12_19  and  N2_27 
REMARK   12  A    between atoms: C13_20  and  C14_21 
REMARK       I    between atoms: N2_27  and  C20_29 
REMARK   13  A    between atoms: C20_29  and  O6_31 
REMARK   14  A    between atoms: O6_31  and  C21_32 
REMARK   15  A    between atoms: C25_38  and  O9_39 
ROOT
HETATM    1  C12 UNL     1      15.816  23.237  17.242  1.00  0.00     0.120 C 
ENDROOT
BRANCH   1   2
HETATM    2  C11 UNL     1      16.338  24.387  18.059  1.00  0.00     0.155 C 
BRANCH   2   3
HETATM    3  C10 UNL     1      17.093  25.444  17.327  1.00  0.00     0.141 C 
BRANCH   3   4
HETATM    4  N1  UNL     1      18.516  25.446  17.441  1.00  0.00    -0.204 NA
BRANCH   4   5
HETATM    5  S1  UNL     1      19.255  25.548  15.902  1.00  0.00     0.243 S 
HETATM    6  O2  UNL     1      18.310  26.054  14.824  1.00  0.00    -0.206 OA
HETATM    7  O3  UNL     1      19.782  24.250  15.375  1.00  0.00    -0.206 OA
BRANCH   5   8
HETATM    8  C5  UNL     1      20.620  26.659  15.873  1.00  0.00     0.074 A 
HETATM    9  C4  UNL     1      21.001  27.350  14.741  1.00  0.00     0.027 A 
HETATM   10  C3  UNL     1      22.086  28.226  14.751  1.00  0.00     0.038 A 
HETATM   11  C2  UNL     1      22.813  28.429  15.886  1.00  0.00     0.068 A 
HETATM   12  C29 UNL     1      22.455  27.753  17.024  1.00  0.00     0.038 A 
HETATM   13  C28 UNL     1      21.365  26.878  17.001  1.00  0.00     0.027 A 
BRANCH  11  14
HETATM   14  O1  UNL     1      23.913  29.295  15.964  1.00  0.00    -0.356 OA
HETATM   15  C1  UNL     1      25.202  28.935  15.555  1.00  0.00     0.210 C 
ENDBRANCH  11  14
ENDBRANCH   5   8
ENDBRANCH   4   5
BRANCH   4  16
HETATM   16  C6  UNL     1      19.022  24.325  18.182  1.00  0.00     0.111 C 
BRANCH  16  17
HETATM   17  C7  UNL     1      19.743  24.617  19.454  1.00  0.00    -0.009 C 
HETATM   18  C8  UNL     1      21.121  23.945  19.520  1.00  0.00     0.011 C 
HETATM   19  C9  UNL     1      19.046  24.272  20.721  1.00  0.00     0.011 C 
ENDBRANCH  16  17
ENDBRANCH   4  16
ENDBRANCH   3   4
ENDBRANCH   2   3
BRANCH   2  20
HETATM   20  O4  UNL     1      15.225  25.016  18.716  1.00  0.00    -0.392 OA
ATOM     21  H4  UNL     1      14.668  25.398  18.047  1.00  0.00     0.210 HD
ENDBRANCH   2  20
ENDBRANCH   1   2
BRANCH   1  22
HETATM   22  C13 UNL     1      15.545  23.612  15.827  1.00  0.00     0.066 C 
BRANCH  22  23
HETATM   23  C14 UNL     1      14.608  22.709  15.122  1.00  0.00    -0.056 A 
HETATM   24  C15 UNL     1      15.043  21.503  14.609  1.00  0.00     0.007 A 
HETATM   25  C16 UNL     1      14.165  20.651  13.936  1.00  0.00     0.001 A 
HETATM   26  C17 UNL     1      12.847  21.007  13.774  1.00  0.00     0.000 A 
HETATM   27  C18 UNL     1      12.385  22.191  14.268  1.00  0.00     0.001 A 
HETATM   28  C19 UNL     1      13.276  23.015  14.930  1.00  0.00     0.007 A 
ENDBRANCH  22  23
ENDBRANCH   1  22
BRANCH   1  29
HETATM   29  N2  UNL     1      14.804  22.470  17.890  1.00  0.00    -0.329 N 
HETATM   30  C20 UNL     1      14.952  21.495  18.906  1.00  0.00     0.361 C 
HETATM   31  O5  UNL     1      16.067  21.192  19.392  1.00  0.00    -0.238 OA
ATOM     32  H2  UNL     1      13.849  22.646  17.580  1.00  0.00     0.165 HD
BRANCH  30  33
HETATM   33  O6  UNL     1      13.825  20.814  19.424  1.00  0.00    -0.296 OA
BRANCH  33  34
HETATM   34  C21 UNL     1      13.870  19.416  19.489  1.00  0.00     0.169 C 
HETATM   35  C22 UNL     1      13.342  18.866  20.782  1.00  0.00     0.204 C 
HETATM   36  O7  UNL     1      12.741  17.663  20.552  1.00  0.00    -0.358 OA
HETATM   37  C23 UNL     1      12.723  17.412  19.205  1.00  0.00     0.268 C 
HETATM   38  O8  UNL     1      11.451  17.028  18.851  1.00  0.00    -0.358 OA
HETATM   39  C27 UNL     1      13.047  18.694  18.469  1.00  0.00     0.104 C 
HETATM   40  C24 UNL     1      10.748  18.155  18.480  1.00  0.00     0.203 C 
HETATM   41  C25 UNL     1      11.697  19.268  18.219  1.00  0.00     0.156 C 
BRANCH  41  42
HETATM   42  O9  UNL     1      11.536  19.727  16.912  1.00  0.00    -0.388 OA
HETATM   43  C26 UNL     1      10.207  19.840  16.525  1.00  0.00     0.202 C 
ENDBRANCH  41  42
ENDBRANCH  33  34
ENDBRANCH  30  33
ENDBRANCH   1  29
TORSDOF 15
ENDMDL
