MODEL 6
REMARK VINA RESULT: -9.081039939      3.008      9.787
REMARK  15 active torsions:
REMARK  status: ('A' for Active; 'I' for Inactive)
REMARK    1  A    between atoms: O1_2  and  C2_3 
REMARK    2  A    between atoms: C5_6  and  S1_7 
REMARK    3  A    between atoms: S1_7  and  N1_10 
REMARK    4  A    between atoms: N1_10  and  C6_11 
REMARK    5  A    between atoms: N1_10  and  C10_15 
REMARK    6  A    between atoms: C6_11  and  C7_12 
REMARK    7  A    between atoms: C10_15  and  C11_16 
REMARK    8  A    between atoms: C11_16  and  O4_17 
REMARK    9  A    between atoms: C11_16  and  C12_19 
REMARK   10  A    between atoms: C12_19  and  C13_20 
REMARK   11  A    between atoms: C12_19  and  N2_27 
REMARK   12  A    between atoms: C13_20  and  C14_21 
REMARK       I    between atoms: N2_27  and  C20_29 
REMARK   13  A    between atoms: C20_29  and  O6_31 
REMARK   14  A    between atoms: O6_31  and  C21_32 
REMARK   15  A    between atoms: C25_38  and  O9_39 
ROOT
HETATM    1  C12 UNL     1      15.147  21.065  18.890  1.00  0.00     0.120 C 
ENDROOT
BRANCH   1   2
HETATM    2  C11 UNL     1      14.374  21.960  17.962  1.00  0.00     0.155 C 
BRANCH   2   3
HETATM    3  C10 UNL     1      13.323  21.315  17.125  1.00  0.00     0.141 C 
BRANCH   3   4
HETATM    4  N1  UNL     1      13.338  21.572  15.720  1.00  0.00    -0.204 NA
BRANCH   4   5
HETATM    5  S1  UNL     1      12.000  20.837  14.948  1.00  0.00     0.243 S 
HETATM    6  O2  UNL     1      12.357  20.216  13.608  1.00  0.00    -0.206 OA
HETATM    7  O3  UNL     1      10.862  21.765  14.653  1.00  0.00    -0.206 OA
BRANCH   5   8
HETATM    8  C5  UNL     1      11.305  19.523  15.891  1.00  0.00     0.074 A 
HETATM    9  C4  UNL     1      10.904  19.672  17.202  1.00  0.00     0.027 A 
HETATM   10  C3  UNL     1      10.354  18.612  17.922  1.00  0.00     0.038 A 
HETATM   11  C2  UNL     1      10.194  17.385  17.351  1.00  0.00     0.068 A 
HETATM   12  C29 UNL     1      10.586  17.210  16.049  1.00  0.00     0.038 A 
HETATM   13  C28 UNL     1      11.137  18.281  15.338  1.00  0.00     0.027 A 
BRANCH  11  14
HETATM   14  O1  UNL     1       9.648  16.278  18.018  1.00  0.00    -0.356 OA
HETATM   15  C1  UNL     1       9.733  14.970  17.529  1.00  0.00     0.210 C 
ENDBRANCH  11  14
ENDBRANCH   5   8
ENDBRANCH   4   5
BRANCH   4  16
HETATM   16  C6  UNL     1      14.571  21.189  15.092  1.00  0.00     0.111 C 
BRANCH  16  17
HETATM   17  C7  UNL     1      15.271  22.221  14.277  1.00  0.00    -0.009 C 
HETATM   18  C8  UNL     1      15.460  21.793  12.816  1.00  0.00     0.011 C 
HETATM   19  C9  UNL     1      16.604  22.673  14.758  1.00  0.00     0.011 C 
ENDBRANCH  16  17
ENDBRANCH   4  16
ENDBRANCH   3   4
ENDBRANCH   2   3
BRANCH   2  20
HETATM   20  O4  UNL     1      13.744  22.987  18.746  1.00  0.00    -0.392 OA
ATOM     21  H4  UNL     1      13.875  23.816  18.301  1.00  0.00     0.210 HD
ENDBRANCH   2  20
ENDBRANCH   1   2
BRANCH   1  22
HETATM   22  C13 UNL     1      14.381  20.708  20.116  1.00  0.00     0.066 C 
BRANCH  22  23
HETATM   23  C14 UNL     1      13.750  19.369  20.076  1.00  0.00    -0.056 A 
HETATM   24  C15 UNL     1      14.038  18.484  19.056  1.00  0.00     0.007 A 
HETATM   25  C16 UNL     1      13.439  17.224  19.009  1.00  0.00     0.001 A 
HETATM   26  C17 UNL     1      12.548  16.847  19.986  1.00  0.00     0.000 A 
HETATM   27  C18 UNL     1      12.242  17.697  21.007  1.00  0.00     0.001 A 
HETATM   28  C19 UNL     1      12.849  18.938  21.029  1.00  0.00     0.007 A 
ENDBRANCH  22  23
ENDBRANCH   1  22
BRANCH   1  29
HETATM   29  N2  UNL     1      16.501  21.460  19.092  1.00  0.00    -0.329 N 
HETATM   30  C20 UNL     1      17.639  21.141  18.313  1.00  0.00     0.361 C 
HETATM   31  O5  UNL     1      17.570  20.438  17.276  1.00  0.00    -0.238 OA
ATOM     32  H2  UNL     1      16.673  22.051  19.906  1.00  0.00     0.165 HD
BRANCH  30  33
HETATM   33  O6  UNL     1      18.922  21.612  18.678  1.00  0.00    -0.296 OA
BRANCH  33  34
HETATM   34  C21 UNL     1      19.007  22.593  19.672  1.00  0.00     0.169 C 
HETATM   35  C22 UNL     1      20.262  22.500  20.491  1.00  0.00     0.204 C 
HETATM   36  O7  UNL     1      20.651  23.751  20.871  1.00  0.00    -0.358 OA
HETATM   37  C23 UNL     1      19.830  24.681  20.287  1.00  0.00     0.268 C 
HETATM   38  O8  UNL     1      20.615  25.655  19.715  1.00  0.00    -0.358 OA
HETATM   39  C27 UNL     1      19.044  24.007  19.183  1.00  0.00     0.104 C 
HETATM   40  C24 UNL     1      20.862  25.297  18.407  1.00  0.00     0.203 C 
HETATM   41  C25 UNL     1      19.900  24.246  17.989  1.00  0.00     0.156 C 
BRANCH  41  42
HETATM   42  O9  UNL     1      19.176  24.683  16.881  1.00  0.00    -0.388 OA
HETATM   43  C26 UNL     1      17.942  25.229  17.208  1.00  0.00     0.202 C 
ENDBRANCH  41  42
ENDBRANCH  33  34
ENDBRANCH  30  33
ENDBRANCH   1  29
TORSDOF 15
ENDMDL
