MODEL 2
REMARK VINA RESULT: -9.260006411      2.632      7.382
REMARK  15 active torsions:
REMARK  status: ('A' for Active; 'I' for Inactive)
REMARK    1  A    between atoms: O1_2  and  C2_3 
REMARK    2  A    between atoms: C5_6  and  S1_7 
REMARK    3  A    between atoms: S1_7  and  N1_10 
REMARK    4  A    between atoms: N1_10  and  C6_11 
REMARK    5  A    between atoms: N1_10  and  C10_15 
REMARK    6  A    between atoms: C6_11  and  C7_12 
REMARK    7  A    between atoms: C10_15  and  C11_16 
REMARK    8  A    between atoms: C11_16  and  O4_17 
REMARK    9  A    between atoms: C11_16  and  C12_19 
REMARK   10  A    between atoms: C12_19  and  C13_20 
REMARK   11  A    between atoms: C12_19  and  N2_27 
REMARK   12  A    between atoms: C13_20  and  C14_21 
REMARK       I    between atoms: N2_27  and  C20_29 
REMARK   13  A    between atoms: C20_29  and  O6_31 
REMARK   14  A    between atoms: O6_31  and  C21_32 
REMARK   15  A    between atoms: C25_38  and  O9_39 
ROOT
HETATM    1  C12 UNL     1      15.708  22.025  19.433  1.00  0.00     0.120 C 
ENDROOT
BRANCH   1   2
HETATM    2  C11 UNL     1      14.871  23.104  18.804  1.00  0.00     0.155 C 
BRANCH   2   3
HETATM    3  C10 UNL     1      15.284  23.573  17.450  1.00  0.00     0.141 C 
BRANCH   3   4
HETATM    4  N1  UNL     1      15.043  22.705  16.342  1.00  0.00    -0.204 NA
BRANCH   4   5
HETATM    5  S1  UNL     1      16.471  22.461  15.433  1.00  0.00     0.243 S 
HETATM    6  O2  UNL     1      16.201  22.228  13.955  1.00  0.00    -0.206 OA
HETATM    7  O3  UNL     1      17.294  21.287  15.865  1.00  0.00    -0.206 OA
BRANCH   5   8
HETATM    8  C5  UNL     1      17.558  23.845  15.487  1.00  0.00     0.074 A 
HETATM    9  C4  UNL     1      18.822  23.784  16.037  1.00  0.00     0.027 A 
HETATM   10  C3  UNL     1      19.661  24.897  16.061  1.00  0.00     0.038 A 
HETATM   11  C2  UNL     1      19.259  26.091  15.540  1.00  0.00     0.068 A 
HETATM   12  C29 UNL     1      18.007  26.177  14.988  1.00  0.00     0.038 A 
HETATM   13  C28 UNL     1      17.175  25.054  14.970  1.00  0.00     0.027 A 
BRANCH  11  14
HETATM   14  O1  UNL     1      20.053  27.247  15.532  1.00  0.00    -0.356 OA
HETATM   15  C1  UNL     1      20.446  27.898  14.358  1.00  0.00     0.210 C 
ENDBRANCH  11  14
ENDBRANCH   5   8
ENDBRANCH   4   5
BRANCH   4  16
HETATM   16  C6  UNL     1      13.967  23.151  15.503  1.00  0.00     0.111 C 
BRANCH  16  17
HETATM   17  C7  UNL     1      12.867  22.183  15.232  1.00  0.00    -0.009 C 
HETATM   18  C8  UNL     1      13.191  20.766  15.725  1.00  0.00     0.011 C 
HETATM   19  C9  UNL     1      12.421  22.043  13.820  1.00  0.00     0.011 C 
ENDBRANCH  16  17
ENDBRANCH   4  16
ENDBRANCH   3   4
ENDBRANCH   2   3
BRANCH   2  20
HETATM   20  O4  UNL     1      13.517  22.631  18.713  1.00  0.00    -0.392 OA
ATOM     21  H4  UNL     1      13.538  21.681  18.729  1.00  0.00     0.210 HD
ENDBRANCH   2  20
ENDBRANCH   1   2
BRANCH   1  22
HETATM   22  C13 UNL     1      14.968  21.253  20.469  1.00  0.00     0.066 C 
BRANCH  22  23
HETATM   23  C14 UNL     1      14.462  19.939  20.009  1.00  0.00    -0.056 A 
HETATM   24  C15 UNL     1      14.778  19.463  18.753  1.00  0.00     0.007 A 
HETATM   25  C16 UNL     1      14.297  18.229  18.311  1.00  0.00     0.001 A 
HETATM   26  C17 UNL     1      13.496  17.469  19.130  1.00  0.00     0.000 A 
HETATM   27  C18 UNL     1      13.164  17.910  20.376  1.00  0.00     0.001 A 
HETATM   28  C19 UNL     1      13.655  19.135  20.788  1.00  0.00     0.007 A 
ENDBRANCH  22  23
ENDBRANCH   1  22
BRANCH   1  29
HETATM   29  N2  UNL     1      17.027  22.435  19.783  1.00  0.00    -0.329 N 
HETATM   30  C20 UNL     1      18.262  21.868  19.386  1.00  0.00     0.361 C 
HETATM   31  O5  UNL     1      18.333  20.883  18.614  1.00  0.00    -0.238 OA
ATOM     32  H2  UNL     1      17.089  23.244  20.402  1.00  0.00     0.165 HD
BRANCH  30  33
HETATM   33  O6  UNL     1      19.487  22.402  19.852  1.00  0.00    -0.296 OA
BRANCH  33  34
HETATM   34  C21 UNL     1      19.712  23.774  19.692  1.00  0.00     0.169 C 
HETATM   35  C22 UNL     1      19.553  24.554  20.965  1.00  0.00     0.204 C 
HETATM   36  O7  UNL     1      20.422  25.605  20.966  1.00  0.00    -0.358 OA
HETATM   37  C23 UNL     1      21.225  25.535  19.857  1.00  0.00     0.268 C 
HETATM   38  O8  UNL     1      22.532  25.698  20.256  1.00  0.00    -0.358 OA
HETATM   39  C27 UNL     1      21.090  24.155  19.249  1.00  0.00     0.104 C 
HETATM   40  C24 UNL     1      23.063  24.452  20.513  1.00  0.00     0.203 C 
HETATM   41  C25 UNL     1      22.199  23.408  19.904  1.00  0.00     0.156 C 
BRANCH  41  42
HETATM   42  O9  UNL     1      22.944  22.646  19.005  1.00  0.00    -0.388 OA
HETATM   43  C26 UNL     1      24.293  22.975  18.987  1.00  0.00     0.202 C 
ENDBRANCH  41  42
ENDBRANCH  33  34
ENDBRANCH  30  33
ENDBRANCH   1  29
TORSDOF 15
ENDMDL
