MODEL 4
REMARK VINA RESULT: -9.150843233      2.743      7.311
REMARK  15 active torsions:
REMARK  status: ('A' for Active; 'I' for Inactive)
REMARK    1  A    between atoms: O1_2  and  C2_3 
REMARK    2  A    between atoms: C5_6  and  S1_7 
REMARK    3  A    between atoms: S1_7  and  N1_10 
REMARK    4  A    between atoms: N1_10  and  C6_11 
REMARK    5  A    between atoms: N1_10  and  C10_15 
REMARK    6  A    between atoms: C6_11  and  C7_12 
REMARK    7  A    between atoms: C10_15  and  C11_16 
REMARK    8  A    between atoms: C11_16  and  O4_17 
REMARK    9  A    between atoms: C11_16  and  C12_19 
REMARK   10  A    between atoms: C12_19  and  C13_20 
REMARK   11  A    between atoms: C12_19  and  N2_27 
REMARK   12  A    between atoms: C13_20  and  C14_21 
REMARK       I    between atoms: N2_27  and  C20_29 
REMARK   13  A    between atoms: C20_29  and  O6_31 
REMARK   14  A    between atoms: O6_31  and  C21_32 
REMARK   15  A    between atoms: C25_38  and  O9_39 
ROOT
HETATM    1  C12 UNL     1      16.917  21.762  18.580  1.00  0.00     0.120 C 
ENDROOT
BRANCH   1   2
HETATM    2  C11 UNL     1      17.102  21.501  17.111  1.00  0.00     0.155 C 
BRANCH   2   3
HETATM    3  C10 UNL     1      17.854  22.528  16.335  1.00  0.00     0.141 C 
BRANCH   3   4
HETATM    4  N1  UNL     1      17.113  23.368  15.449  1.00  0.00    -0.204 NA
BRANCH   4   5
HETATM    5  S1  UNL     1      17.150  24.996  15.973  1.00  0.00     0.243 S 
HETATM    6  O2  UNL     1      17.060  25.134  17.484  1.00  0.00    -0.206 OA
HETATM    7  O3  UNL     1      16.040  25.848  15.441  1.00  0.00    -0.206 OA
BRANCH   5   8
HETATM    8  C5  UNL     1      18.638  25.823  15.525  1.00  0.00     0.074 A 
HETATM    9  C4  UNL     1      19.831  25.634  16.191  1.00  0.00     0.027 A 
HETATM   10  C3  UNL     1      20.993  26.303  15.809  1.00  0.00     0.038 A 
HETATM   11  C2  UNL     1      20.990  27.172  14.759  1.00  0.00     0.068 A 
HETATM   12  C29 UNL     1      19.816  27.378  14.081  1.00  0.00     0.038 A 
HETATM   13  C28 UNL     1      18.657  26.702  14.474  1.00  0.00     0.027 A 
BRANCH  11  14
HETATM   14  O1  UNL     1      22.123  27.875  14.324  1.00  0.00    -0.356 OA
HETATM   15  C1  UNL     1      23.016  28.506  15.198  1.00  0.00     0.210 C 
ENDBRANCH  11  14
ENDBRANCH   5   8
ENDBRANCH   4   5
BRANCH   4  16
HETATM   16  C6  UNL     1      15.764  22.921  15.248  1.00  0.00     0.111 C 
BRANCH  16  17
HETATM   17  C7  UNL     1      15.563  21.723  14.385  1.00  0.00    -0.009 C 
HETATM   18  C8  UNL     1      15.502  22.073  12.892  1.00  0.00     0.011 C 
HETATM   19  C9  UNL     1      14.372  20.878  14.666  1.00  0.00     0.011 C 
ENDBRANCH  16  17
ENDBRANCH   4  16
ENDBRANCH   3   4
ENDBRANCH   2   3
BRANCH   2  20
HETATM   20  O4  UNL     1      17.785  20.245  16.958  1.00  0.00    -0.392 OA
ATOM     21  H4  UNL     1      17.596  19.715  17.723  1.00  0.00     0.210 HD
ENDBRANCH   2  20
ENDBRANCH   1   2
BRANCH   1  22
HETATM   22  C13 UNL     1      15.543  22.230  18.912  1.00  0.00     0.066 C 
BRANCH  22  23
HETATM   23  C14 UNL     1      14.583  21.145  19.221  1.00  0.00    -0.056 A 
HETATM   24  C15 UNL     1      13.597  20.799  18.318  1.00  0.00     0.007 A 
HETATM   25  C16 UNL     1      12.684  19.783  18.608  1.00  0.00     0.001 A 
HETATM   26  C17 UNL     1      12.758  19.111  19.805  1.00  0.00     0.000 A 
HETATM   27  C18 UNL     1      13.719  19.428  20.718  1.00  0.00     0.001 A 
HETATM   28  C19 UNL     1      14.610  20.438  20.406  1.00  0.00     0.007 A 
ENDBRANCH  22  23
ENDBRANCH   1  22
BRANCH   1  29
HETATM   29  N2  UNL     1      17.986  22.483  19.187  1.00  0.00    -0.329 N 
HETATM   30  C20 UNL     1      19.178  21.977  19.759  1.00  0.00     0.361 C 
HETATM   31  O5  UNL     1      19.448  20.753  19.779  1.00  0.00    -0.238 OA
ATOM     32  H2  UNL     1      17.877  23.497  19.212  1.00  0.00     0.165 HD
BRANCH  30  33
HETATM   33  O6  UNL     1      20.130  22.849  20.338  1.00  0.00    -0.296 OA
BRANCH  33  34
HETATM   34  C21 UNL     1      20.351  24.087  19.724  1.00  0.00     0.169 C 
HETATM   35  C22 UNL     1      20.399  25.231  20.694  1.00  0.00     0.204 C 
HETATM   36  O7  UNL     1      21.275  26.173  20.244  1.00  0.00    -0.358 OA
HETATM   37  C23 UNL     1      21.901  25.712  19.115  1.00  0.00     0.268 C 
HETATM   38  O8  UNL     1      23.255  25.908  19.257  1.00  0.00    -0.358 OA
HETATM   39  C27 UNL     1      21.653  24.224  18.998  1.00  0.00     0.104 C 
HETATM   40  C24 UNL     1      23.798  24.771  19.819  1.00  0.00     0.203 C 
HETATM   41  C25 UNL     1      22.835  23.648  19.696  1.00  0.00     0.156 C 
BRANCH  41  42
HETATM   42  O9  UNL     1      23.424  22.598  18.990  1.00  0.00    -0.388 OA
HETATM   43  C26 UNL     1      24.783  22.774  18.772  1.00  0.00     0.202 C 
ENDBRANCH  41  42
ENDBRANCH  33  34
ENDBRANCH  30  33
ENDBRANCH   1  29
TORSDOF 15
ENDMDL
