MODEL 12
REMARK VINA RESULT: -4.624064977      3.048      4.127
REMARK  0 active torsions:
REMARK  status: ('A' for Active; 'I' for Inactive)
ROOT
HETATM    1  N1  UNL     1       0.694   0.429   8.715  1.00  0.00    -0.063 NA
HETATM    2  C1  UNL     1       0.805   0.695  10.110  1.00  0.00     0.196 A 
HETATM    3  N2  UNL     1       0.793   1.942  10.619  1.00  0.00    -0.314 N 
ATOM      4  H2  UNL     1       0.700   2.724   9.971  1.00  0.00     0.170 HD
HETATM    5  C2  UNL     1       0.895   2.218  11.932  1.00  0.00     0.142 A 
HETATM    6  N3  UNL     1       0.911   3.327  12.694  1.00  0.00    -0.320 N 
ATOM      7  H3  UNL     1       0.835   4.276  12.327  1.00  0.00     0.169 HD
HETATM    8  C3  UNL     1       1.040   3.028  13.997  1.00  0.00     0.157 A 
HETATM    9  S1  UNL     1       1.107   4.198  15.369  1.00  0.00    -0.013 SA
HETATM   10  N4  UNL     1       1.106   1.687  14.055  1.00  0.00    -0.329 N 
ATOM     11  H4  UNL     1       1.206   1.145  14.913  1.00  0.00     0.168 HD
HETATM   12  C4  UNL     1       1.022   1.161  12.818  1.00  0.00     0.147 A 
HETATM   13  C5  UNL     1       1.034  -0.111  12.296  1.00  0.00     0.278 A 
HETATM   14  O1  UNL     1       1.147  -1.091  13.067  1.00  0.00    -0.265 OA
HETATM   15  N5  UNL     1       0.929  -0.343  10.978  1.00  0.00    -0.295 N 
ATOM     16  H5  UNL     1       0.942  -1.300  10.626  1.00  0.00     0.171 HD
ENDROOT
TORSDOF 0
ENDMDL
