MODEL 10
REMARK VINA RESULT: -4.643247833      3.232      4.214
REMARK  0 active torsions:
REMARK  status: ('A' for Active; 'I' for Inactive)
ROOT
HETATM    1  N1  UNL     1       0.363   0.411   9.059  1.00  0.00    -0.063 NA
HETATM    2  C1  UNL     1       0.918   0.713  10.336  1.00  0.00     0.196 A 
HETATM    3  N2  UNL     1       1.622   1.836  10.579  1.00  0.00    -0.314 N 
ATOM      4  H2  UNL     1       1.760   2.492   9.811  1.00  0.00     0.170 HD
HETATM    5  C2  UNL     1       2.155   2.143  11.776  1.00  0.00     0.142 A 
HETATM    6  N3  UNL     1       2.878   3.156  12.287  1.00  0.00    -0.320 N 
ATOM      7  H3  UNL     1       3.177   3.973  11.754  1.00  0.00     0.169 HD
HETATM    8  C3  UNL     1       3.158   2.957  13.585  1.00  0.00     0.157 A 
HETATM    9  S1  UNL     1       4.100   4.054  14.665  1.00  0.00    -0.013 SA
HETATM   10  N4  UNL     1       2.591   1.780  13.900  1.00  0.00    -0.329 N 
ATOM     11  H4  UNL     1       2.624   1.345  14.822  1.00  0.00     0.168 HD
HETATM   12  C4  UNL     1       1.973   1.257  12.824  1.00  0.00     0.147 A 
HETATM   13  C5  UNL     1       1.253   0.111  12.574  1.00  0.00     0.278 A 
HETATM   14  O1  UNL     1       1.068  -0.713  13.498  1.00  0.00    -0.265 OA
HETATM   15  N5  UNL     1       0.738  -0.157  11.363  1.00  0.00    -0.295 N 
ATOM     16  H5  UNL     1       0.210  -1.017  11.214  1.00  0.00     0.171 HD
ENDROOT
TORSDOF 0
ENDMDL
