MODEL 2
REMARK VINA RESULT: -5.647245374      1.085      1.094
REMARK  0 active torsions:
REMARK  status: ('A' for Active; 'I' for Inactive)
ROOT
HETATM    1  N1  UNL     1       3.169  -4.063  13.663  1.00  0.00    -0.063 NA
HETATM    2  C1  UNL     1       2.466  -2.840  13.467  1.00  0.00     0.196 A 
HETATM    3  N2  UNL     1       2.376  -1.889  14.417  1.00  0.00    -0.314 N 
ATOM      4  H2  UNL     1       2.834  -2.061  15.313  1.00  0.00     0.170 HD
HETATM    5  C2  UNL     1       1.720  -0.726  14.255  1.00  0.00     0.142 A 
HETATM    6  N3  UNL     1       1.476   0.365  15.004  1.00  0.00    -0.320 N 
ATOM      7  H3  UNL     1       1.808   0.490  15.961  1.00  0.00     0.169 HD
HETATM    8  C3  UNL     1       0.741   1.268  14.335  1.00  0.00     0.157 A 
HETATM    9  S1  UNL     1       0.182   2.870  14.949  1.00  0.00    -0.013 SA
HETATM   10  N4  UNL     1       0.516   0.727  13.125  1.00  0.00    -0.329 N 
ATOM     11  H4  UNL     1      -0.017   1.170  12.378  1.00  0.00     0.168 HD
HETATM   12  C4  UNL     1       1.097  -0.486  13.042  1.00  0.00     0.147 A 
HETATM   13  C5  UNL     1       1.190  -1.458  12.074  1.00  0.00     0.278 A 
HETATM   14  O1  UNL     1       0.639  -1.275  10.964  1.00  0.00    -0.265 OA
HETATM   15  N5  UNL     1       1.856  -2.606  12.276  1.00  0.00    -0.295 N 
ATOM     16  H5  UNL     1       1.903  -3.305  11.535  1.00  0.00     0.171 HD
ENDROOT
TORSDOF 0
ENDMDL
