MODEL 13
REMARK VINA RESULT: -4.613570394      3.519      4.147
REMARK  0 active torsions:
REMARK  status: ('A' for Active; 'I' for Inactive)
ROOT
HETATM    1  N1  UNL     1       1.931   1.291   8.060  1.00  0.00    -0.063 NA
HETATM    2  C1  UNL     1       1.525   1.175   9.420  1.00  0.00     0.196 A 
HETATM    3  N2  UNL     1       2.132   1.839  10.423  1.00  0.00    -0.314 N 
ATOM      4  H2  UNL     1       2.917   2.448  10.189  1.00  0.00     0.170 HD
HETATM    5  C2  UNL     1       1.767   1.746  11.715  1.00  0.00     0.142 A 
HETATM    6  N3  UNL     1       2.178   2.274  12.881  1.00  0.00    -0.320 N 
ATOM      7  H3  UNL     1       2.955   2.930  12.972  1.00  0.00     0.169 HD
HETATM    8  C3  UNL     1       1.439   1.831  13.911  1.00  0.00     0.157 A 
HETATM    9  S1  UNL     1       1.637   2.274  15.650  1.00  0.00    -0.013 SA
HETATM   10  N4  UNL     1       0.533   0.997  13.373  1.00  0.00    -0.329 N 
ATOM     11  H4  UNL     1      -0.181   0.493  13.899  1.00  0.00     0.168 HD
HETATM   12  C4  UNL     1       0.703   0.921  12.039  1.00  0.00     0.147 A 
HETATM   13  C5  UNL     1       0.084   0.245  11.014  1.00  0.00     0.278 A 
HETATM   14  O1  UNL     1      -0.882  -0.510  11.270  1.00  0.00    -0.265 OA
HETATM   15  N5  UNL     1       0.481   0.366   9.737  1.00  0.00    -0.295 N 
ATOM     16  H5  UNL     1      -0.002  -0.152   9.003  1.00  0.00     0.171 HD
ENDROOT
TORSDOF 0
ENDMDL
