MODEL 9
REMARK VINA RESULT: -4.771081865      1.182      1.217
REMARK  0 active torsions:
REMARK  status: ('A' for Active; 'I' for Inactive)
ROOT
HETATM    1  N1  UNL     1       2.602  -3.797  12.560  1.00  0.00    -0.063 NA
HETATM    2  C1  UNL     1       2.174  -2.538  13.070  1.00  0.00     0.196 A 
HETATM    3  N2  UNL     1       2.500  -2.100  14.302  1.00  0.00    -0.314 N 
ATOM      4  H2  UNL     1       3.078  -2.702  14.888  1.00  0.00     0.170 HD
HETATM    5  C2  UNL     1       2.109  -0.915  14.806  1.00  0.00     0.142 A 
HETATM    6  N3  UNL     1       2.280  -0.245  15.960  1.00  0.00    -0.320 N 
ATOM      7  H3  UNL     1       2.819  -0.596  16.752  1.00  0.00     0.169 HD
HETATM    8  C3  UNL     1       1.652   0.941  15.940  1.00  0.00     0.157 A 
HETATM    9  S1  UNL     1       1.611   2.163  17.267  1.00  0.00    -0.013 SA
HETATM   10  N4  UNL     1       1.067   1.020  14.731  1.00  0.00    -0.329 N 
ATOM     11  H4  UNL     1       0.509   1.808  14.404  1.00  0.00     0.168 HD
HETATM   12  C4  UNL     1       1.324  -0.092  14.016  1.00  0.00     0.147 A 
HETATM   13  C5  UNL     1       0.993  -0.540  12.758  1.00  0.00     0.278 A 
HETATM   14  O1  UNL     1       0.285   0.178  12.016  1.00  0.00    -0.265 OA
HETATM   15  N5  UNL     1       1.405  -1.731  12.294  1.00  0.00    -0.295 N 
ATOM     16  H5  UNL     1       1.139  -2.031  11.356  1.00  0.00     0.171 HD
ENDROOT
TORSDOF 0
ENDMDL
