MODEL 1
REMARK VINA RESULT: -5.766085545      0.000      0.000
REMARK  0 active torsions:
REMARK  status: ('A' for Active; 'I' for Inactive)
ROOT
HETATM    1  N1  UNL     1       3.152  -4.863  12.763  1.00  0.00    -0.063 NA
HETATM    2  C1  UNL     1       2.612  -3.561  12.961  1.00  0.00     0.196 A 
HETATM    3  N2  UNL     1       2.783  -2.864  14.101  1.00  0.00    -0.314 N 
ATOM      4  H2  UNL     1       3.324  -3.295  14.851  1.00  0.00     0.170 HD
HETATM    5  C2  UNL     1       2.284  -1.632  14.311  1.00  0.00     0.142 A 
HETATM    6  N3  UNL     1       2.297  -0.735  15.313  1.00  0.00    -0.320 N 
ATOM      7  H3  UNL     1       2.766  -0.882  16.208  1.00  0.00     0.169 HD
HETATM    8  C3  UNL     1       1.618   0.377  14.990  1.00  0.00     0.157 A 
HETATM    9  S1  UNL     1       1.377   1.834  16.028  1.00  0.00    -0.013 SA
HETATM   10  N4  UNL     1       1.162   0.172  13.742  1.00  0.00    -0.329 N 
ATOM     11  H4  UNL     1       0.605   0.838  13.208  1.00  0.00     0.168 HD
HETATM   12  C4  UNL     1       1.548  -1.040  13.298  1.00  0.00     0.147 A 
HETATM   13  C5  UNL     1       1.374  -1.753  12.135  1.00  0.00     0.278 A 
HETATM   14  O1  UNL     1       0.715  -1.248  11.197  1.00  0.00    -0.265 OA
HETATM   15  N5  UNL     1       1.890  -2.981  11.966  1.00  0.00    -0.295 N 
ATOM     16  H5  UNL     1       1.741  -3.480  11.090  1.00  0.00     0.171 HD
ENDROOT
TORSDOF 0
ENDMDL
