MODEL 4
REMARK VINA RESULT: -8.309176556      1.512      2.200
REMARK  3 active torsions:
REMARK  status: ('A' for Active; 'I' for Inactive)
REMARK    1  A    between atoms: O1_2  and  C2_3 
REMARK    2  A    between atoms: C6_9  and  C7_10 
REMARK    3  A    between atoms: C7_10  and  N2_11 
ROOT
HETATM    1  N2  UNL     1      -2.729  35.322  24.521  1.00  0.00    -0.300 N 
HETATM    2  C8  UNL     1      -3.471  36.378  24.829  1.00  0.00     0.190 A 
HETATM    3  N3  UNL     1      -2.851  37.144  25.751  1.00  0.00    -0.346 N 
ATOM      4  H3  UNL     1      -3.216  38.008  26.150  1.00  0.00     0.167 HD
HETATM    5  C9  UNL     1      -1.688  36.584  26.052  1.00  0.00     0.117 A 
HETATM    6  C10 UNL     1      -0.648  36.898  26.904  1.00  0.00     0.136 A 
HETATM    7 CL1  UNL     1      -0.717  38.345  27.898  1.00  0.00    -0.062 Cl
HETATM    8  N4  UNL     1       0.451  36.136  27.021  1.00  0.00    -0.319 N 
ATOM      9  H4  UNL     1       1.207  36.387  27.657  1.00  0.00     0.169 HD
HETATM   10  C11 UNL     1       0.509  35.027  26.264  1.00  0.00     0.195 A 
HETATM   11  N5  UNL     1       1.664  34.200  26.368  1.00  0.00    -0.063 NA
HETATM   12  N6  UNL     1      -0.487  34.691  25.423  1.00  0.00    -0.314 N 
ATOM     13  H6  UNL     1      -0.391  33.839  24.871  1.00  0.00     0.170 HD
HETATM   14  C12 UNL     1      -1.608  35.430  25.274  1.00  0.00     0.145 A 
ENDROOT
BRANCH   1  15
HETATM   15  C7  UNL     1      -3.038  34.285  23.612  1.00  0.00     0.129 C 
BRANCH  15  16
HETATM   16  C6  UNL     1      -4.044  33.310  23.953  1.00  0.00     0.057 A 
HETATM   17  N1  UNL     1      -5.358  33.657  23.900  1.00  0.00    -0.364 N 
HETATM   18  C5  UNL     1      -6.351  32.811  24.211  1.00  0.00     0.098 A 
ATOM     19  H1  UNL     1      -5.599  34.606  23.611  1.00  0.00     0.165 HD
HETATM   20  C3  UNL     1      -6.100  31.515  24.608  1.00  0.00    -0.013 A 
HETATM   21  C2  UNL     1      -4.780  31.121  24.675  1.00  0.00     0.083 A 
HETATM   22  C4  UNL     1      -7.188  30.556  24.958  1.00  0.00     0.052 C 
HETATM   23  C13 UNL     1      -3.761  32.034  24.343  1.00  0.00     0.000 A 
HETATM   24  C14 UNL     1      -2.364  31.614  24.404  1.00  0.00     0.054 C 
BRANCH  21  25
HETATM   25  O1  UNL     1      -4.399  29.843  25.062  1.00  0.00    -0.355 OA
HETATM   26  C1  UNL     1      -4.212  29.544  26.429  1.00  0.00     0.210 C 
ENDBRANCH  21  25
ENDBRANCH  15  16
ENDBRANCH   1  15
TORSDOF 3
ENDMDL
