MODEL 7
REMARK VINA RESULT: -8.018401655      3.643      6.741
REMARK  3 active torsions:
REMARK  status: ('A' for Active; 'I' for Inactive)
REMARK    1  A    between atoms: O1_2  and  C2_3 
REMARK    2  A    between atoms: C6_9  and  C7_10 
REMARK    3  A    between atoms: C7_10  and  N2_11 
ROOT
HETATM    1  N2  UNL     1      -3.283  33.077  24.014  1.00  0.00    -0.300 N 
HETATM    2  C8  UNL     1      -3.056  31.823  24.385  1.00  0.00     0.190 A 
HETATM    3  N3  UNL     1      -4.218  31.181  24.629  1.00  0.00    -0.346 N 
ATOM      4  H3  UNL     1      -4.309  30.210  24.928  1.00  0.00     0.167 HD
HETATM    5  C9  UNL     1      -5.218  32.023  24.417  1.00  0.00     0.117 A 
HETATM    6  C10 UNL     1      -6.594  31.940  24.502  1.00  0.00     0.136 A 
HETATM    7 CL1  UNL     1      -7.369  30.441  24.990  1.00  0.00    -0.062 Cl
HETATM    8  N4  UNL     1      -7.402  32.975  24.222  1.00  0.00    -0.319 N 
ATOM      9  H4  UNL     1      -8.416  32.893  24.290  1.00  0.00     0.169 HD
HETATM   10  C11 UNL     1      -6.816  34.125  23.848  1.00  0.00     0.195 A 
HETATM   11  N5  UNL     1      -7.650  35.240  23.546  1.00  0.00    -0.063 NA
HETATM   12  N6  UNL     1      -5.478  34.240  23.756  1.00  0.00    -0.314 N 
ATOM     13  H6  UNL     1      -5.086  35.136  23.468  1.00  0.00     0.170 HD
HETATM   14  C12 UNL     1      -4.630  33.225  24.027  1.00  0.00     0.145 A 
ENDROOT
BRANCH   1  15
HETATM   15  C7  UNL     1      -2.329  34.067  23.688  1.00  0.00     0.129 C 
BRANCH  15  16
HETATM   16  C6  UNL     1      -1.308  34.421  24.643  1.00  0.00     0.057 A 
HETATM   17  N1  UNL     1      -0.152  33.706  24.684  1.00  0.00    -0.364 N 
HETATM   18  C5  UNL     1       0.839  33.967  25.549  1.00  0.00     0.098 A 
ATOM     19  H1  UNL     1      -0.034  32.935  24.026  1.00  0.00     0.165 HD
HETATM   20  C3  UNL     1       0.749  34.993  26.465  1.00  0.00    -0.013 A 
HETATM   21  C2  UNL     1      -0.408  35.744  26.457  1.00  0.00     0.083 A 
HETATM   22  C4  UNL     1       1.839  35.301  27.436  1.00  0.00     0.052 C 
HETATM   23  C13 UNL     1      -1.429  35.444  25.537  1.00  0.00     0.000 A 
HETATM   24  C14 UNL     1      -2.650  36.246  25.522  1.00  0.00     0.054 C 
BRANCH  21  25
HETATM   25  O1  UNL     1      -0.617  36.803  27.331  1.00  0.00    -0.355 OA
HETATM   26  C1  UNL     1      -0.058  38.070  27.054  1.00  0.00     0.210 C 
ENDBRANCH  21  25
ENDBRANCH  15  16
ENDBRANCH   1  15
TORSDOF 3
ENDMDL
