MODEL 3
REMARK VINA RESULT: -8.387187624      1.486      2.194
REMARK  3 active torsions:
REMARK  status: ('A' for Active; 'I' for Inactive)
REMARK    1  A    between atoms: O1_2  and  C2_3 
REMARK    2  A    between atoms: C6_9  and  C7_10 
REMARK    3  A    between atoms: C7_10  and  N2_11 
ROOT
HETATM    1  N2  UNL     1      -2.500  34.786  24.599  1.00  0.00    -0.300 N 
HETATM    2  C8  UNL     1      -2.904  35.583  25.580  1.00  0.00     0.190 A 
HETATM    3  N3  UNL     1      -1.864  35.942  26.362  1.00  0.00    -0.346 N 
ATOM      4  H3  UNL     1      -1.916  36.549  27.180  1.00  0.00     0.167 HD
HETATM    5  C9  UNL     1      -0.764  35.374  25.889  1.00  0.00     0.117 A 
HETATM    6  C10 UNL     1       0.566  35.372  26.258  1.00  0.00     0.136 A 
HETATM    7 CL1  UNL     1       1.104  36.285  27.659  1.00  0.00    -0.062 Cl
HETATM    8  N4  UNL     1       1.506  34.691  25.584  1.00  0.00    -0.319 N 
ATOM      9  H4  UNL     1       2.483  34.704  25.873  1.00  0.00     0.169 HD
HETATM   10  C11 UNL     1       1.101  33.990  24.511  1.00  0.00     0.195 A 
HETATM   11  N5  UNL     1       2.078  33.257  23.778  1.00  0.00    -0.063 NA
HETATM   12  N6  UNL     1      -0.188  33.969  24.124  1.00  0.00    -0.314 N 
ATOM     13  H6  UNL     1      -0.440  33.420  23.303  1.00  0.00     0.170 HD
HETATM   14  C12 UNL     1      -1.164  34.641  24.773  1.00  0.00     0.145 A 
ENDROOT
BRANCH   1  15
HETATM   15  C7  UNL     1      -3.289  34.191  23.590  1.00  0.00     0.129 C 
BRANCH  15  16
HETATM   16  C6  UNL     1      -4.339  33.270  23.949  1.00  0.00     0.057 A 
HETATM   17  N1  UNL     1      -5.634  33.682  23.906  1.00  0.00    -0.364 N 
HETATM   18  C5  UNL     1      -6.665  32.888  24.234  1.00  0.00     0.098 A 
ATOM     19  H1  UNL     1      -5.831  34.638  23.610  1.00  0.00     0.165 HD
HETATM   20  C3  UNL     1      -6.474  31.585  24.642  1.00  0.00    -0.013 A 
HETATM   21  C2  UNL     1      -5.174  31.127  24.699  1.00  0.00     0.083 A 
HETATM   22  C4  UNL     1      -7.604  30.684  25.011  1.00  0.00     0.052 C 
HETATM   23  C13 UNL     1      -4.115  31.985  24.348  1.00  0.00     0.000 A 
HETATM   24  C14 UNL     1      -2.739  31.497  24.400  1.00  0.00     0.054 C 
BRANCH  21  25
HETATM   25  O1  UNL     1      -4.853  29.835  25.094  1.00  0.00    -0.355 OA
HETATM   26  C1  UNL     1      -4.475  29.578  26.430  1.00  0.00     0.210 C 
ENDBRANCH  21  25
ENDBRANCH  15  16
ENDBRANCH   1  15
TORSDOF 3
ENDMDL
