MODEL 5
REMARK VINA RESULT: -8.101508276      3.618      6.597
REMARK  3 active torsions:
REMARK  status: ('A' for Active; 'I' for Inactive)
REMARK    1  A    between atoms: O1_2  and  C2_3 
REMARK    2  A    between atoms: C6_9  and  C7_10 
REMARK    3  A    between atoms: C7_10  and  N2_11 
ROOT
HETATM    1  N2  UNL     1      -4.889  33.499  23.707  1.00  0.00    -0.300 N 
HETATM    2  C8  UNL     1      -6.079  34.054  23.515  1.00  0.00     0.190 A 
HETATM    3  N3  UNL     1      -7.049  33.312  24.088  1.00  0.00    -0.346 N 
ATOM      4  H3  UNL     1      -8.046  33.528  24.079  1.00  0.00     0.167 HD
HETATM    5  C9  UNL     1      -6.491  32.257  24.662  1.00  0.00     0.117 A 
HETATM    6  C10 UNL     1      -6.962  31.176  25.379  1.00  0.00     0.136 A 
HETATM    7 CL1  UNL     1      -8.680  31.000  25.699  1.00  0.00    -0.062 Cl
HETATM    8  N4  UNL     1      -6.156  30.218  25.864  1.00  0.00    -0.319 N 
ATOM      9  H4  UNL     1      -6.525  29.428  26.392  1.00  0.00     0.169 HD
HETATM   10  C11 UNL     1      -4.840  30.347  25.622  1.00  0.00     0.195 A 
HETATM   11  N5  UNL     1      -3.962  29.344  26.124  1.00  0.00    -0.063 NA
HETATM   12  N6  UNL     1      -4.347  31.388  24.926  1.00  0.00    -0.314 N 
ATOM     13  H6  UNL     1      -3.340  31.436  24.771  1.00  0.00     0.170 HD
HETATM   14  C12 UNL     1      -5.122  32.372  24.422  1.00  0.00     0.145 A 
ENDROOT
BRANCH   1  15
HETATM   15  C7  UNL     1      -3.635  33.964  23.250  1.00  0.00     0.129 C 
BRANCH  15  16
HETATM   16  C6  UNL     1      -2.666  34.460  24.197  1.00  0.00     0.057 A 
HETATM   17  N1  UNL     1      -3.021  35.449  25.061  1.00  0.00    -0.364 N 
HETATM   18  C5  UNL     1      -2.175  35.969  25.963  1.00  0.00     0.098 A 
ATOM     19  H1  UNL     1      -3.974  35.810  25.022  1.00  0.00     0.165 HD
HETATM   20  C3  UNL     1      -0.873  35.529  26.072  1.00  0.00    -0.013 A 
HETATM   21  C2  UNL     1      -0.473  34.526  25.214  1.00  0.00     0.083 A 
HETATM   22  C4  UNL     1       0.085  36.093  27.067  1.00  0.00     0.052 C 
HETATM   23  C13 UNL     1      -1.385  34.002  24.279  1.00  0.00     0.000 A 
HETATM   24  C14 UNL     1      -0.963  32.934  23.376  1.00  0.00     0.054 C 
BRANCH  21  25
HETATM   25  O1  UNL     1       0.812  34.000  25.226  1.00  0.00    -0.355 OA
HETATM   26  C1  UNL     1       1.832  34.604  24.459  1.00  0.00     0.210 C 
ENDBRANCH  21  25
ENDBRANCH  15  16
ENDBRANCH   1  15
TORSDOF 3
ENDMDL
