MODEL 9
REMARK VINA RESULT: -7.955907983      2.958      4.017
REMARK  3 active torsions:
REMARK  status: ('A' for Active; 'I' for Inactive)
REMARK    1  A    between atoms: O1_2  and  C2_3 
REMARK    2  A    between atoms: C6_9  and  C7_10 
REMARK    3  A    between atoms: C7_10  and  N2_11 
ROOT
HETATM    1  N2  UNL     1      -5.010  36.292  22.450  1.00  0.00    -0.300 N 
HETATM    2  C8  UNL     1      -4.949  36.273  21.124  1.00  0.00     0.190 A 
HETATM    3  N3  UNL     1      -4.393  37.409  20.656  1.00  0.00    -0.346 N 
ATOM      4  H3  UNL     1      -4.236  37.634  19.674  1.00  0.00     0.167 HD
HETATM    5  C9  UNL     1      -4.086  38.185  21.685  1.00  0.00     0.117 A 
HETATM    6  C10 UNL     1      -3.512  39.433  21.827  1.00  0.00     0.136 A 
HETATM    7 CL1  UNL     1      -3.009  40.348  20.414  1.00  0.00    -0.062 Cl
HETATM    8  N4  UNL     1      -3.308  40.007  23.023  1.00  0.00    -0.319 N 
ATOM      9  H4  UNL     1      -2.882  40.929  23.105  1.00  0.00     0.169 HD
HETATM   10  C11 UNL     1      -3.691  39.312  24.108  1.00  0.00     0.195 A 
HETATM   11  N5  UNL     1      -3.487  39.898  25.390  1.00  0.00    -0.063 NA
HETATM   12  N6  UNL     1      -4.254  38.094  24.006  1.00  0.00    -0.314 N 
ATOM     13  H6  UNL     1      -4.526  37.611  24.862  1.00  0.00     0.170 HD
HETATM   14  C12 UNL     1      -4.476  37.480  22.823  1.00  0.00     0.145 A 
ENDROOT
BRANCH   1  15
HETATM   15  C7  UNL     1      -5.537  35.298  23.305  1.00  0.00     0.129 C 
BRANCH  15  16
HETATM   16  C6  UNL     1      -4.733  34.151  23.651  1.00  0.00     0.057 A 
HETATM   17  N1  UNL     1      -3.380  34.227  23.549  1.00  0.00    -0.364 N 
HETATM   18  C5  UNL     1      -2.566  33.202  23.843  1.00  0.00     0.098 A 
ATOM     19  H1  UNL     1      -2.964  35.104  23.234  1.00  0.00     0.165 HD
HETATM   20  C3  UNL     1      -3.057  31.988  24.274  1.00  0.00    -0.013 A 
HETATM   21  C2  UNL     1      -4.427  31.869  24.392  1.00  0.00     0.083 A 
HETATM   22  C4  UNL     1      -2.172  30.834  24.606  1.00  0.00     0.052 C 
HETATM   23  C13 UNL     1      -5.253  32.963  24.075  1.00  0.00     0.000 A 
HETATM   24  C14 UNL     1      -6.702  32.840  24.209  1.00  0.00     0.054 C 
BRANCH  21  25
HETATM   25  O1  UNL     1      -5.042  30.698  24.815  1.00  0.00    -0.355 OA
HETATM   26  C1  UNL     1      -5.162  30.421  26.194  1.00  0.00     0.210 C 
ENDBRANCH  21  25
ENDBRANCH  15  16
ENDBRANCH   1  15
TORSDOF 3
ENDMDL
