MODEL 20
REMARK VINA RESULT: -4.952268559      7.395      8.516
REMARK  4 active torsions:
REMARK  status: ('A' for Active; 'I' for Inactive)
REMARK    1  A    between atoms: O1_1  and  C1_3 
REMARK    2  A    between atoms: C1_3  and  C2_4 
REMARK    3  A    between atoms: C5_10  and  O2_11 
REMARK    4  A    between atoms: C6_13  and  O3_14 
ROOT
HETATM    1  C2  UNL     1       5.605  44.088  83.188  1.00  0.00     0.066 C 
HETATM    2  C3  UNL     1       6.963  44.597  82.868  1.00  0.00     0.241 C 
HETATM    3  N1  UNL     1       7.011  45.979  82.476  1.00  0.00    -0.072 N 
ATOM      4  H11 UNL     1       6.694  46.087  81.513  1.00  0.00     0.277 HD
ATOM      5  H12 UNL     1       7.977  46.288  82.378  1.00  0.00     0.277 HD
HETATM    6  C4  UNL     1       6.291  46.863  83.338  1.00  0.00     0.266 C 
HETATM    7  C5  UNL     1       4.912  46.429  83.683  1.00  0.00     0.172 C 
HETATM    8  C6  UNL     1       4.518  45.116  83.052  1.00  0.00     0.156 C 
ENDROOT
BRANCH   1   9
HETATM    9  C1  UNL     1       5.222  42.903  82.291  1.00  0.00     0.173 C 
BRANCH   9  10
HETATM   10  O1  UNL     1       4.587  43.424  81.161  1.00  0.00    -0.400 OA
ATOM     11  H1  UNL     1       4.147  44.223  81.427  1.00  0.00     0.209 HD
ENDBRANCH   9  10
ENDBRANCH   1   9
BRANCH   8  12
HETATM   12  O3  UNL     1       3.407  44.644  83.763  1.00  0.00    -0.392 OA
ATOM     13  H3  UNL     1       3.472  43.697  83.792  1.00  0.00     0.210 HD
ENDBRANCH   8  12
BRANCH   7  14
HETATM   14  O2  UNL     1       3.930  47.368  83.381  1.00  0.00    -0.391 OA
ATOM     15  H2  UNL     1       3.895  48.100  83.986  1.00  0.00     0.210 HD
ENDBRANCH   7  14
TORSDOF 4
ENDMDL
