MODEL 15
REMARK VINA RESULT: -5.083218336      6.134      7.129
REMARK  4 active torsions:
REMARK  status: ('A' for Active; 'I' for Inactive)
REMARK    1  A    between atoms: O1_1  and  C1_3 
REMARK    2  A    between atoms: C1_3  and  C2_4 
REMARK    3  A    between atoms: C5_10  and  O2_11 
REMARK    4  A    between atoms: C6_13  and  O3_14 
ROOT
HETATM    1  C2  UNL     1       6.014  45.819  83.714  1.00  0.00     0.066 C 
HETATM    2  C3  UNL     1       4.767  45.039  83.508  1.00  0.00     0.241 C 
HETATM    3  N1  UNL     1       4.777  44.184  82.353  1.00  0.00    -0.072 N 
ATOM      4  H11 UNL     1       4.629  44.730  81.504  1.00  0.00     0.277 HD
ATOM      5  H12 UNL     1       3.940  43.601  82.334  1.00  0.00     0.277 HD
HETATM    6  C4  UNL     1       5.948  43.376  82.225  1.00  0.00     0.266 C 
HETATM    7  C5  UNL     1       7.237  44.096  82.395  1.00  0.00     0.172 C 
HETATM    8  C6  UNL     1       7.072  45.569  82.677  1.00  0.00     0.156 C 
ENDROOT
BRANCH   1   9
HETATM    9  C1  UNL     1       5.737  47.328  83.725  1.00  0.00     0.173 C 
BRANCH   9  10
HETATM   10  O1  UNL     1       6.060  47.820  82.457  1.00  0.00    -0.400 OA
ATOM     11  H1  UNL     1       6.323  47.079  81.924  1.00  0.00     0.209 HD
ENDBRANCH   9  10
ENDBRANCH   1   9
BRANCH   8  12
HETATM   12  O3  UNL     1       8.289  46.019  83.207  1.00  0.00    -0.392 OA
ATOM     13  H3  UNL     1       8.097  46.770  83.755  1.00  0.00     0.210 HD
ENDBRANCH   8  12
BRANCH   7  14
HETATM   14  O2  UNL     1       8.112  43.955  81.322  1.00  0.00    -0.391 OA
ATOM     15  H2  UNL     1       8.493  43.088  81.244  1.00  0.00     0.210 HD
ENDBRANCH   7  14
TORSDOF 4
ENDMDL
