MODEL 6
REMARK VINA RESULT: -5.369144045      2.582      3.114
REMARK  4 active torsions:
REMARK  status: ('A' for Active; 'I' for Inactive)
REMARK    1  A    between atoms: O1_1  and  C1_3 
REMARK    2  A    between atoms: C1_3  and  C2_4 
REMARK    3  A    between atoms: C5_10  and  O2_11 
REMARK    4  A    between atoms: C6_13  and  O3_14 
ROOT
HETATM    1  C2  UNL     1      11.210  42.126  83.892  1.00  0.00     0.066 C 
HETATM    2  C3  UNL     1      10.285  42.775  82.928  1.00  0.00     0.241 C 
HETATM    3  N1  UNL     1       9.904  44.118  83.271  1.00  0.00    -0.072 N 
ATOM      4  H11 UNL     1       9.202  44.111  84.010  1.00  0.00     0.277 HD
ATOM      5  H12 UNL     1       9.361  44.538  82.517  1.00  0.00     0.277 HD
HETATM    6  C4  UNL     1      10.995  44.968  83.631  1.00  0.00     0.266 C 
HETATM    7  C5  UNL     1      11.950  44.393  84.613  1.00  0.00     0.172 C 
HETATM    8  C6  UNL     1      11.591  42.996  85.056  1.00  0.00     0.156 C 
ENDROOT
BRANCH   1   9
HETATM    9  C1  UNL     1      10.609  40.837  84.467  1.00  0.00     0.173 C 
BRANCH   9  10
HETATM   10  O1  UNL     1       9.710  41.208  85.471  1.00  0.00    -0.400 OA
ATOM     11  H1  UNL     1      10.124  41.020  86.305  1.00  0.00     0.209 HD
ENDBRANCH   9  10
ENDBRANCH   1   9
BRANCH   8  12
HETATM   12  O3  UNL     1      12.744  42.444  85.629  1.00  0.00    -0.392 OA
ATOM     13  H3  UNL     1      12.575  41.520  85.768  1.00  0.00     0.210 HD
ENDBRANCH   8  12
BRANCH   7  14
HETATM   14  O2  UNL     1      12.136  45.175  85.749  1.00  0.00    -0.391 OA
ATOM     15  H2  UNL     1      12.887  44.923  86.275  1.00  0.00     0.210 HD
ENDBRANCH   7  14
TORSDOF 4
ENDMDL
