MODEL 18
REMARK VINA RESULT: -5.611629600      7.045      8.150
REMARK  5 active torsions:
REMARK  status: ('A' for Active; 'I' for Inactive)
REMARK    1  A    between atoms: O1_1  and  C1_3 
REMARK    2  A    between atoms: C1_3  and  C2_4 
REMARK    3  A    between atoms: C4_8  and  O2_9 
REMARK    4  A    between atoms: C5_11  and  O3_12 
REMARK    5  A    between atoms: C6_14  and  O4_15 
ROOT
HETATM    1  C2  UNL     1       6.274  45.866  84.010  1.00  0.00     0.131 C 
HETATM    2  N1  UNL     1       4.880  45.558  83.879  1.00  0.00    -0.410 N 
ATOM      3  H1  UNL     1       4.157  46.278  83.875  1.00  0.00     0.153 HD
HETATM    4  C3  UNL     1       4.580  44.171  83.755  1.00  0.00     0.148 C 
HETATM    5  C4  UNL     1       5.410  43.539  82.635  1.00  0.00     0.166 C 
HETATM    6  C5  UNL     1       6.865  43.701  83.098  1.00  0.00     0.179 C 
HETATM    7  C6  UNL     1       7.138  45.187  82.984  1.00  0.00     0.173 C 
ENDROOT
BRANCH   1   8
HETATM    8  C1  UNL     1       6.456  47.357  84.047  1.00  0.00     0.191 C 
BRANCH   8   9
HETATM    9  O1  UNL     1       6.595  47.795  82.727  1.00  0.00    -0.399 OA
ATOM     10  H1  UNL     1       6.181  47.148  82.168  1.00  0.00     0.209 HD
ENDBRANCH   8   9
ENDBRANCH   1   8
BRANCH   7  11
HETATM   11  O4  UNL     1       8.456  45.515  83.220  1.00  0.00    -0.391 OA
ATOM     12  H4  UNL     1       8.964  44.716  83.303  1.00  0.00     0.210 HD
ENDBRANCH   7  11
BRANCH   6  13
HETATM   13  O3  UNL     1       7.733  42.931  82.373  1.00  0.00    -0.390 OA
ATOM     14  H3  UNL     1       8.183  43.427  81.700  1.00  0.00     0.210 HD
ENDBRANCH   6  13
BRANCH   5  15
HETATM   15  O2  UNL     1       5.076  42.229  82.414  1.00  0.00    -0.391 OA
ATOM     16  H2  UNL     1       4.401  42.135  81.752  1.00  0.00     0.210 HD
ENDBRANCH   5  15
TORSDOF 5
ENDMDL
