MODEL 2
REMARK VINA RESULT: -9.161660647      0.117      1.009
REMARK  2 active torsions:
REMARK  status: ('A' for Active; 'I' for Inactive)
REMARK    1  A    between atoms: C3_6  and  C4_7 
REMARK       I    between atoms: N3_16  and  C11_18 
REMARK    2  A    between atoms: C11_18  and  C12_20 
ROOT
HETATM    1  O1  UNL     1      36.612  48.952  11.319  1.00  0.00    -0.266 OA
HETATM    2  C1  UNL     1      36.147  49.517  12.361  1.00  0.00     0.268 A 
HETATM    3  N1  UNL     1      34.755  49.416  12.571  1.00  0.00    -0.331 N 
ATOM      4  H1  UNL     1      34.153  48.916  11.917  1.00  0.00     0.168 HD
HETATM    5  C2  UNL     1      34.221  50.050  13.747  1.00  0.00     0.099 A 
HETATM    6  C3  UNL     1      34.947  50.698  14.608  1.00  0.00    -0.027 A 
HETATM    7  C9  UNL     1      36.452  50.864  14.474  1.00  0.00     0.104 A 
HETATM    8  C10 UNL     1      36.987  50.232  13.302  1.00  0.00     0.085 A 
HETATM    9  N3  UNL     1      38.238  50.312  13.097  1.00  0.00    -0.321 N 
ATOM     10  H3  UNL     1      38.632  49.867  12.268  1.00  0.00     0.169 HD
HETATM   11  C11 UNL     1      39.084  50.984  13.965  1.00  0.00     0.256 C 
HETATM   12  O2  UNL     1      38.802  51.485  15.075  1.00  0.00    -0.267 OA
ENDROOT
BRANCH   6  13
HETATM   13  C4  UNL     1      34.389  51.329  15.786  1.00  0.00    -0.026 A 
HETATM   14  C5  UNL     1      33.114  51.869  15.827  1.00  0.00     0.029 A 
HETATM   15  C6  UNL     1      32.579  52.467  16.943  1.00  0.00     0.088 A 
HETATM   16  N2  UNL     1      33.334  52.526  18.048  1.00  0.00    -0.375 N 
HETATM   17  C7  UNL     1      34.575  52.020  18.069  1.00  0.00     0.088 A 
ATOM     18  H2  UNL     1      32.958  52.964  18.888  1.00  0.00     0.164 HD
HETATM   19  C8  UNL     1      35.117  51.414  16.939  1.00  0.00     0.029 A 
ENDBRANCH   6  13
BRANCH  11  20
HETATM   20  C12 UNL     1      40.482  51.141  13.559  1.00  0.00     0.032 A 
HETATM   21  C13 UNL     1      41.003  50.372  12.540  1.00  0.00     0.017 A 
HETATM   22  C14 UNL     1      42.295  50.466  12.112  1.00  0.00     0.001 A 
HETATM   23  C15 UNL     1      43.135  51.375  12.721  1.00  0.00     0.000 A 
HETATM   24  C16 UNL     1      42.648  52.152  13.736  1.00  0.00     0.001 A 
HETATM   25  C17 UNL     1      41.354  52.038  14.143  1.00  0.00     0.017 A 
ENDBRANCH  11  20
TORSDOF 2
ENDMDL
