MODEL 5
REMARK VINA RESULT: -8.624509234      3.365      5.903
REMARK  2 active torsions:
REMARK  status: ('A' for Active; 'I' for Inactive)
REMARK    1  A    between atoms: C3_6  and  C4_7 
REMARK       I    between atoms: N3_16  and  C11_18 
REMARK    2  A    between atoms: C11_18  and  C12_20 
ROOT
HETATM    1  O1  UNL     1      43.841  51.831  13.217  1.00  0.00    -0.266 OA
HETATM    2  C1  UNL     1      42.595  51.575  13.175  1.00  0.00     0.268 A 
HETATM    3  N1  UNL     1      42.136  50.831  12.066  1.00  0.00    -0.331 N 
ATOM      4  H1  UNL     1      42.775  50.517  11.335  1.00  0.00     0.168 HD
HETATM    5  C2  UNL     1      40.730  50.536  12.010  1.00  0.00     0.099 A 
HETATM    6  C3  UNL     1      39.877  50.915  12.914  1.00  0.00    -0.027 A 
HETATM    7  C9  UNL     1      40.268  51.719  14.144  1.00  0.00     0.104 A 
HETATM    8  C10 UNL     1      41.671  52.014  14.203  1.00  0.00     0.085 A 
HETATM    9  N3  UNL     1      42.102  52.682  15.194  1.00  0.00    -0.321 N 
ATOM     10  H3  UNL     1      43.097  52.899  15.249  1.00  0.00     0.169 HD
HETATM   11  C11 UNL     1      41.261  53.125  16.203  1.00  0.00     0.256 C 
HETATM   12  O2  UNL     1      40.050  52.861  16.361  1.00  0.00    -0.267 OA
ENDROOT
BRANCH   6  13
HETATM   13  C4  UNL     1      38.464  50.607  12.839  1.00  0.00    -0.026 A 
HETATM   14  C5  UNL     1      37.934  49.687  11.949  1.00  0.00     0.029 A 
HETATM   15  C6  UNL     1      36.594  49.388  11.874  1.00  0.00     0.088 A 
HETATM   16  N2  UNL     1      35.762  50.023  12.709  1.00  0.00    -0.375 N 
HETATM   17  C7  UNL     1      36.217  50.924  13.592  1.00  0.00     0.088 A 
ATOM     18  H2  UNL     1      34.764  49.818  12.673  1.00  0.00     0.164 HD
HETATM   19  C8  UNL     1      37.573  51.225  13.668  1.00  0.00     0.029 A 
ENDBRANCH   6  13
BRANCH  11  20
HETATM   20  C12 UNL     1      41.834  54.010  17.219  1.00  0.00     0.032 A 
HETATM   21  C13 UNL     1      43.076  54.578  17.030  1.00  0.00     0.017 A 
HETATM   22  C14 UNL     1      43.669  55.410  17.934  1.00  0.00     0.001 A 
HETATM   23  C15 UNL     1      43.000  55.708  19.104  1.00  0.00     0.000 A 
HETATM   24  C16 UNL     1      41.766  55.160  19.321  1.00  0.00     0.001 A 
HETATM   25  C17 UNL     1      41.198  54.333  18.401  1.00  0.00     0.017 A 
ENDBRANCH  11  20
TORSDOF 2
ENDMDL
