MODEL 1
REMARK VINA RESULT: -9.210937527      0.000      0.000
REMARK  2 active torsions:
REMARK  status: ('A' for Active; 'I' for Inactive)
REMARK    1  A    between atoms: C3_6  and  C4_7 
REMARK       I    between atoms: N3_16  and  C11_18 
REMARK    2  A    between atoms: C11_18  and  C12_20 
ROOT
HETATM    1  O1  UNL     1      36.685  48.947  11.226  1.00  0.00    -0.266 OA
HETATM    2  C1  UNL     1      36.218  49.500  12.274  1.00  0.00     0.268 A 
HETATM    3  N1  UNL     1      34.824  49.399  12.478  1.00  0.00    -0.331 N 
ATOM      4  H1  UNL     1      34.224  48.907  11.817  1.00  0.00     0.168 HD
HETATM    5  C2  UNL     1      34.288  50.019  13.660  1.00  0.00     0.099 A 
HETATM    6  C3  UNL     1      35.012  50.657  14.531  1.00  0.00    -0.027 A 
HETATM    7  C9  UNL     1      36.517  50.823  14.403  1.00  0.00     0.104 A 
HETATM    8  C10 UNL     1      37.055  50.204  13.226  1.00  0.00     0.085 A 
HETATM    9  N3  UNL     1      38.307  50.284  13.025  1.00  0.00    -0.321 N 
ATOM     10  H3  UNL     1      38.703  49.848  12.192  1.00  0.00     0.169 HD
HETATM   11  C11 UNL     1      39.151  50.945  13.904  1.00  0.00     0.256 C 
HETATM   12  O2  UNL     1      38.866  51.433  15.018  1.00  0.00    -0.267 OA
ENDROOT
BRANCH   6  13
HETATM   13  C4  UNL     1      34.451  51.274  15.715  1.00  0.00    -0.026 A 
HETATM   14  C5  UNL     1      33.177  51.815  15.758  1.00  0.00     0.029 A 
HETATM   15  C6  UNL     1      32.638  52.401  16.880  1.00  0.00     0.088 A 
HETATM   16  N2  UNL     1      33.391  52.446  17.987  1.00  0.00    -0.375 N 
HETATM   17  C7  UNL     1      34.631  51.939  18.005  1.00  0.00     0.088 A 
ATOM     18  H2  UNL     1      33.013  52.875  18.831  1.00  0.00     0.164 HD
HETATM   19  C8  UNL     1      35.176  51.346  16.870  1.00  0.00     0.029 A 
ENDBRANCH   6  13
BRANCH  11  20
HETATM   20  C12 UNL     1      40.551  51.105  13.504  1.00  0.00     0.032 A 
HETATM   21  C13 UNL     1      41.353  52.035  14.130  1.00  0.00     0.017 A 
HETATM   22  C14 UNL     1      42.664  52.236  13.809  1.00  0.00     0.001 A 
HETATM   23  C15 UNL     1      43.228  51.475  12.805  1.00  0.00     0.000 A 
HETATM   24  C16 UNL     1      42.458  50.545  12.165  1.00  0.00     0.001 A 
HETATM   25  C17 UNL     1      41.153  50.364  12.506  1.00  0.00     0.017 A 
ENDBRANCH  11  20
TORSDOF 2
ENDMDL
