MODEL 4
REMARK VINA RESULT: -8.696028995      1.669      7.016
REMARK  2 active torsions:
REMARK  status: ('A' for Active; 'I' for Inactive)
REMARK    1  A    between atoms: C3_6  and  C4_7 
REMARK       I    between atoms: N3_16  and  C11_18 
REMARK    2  A    between atoms: C11_18  and  C12_20 
ROOT
HETATM    1  O1  UNL     1      36.270  48.972  10.953  1.00  0.00    -0.266 OA
HETATM    2  C1  UNL     1      37.330  49.486  11.436  1.00  0.00     0.268 A 
HETATM    3  N1  UNL     1      38.534  49.225  10.747  1.00  0.00    -0.331 N 
ATOM      4  H1  UNL     1      38.551  48.651   9.904  1.00  0.00     0.168 HD
HETATM    5  C2  UNL     1      39.736  49.803  11.285  1.00  0.00     0.099 A 
HETATM    6  C3  UNL     1      39.766  50.539  12.355  1.00  0.00    -0.027 A 
HETATM    7  C9  UNL     1      38.527  50.878  13.169  1.00  0.00     0.104 A 
HETATM    8  C10 UNL     1      37.326  50.304  12.633  1.00  0.00     0.085 A 
HETATM    9  N3  UNL     1      36.232  50.529  13.240  1.00  0.00    -0.321 N 
ATOM     10  H3  UNL     1      35.371  50.127  12.870  1.00  0.00     0.169 HD
HETATM   11  C11 UNL     1      36.174  51.303  14.388  1.00  0.00     0.256 C 
HETATM   12  O2  UNL     1      37.096  51.962  14.914  1.00  0.00    -0.267 OA
ENDROOT
BRANCH   6  13
HETATM   13  C4  UNL     1      40.987  51.112  12.880  1.00  0.00    -0.026 A 
HETATM   14  C5  UNL     1      42.246  50.785  12.401  1.00  0.00     0.029 A 
HETATM   15  C6  UNL     1      43.410  51.327  12.894  1.00  0.00     0.088 A 
HETATM   16  N2  UNL     1      43.315  52.219  13.889  1.00  0.00    -0.375 N 
HETATM   17  C7  UNL     1      42.125  52.574  14.393  1.00  0.00     0.088 A 
ATOM     18  H2  UNL     1      44.164  52.635  14.270  1.00  0.00     0.164 HD
HETATM   19  C8  UNL     1      40.947  52.026  13.894  1.00  0.00     0.029 A 
ENDBRANCH   6  13
BRANCH  11  20
HETATM   20  C12 UNL     1      34.891  51.377  15.088  1.00  0.00     0.032 A 
HETATM   21  C13 UNL     1      34.841  51.742  16.417  1.00  0.00     0.017 A 
HETATM   22  C14 UNL     1      33.681  51.830  17.130  1.00  0.00     0.001 A 
HETATM   23  C15 UNL     1      32.488  51.543  16.500  1.00  0.00     0.000 A 
HETATM   24  C16 UNL     1      32.504  51.177  15.183  1.00  0.00     0.001 A 
HETATM   25  C17 UNL     1      33.676  51.097  14.495  1.00  0.00     0.017 A 
ENDBRANCH  11  20
TORSDOF 2
ENDMDL
