MODEL 3
REMARK VINA RESULT: -8.885089605      1.754      7.109
REMARK  2 active torsions:
REMARK  status: ('A' for Active; 'I' for Inactive)
REMARK    1  A    between atoms: C3_6  and  C4_7 
REMARK       I    between atoms: N3_16  and  C11_18 
REMARK    2  A    between atoms: C11_18  and  C12_20 
ROOT
HETATM    1  O1  UNL     1      36.713  48.845  10.613  1.00  0.00    -0.266 OA
HETATM    2  C1  UNL     1      37.711  49.401  11.175  1.00  0.00     0.268 A 
HETATM    3  N1  UNL     1      38.977  49.176  10.590  1.00  0.00    -0.331 N 
ATOM      4  H1  UNL     1      39.083  48.594   9.760  1.00  0.00     0.168 HD
HETATM    5  C2  UNL     1      40.109  49.802  11.218  1.00  0.00     0.099 A 
HETATM    6  C3  UNL     1      40.025  50.550  12.277  1.00  0.00    -0.027 A 
HETATM    7  C9  UNL     1      38.712  50.853  12.981  1.00  0.00     0.104 A 
HETATM    8  C10 UNL     1      37.580  50.231  12.357  1.00  0.00     0.085 A 
HETATM    9  N3  UNL     1      36.433  50.423  12.868  1.00  0.00    -0.321 N 
ATOM     10  H3  UNL     1      35.619  49.987  12.435  1.00  0.00     0.169 HD
HETATM   11  C11 UNL     1      36.254  51.207  13.997  1.00  0.00     0.256 C 
HETATM   12  O2  UNL     1      37.106  51.904  14.589  1.00  0.00    -0.267 OA
ENDROOT
BRANCH   6  13
HETATM   13  C4  UNL     1      41.179  51.171  12.893  1.00  0.00    -0.026 A 
HETATM   14  C5  UNL     1      42.478  50.950  12.466  1.00  0.00     0.029 A 
HETATM   15  C6  UNL     1      43.578  51.539  13.046  1.00  0.00     0.088 A 
HETATM   16  N2  UNL     1      43.375  52.370  14.075  1.00  0.00    -0.375 N 
HETATM   17  C7  UNL     1      42.140  52.623  14.532  1.00  0.00     0.088 A 
ATOM     18  H2  UNL     1      44.175  52.820  14.521  1.00  0.00     0.164 HD
HETATM   19  C8  UNL     1      41.028  52.028  13.946  1.00  0.00     0.029 A 
ENDBRANCH   6  13
BRANCH  11  20
HETATM   20  C12 UNL     1      34.915  51.242  14.589  1.00  0.00     0.032 A 
HETATM   21  C13 UNL     1      33.842  50.689  13.921  1.00  0.00     0.017 A 
HETATM   22  C14 UNL     1      32.570  50.687  14.413  1.00  0.00     0.001 A 
HETATM   23  C15 UNL     1      32.329  51.265  15.643  1.00  0.00     0.000 A 
HETATM   24  C16 UNL     1      33.373  51.822  16.330  1.00  0.00     0.001 A 
HETATM   25  C17 UNL     1      34.633  51.809  15.815  1.00  0.00     0.017 A 
ENDBRANCH  11  20
TORSDOF 2
ENDMDL
