MODEL 8
REMARK VINA RESULT: -8.564050738      2.012      6.868
REMARK  2 active torsions:
REMARK  status: ('A' for Active; 'I' for Inactive)
REMARK    1  A    between atoms: C3_6  and  C4_7 
REMARK       I    between atoms: N3_16  and  C11_18 
REMARK    2  A    between atoms: C11_18  and  C12_20 
ROOT
HETATM    1  O1  UNL     1      36.450  49.075  11.070  1.00  0.00    -0.266 OA
HETATM    2  C1  UNL     1      37.232  49.713  11.845  1.00  0.00     0.268 A 
HETATM    3  N1  UNL     1      38.610  49.664  11.539  1.00  0.00    -0.331 N 
ATOM      4  H1  UNL     1      38.958  49.141  10.736  1.00  0.00     0.168 HD
HETATM    5  C2  UNL     1      39.501  50.383  12.409  1.00  0.00     0.099 A 
HETATM    6  C3  UNL     1      39.106  51.063  13.444  1.00  0.00    -0.027 A 
HETATM    7  C9  UNL     1      37.648  51.177  13.859  1.00  0.00     0.104 A 
HETATM    8  C10 UNL     1      36.756  50.462  12.992  1.00  0.00     0.085 A 
HETATM    9  N3  UNL     1      35.513  50.495  13.252  1.00  0.00    -0.321 N 
ATOM     10  H3  UNL     1      34.868  49.990  12.644  1.00  0.00     0.169 HD
HETATM   11  C11 UNL     1      35.007  51.195  14.336  1.00  0.00     0.256 C 
HETATM   12  O2  UNL     1      35.625  51.954  15.112  1.00  0.00    -0.267 OA
ENDROOT
BRANCH   6  13
HETATM   13  C4  UNL     1      40.020  51.780  14.307  1.00  0.00    -0.026 A 
HETATM   14  C5  UNL     1      39.743  52.072  15.632  1.00  0.00     0.029 A 
HETATM   15  C6  UNL     1      40.608  52.752  16.457  1.00  0.00     0.088 A 
HETATM   16  N2  UNL     1      41.781  53.149  15.947  1.00  0.00    -0.375 N 
HETATM   17  C7  UNL     1      42.105  52.895  14.671  1.00  0.00     0.088 A 
ATOM     18  H2  UNL     1      42.439  53.654  16.539  1.00  0.00     0.164 HD
HETATM   19  C8  UNL     1      41.229  52.207  13.836  1.00  0.00     0.029 A 
ENDBRANCH   6  13
BRANCH  11  20
HETATM   20  C12 UNL     1      33.580  51.046  14.629  1.00  0.00     0.032 A 
HETATM   21  C13 UNL     1      33.022  51.680  15.718  1.00  0.00     0.017 A 
HETATM   22  C14 UNL     1      31.702  51.585  16.050  1.00  0.00     0.001 A 
HETATM   23  C15 UNL     1      30.870  50.818  15.260  1.00  0.00     0.000 A 
HETATM   24  C16 UNL     1      31.394  50.176  14.172  1.00  0.00     0.001 A 
HETATM   25  C17 UNL     1      32.715  50.288  13.865  1.00  0.00     0.017 A 
ENDBRANCH  11  20
TORSDOF 2
ENDMDL
