MODEL 9
REMARK VINA RESULT: -8.543029863      1.940      6.977
REMARK  2 active torsions:
REMARK  status: ('A' for Active; 'I' for Inactive)
REMARK    1  A    between atoms: C3_6  and  C4_7 
REMARK       I    between atoms: N3_16  and  C11_18 
REMARK    2  A    between atoms: C11_18  and  C12_20 
ROOT
HETATM    1  O1  UNL     1      36.202  49.096  11.276  1.00  0.00    -0.266 OA
HETATM    2  C1  UNL     1      37.043  49.729  11.992  1.00  0.00     0.268 A 
HETATM    3  N1  UNL     1      38.401  49.619  11.623  1.00  0.00    -0.331 N 
ATOM      4  H1  UNL     1      38.692  49.058  10.822  1.00  0.00     0.168 HD
HETATM    5  C2  UNL     1      39.359  50.333  12.425  1.00  0.00     0.099 A 
HETATM    6  C3  UNL     1      39.039  51.059  13.453  1.00  0.00    -0.027 A 
HETATM    7  C9  UNL     1      37.608  51.242  13.933  1.00  0.00     0.104 A 
HETATM    8  C10 UNL     1      36.650  50.532  13.134  1.00  0.00     0.085 A 
HETATM    9  N3  UNL     1      35.423  50.620  13.450  1.00  0.00    -0.321 N 
ATOM     10  H3  UNL     1      34.731  50.121  12.891  1.00  0.00     0.169 HD
HETATM   11  C11 UNL     1      34.995  51.373  14.532  1.00  0.00     0.256 C 
HETATM   12  O2  UNL     1      35.677  52.134  15.253  1.00  0.00    -0.267 OA
ENDROOT
BRANCH   6  13
HETATM   13  C4  UNL     1      40.019  51.770  14.247  1.00  0.00    -0.026 A 
HETATM   14  C5  UNL     1      39.831  52.084  15.583  1.00  0.00     0.029 A 
HETATM   15  C6  UNL     1      40.760  52.757  16.343  1.00  0.00     0.088 A 
HETATM   16  N2  UNL     1      41.905  53.125  15.754  1.00  0.00    -0.375 N 
HETATM   17  C7  UNL     1      42.143  52.849  14.463  1.00  0.00     0.088 A 
ATOM     18  H2  UNL     1      42.609  53.624  16.296  1.00  0.00     0.164 HD
HETATM   19  C8  UNL     1      41.204  52.168  13.695  1.00  0.00     0.029 A 
ENDBRANCH   6  13
BRANCH  11  20
HETATM   20  C12 UNL     1      33.580  51.288  14.897  1.00  0.00     0.032 A 
HETATM   21  C13 UNL     1      32.680  50.664  14.059  1.00  0.00     0.017 A 
HETATM   22  C14 UNL     1      31.349  50.549  14.337  1.00  0.00     0.001 A 
HETATM   23  C15 UNL     1      30.865  51.080  15.515  1.00  0.00     0.000 A 
HETATM   24  C16 UNL     1      31.733  51.705  16.367  1.00  0.00     0.001 A 
HETATM   25  C17 UNL     1      33.057  51.805  16.065  1.00  0.00     0.017 A 
ENDBRANCH  11  20
TORSDOF 2
ENDMDL
