MODEL 3
REMARK VINA RESULT: -9.012399160      6.961     14.486
REMARK  5 active torsions:
REMARK  status: ('A' for Active; 'I' for Inactive)
REMARK    1  A    between atoms: N1_2  and  C2_4 
REMARK    2  A    between atoms: C5_9  and  C6_10 
REMARK    3  A    between atoms: C8_12  and  N3_13 
REMARK       I    between atoms: N3_13  and  C9_15 
REMARK    4  A    between atoms: C9_15  and  C10_17 
REMARK    5  A    between atoms: C13_20  and  N4_21 
ROOT
HETATM    1  C6  UNL     1      29.395  48.386  16.503  1.00  0.00     0.005 A 
HETATM    2  C7  UNL     1      30.267  49.342  16.367  1.00  0.00     0.022 A 
HETATM    3  C8  UNL     1      30.454  50.160  15.119  1.00  0.00     0.201 A 
HETATM    4  C21 UNL     1      29.505  49.758  14.051  1.00  0.00     0.248 A 
HETATM    5  O2  UNL     1      29.569  50.389  12.976  1.00  0.00    -0.271 OA
HETATM    6  N5  UNL     1      28.590  48.717  14.264  1.00  0.00    -0.334 N 
ATOM      7  H5  UNL     1      27.955  48.458  13.509  1.00  0.00     0.168 HD
HETATM    8  C22 UNL     1      28.521  48.066  15.397  1.00  0.00     0.104 A 
ENDROOT
BRANCH   3   9
HETATM    9  N3  UNL     1      31.829  50.038  14.682  1.00  0.00    -0.340 N 
HETATM   10  C9  UNL     1      32.763  51.021  15.090  1.00  0.00     0.252 C 
HETATM   11  O1  UNL     1      32.345  51.972  15.829  1.00  0.00    -0.268 OA
ATOM     12  H3  UNL     1      32.119  49.259  14.091  1.00  0.00     0.164 HD
BRANCH  10  13
HETATM   13  C10 UNL     1      34.163  50.995  14.707  1.00  0.00     0.032 A 
HETATM   14  C11 UNL     1      35.075  51.769  15.424  1.00  0.00     0.019 A 
HETATM   15  C12 UNL     1      36.415  51.793  15.111  1.00  0.00     0.030 A 
HETATM   16  C13 UNL     1      36.877  51.026  14.053  1.00  0.00     0.030 A 
HETATM   17  C19 UNL     1      35.961  50.270  13.358  1.00  0.00     0.030 A 
HETATM   18  C20 UNL     1      34.601  50.239  13.667  1.00  0.00     0.019 A 
BRANCH  16  19
HETATM   19  N4  UNL     1      38.250  51.006  13.679  1.00  0.00    -0.381 N 
HETATM   20  C14 UNL     1      38.585  50.531  12.370  1.00  0.00     0.123 C 
HETATM   21  C15 UNL     1      40.016  50.599  11.982  1.00  0.00     0.020 C 
HETATM   22  C16 UNL     1      40.899  50.469  13.212  1.00  0.00     0.003 C 
HETATM   23  C17 UNL     1      40.569  51.684  14.073  1.00  0.00     0.020 C 
HETATM   24  C18 UNL     1      39.199  51.466  14.649  1.00  0.00     0.123 C 
ENDBRANCH  16  19
ENDBRANCH  10  13
ENDBRANCH   3   9
BRANCH   1  25
HETATM   25  C5  UNL     1      29.288  47.644  17.761  1.00  0.00     0.061 A 
HETATM   26  C4  UNL     1      29.930  48.041  18.913  1.00  0.00     0.048 A 
HETATM   27  C3  UNL     1      29.773  47.267  20.068  1.00  0.00     0.108 A 
HETATM   28  N2  UNL     1      29.016  46.160  20.054  1.00  0.00    -0.202 N 
HETATM   29  C2  UNL     1      28.375  45.755  18.915  1.00  0.00     0.677 A 
ATOM     30  H2  UNL     1      28.916  45.610  20.907  1.00  0.00     0.183 HD
HETATM   31  N6  UNL     1      28.544  46.513  17.837  1.00  0.00    -0.191 N 
ATOM     32  H6  UNL     1      28.068  46.216  16.984  1.00  0.00     0.184 HD
BRANCH  29  33
HETATM   33  N1  UNL     1      27.585  44.582  18.941  1.00  0.00    -0.230 N 
HETATM   34  C1  UNL     1      27.137  43.986  17.714  1.00  0.00     0.165 C 
ATOM     35  H1  UNL     1      27.335  44.157  19.834  1.00  0.00     0.177 HD
ENDBRANCH  29  33
ENDBRANCH   1  25
TORSDOF 5
ENDMDL
