MODEL 1
REMARK VINA RESULT: -9.635408536      0.000      0.000
REMARK  5 active torsions:
REMARK  status: ('A' for Active; 'I' for Inactive)
REMARK    1  A    between atoms: N1_2  and  C2_4 
REMARK    2  A    between atoms: C5_9  and  C6_10 
REMARK    3  A    between atoms: C8_12  and  N3_13 
REMARK       I    between atoms: N3_13  and  C9_15 
REMARK    4  A    between atoms: C9_15  and  C10_17 
REMARK    5  A    between atoms: C13_20  and  N4_21 
ROOT
HETATM    1  C6  UNL     1      45.213  55.366  17.980  1.00  0.00     0.005 A 
HETATM    2  C7  UNL     1      43.934  55.402  17.749  1.00  0.00     0.022 A 
HETATM    3  C8  UNL     1      42.893  54.707  18.582  1.00  0.00     0.201 A 
HETATM    4  C21 UNL     1      43.499  53.980  19.725  1.00  0.00     0.248 A 
HETATM    5  O2  UNL     1      42.715  53.381  20.489  1.00  0.00    -0.271 OA
HETATM    6  N5  UNL     1      44.889  53.982  19.916  1.00  0.00    -0.334 N 
ATOM      7  H5  UNL     1      45.277  53.467  20.706  1.00  0.00     0.168 HD
HETATM    8  C22 UNL     1      45.705  54.620  19.117  1.00  0.00     0.104 A 
ENDROOT
BRANCH   3   9
HETATM    9  N3  UNL     1      42.130  53.819  17.731  1.00  0.00    -0.340 N 
HETATM   10  C9  UNL     1      40.807  54.182  17.379  1.00  0.00     0.252 C 
HETATM   11  O1  UNL     1      40.349  55.283  17.832  1.00  0.00    -0.268 OA
ATOM     12  H3  UNL     1      42.537  52.948  17.391  1.00  0.00     0.164 HD
BRANCH  10  13
HETATM   13  C10 UNL     1      39.955  53.364  16.535  1.00  0.00     0.032 A 
HETATM   14  C11 UNL     1      38.572  53.500  16.636  1.00  0.00     0.019 A 
HETATM   15  C12 UNL     1      37.707  52.753  15.867  1.00  0.00     0.030 A 
HETATM   16  C13 UNL     1      38.225  51.836  14.965  1.00  0.00     0.030 A 
HETATM   17  C19 UNL     1      39.592  51.717  14.881  1.00  0.00     0.030 A 
HETATM   18  C20 UNL     1      40.476  52.469  15.655  1.00  0.00     0.019 A 
BRANCH  16  19
HETATM   19  N4  UNL     1      37.386  51.034  14.141  1.00  0.00    -0.381 N 
HETATM   20  C14 UNL     1      37.922  50.547  12.905  1.00  0.00     0.123 C 
HETATM   21  C15 UNL     1      37.051  49.648  12.109  1.00  0.00     0.020 C 
HETATM   22  C16 UNL     1      35.589  49.980  12.357  1.00  0.00     0.003 C 
HETATM   23  C17 UNL     1      35.359  49.695  13.839  1.00  0.00     0.020 C 
HETATM   24  C18 UNL     1      36.059  50.773  14.615  1.00  0.00     0.123 C 
ENDBRANCH  16  19
ENDBRANCH  10  13
ENDBRANCH   3   9
BRANCH   1  25
HETATM   25  C5  UNL     1      46.152  56.077  17.108  1.00  0.00     0.061 A 
HETATM   26  C4  UNL     1      45.755  57.080  16.252  1.00  0.00     0.048 A 
HETATM   27  C3  UNL     1      46.721  57.700  15.453  1.00  0.00     0.108 A 
HETATM   28  N2  UNL     1      48.008  57.327  15.518  1.00  0.00    -0.202 N 
HETATM   29  C2  UNL     1      48.413  56.332  16.365  1.00  0.00     0.677 A 
ATOM     30  H2  UNL     1      48.696  57.793  14.926  1.00  0.00     0.183 HD
HETATM   31  N6  UNL     1      47.471  55.763  17.109  1.00  0.00    -0.191 N 
ATOM     32  H6  UNL     1      47.768  55.020  17.742  1.00  0.00     0.184 HD
BRANCH  29  33
HETATM   33  N1  UNL     1      49.780  55.966  16.403  1.00  0.00    -0.230 N 
HETATM   34  C1  UNL     1      50.658  56.344  15.333  1.00  0.00     0.165 C 
ATOM     35  H1  UNL     1      50.141  55.433  17.195  1.00  0.00     0.177 HD
ENDBRANCH  29  33
ENDBRANCH   1  25
TORSDOF 5
ENDMDL
