MODEL 2
REMARK VINA RESULT: -9.099730794      7.250     14.850
REMARK  5 active torsions:
REMARK  status: ('A' for Active; 'I' for Inactive)
REMARK    1  A    between atoms: N1_2  and  C2_4 
REMARK    2  A    between atoms: C5_9  and  C6_10 
REMARK    3  A    between atoms: C8_12  and  N3_13 
REMARK       I    between atoms: N3_13  and  C9_15 
REMARK    4  A    between atoms: C9_15  and  C10_17 
REMARK    5  A    between atoms: C13_20  and  N4_21 
ROOT
HETATM    1  C6  UNL     1      28.597  47.792  15.662  1.00  0.00     0.005 A 
HETATM    2  C7  UNL     1      29.484  48.731  15.816  1.00  0.00     0.022 A 
HETATM    3  C8  UNL     1      29.772  49.811  14.810  1.00  0.00     0.201 A 
HETATM    4  C21 UNL     1      28.904  49.692  13.612  1.00  0.00     0.248 A 
HETATM    5  O2  UNL     1      29.055  50.553  12.722  1.00  0.00    -0.271 OA
HETATM    6  N5  UNL     1      27.967  48.653  13.510  1.00  0.00    -0.334 N 
ATOM      7  H5  UNL     1      27.390  48.593  12.671  1.00  0.00     0.168 HD
HETATM    8  C22 UNL     1      27.807  47.759  14.451  1.00  0.00     0.104 A 
ENDROOT
BRANCH   3   9
HETATM    9  N3  UNL     1      31.175  49.759  14.457  1.00  0.00    -0.340 N 
HETATM   10  C9  UNL     1      32.038  50.773  14.941  1.00  0.00     0.252 C 
HETATM   11  O1  UNL     1      31.532  51.689  15.670  1.00  0.00    -0.268 OA
ATOM     12  H3  UNL     1      31.536  49.006  13.872  1.00  0.00     0.164 HD
BRANCH  10  13
HETATM   13  C10 UNL     1      33.458  50.817  14.645  1.00  0.00     0.032 A 
HETATM   14  C11 UNL     1      34.296  51.571  15.465  1.00  0.00     0.019 A 
HETATM   15  C12 UNL     1      35.652  51.657  15.239  1.00  0.00     0.030 A 
HETATM   16  C13 UNL     1      36.204  50.976  14.166  1.00  0.00     0.030 A 
HETATM   17  C19 UNL     1      35.359  50.239  13.369  1.00  0.00     0.030 A 
HETATM   18  C20 UNL     1      33.985  50.144  13.589  1.00  0.00     0.019 A 
BRANCH  16  19
HETATM   19  N4  UNL     1      37.597  51.025  13.878  1.00  0.00    -0.381 N 
HETATM   20  C14 UNL     1      38.040  50.530  12.609  1.00  0.00     0.123 C 
HETATM   21  C15 UNL     1      39.486  50.668  12.307  1.00  0.00     0.020 C 
HETATM   22  C16 UNL     1      40.295  50.628  13.593  1.00  0.00     0.003 C 
HETATM   23  C17 UNL     1      39.845  51.848  14.391  1.00  0.00     0.020 C 
HETATM   24  C18 UNL     1      38.455  51.569  14.888  1.00  0.00     0.123 C 
ENDBRANCH  16  19
ENDBRANCH  10  13
ENDBRANCH   3   9
BRANCH   1  25
HETATM   25  C5  UNL     1      28.389  46.781  16.701  1.00  0.00     0.061 A 
HETATM   26  C4  UNL     1      27.809  45.559  16.440  1.00  0.00     0.048 A 
HETATM   27  C3  UNL     1      27.645  44.656  17.496  1.00  0.00     0.108 A 
HETATM   28  N2  UNL     1      28.044  44.973  18.737  1.00  0.00    -0.202 N 
HETATM   29  C2  UNL     1      28.621  46.183  19.007  1.00  0.00     0.677 A 
ATOM     30  H2  UNL     1      27.915  44.299  19.492  1.00  0.00     0.183 HD
HETATM   31  N6  UNL     1      28.762  47.017  17.982  1.00  0.00    -0.191 N 
ATOM     32  H6  UNL     1      29.191  47.922  18.179  1.00  0.00     0.184 HD
BRANCH  29  33
HETATM   33  N1  UNL     1      29.028  46.479  20.330  1.00  0.00    -0.230 N 
HETATM   34  C1  UNL     1      29.289  47.836  20.717  1.00  0.00     0.165 C 
ATOM     35  H1  UNL     1      29.136  45.726  21.009  1.00  0.00     0.177 HD
ENDBRANCH  29  33
ENDBRANCH   1  25
TORSDOF 5
ENDMDL
