MODEL 1
REMARK VINA RESULT: -7.218221231      0.000      0.000
REMARK  6 active torsions:
REMARK  status: ('A' for Active; 'I' for Inactive)
REMARK    1  A    between atoms: O1_2  and  C2_3 
REMARK    2  A    between atoms: C5_6  and  C6_7 
REMARK    3  A    between atoms: C6_7  and  C7_8 
REMARK    4  A    between atoms: C8_11  and  O2_12 
REMARK    5  A    between atoms: C9_14  and  O3_15 
REMARK    6  A    between atoms: C10_17  and  C11_18 
ROOT
HETATM    1  C7  UNL     1       0.621   5.331  27.534  1.00  0.00     0.088 A 
HETATM    2  N1  UNL     1       1.802   5.952  27.398  1.00  0.00    -0.324 N 
ATOM      3  H1  UNL     1       2.322   5.849  26.527  1.00  0.00     0.169 HD
HETATM    4  C8  UNL     1       2.315   6.706  28.383  1.00  0.00     0.178 A 
HETATM    5  C9  UNL     1       1.630   6.874  29.601  1.00  0.00     0.151 A 
HETATM    6  C10 UNL     1       0.426   6.238  29.729  1.00  0.00     0.148 A 
HETATM    7  N2  UNL     1      -0.029   5.488  28.681  1.00  0.00    -0.338 N 
ATOM      8  H2  UNL     1      -0.927   5.016  28.787  1.00  0.00     0.167 HD
ENDROOT
BRANCH   1   9
HETATM    9  C6  UNL     1       0.076   4.495  26.411  1.00  0.00     0.115 C 
BRANCH   9  10
HETATM   10  C5  UNL     1       1.062   3.496  25.976  1.00  0.00    -0.050 A 
HETATM   11  C4  UNL     1       0.826   2.739  24.855  1.00  0.00     0.010 A 
HETATM   12  C3  UNL     1       1.729   1.783  24.408  1.00  0.00     0.039 A 
HETATM   13  C2  UNL     1       2.888   1.601  25.118  1.00  0.00     0.085 A 
HETATM   14  C13 UNL     1       3.162   2.346  26.254  1.00  0.00     0.044 A 
HETATM   15  C12 UNL     1       2.234   3.287  26.664  1.00  0.00     0.029 A 
HETATM   16 BR1  UNL     1       4.770   2.089  27.233  1.00  0.00    -0.048 Br
BRANCH  13  17
HETATM   17  O1  UNL     1       3.801   0.662  24.697  1.00  0.00    -0.355 OA
HETATM   18  C1  UNL     1       3.627  -0.683  25.040  1.00  0.00     0.210 C 
ENDBRANCH  13  17
ENDBRANCH   9  10
ENDBRANCH   1   9
BRANCH   4  19
HETATM   19  O2  UNL     1       3.540   7.353  28.250  1.00  0.00    -0.344 OA
ATOM     20  H2  UNL     1       3.636   8.284  28.415  1.00  0.00     0.219 HD
ENDBRANCH   4  19
BRANCH   6  21
HETATM   21  C11 UNL     1      -0.345   6.357  30.945  1.00  0.00     0.230 C 
HETATM   22  O4  UNL     1      -1.605   6.353  30.834  1.00  0.00    -0.643 OA
HETATM   23  O5  UNL     1       0.151   6.473  32.214  1.00  0.00    -0.643 OA
ENDBRANCH   6  21
BRANCH   5  24
HETATM   24  O3  UNL     1       2.240   7.661  30.535  1.00  0.00    -0.355 OA
ATOM     25  H3  UNL     1       1.732   8.393  30.865  1.00  0.00     0.218 HD
ENDBRANCH   5  24
TORSDOF 6
ENDMDL
