MODEL 2
REMARK VINA RESULT: -7.193395410      2.813      6.654
REMARK  6 active torsions:
REMARK  status: ('A' for Active; 'I' for Inactive)
REMARK    1  A    between atoms: O1_2  and  C2_3 
REMARK    2  A    between atoms: C5_6  and  C6_7 
REMARK    3  A    between atoms: C6_7  and  C7_8 
REMARK    4  A    between atoms: C8_11  and  O2_12 
REMARK    5  A    between atoms: C9_14  and  O3_15 
REMARK    6  A    between atoms: C10_17  and  C11_18 
ROOT
HETATM    1  C7  UNL     1       3.405   4.182  27.249  1.00  0.00     0.088 A 
HETATM    2  N1  UNL     1       4.476   3.375  27.283  1.00  0.00    -0.324 N 
ATOM      3  H1  UNL     1       5.218   3.558  27.958  1.00  0.00     0.169 HD
HETATM    4  C8  UNL     1       4.592   2.330  26.448  1.00  0.00     0.178 A 
HETATM    5  C9  UNL     1       3.590   2.042  25.501  1.00  0.00     0.151 A 
HETATM    6  C10 UNL     1       2.502   2.871  25.476  1.00  0.00     0.148 A 
HETATM    7  N2  UNL     1       2.458   3.914  26.359  1.00  0.00    -0.338 N 
ATOM      8  H2  UNL     1       1.643   4.526  26.331  1.00  0.00     0.167 HD
ENDROOT
BRANCH   1   9
HETATM    9  C6  UNL     1       3.308   5.342  28.199  1.00  0.00     0.115 C 
BRANCH   9  10
HETATM   10  C5  UNL     1       1.938   5.487  28.710  1.00  0.00    -0.050 A 
HETATM   11  C4  UNL     1       1.147   6.523  28.277  1.00  0.00     0.010 A 
HETATM   12  C3  UNL     1      -0.153   6.699  28.734  1.00  0.00     0.039 A 
HETATM   13  C2  UNL     1      -0.649   5.801  29.646  1.00  0.00     0.085 A 
HETATM   14  C13 UNL     1       0.119   4.743  30.106  1.00  0.00     0.044 A 
HETATM   15  C12 UNL     1       1.408   4.607  29.624  1.00  0.00     0.029 A 
HETATM   16 BR1  UNL     1      -0.574   3.505  31.369  1.00  0.00    -0.048 Br
BRANCH  13  17
HETATM   17  O1  UNL     1      -1.933   5.951  30.114  1.00  0.00    -0.355 OA
HETATM   18  C1  UNL     1      -2.533   7.214  30.117  1.00  0.00     0.210 C 
ENDBRANCH  13  17
ENDBRANCH   9  10
ENDBRANCH   1   9
BRANCH   4  19
HETATM   19  O2  UNL     1       5.699   1.488  26.475  1.00  0.00    -0.344 OA
ATOM     20  H2  UNL     1       6.474   1.662  25.955  1.00  0.00     0.219 HD
ENDBRANCH   4  19
BRANCH   6  21
HETATM   21  C11 UNL     1       1.427   2.647  24.539  1.00  0.00     0.230 C 
HETATM   22  O4  UNL     1       0.277   3.060  24.867  1.00  0.00    -0.643 OA
HETATM   23  O5  UNL     1       1.524   2.033  23.321  1.00  0.00    -0.643 OA
ENDBRANCH   6  21
BRANCH   5  24
HETATM   24  O3  UNL     1       3.807   0.957  24.702  1.00  0.00    -0.355 OA
ATOM     25  H3  UNL     1       3.959   1.137  23.782  1.00  0.00     0.218 HD
ENDBRANCH   5  24
TORSDOF 6
ENDMDL
