MODEL 3
REMARK VINA RESULT: -7.059023049      3.238      6.650
REMARK  6 active torsions:
REMARK  status: ('A' for Active; 'I' for Inactive)
REMARK    1  A    between atoms: O1_2  and  C2_3 
REMARK    2  A    between atoms: C5_6  and  C6_7 
REMARK    3  A    between atoms: C6_7  and  C7_8 
REMARK    4  A    between atoms: C8_11  and  O2_12 
REMARK    5  A    between atoms: C9_14  and  O3_15 
REMARK    6  A    between atoms: C10_17  and  C11_18 
ROOT
HETATM    1  C7  UNL     1       2.973   3.998  27.216  1.00  0.00     0.088 A 
HETATM    2  N1  UNL     1       4.124   3.311  27.264  1.00  0.00    -0.324 N 
ATOM      3  H1  UNL     1       4.814   3.542  27.979  1.00  0.00     0.169 HD
HETATM    4  C8  UNL     1       4.389   2.327  26.390  1.00  0.00     0.178 A 
HETATM    5  C9  UNL     1       3.464   1.976  25.388  1.00  0.00     0.151 A 
HETATM    6  C10 UNL     1       2.293   2.682  25.349  1.00  0.00     0.148 A 
HETATM    7  N2  UNL     1       2.098   3.670  26.273  1.00  0.00    -0.338 N 
ATOM      8  H2  UNL     1       1.222   4.191  26.235  1.00  0.00     0.167 HD
ENDROOT
BRANCH   1   9
HETATM    9  C6  UNL     1       2.709   5.093  28.210  1.00  0.00     0.115 C 
BRANCH   9  10
HETATM   10  C5  UNL     1       1.359   4.972  28.776  1.00  0.00    -0.050 A 
HETATM   11  C4  UNL     1       0.853   3.737  29.094  1.00  0.00     0.010 A 
HETATM   12  C3  UNL     1      -0.418   3.576  29.632  1.00  0.00     0.039 A 
HETATM   13  C2  UNL     1      -1.180   4.696  29.845  1.00  0.00     0.085 A 
HETATM   14  C13 UNL     1      -0.704   5.961  29.537  1.00  0.00     0.044 A 
HETATM   15  C12 UNL     1       0.567   6.074  29.003  1.00  0.00     0.029 A 
HETATM   16 BR1  UNL     1      -1.765   7.508  29.835  1.00  0.00    -0.048 Br
BRANCH  13  17
HETATM   17  O1  UNL     1      -2.442   4.566  30.376  1.00  0.00    -0.355 OA
HETATM   18  C1  UNL     1      -2.703   3.568  31.320  1.00  0.00     0.210 C 
ENDBRANCH  13  17
ENDBRANCH   9  10
ENDBRANCH   1   9
BRANCH   4  19
HETATM   19  O2  UNL     1       5.581   1.609  26.432  1.00  0.00    -0.344 OA
ATOM     20  H2  UNL     1       5.611   0.677  26.256  1.00  0.00     0.219 HD
ENDBRANCH   4  19
BRANCH   6  21
HETATM   21  C11 UNL     1       1.288   2.387  24.355  1.00  0.00     0.230 C 
HETATM   22  O4  UNL     1       0.080   2.417  24.727  1.00  0.00    -0.643 OA
HETATM   23  O5  UNL     1       1.510   2.080  23.041  1.00  0.00    -0.643 OA
ENDBRANCH   6  21
BRANCH   5  24
HETATM   24  O3  UNL     1       3.833   0.961  24.553  1.00  0.00    -0.355 OA
ATOM     25  H3  UNL     1       3.399   0.932  23.709  1.00  0.00     0.218 HD
ENDBRANCH   5  24
TORSDOF 6
ENDMDL
