MODEL 2
REMARK VINA RESULT: -5.669221133      1.439      4.024
REMARK  14 active torsions:
REMARK  status: ('A' for Active; 'I' for Inactive)
REMARK    1  A    between atoms: C2_2  and  C3_3 
REMARK    2  A    between atoms: C3_3  and  C4_4 
REMARK    3  A    between atoms: C4_4  and  C5_5 
REMARK    4  A    between atoms: C5_5  and  C6_6 
REMARK    5  A    between atoms: C6_6  and  C7_7 
REMARK    6  A    between atoms: C7_7  and  C8_8 
REMARK    7  A    between atoms: C8_8  and  C9_9 
REMARK    8  A    between atoms: C9_9  and  C10_10 
REMARK    9  A    between atoms: C10_10  and  C11_11 
REMARK   10  A    between atoms: C11_11  and  C12_12 
REMARK   11  A    between atoms: C12_12  and  C13_13 
REMARK   12  A    between atoms: C13_13  and  C14_14 
REMARK   13  A    between atoms: C14_14  and  C15_15 
REMARK   14  A    between atoms: C15_15  and  C16_16 
ROOT
HETATM    1  C9  UNL     1     -38.197  16.713  -7.728  1.00  0.00     0.000 C 
ENDROOT
BRANCH   1   2
HETATM    2  C8  UNL     1     -38.886  17.910  -8.288  1.00  0.00     0.000 C 
BRANCH   2   3
HETATM    3  C7  UNL     1     -38.073  18.713  -9.248  1.00  0.00     0.000 C 
BRANCH   3   4
HETATM    4  C6  UNL     1     -38.112  18.226 -10.659  1.00  0.00     0.000 C 
BRANCH   4   5
HETATM    5  C5  UNL     1     -36.699  18.028 -11.225  1.00  0.00     0.000 C 
BRANCH   5   6
HETATM    6  C4  UNL     1     -35.708  18.253 -10.108  1.00  0.00     0.000 C 
BRANCH   6   7
HETATM    7  C3  UNL     1     -34.290  17.974 -10.545  1.00  0.00    -0.000 C 
BRANCH   7   8
HETATM    8  C2  UNL     1     -33.480  17.321  -9.446  1.00  0.00    -0.005 C 
HETATM    9  C1  UNL     1     -33.785  17.979  -8.110  1.00  0.00     0.005 C 
ENDBRANCH   7   8
ENDBRANCH   6   7
ENDBRANCH   5   6
ENDBRANCH   4   5
ENDBRANCH   3   4
ENDBRANCH   2   3
ENDBRANCH   1   2
BRANCH   1  10
HETATM   10  C10 UNL     1     -37.143  17.192  -6.750  1.00  0.00     0.000 C 
BRANCH  10  11
HETATM   11  C11 UNL     1     -37.770  17.914  -5.575  1.00  0.00     0.000 C 
BRANCH  11  12
HETATM   12  C12 UNL     1     -36.746  18.447  -4.623  1.00  0.00     0.000 C 
BRANCH  12  13
HETATM   13  C13 UNL     1     -35.371  17.902  -4.824  1.00  0.00     0.001 C 
BRANCH  13  14
HETATM   14  C14 UNL     1     -34.795  17.448  -3.523  1.00  0.00     0.010 C 
BRANCH  14  15
HETATM   15  C15 UNL     1     -33.530  18.247  -3.186  1.00  0.00     0.113 C 
BRANCH  15  16
HETATM   16  C16 UNL     1     -32.524  18.078  -4.262  1.00  0.00     0.172 C 
HETATM   17  O1  UNL     1     -32.113  19.102  -4.861  1.00  0.00    -0.648 OA
HETATM   18  O2  UNL     1     -32.019  16.850  -4.638  1.00  0.00    -0.648 OA
ENDBRANCH  15  16
ENDBRANCH  14  15
ENDBRANCH  13  14
ENDBRANCH  12  13
ENDBRANCH  11  12
ENDBRANCH  10  11
ENDBRANCH   1  10
TORSDOF 14
ENDMDL
