MODEL 7
REMARK VINA RESULT: -8.096146702      4.592      5.378
REMARK  10 active torsions:
REMARK  status: ('A' for Active; 'I' for Inactive)
REMARK    1  A    between atoms: N5_13  and  C6_14 
REMARK    2  A    between atoms: C7_16  and  C8_17 
REMARK    3  A    between atoms: C8_17  and  S1_18 
REMARK    4  A    between atoms: S1_18  and  C9_19 
REMARK    5  A    between atoms: C9_19  and  C10_20 
REMARK    6  A    between atoms: C10_20  and  C11_21 
REMARK    7  A    between atoms: C11_21  and  N6_22 
REMARK    8  A    between atoms: C11_21  and  C12_26 
REMARK    9  A    between atoms: C13_29  and  O4_30 
REMARK   10  A    between atoms: C14_32  and  O5_33 
ROOT
HETATM    1  C6  UNL     1      44.537  51.192   6.187  1.00  0.00     0.262 C 
HETATM    2  O1  UNL     1      45.730  51.928   6.084  1.00  0.00    -0.355 OA
HETATM    3  C7  UNL     1      45.731  52.379   4.752  1.00  0.00     0.165 C 
HETATM    4  C13 UNL     1      44.295  52.734   4.458  1.00  0.00     0.180 C 
HETATM    5  C14 UNL     1      43.568  52.219   5.681  1.00  0.00     0.198 C 
ENDROOT
BRANCH   1   6
HETATM    6  N5  UNL     1      44.326  50.754   7.529  1.00  0.00    -0.297 N 
HETATM    7  C3  UNL     1      44.559  49.514   7.991  1.00  0.00     0.142 A 
HETATM    8  N3  UNL     1      45.015  48.388   7.420  1.00  0.00    -0.336 N 
HETATM    9  C4  UNL     1      44.222  49.532   9.345  1.00  0.00     0.119 A 
HETATM   10  C2  UNL     1      45.135  47.291   8.181  1.00  0.00     0.183 A 
ATOM     11  H3  UNL     1      45.265  48.368   6.431  1.00  0.00     0.168 HD
HETATM   12  N2  UNL     1      44.817  47.286   9.482  1.00  0.00    -0.339 N 
HETATM   13  C1  UNL     1      44.359  48.396  10.080  1.00  0.00     0.148 A 
ATOM     14  H2  UNL     1      44.924  46.429  10.024  1.00  0.00     0.167 HD
HETATM   15  N1  UNL     1      44.021  48.389  11.469  1.00  0.00    -0.080 NA
HETATM   16  N4  UNL     1      43.802  50.793   9.615  1.00  0.00    -0.346 N 
HETATM   17  C5  UNL     1      43.862  51.541   8.520  1.00  0.00     0.188 A 
ATOM     18  H4  UNL     1      43.487  51.120  10.528  1.00  0.00     0.167 HD
ENDBRANCH   1   6
BRANCH   5  19
HETATM   19  O5  UNL     1      42.318  51.711   5.364  1.00  0.00    -0.388 OA
ATOM     20  H5  UNL     1      41.747  52.330   4.925  1.00  0.00     0.210 HD
ENDBRANCH   5  19
BRANCH   3  21
HETATM   21  C8  UNL     1      46.555  53.630   4.674  1.00  0.00     0.108 C 
BRANCH  21  22
HETATM   22  S1  UNL     1      48.308  53.454   4.658  1.00  0.00    -0.166 SA
BRANCH  22  23
HETATM   23  C9  UNL     1      49.228  54.764   3.906  1.00  0.00     0.076 C 
BRANCH  23  24
HETATM   24  C10 UNL     1      48.687  56.135   4.193  1.00  0.00     0.054 C 
BRANCH  24  25
HETATM   25  C11 UNL     1      49.079  57.105   3.133  1.00  0.00     0.284 C 
BRANCH  25  26
HETATM   26  N6  UNL     1      49.246  56.498   1.850  1.00  0.00    -0.065 N 
ATOM     27  H63 UNL     1      48.604  55.714   1.733  1.00  0.00     0.275 HD
ATOM     28  H62 UNL     1      48.900  57.111   1.112  1.00  0.00     0.275 HD
ATOM     29  H61 UNL     1      50.207  56.212   1.663  1.00  0.00     0.275 HD
ENDBRANCH  25  26
BRANCH  25  30
HETATM   30  C12 UNL     1      50.270  57.896   3.473  1.00  0.00     0.204 C 
HETATM   31  O2  UNL     1      50.662  57.951   4.655  1.00  0.00    -0.646 OA
HETATM   32  O3  UNL     1      50.958  58.578   2.494  1.00  0.00    -0.646 OA
ENDBRANCH  25  30
ENDBRANCH  24  25
ENDBRANCH  23  24
ENDBRANCH  22  23
ENDBRANCH  21  22
ENDBRANCH   3  21
BRANCH   4  33
HETATM   33  O4  UNL     1      43.828  51.998   3.351  1.00  0.00    -0.390 OA
ATOM     34  H4  UNL     1      43.267  51.289   3.641  1.00  0.00     0.210 HD
ENDBRANCH   4  33
TORSDOF 10
ENDMDL
