MODEL 5
REMARK VINA RESULT: -8.188603339      4.162      4.979
REMARK  10 active torsions:
REMARK  status: ('A' for Active; 'I' for Inactive)
REMARK    1  A    between atoms: N5_13  and  C6_14 
REMARK    2  A    between atoms: C7_16  and  C8_17 
REMARK    3  A    between atoms: C8_17  and  S1_18 
REMARK    4  A    between atoms: S1_18  and  C9_19 
REMARK    5  A    between atoms: C9_19  and  C10_20 
REMARK    6  A    between atoms: C10_20  and  C11_21 
REMARK    7  A    between atoms: C11_21  and  N6_22 
REMARK    8  A    between atoms: C11_21  and  C12_26 
REMARK    9  A    between atoms: C13_29  and  O4_30 
REMARK   10  A    between atoms: C14_32  and  O5_33 
ROOT
HETATM    1  C6  UNL     1      44.511  51.143   6.227  1.00  0.00     0.262 C 
HETATM    2  O1  UNL     1      45.702  51.879   6.108  1.00  0.00    -0.355 OA
HETATM    3  C7  UNL     1      45.688  52.325   4.774  1.00  0.00     0.165 C 
HETATM    4  C13 UNL     1      44.248  52.678   4.495  1.00  0.00     0.180 C 
HETATM    5  C14 UNL     1      43.535  52.166   5.727  1.00  0.00     0.198 C 
ENDROOT
BRANCH   1   6
HETATM    6  N5  UNL     1      44.315  50.709   7.573  1.00  0.00    -0.297 N 
HETATM    7  C3  UNL     1      44.529  49.465   8.031  1.00  0.00     0.142 A 
HETATM    8  N3  UNL     1      44.950  48.329   7.452  1.00  0.00    -0.336 N 
HETATM    9  C4  UNL     1      44.217  49.490   9.391  1.00  0.00     0.119 A 
HETATM   10  C2  UNL     1      45.059  47.229   8.211  1.00  0.00     0.183 A 
ATOM     11  H3  UNL     1      45.181  48.303   6.459  1.00  0.00     0.168 HD
HETATM   12  N2  UNL     1      44.765  47.232   9.518  1.00  0.00    -0.339 N 
HETATM   13  C1  UNL     1      44.343  48.351  10.124  1.00  0.00     0.148 A 
ATOM     14  H2  UNL     1      44.863  46.372  10.058  1.00  0.00     0.167 HD
HETATM   15  N1  UNL     1      44.030  48.352  11.519  1.00  0.00    -0.080 NA
HETATM   16  N4  UNL     1      43.831  50.760   9.668  1.00  0.00    -0.346 N 
HETATM   17  C5  UNL     1      43.887  51.506   8.572  1.00  0.00     0.188 A 
ATOM     18  H4  UNL     1      43.539  51.094  10.587  1.00  0.00     0.167 HD
ENDBRANCH   1   6
BRANCH   5  19
HETATM   19  O5  UNL     1      42.282  51.655   5.426  1.00  0.00    -0.388 OA
ATOM     20  H5  UNL     1      41.862  52.071   4.683  1.00  0.00     0.210 HD
ENDBRANCH   5  19
BRANCH   3  21
HETATM   21  C8  UNL     1      46.509  53.577   4.683  1.00  0.00     0.108 C 
BRANCH  21  22
HETATM   22  S1  UNL     1      48.263  53.407   4.710  1.00  0.00    -0.166 SA
BRANCH  22  23
HETATM   23  C9  UNL     1      49.196  54.726   3.992  1.00  0.00     0.076 C 
BRANCH  23  24
HETATM   24  C10 UNL     1      48.765  56.095   4.435  1.00  0.00     0.054 C 
BRANCH  24  25
HETATM   25  C11 UNL     1      49.278  57.149   3.518  1.00  0.00     0.284 C 
BRANCH  25  26
HETATM   26  N6  UNL     1      49.052  58.474   4.002  1.00  0.00    -0.065 N 
ATOM     27  H63 UNL     1      48.401  58.976   3.398  1.00  0.00     0.275 HD
ATOM     28  H62 UNL     1      48.504  58.457   4.862  1.00  0.00     0.275 HD
ATOM     29  H61 UNL     1      49.913  59.006   4.131  1.00  0.00     0.275 HD
ENDBRANCH  25  26
BRANCH  25  30
HETATM   30  C12 UNL     1      48.777  57.025   2.142  1.00  0.00     0.204 C 
HETATM   31  O2  UNL     1      47.555  57.110   1.917  1.00  0.00    -0.646 OA
HETATM   32  O3  UNL     1      49.651  56.814   1.098  1.00  0.00    -0.646 OA
ENDBRANCH  25  30
ENDBRANCH  24  25
ENDBRANCH  23  24
ENDBRANCH  22  23
ENDBRANCH  21  22
ENDBRANCH   3  21
BRANCH   4  33
HETATM   33  O4  UNL     1      43.770  51.937   3.396  1.00  0.00    -0.390 OA
ATOM     34  H4  UNL     1      43.604  51.038   3.653  1.00  0.00     0.210 HD
ENDBRANCH   4  33
TORSDOF 10
ENDMDL
