MODEL 3
REMARK VINA RESULT: -8.895869024      1.411      1.700
REMARK  10 active torsions:
REMARK  status: ('A' for Active; 'I' for Inactive)
REMARK    1  A    between atoms: N5_13  and  C6_14 
REMARK    2  A    between atoms: C7_16  and  C8_17 
REMARK    3  A    between atoms: C8_17  and  S1_18 
REMARK    4  A    between atoms: S1_18  and  C9_19 
REMARK    5  A    between atoms: C9_19  and  C10_20 
REMARK    6  A    between atoms: C10_20  and  C11_21 
REMARK    7  A    between atoms: C11_21  and  N6_22 
REMARK    8  A    between atoms: C11_21  and  C12_26 
REMARK    9  A    between atoms: C13_29  and  O4_30 
REMARK   10  A    between atoms: C14_32  and  O5_33 
ROOT
HETATM    1  C6  UNL     1      44.033  48.772   7.841  1.00  0.00     0.262 C 
HETATM    2  O1  UNL     1      44.781  49.228   6.742  1.00  0.00    -0.355 OA
HETATM    3  C7  UNL     1      44.415  50.581   6.627  1.00  0.00     0.165 C 
HETATM    4  C13 UNL     1      44.299  51.077   8.047  1.00  0.00     0.180 C 
HETATM    5  C14 UNL     1      44.428  49.804   8.855  1.00  0.00     0.198 C 
ENDROOT
BRANCH   1   6
HETATM    6  N5  UNL     1      44.379  47.425   8.166  1.00  0.00    -0.297 N 
HETATM    7  C3  UNL     1      45.626  46.962   8.353  1.00  0.00     0.142 A 
HETATM    8  N3  UNL     1      46.839  47.536   8.305  1.00  0.00    -0.336 N 
HETATM    9  C4  UNL     1      45.498  45.606   8.654  1.00  0.00     0.119 A 
HETATM   10  C2  UNL     1      47.914  46.773   8.549  1.00  0.00     0.183 A 
ATOM     11  H3  UNL     1      46.940  48.527   8.087  1.00  0.00     0.168 HD
HETATM   12  N2  UNL     1      47.814  45.470   8.839  1.00  0.00    -0.339 N 
HETATM   13  C1  UNL     1      46.616  44.869   8.895  1.00  0.00     0.148 A 
ATOM     14  H2  UNL     1      48.659  44.927   9.018  1.00  0.00     0.167 HD
HETATM   15  N1  UNL     1      46.511  43.478   9.206  1.00  0.00    -0.080 NA
HETATM   16  N4  UNL     1      44.169  45.334   8.627  1.00  0.00    -0.346 N 
HETATM   17  C5  UNL     1      43.483  46.432   8.332  1.00  0.00     0.188 A 
ATOM     18  H4  UNL     1      43.757  44.420   8.808  1.00  0.00     0.167 HD
ENDBRANCH   1   6
BRANCH   5  19
HETATM   19  O5  UNL     1      43.625  49.825   9.985  1.00  0.00    -0.388 OA
ATOM     20  H5  UNL     1      43.857  50.498  10.613  1.00  0.00     0.210 HD
ENDBRANCH   5  19
BRANCH   3  21
HETATM   21  C8  UNL     1      45.535  51.320   5.957  1.00  0.00     0.108 C 
BRANCH  21  22
HETATM   22  S1  UNL     1      45.127  52.775   5.052  1.00  0.00    -0.166 SA
BRANCH  22  23
HETATM   23  C9  UNL     1      43.516  52.830   4.325  1.00  0.00     0.076 C 
BRANCH  23  24
HETATM   24  C10 UNL     1      43.482  52.427   2.878  1.00  0.00     0.054 C 
BRANCH  24  25
HETATM   25  C11 UNL     1      42.200  52.824   2.235  1.00  0.00     0.284 C 
BRANCH  25  26
HETATM   26  N6  UNL     1      41.519  51.731   1.616  1.00  0.00    -0.065 N 
ATOM     27  H63 UNL     1      42.049  51.378   0.819  1.00  0.00     0.275 HD
ATOM     28  H62 UNL     1      41.544  50.904   2.213  1.00  0.00     0.275 HD
ATOM     29  H61 UNL     1      40.562  51.956   1.346  1.00  0.00     0.275 HD
ENDBRANCH  25  26
BRANCH  25  30
HETATM   30  C12 UNL     1      42.340  53.933   1.282  1.00  0.00     0.204 C 
HETATM   31  O2  UNL     1      43.467  54.241   0.850  1.00  0.00    -0.646 OA
HETATM   32  O3  UNL     1      41.232  54.636   0.860  1.00  0.00    -0.646 OA
ENDBRANCH  25  30
ENDBRANCH  24  25
ENDBRANCH  23  24
ENDBRANCH  22  23
ENDBRANCH  21  22
ENDBRANCH   3  21
BRANCH   4  33
HETATM   33  O4  UNL     1      43.008  51.592   8.279  1.00  0.00    -0.390 OA
ATOM     34  H4  UNL     1      42.897  51.796   9.199  1.00  0.00     0.210 HD
ENDBRANCH   4  33
TORSDOF 10
ENDMDL
