MODEL 6
REMARK VINA RESULT: -8.130570180      4.000      6.684
REMARK  10 active torsions:
REMARK  status: ('A' for Active; 'I' for Inactive)
REMARK    1  A    between atoms: N5_13  and  C6_14 
REMARK    2  A    between atoms: C7_16  and  C8_17 
REMARK    3  A    between atoms: C8_17  and  S1_18 
REMARK    4  A    between atoms: S1_18  and  C9_19 
REMARK    5  A    between atoms: C9_19  and  C10_20 
REMARK    6  A    between atoms: C10_20  and  C11_21 
REMARK    7  A    between atoms: C11_21  and  N6_22 
REMARK    8  A    between atoms: C11_21  and  C12_26 
REMARK    9  A    between atoms: C13_29  and  O4_30 
REMARK   10  A    between atoms: C14_32  and  O5_33 
ROOT
HETATM    1  C6  UNL     1      44.675  49.598   7.772  1.00  0.00     0.262 C 
HETATM    2  O1  UNL     1      43.960  50.348   8.721  1.00  0.00    -0.355 OA
HETATM    3  C7  UNL     1      44.194  51.681   8.339  1.00  0.00     0.165 C 
HETATM    4  C13 UNL     1      44.166  51.667   6.830  1.00  0.00     0.180 C 
HETATM    5  C14 UNL     1      44.113  50.188   6.513  1.00  0.00     0.198 C 
ENDROOT
BRANCH   1   6
HETATM    6  N5  UNL     1      44.447  48.200   7.953  1.00  0.00    -0.297 N 
HETATM    7  C3  UNL     1      45.338  47.321   8.440  1.00  0.00     0.142 A 
HETATM    8  N3  UNL     1      46.604  47.435   8.873  1.00  0.00    -0.336 N 
HETATM    9  C4  UNL     1      44.699  46.081   8.448  1.00  0.00     0.119 A 
HETATM   10  C2  UNL     1      47.230  46.332   9.308  1.00  0.00     0.183 A 
ATOM     11  H3  UNL     1      47.077  48.338   8.872  1.00  0.00     0.168 HD
HETATM   12  N2  UNL     1      46.635  45.133   9.324  1.00  0.00    -0.339 N 
HETATM   13  C1  UNL     1      45.371  44.988   8.899  1.00  0.00     0.148 A 
ATOM     14  H2  UNL     1      47.149  44.319   9.664  1.00  0.00     0.167 HD
HETATM   15  N1  UNL     1      44.737  43.706   8.918  1.00  0.00    -0.080 NA
HETATM   16  N4  UNL     1      43.451  46.294   7.960  1.00  0.00    -0.346 N 
HETATM   17  C5  UNL     1      43.290  47.576   7.657  1.00  0.00     0.188 A 
ATOM     18  H4  UNL     1      42.740  45.573   7.843  1.00  0.00     0.167 HD
ENDBRANCH   1   6
BRANCH   5  19
HETATM   19  O5  UNL     1      44.834  49.878   5.370  1.00  0.00    -0.388 OA
ATOM     20  H5  UNL     1      45.755  50.101   5.420  1.00  0.00     0.210 HD
ENDBRANCH   5  19
BRANCH   3  21
HETATM   21  C8  UNL     1      43.051  52.522   8.826  1.00  0.00     0.108 C 
BRANCH  21  22
HETATM   22  S1  UNL     1      42.710  52.513  10.555  1.00  0.00    -0.166 SA
BRANCH  22  23
HETATM   23  C9  UNL     1      41.985  53.979  11.226  1.00  0.00     0.076 C 
BRANCH  23  24
HETATM   24  C10 UNL     1      42.407  54.281  12.636  1.00  0.00     0.054 C 
BRANCH  24  25
HETATM   25  C11 UNL     1      41.237  54.624  13.490  1.00  0.00     0.284 C 
BRANCH  25  26
HETATM   26  N6  UNL     1      41.195  56.004  13.857  1.00  0.00    -0.065 N 
ATOM     27  H63 UNL     1      40.250  56.279  14.128  1.00  0.00     0.275 HD
ATOM     28  H62 UNL     1      41.675  56.159  14.743  1.00  0.00     0.275 HD
ATOM     29  H61 UNL     1      41.560  56.623  13.133  1.00  0.00     0.275 HD
ENDBRANCH  25  26
BRANCH  25  30
HETATM   30  C12 UNL     1      41.118  53.782  14.688  1.00  0.00     0.204 C 
HETATM   31  O2  UNL     1      41.899  53.950  15.644  1.00  0.00    -0.646 OA
HETATM   32  O3  UNL     1      40.148  52.806  14.762  1.00  0.00    -0.646 OA
ENDBRANCH  25  30
ENDBRANCH  24  25
ENDBRANCH  23  24
ENDBRANCH  22  23
ENDBRANCH  21  22
ENDBRANCH   3  21
BRANCH   4  33
HETATM   33  O4  UNL     1      45.380  52.164   6.316  1.00  0.00    -0.390 OA
ATOM     34  H4  UNL     1      45.341  52.207   5.368  1.00  0.00     0.210 HD
ENDBRANCH   4  33
TORSDOF 10
ENDMDL
