MODEL 11
REMARK VINA RESULT: -8.592123294      2.029      3.489
REMARK  7 active torsions:
REMARK  status: ('A' for Active; 'I' for Inactive)
REMARK    1  A    between atoms: C2_2  and  C3_3 
REMARK    2  A    between atoms: C2_2  and  C6_8 
REMARK    3  A    between atoms: C3_3  and  C4_4 
REMARK    4  A    between atoms: C4_4  and  C5_5 
REMARK    5  A    between atoms: C13_15  and  O3_16 
REMARK    6  A    between atoms: C20_24  and  O4_25 
REMARK    7  A    between atoms: C24_30  and  O5_31 
ROOT
HETATM    1  C6  UNL     1      -9.817  -0.910 -11.122  1.00  0.00     0.000 C 
HETATM    2  C7  UNL     1      -8.592  -0.566 -10.371  1.00  0.00     0.006 C 
HETATM    3  C8  UNL     1      -7.532  -1.590 -10.836  1.00  0.00     0.006 C 
HETATM    4  C9  UNL     1      -8.207  -2.266 -11.986  1.00  0.00     0.003 C 
HETATM    5  C10 UNL     1      -7.645  -3.549 -12.442  1.00  0.00     0.024 C 
HETATM    6  C11 UNL     1      -8.608  -4.174 -13.427  1.00  0.00     0.003 C 
HETATM    7  C12 UNL     1     -10.012  -4.262 -12.893  1.00  0.00     0.038 C 
HETATM    8  C13 UNL     1     -10.505  -2.867 -12.543  1.00  0.00     0.127 C 
HETATM    9  C14 UNL     1      -9.638  -2.368 -11.425  1.00  0.00    -0.010 C 
HETATM   10  C15 UNL     1      -9.628  -3.280 -10.254  1.00  0.00     0.018 C 
HETATM   11  C16 UNL     1      -8.077  -5.522 -13.801  1.00  0.00    -0.036 C 
HETATM   12  C17 UNL     1      -7.826  -6.392 -12.575  1.00  0.00     0.016 C 
HETATM   13  C18 UNL     1      -9.105  -6.222 -14.642  1.00  0.00     0.012 C 
HETATM   14  C19 UNL     1      -8.585  -7.491 -15.283  1.00  0.00     0.032 C 
HETATM   15  C20 UNL     1      -7.480  -7.097 -16.237  1.00  0.00     0.118 C 
HETATM   16  C21 UNL     1      -7.012  -5.696 -16.052  1.00  0.00     0.037 C 
HETATM   17  C22 UNL     1      -6.808  -5.306 -14.601  1.00  0.00    -0.001 C 
HETATM   18  C23 UNL     1      -6.382  -3.856 -14.599  1.00  0.00     0.037 C 
HETATM   19  C24 UNL     1      -6.384  -3.219 -13.255  1.00  0.00     0.123 C 
ENDROOT
BRANCH   1  20
HETATM   20  C2  UNL     1     -11.124  -0.452 -10.667  1.00  0.00    -0.013 C 
HETATM   21  C1  UNL     1     -11.754   0.468 -11.693  1.00  0.00     0.010 C 
BRANCH  20  22
HETATM   22  C3  UNL     1     -11.345   0.056  -9.313  1.00  0.00     0.015 C 
BRANCH  22  23
HETATM   23  C4  UNL     1     -11.512   1.501  -9.053  1.00  0.00     0.113 C 
BRANCH  23  24
HETATM   24  C5  UNL     1     -10.291   2.322  -9.022  1.00  0.00     0.172 C 
HETATM   25  O1  UNL     1      -9.488   2.258  -8.064  1.00  0.00    -0.648 OA
HETATM   26  O2  UNL     1      -9.992   3.189 -10.046  1.00  0.00    -0.648 OA
ENDBRANCH  23  24
ENDBRANCH  22  23
ENDBRANCH  20  22
ENDBRANCH   1  20
BRANCH   8  27
HETATM   27  O3  UNL     1     -10.454  -2.006 -13.614  1.00  0.00    -0.395 OA
ATOM     28  H3  UNL     1      -9.572  -1.698 -13.791  1.00  0.00     0.210 HD
ENDBRANCH   8  27
BRANCH  19  29
HETATM   29  O5  UNL     1      -6.258  -1.836 -13.445  1.00  0.00    -0.395 OA
ATOM     30  H5  UNL     1      -5.928  -1.642 -14.315  1.00  0.00     0.210 HD
ENDBRANCH  19  29
BRANCH  15  31
HETATM   31  O4  UNL     1      -8.031  -7.180 -17.536  1.00  0.00    -0.396 OA
ATOM     32  H4  UNL     1      -7.312  -7.402 -18.116  1.00  0.00     0.210 HD
ENDBRANCH  15  31
TORSDOF 7
ENDMDL
