MODEL 8
REMARK VINA RESULT: -8.658743728      2.397      6.761
REMARK  7 active torsions:
REMARK  status: ('A' for Active; 'I' for Inactive)
REMARK    1  A    between atoms: C2_2  and  C3_3 
REMARK    2  A    between atoms: C2_2  and  C6_8 
REMARK    3  A    between atoms: C3_3  and  C4_4 
REMARK    4  A    between atoms: C4_4  and  C5_5 
REMARK    5  A    between atoms: C13_15  and  O3_16 
REMARK    6  A    between atoms: C20_24  and  O4_25 
REMARK    7  A    between atoms: C24_30  and  O5_31 
ROOT
HETATM    1  C6  UNL     1      -8.463  -4.321 -15.941  1.00  0.00     0.000 C 
HETATM    2  C7  UNL     1      -9.927  -4.470 -16.073  1.00  0.00     0.006 C 
HETATM    3  C8  UNL     1     -10.515  -3.808 -14.807  1.00  0.00     0.006 C 
HETATM    4  C9  UNL     1      -9.325  -3.139 -14.199  1.00  0.00     0.003 C 
HETATM    5  C10 UNL     1      -9.428  -2.721 -12.790  1.00  0.00     0.024 C 
HETATM    6  C11 UNL     1      -8.057  -2.305 -12.308  1.00  0.00     0.003 C 
HETATM    7  C12 UNL     1      -7.004  -3.347 -12.574  1.00  0.00     0.038 C 
HETATM    8  C13 UNL     1      -6.937  -3.624 -14.068  1.00  0.00     0.127 C 
HETATM    9  C14 UNL     1      -8.258  -4.219 -14.459  1.00  0.00    -0.010 C 
HETATM   10  C15 UNL     1      -8.599  -5.429 -13.670  1.00  0.00     0.018 C 
HETATM   11  C16 UNL     1      -8.155  -1.984 -10.851  1.00  0.00    -0.036 C 
HETATM   12  C17 UNL     1      -8.743  -3.144 -10.054  1.00  0.00     0.016 C 
HETATM   13  C18 UNL     1      -6.772  -1.737 -10.323  1.00  0.00     0.012 C 
HETATM   14  C19 UNL     1      -6.763  -1.165  -8.921  1.00  0.00     0.032 C 
HETATM   15  C20 UNL     1      -7.424   0.194  -8.982  1.00  0.00     0.118 C 
HETATM   16  C21 UNL     1      -8.151   0.440 -10.257  1.00  0.00     0.037 C 
HETATM   17  C22 UNL     1      -8.996  -0.731 -10.715  1.00  0.00    -0.001 C 
HETATM   18  C23 UNL     1      -9.619  -0.327 -12.032  1.00  0.00     0.037 C 
HETATM   19  C24 UNL     1     -10.277  -1.441 -12.766  1.00  0.00     0.123 C 
ENDROOT
BRANCH   1  20
HETATM   20  C2  UNL     1      -7.555  -5.163 -16.711  1.00  0.00    -0.013 C 
HETATM   21  C1  UNL     1      -6.782  -4.335 -17.717  1.00  0.00     0.010 C 
BRANCH  20  22
HETATM   22  C3  UNL     1      -7.982  -6.431 -17.303  1.00  0.00     0.015 C 
BRANCH  22  23
HETATM   23  C4  UNL     1      -7.613  -7.726 -16.693  1.00  0.00     0.113 C 
BRANCH  23  24
HETATM   24  C5  UNL     1      -8.711  -8.646 -16.357  1.00  0.00     0.172 C 
HETATM   25  O1  UNL     1      -9.397  -8.489 -15.321  1.00  0.00    -0.648 OA
HETATM   26  O2  UNL     1      -9.020  -9.709 -17.170  1.00  0.00    -0.648 OA
ENDBRANCH  23  24
ENDBRANCH  22  23
ENDBRANCH  20  22
ENDBRANCH   1  20
BRANCH   8  27
HETATM   27  O3  UNL     1      -6.683  -2.490 -14.803  1.00  0.00    -0.395 OA
ATOM     28  H3  UNL     1      -5.755  -2.357 -14.958  1.00  0.00     0.210 HD
ENDBRANCH   8  27
BRANCH  19  29
HETATM   29  O5  UNL     1     -10.539  -0.990 -14.067  1.00  0.00    -0.395 OA
ATOM     30  H5  UNL     1     -11.151  -1.567 -14.510  1.00  0.00     0.210 HD
ENDBRANCH  19  29
BRANCH  15  31
HETATM   31  O4  UNL     1      -6.381   1.145  -8.911  1.00  0.00    -0.396 OA
ATOM     32  H4  UNL     1      -6.681   1.825  -8.320  1.00  0.00     0.210 HD
ENDBRANCH  15  31
TORSDOF 7
ENDMDL
