MODEL 7
REMARK VINA RESULT: -8.708809189      3.035      6.816
REMARK  7 active torsions:
REMARK  status: ('A' for Active; 'I' for Inactive)
REMARK    1  A    between atoms: C2_2  and  C3_3 
REMARK    2  A    between atoms: C2_2  and  C6_8 
REMARK    3  A    between atoms: C3_3  and  C4_4 
REMARK    4  A    between atoms: C4_4  and  C5_5 
REMARK    5  A    between atoms: C13_15  and  O3_16 
REMARK    6  A    between atoms: C20_24  and  O4_25 
REMARK    7  A    between atoms: C24_30  and  O5_31 
ROOT
HETATM    1  C6  UNL     1      -8.246  -4.943 -14.095  1.00  0.00     0.000 C 
HETATM    2  C7  UNL     1      -8.988  -6.038 -13.436  1.00  0.00     0.006 C 
HETATM    3  C8  UNL     1      -9.364  -5.488 -12.042  1.00  0.00     0.006 C 
HETATM    4  C9  UNL     1      -8.998  -4.043 -12.145  1.00  0.00     0.003 C 
HETATM    5  C10 UNL     1      -8.872  -3.284 -10.889  1.00  0.00     0.024 C 
HETATM    6  C11 UNL     1      -8.260  -1.937 -11.198  1.00  0.00     0.003 C 
HETATM    7  C12 UNL     1      -6.986  -2.044 -11.993  1.00  0.00     0.038 C 
HETATM    8  C13 UNL     1      -7.268  -2.767 -13.300  1.00  0.00     0.127 C 
HETATM    9  C14 UNL     1      -7.686  -4.163 -12.943  1.00  0.00    -0.010 C 
HETATM   10  C15 UNL     1      -6.681  -4.868 -12.108  1.00  0.00     0.018 C 
HETATM   11  C16 UNL     1      -8.040  -1.219  -9.905  1.00  0.00    -0.036 C 
HETATM   12  C17 UNL     1      -7.207  -2.046  -8.932  1.00  0.00     0.016 C 
HETATM   13  C18 UNL     1      -7.278   0.044 -10.183  1.00  0.00     0.012 C 
HETATM   14  C19 UNL     1      -7.210   0.973  -8.990  1.00  0.00     0.032 C 
HETATM   15  C20 UNL     1      -8.622   1.412  -8.676  1.00  0.00     0.118 C 
HETATM   16  C21 UNL     1      -9.660   0.604  -9.372  1.00  0.00     0.037 C 
HETATM   17  C22 UNL     1      -9.403  -0.889  -9.330  1.00  0.00    -0.001 C 
HETATM   18  C23 UNL     1     -10.518  -1.542 -10.115  1.00  0.00     0.037 C 
HETATM   19  C24 UNL     1     -10.299  -2.985 -10.405  1.00  0.00     0.123 C 
ENDROOT
BRANCH   1  20
HETATM   20  C2  UNL     1      -7.382  -5.210 -15.238  1.00  0.00    -0.013 C 
HETATM   21  C1  UNL     1      -6.811  -6.611 -15.161  1.00  0.00     0.010 C 
BRANCH  20  22
HETATM   22  C3  UNL     1      -6.362  -4.259 -15.682  1.00  0.00     0.015 C 
BRANCH  22  23
HETATM   23  C4  UNL     1      -6.344  -3.746 -17.068  1.00  0.00     0.113 C 
BRANCH  23  24
HETATM   24  C5  UNL     1      -6.467  -2.290 -17.245  1.00  0.00     0.172 C 
HETATM   25  O1  UNL     1      -7.483  -1.671 -16.856  1.00  0.00    -0.648 OA
HETATM   26  O2  UNL     1      -5.469  -1.561 -17.846  1.00  0.00    -0.648 OA
ENDBRANCH  23  24
ENDBRANCH  22  23
ENDBRANCH  20  22
ENDBRANCH   1  20
BRANCH   8  27
HETATM   27  O3  UNL     1      -8.245  -2.148 -14.045  1.00  0.00    -0.395 OA
ATOM     28  H3  UNL     1      -8.617  -2.721 -14.705  1.00  0.00     0.210 HD
ENDBRANCH   8  27
BRANCH  19  29
HETATM   29  O5  UNL     1     -11.245  -3.368 -11.366  1.00  0.00    -0.395 OA
ATOM     30  H5  UNL     1     -11.222  -4.307 -11.509  1.00  0.00     0.210 HD
ENDBRANCH  19  29
BRANCH  15  31
HETATM   31  O4  UNL     1      -8.740   2.737  -9.154  1.00  0.00    -0.396 OA
ATOM     32  H4  UNL     1      -7.930   3.176  -8.925  1.00  0.00     0.210 HD
ENDBRANCH  15  31
TORSDOF 7
ENDMDL
