MODEL 14
REMARK VINA RESULT: -8.506924189      2.649      3.811
REMARK  7 active torsions:
REMARK  status: ('A' for Active; 'I' for Inactive)
REMARK    1  A    between atoms: C2_2  and  C3_3 
REMARK    2  A    between atoms: C2_2  and  C6_8 
REMARK    3  A    between atoms: C3_3  and  C4_4 
REMARK    4  A    between atoms: C4_4  and  C5_5 
REMARK    5  A    between atoms: C13_15  and  O3_16 
REMARK    6  A    between atoms: C20_24  and  O4_25 
REMARK    7  A    between atoms: C24_30  and  O5_31 
ROOT
HETATM    1  C6  UNL     1     -10.595  -1.105 -10.138  1.00  0.00     0.000 C 
HETATM    2  C7  UNL     1     -10.504  -2.187  -9.135  1.00  0.00     0.006 C 
HETATM    3  C8  UNL     1      -9.832  -3.366  -9.873  1.00  0.00     0.006 C 
HETATM    4  C9  UNL     1      -9.393  -2.745 -11.160  1.00  0.00     0.003 C 
HETATM    5  C10 UNL     1      -9.045  -3.654 -12.266  1.00  0.00     0.024 C 
HETATM    6  C11 UNL     1      -8.877  -2.836 -13.527  1.00  0.00     0.003 C 
HETATM    7  C12 UNL     1     -10.054  -1.940 -13.802  1.00  0.00     0.038 C 
HETATM    8  C13 UNL     1     -10.253  -0.996 -12.627  1.00  0.00     0.127 C 
HETATM    9  C14 UNL     1     -10.611  -1.845 -11.443  1.00  0.00    -0.010 C 
HETATM   10  C15 UNL     1     -11.795  -2.705 -11.689  1.00  0.00     0.018 C 
HETATM   11  C16 UNL     1      -8.628  -3.779 -14.661  1.00  0.00    -0.036 C 
HETATM   12  C17 UNL     1      -9.724  -4.833 -14.773  1.00  0.00     0.016 C 
HETATM   13  C18 UNL     1      -8.630  -2.996 -15.942  1.00  0.00     0.012 C 
HETATM   14  C19 UNL     1      -8.147  -3.798 -17.130  1.00  0.00     0.032 C 
HETATM   15  C20 UNL     1      -6.701  -4.158 -16.877  1.00  0.00     0.118 C 
HETATM   16  C21 UNL     1      -6.271  -3.924 -15.471  1.00  0.00     0.037 C 
HETATM   17  C22 UNL     1      -7.268  -4.411 -14.439  1.00  0.00    -0.001 C 
HETATM   18  C23 UNL     1      -6.697  -4.055 -13.085  1.00  0.00     0.037 C 
HETATM   19  C24 UNL     1      -7.651  -4.220 -11.955  1.00  0.00     0.123 C 
ENDROOT
BRANCH   1  20
HETATM   20  C2  UNL     1     -11.523   0.004  -9.958  1.00  0.00    -0.013 C 
HETATM   21  C1  UNL     1     -12.955  -0.493  -9.955  1.00  0.00     0.010 C 
BRANCH  20  22
HETATM   22  C3  UNL     1     -11.409   1.248 -10.721  1.00  0.00     0.015 C 
BRANCH  22  23
HETATM   23  C4  UNL     1     -10.683   2.415 -10.178  1.00  0.00     0.113 C 
BRANCH  23  24
HETATM   24  C5  UNL     1      -9.372   2.161  -9.558  1.00  0.00     0.172 C 
HETATM   25  O1  UNL     1      -9.191   2.325  -8.331  1.00  0.00    -0.648 OA
HETATM   26  O2  UNL     1      -8.303   1.735 -10.308  1.00  0.00    -0.648 OA
ENDBRANCH  23  24
ENDBRANCH  22  23
ENDBRANCH  20  22
ENDBRANCH   1  20
BRANCH   8  27
HETATM   27  O3  UNL     1      -9.132  -0.244 -12.360  1.00  0.00    -0.395 OA
ATOM     28  H3  UNL     1      -9.095   0.551 -12.878  1.00  0.00     0.210 HD
ENDBRANCH   8  27
BRANCH  19  29
HETATM   29  O5  UNL     1      -7.091  -3.587 -10.837  1.00  0.00    -0.395 OA
ATOM     30  H5  UNL     1      -6.501  -2.891 -11.101  1.00  0.00     0.210 HD
ENDBRANCH  19  29
BRANCH  15  31
HETATM   31  O4  UNL     1      -5.930  -3.298 -17.693  1.00  0.00    -0.396 OA
ATOM     32  H4  UNL     1      -5.079  -3.230 -17.278  1.00  0.00     0.210 HD
ENDBRANCH  15  31
TORSDOF 7
ENDMDL
