MODEL 6
REMARK VINA RESULT: -8.753906944      2.538      6.413
REMARK  7 active torsions:
REMARK  status: ('A' for Active; 'I' for Inactive)
REMARK    1  A    between atoms: C2_2  and  C3_3 
REMARK    2  A    between atoms: C2_2  and  C6_8 
REMARK    3  A    between atoms: C3_3  and  C4_4 
REMARK    4  A    between atoms: C4_4  and  C5_5 
REMARK    5  A    between atoms: C13_15  and  O3_16 
REMARK    6  A    between atoms: C20_24  and  O4_25 
REMARK    7  A    between atoms: C24_30  and  O5_31 
ROOT
HETATM    1  C6  UNL     1      -9.881  -4.255 -13.103  1.00  0.00     0.000 C 
HETATM    2  C7  UNL     1      -9.027  -5.024 -12.173  1.00  0.00     0.006 C 
HETATM    3  C8  UNL     1      -8.781  -4.079 -10.976  1.00  0.00     0.006 C 
HETATM    4  C9  UNL     1      -9.722  -2.949 -11.246  1.00  0.00     0.003 C 
HETATM    5  C10 UNL     1      -9.498  -1.691 -10.514  1.00  0.00     0.024 C 
HETATM    6  C11 UNL     1     -10.386  -0.622 -11.109  1.00  0.00     0.003 C 
HETATM    7  C12 UNL     1     -10.242  -0.509 -12.603  1.00  0.00     0.038 C 
HETATM    8  C13 UNL     1     -10.584  -1.845 -13.243  1.00  0.00     0.127 C 
HETATM    9  C14 UNL     1      -9.554  -2.829 -12.773  1.00  0.00    -0.010 C 
HETATM   10  C15 UNL     1      -8.166  -2.394 -13.068  1.00  0.00     0.018 C 
HETATM   11  C16 UNL     1     -10.074   0.673 -10.429  1.00  0.00    -0.036 C 
HETATM   12  C17 UNL     1      -8.589   1.013 -10.512  1.00  0.00     0.016 C 
HETATM   13  C18 UNL     1     -10.823   1.771 -11.126  1.00  0.00     0.012 C 
HETATM   14  C19 UNL     1     -10.780   3.087 -10.379  1.00  0.00     0.032 C 
HETATM   15  C20 UNL     1     -11.491   2.884  -9.061  1.00  0.00     0.118 C 
HETATM   16  C21 UNL     1     -11.734   1.452  -8.735  1.00  0.00     0.037 C 
HETATM   17  C22 UNL     1     -10.539   0.556  -8.991  1.00  0.00    -0.001 C 
HETATM   18  C23 UNL     1     -10.974  -0.852  -8.653  1.00  0.00     0.037 C 
HETATM   19  C24 UNL     1     -10.019  -1.908  -9.085  1.00  0.00     0.123 C 
ENDROOT
BRANCH   1  20
HETATM   20  C2  UNL     1      -9.988  -4.635 -14.506  1.00  0.00    -0.013 C 
HETATM   21  C1  UNL     1      -9.208  -5.906 -14.776  1.00  0.00     0.010 C 
BRANCH  20  22
HETATM   22  C3  UNL     1      -9.800  -3.672 -15.591  1.00  0.00     0.015 C 
BRANCH  22  23
HETATM   23  C4  UNL     1     -10.543  -3.794 -16.862  1.00  0.00     0.113 C 
BRANCH  23  24
HETATM   24  C5  UNL     1     -11.567  -2.774 -17.141  1.00  0.00     0.172 C 
HETATM   25  O1  UNL     1     -11.653  -2.228 -18.263  1.00  0.00    -0.648 OA
HETATM   26  O2  UNL     1     -12.465  -2.387 -16.175  1.00  0.00    -0.648 OA
ENDBRANCH  23  24
ENDBRANCH  22  23
ENDBRANCH  20  22
ENDBRANCH   1  20
BRANCH   8  27
HETATM   27  O3  UNL     1     -11.848  -2.277 -12.917  1.00  0.00    -0.395 OA
ATOM     28  H3  UNL     1     -11.878  -3.209 -12.733  1.00  0.00     0.210 HD
ENDBRANCH   8  27
BRANCH  19  29
HETATM   29  O5  UNL     1     -10.678  -3.140  -8.974  1.00  0.00    -0.395 OA
ATOM     30  H5  UNL     1     -10.100  -3.803  -8.614  1.00  0.00     0.210 HD
ENDBRANCH  19  29
BRANCH  15  31
HETATM   31  O4  UNL     1     -12.757   3.498  -9.196  1.00  0.00    -0.396 OA
ATOM     32  H4  UNL     1     -13.246   3.273  -8.414  1.00  0.00     0.210 HD
ENDBRANCH  15  31
TORSDOF 7
ENDMDL
