MODEL 3
REMARK VINA RESULT: -9.795492127      1.176      1.664
REMARK  10 active torsions:
REMARK  status: ('A' for Active; 'I' for Inactive)
REMARK    1  A    between atoms: C2_2  and  C3_3 
REMARK    2  A    between atoms: C2_2  and  C8_15 
REMARK    3  A    between atoms: C3_3  and  C4_4 
REMARK    4  A    between atoms: C4_4  and  C5_5 
REMARK       I    between atoms: C5_5  and  N1_7 
REMARK    5  A    between atoms: N1_7  and  C6_9 
REMARK    6  A    between atoms: C6_9  and  C7_10 
REMARK    7  A    between atoms: C7_10  and  S1_11 
REMARK    8  A    between atoms: C15_22  and  O5_23 
REMARK    9  A    between atoms: C22_31  and  O6_32 
REMARK   10  A    between atoms: C26_37  and  O7_38 
ROOT
HETATM    1  C8  UNL     1      -9.909 -18.898 -10.023  1.00  0.00     0.000 C 
HETATM    2  C9  UNL     1      -8.697 -18.862  -9.192  1.00  0.00     0.006 C 
HETATM    3  C10 UNL     1      -7.835 -20.085  -9.582  1.00  0.00     0.006 C 
HETATM    4  C11 UNL     1      -8.424 -20.409 -10.931  1.00  0.00     0.003 C 
HETATM    5  C12 UNL     1      -8.022 -21.698 -11.522  1.00  0.00     0.024 C 
HETATM    6  C13 UNL     1      -8.940 -22.005 -12.686  1.00  0.00     0.003 C 
HETATM    7  C14 UNL     1     -10.386 -21.866 -12.373  1.00  0.00     0.038 C 
HETATM    8  C15 UNL     1     -10.670 -20.449 -11.855  1.00  0.00     0.127 C 
HETATM    9  C16 UNL     1      -9.907 -20.314 -10.576  1.00  0.00    -0.010 C 
HETATM   10  C17 UNL     1     -10.322 -21.343  -9.587  1.00  0.00     0.018 C 
HETATM   11  C18 UNL     1      -8.593 -23.391 -13.114  1.00  0.00    -0.036 C 
HETATM   12  C19 UNL     1      -8.584 -24.371 -11.967  1.00  0.00     0.016 C 
HETATM   13  C20 UNL     1      -9.574 -23.895 -14.151  1.00  0.00     0.012 C 
HETATM   14  C21 UNL     1      -9.232 -25.245 -14.667  1.00  0.00     0.032 C 
HETATM   15  C22 UNL     1      -7.780 -25.439 -14.995  1.00  0.00     0.118 C 
HETATM   16  C23 UNL     1      -6.847 -24.794 -14.008  1.00  0.00     0.037 C 
HETATM   17  C24 UNL     1      -7.244 -23.339 -13.766  1.00  0.00    -0.001 C 
HETATM   18  C25 UNL     1      -6.207 -22.591 -13.033  1.00  0.00     0.037 C 
HETATM   19  C26 UNL     1      -6.612 -21.609 -12.027  1.00  0.00     0.123 C 
ENDROOT
BRANCH   1  20
HETATM   20  C2  UNL     1     -11.190 -18.425  -9.524  1.00  0.00    -0.013 C 
HETATM   21  C1  UNL     1     -11.303 -17.805  -8.188  1.00  0.00     0.010 C 
BRANCH  20  22
HETATM   22  C3  UNL     1     -11.929 -17.595 -10.546  1.00  0.00     0.014 C 
BRANCH  22  23
HETATM   23  C4  UNL     1     -13.376 -17.924 -10.631  1.00  0.00     0.103 C 
BRANCH  23  24
HETATM   24  C5  UNL     1     -13.864 -17.916 -12.045  1.00  0.00     0.217 C 
HETATM   25  O1  UNL     1     -15.049 -18.117 -12.363  1.00  0.00    -0.274 OA
HETATM   26  N1  UNL     1     -12.908 -17.664 -13.060  1.00  0.00    -0.360 N 
ATOM     27  H1  UNL     1     -11.933 -17.497 -12.811  1.00  0.00     0.162 HD
BRANCH  26  28
HETATM   28  C6  UNL     1     -13.311 -17.641 -14.449  1.00  0.00     0.140 C 
BRANCH  28  29
HETATM   29  C7  UNL     1     -12.616 -18.740 -15.195  1.00  0.00     0.184 C 
BRANCH  29  30
HETATM   30  S1  UNL     1     -13.369 -20.241 -15.090  1.00  0.00     0.103 S 
HETATM   31  O2  UNL     1     -12.591 -21.256 -16.238  1.00  0.00    -0.595 OA
HETATM   32  O3  UNL     1     -13.499 -20.825 -13.740  1.00  0.00    -0.595 OA
HETATM   33  O4  UNL     1     -14.913 -19.980 -15.824  1.00  0.00    -0.595 OA
ENDBRANCH  29  30
ENDBRANCH  28  29
ENDBRANCH  26  28
ENDBRANCH  23  24
ENDBRANCH  22  23
ENDBRANCH  20  22
ENDBRANCH   1  20
BRANCH   8  34
HETATM   34  O5  UNL     1     -10.221 -19.536 -12.798  1.00  0.00    -0.395 OA
ATOM     35  H5  UNL     1     -10.584 -18.683 -12.590  1.00  0.00     0.210 HD
ENDBRANCH   8  34
BRANCH  19  36
HETATM   36  O7  UNL     1      -6.422 -20.279 -12.470  1.00  0.00    -0.395 OA
ATOM     37  H7  UNL     1      -5.798 -20.317 -13.185  1.00  0.00     0.210 HD
ENDBRANCH  19  36
BRANCH  15  38
HETATM   38  O6  UNL     1      -7.522 -26.810 -14.992  1.00  0.00    -0.396 OA
ATOM     39  H6  UNL     1      -6.588 -26.929 -15.113  1.00  0.00     0.210 HD
ENDBRANCH  15  38
TORSDOF 10
ENDMDL
