MODEL 1
REMARK VINA RESULT: -9.934957782      0.000      0.000
REMARK  10 active torsions:
REMARK  status: ('A' for Active; 'I' for Inactive)
REMARK    1  A    between atoms: C2_2  and  C3_3 
REMARK    2  A    between atoms: C2_2  and  C8_15 
REMARK    3  A    between atoms: C3_3  and  C4_4 
REMARK    4  A    between atoms: C4_4  and  C5_5 
REMARK       I    between atoms: C5_5  and  N1_7 
REMARK    5  A    between atoms: N1_7  and  C6_9 
REMARK    6  A    between atoms: C6_9  and  C7_10 
REMARK    7  A    between atoms: C7_10  and  S1_11 
REMARK    8  A    between atoms: C15_22  and  O5_23 
REMARK    9  A    between atoms: C22_31  and  O6_32 
REMARK   10  A    between atoms: C26_37  and  O7_38 
ROOT
HETATM    1  C8  UNL     1      -9.577 -20.536 -10.985  1.00  0.00     0.000 C 
HETATM    2  C9  UNL     1      -8.333 -20.465 -10.204  1.00  0.00     0.006 C 
HETATM    3  C10 UNL     1      -7.412 -21.604 -10.701  1.00  0.00     0.006 C 
HETATM    4  C11 UNL     1      -8.041 -21.892 -12.041  1.00  0.00     0.003 C 
HETATM    5  C12 UNL     1      -7.584 -23.116 -12.722  1.00  0.00     0.024 C 
HETATM    6  C13 UNL     1      -8.534 -23.420 -13.862  1.00  0.00     0.003 C 
HETATM    7  C14 UNL     1      -9.970 -23.395 -13.481  1.00  0.00     0.038 C 
HETATM    8  C15 UNL     1     -10.320 -22.031 -12.870  1.00  0.00     0.127 C 
HETATM    9  C16 UNL     1      -9.509 -21.916 -11.618  1.00  0.00    -0.010 C 
HETATM   10  C17 UNL     1      -9.811 -23.023 -10.674  1.00  0.00     0.018 C 
HETATM   11  C18 UNL     1      -8.119 -24.754 -14.385  1.00  0.00    -0.036 C 
HETATM   12  C19 UNL     1      -7.994 -25.793 -13.298  1.00  0.00     0.016 C 
HETATM   13  C20 UNL     1      -9.112 -25.264 -15.406  1.00  0.00     0.012 C 
HETATM   14  C21 UNL     1      -8.708 -26.558 -16.014  1.00  0.00     0.032 C 
HETATM   15  C22 UNL     1      -7.263 -26.636 -16.413  1.00  0.00     0.118 C 
HETATM   16  C23 UNL     1      -6.329 -25.985 -15.431  1.00  0.00     0.037 C 
HETATM   17  C24 UNL     1      -6.807 -24.576 -15.089  1.00  0.00    -0.001 C 
HETATM   18  C25 UNL     1      -5.788 -23.802 -14.358  1.00  0.00     0.037 C 
HETATM   19  C26 UNL     1      -6.209 -22.907 -13.281  1.00  0.00     0.123 C 
ENDROOT
BRANCH   1  20
HETATM   20  C2  UNL     1     -10.861 -20.177 -10.405  1.00  0.00    -0.013 C 
HETATM   21  C1  UNL     1     -11.137 -20.402  -8.972  1.00  0.00     0.010 C 
BRANCH  20  22
HETATM   22  C3  UNL     1     -11.301 -18.791 -10.808  1.00  0.00     0.014 C 
BRANCH  22  23
HETATM   23  C4  UNL     1     -12.724 -18.511 -10.482  1.00  0.00     0.103 C 
BRANCH  23  24
HETATM   24  C5  UNL     1     -13.504 -18.119 -11.697  1.00  0.00     0.217 C 
HETATM   25  O1  UNL     1     -14.709 -17.813 -11.669  1.00  0.00    -0.274 OA
HETATM   26  N1  UNL     1     -12.813 -18.101 -12.934  1.00  0.00    -0.360 N 
ATOM     27  H1  UNL     1     -11.824 -18.350 -12.968  1.00  0.00     0.162 HD
BRANCH  26  28
HETATM   28  C6  UNL     1     -13.506 -17.731 -14.148  1.00  0.00     0.140 C 
BRANCH  28  29
HETATM   29  C7  UNL     1     -13.064 -18.618 -15.273  1.00  0.00     0.184 C 
BRANCH  29  30
HETATM   30  S1  UNL     1     -13.382 -20.253 -15.039  1.00  0.00     0.103 S 
HETATM   31  O2  UNL     1     -12.581 -21.090 -16.309  1.00  0.00    -0.595 OA
HETATM   32  O3  UNL     1     -13.126 -20.793 -13.689  1.00  0.00    -0.595 OA
HETATM   33  O4  UNL     1     -15.043 -20.419 -15.489  1.00  0.00    -0.595 OA
ENDBRANCH  29  30
ENDBRANCH  28  29
ENDBRANCH  26  28
ENDBRANCH  23  24
ENDBRANCH  22  23
ENDBRANCH  20  22
ENDBRANCH   1  20
BRANCH   8  34
HETATM   34  O5  UNL     1      -9.975 -21.039 -13.776  1.00  0.00    -0.395 OA
ATOM     35  H5  UNL     1     -10.183 -20.194 -13.395  1.00  0.00     0.210 HD
ENDBRANCH   8  34
BRANCH  19  36
HETATM   36  O7  UNL     1      -6.124 -21.545 -13.653  1.00  0.00    -0.395 OA
ATOM     37  H7  UNL     1      -5.372 -21.465 -14.227  1.00  0.00     0.210 HD
ENDBRANCH  19  36
BRANCH  15  38
HETATM   38  O6  UNL     1      -6.918 -27.984 -16.501  1.00  0.00    -0.396 OA
ATOM     39  H6  UNL     1      -6.076 -28.097 -16.077  1.00  0.00     0.210 HD
ENDBRANCH  15  38
TORSDOF 10
ENDMDL
