MODEL 2
REMARK VINA RESULT: -9.799227959      1.832      2.688
REMARK  10 active torsions:
REMARK  status: ('A' for Active; 'I' for Inactive)
REMARK    1  A    between atoms: C2_2  and  C3_3 
REMARK    2  A    between atoms: C2_2  and  C8_15 
REMARK    3  A    between atoms: C3_3  and  C4_4 
REMARK    4  A    between atoms: C4_4  and  C5_5 
REMARK       I    between atoms: C5_5  and  N1_7 
REMARK    5  A    between atoms: N1_7  and  C6_9 
REMARK    6  A    between atoms: C6_9  and  C7_10 
REMARK    7  A    between atoms: C7_10  and  S1_11 
REMARK    8  A    between atoms: C15_22  and  O5_23 
REMARK    9  A    between atoms: C22_31  and  O6_32 
REMARK   10  A    between atoms: C26_37  and  O7_38 
ROOT
HETATM    1  C8  UNL     1      -7.964 -21.993 -11.014  1.00  0.00     0.000 C 
HETATM    2  C9  UNL     1      -6.891 -21.131 -11.532  1.00  0.00     0.006 C 
HETATM    3  C10 UNL     1      -6.366 -21.781 -12.833  1.00  0.00     0.006 C 
HETATM    4  C11 UNL     1      -7.526 -22.683 -13.169  1.00  0.00     0.003 C 
HETATM    5  C12 UNL     1      -7.290 -23.674 -14.234  1.00  0.00     0.024 C 
HETATM    6  C13 UNL     1      -8.416 -24.687 -14.211  1.00  0.00     0.003 C 
HETATM    7  C14 UNL     1      -8.703 -25.247 -12.865  1.00  0.00     0.038 C 
HETATM    8  C15 UNL     1      -9.019 -24.106 -11.887  1.00  0.00     0.127 C 
HETATM    9  C16 UNL     1      -7.771 -23.287 -11.788  1.00  0.00    -0.010 C 
HETATM   10  C17 UNL     1      -6.624 -24.103 -11.313  1.00  0.00     0.018 C 
HETATM   11  C18 UNL     1      -8.019 -25.748 -15.183  1.00  0.00    -0.036 C 
HETATM   12  C19 UNL     1      -6.622 -26.266 -14.943  1.00  0.00     0.016 C 
HETATM   13  C20 UNL     1      -8.971 -26.923 -15.113  1.00  0.00     0.012 C 
HETATM   14  C21 UNL     1      -8.665 -27.978 -16.113  1.00  0.00     0.032 C 
HETATM   15  C22 UNL     1      -8.362 -27.464 -17.491  1.00  0.00     0.118 C 
HETATM   16  C23 UNL     1      -7.533 -26.210 -17.498  1.00  0.00     0.037 C 
HETATM   17  C24 UNL     1      -8.131 -25.165 -16.559  1.00  0.00    -0.001 C 
HETATM   18  C25 UNL     1      -7.523 -23.835 -16.743  1.00  0.00     0.037 C 
HETATM   19  C26 UNL     1      -7.278 -22.995 -15.571  1.00  0.00     0.123 C 
ENDROOT
BRANCH   1  20
HETATM   20  C2  UNL     1      -8.195 -22.147  -9.588  1.00  0.00    -0.013 C 
HETATM   21  C1  UNL     1      -7.204 -21.674  -8.601  1.00  0.00     0.010 C 
BRANCH  20  22
HETATM   22  C3  UNL     1      -9.582 -21.706  -9.184  1.00  0.00     0.014 C 
BRANCH  22  23
HETATM   23  C4  UNL     1      -9.900 -20.317  -9.607  1.00  0.00     0.103 C 
BRANCH  23  24
HETATM   24  C5  UNL     1     -11.168 -20.256 -10.399  1.00  0.00     0.217 C 
HETATM   25  O1  UNL     1     -12.262 -19.915  -9.917  1.00  0.00    -0.274 OA
HETATM   26  N1  UNL     1     -11.094 -20.609 -11.770  1.00  0.00    -0.360 N 
ATOM     27  H1  UNL     1     -10.202 -20.890 -12.176  1.00  0.00     0.162 HD
BRANCH  26  28
HETATM   28  C6  UNL     1     -12.282 -20.572 -12.595  1.00  0.00     0.140 C 
BRANCH  28  29
HETATM   29  C7  UNL     1     -12.010 -19.778 -13.837  1.00  0.00     0.184 C 
BRANCH  29  30
HETATM   30  S1  UNL     1     -11.706 -20.706 -15.206  1.00  0.00     0.103 S 
HETATM   31  O2  UNL     1     -10.867 -22.106 -14.667  1.00  0.00    -0.595 OA
HETATM   32  O3  UNL     1     -12.856 -20.981 -16.091  1.00  0.00    -0.595 OA
HETATM   33  O4  UNL     1     -10.461 -19.833 -16.029  1.00  0.00    -0.595 OA
ENDBRANCH  29  30
ENDBRANCH  28  29
ENDBRANCH  26  28
ENDBRANCH  23  24
ENDBRANCH  22  23
ENDBRANCH  20  22
ENDBRANCH   1  20
BRANCH   8  34
HETATM   34  O5  UNL     1     -10.064 -23.356 -12.405  1.00  0.00    -0.395 OA
ATOM     35  H5  UNL     1     -10.581 -23.017 -11.683  1.00  0.00     0.210 HD
ENDBRANCH   8  34
BRANCH  19  36
HETATM   36  O7  UNL     1      -8.187 -21.915 -15.487  1.00  0.00    -0.395 OA
ATOM     37  H7  UNL     1      -9.041 -22.259 -15.719  1.00  0.00     0.210 HD
ENDBRANCH  19  36
BRANCH  15  38
HETATM   38  O6  UNL     1      -7.648 -28.452 -18.167  1.00  0.00    -0.396 OA
ATOM     39  H6  UNL     1      -7.498 -28.147 -19.053  1.00  0.00     0.210 HD
ENDBRANCH  15  38
TORSDOF 10
ENDMDL
