MODEL 4
REMARK VINA RESULT: -8.239764487      2.912      4.651
REMARK  4 active torsions:
REMARK  status: ('A' for Active; 'I' for Inactive)
REMARK    1  A    between atoms: C1_2  and  C2_4 
REMARK    2  A    between atoms: C7_9  and  N1_10 
REMARK    3  A    between atoms: N1_10  and  C8_12 
REMARK    4  A    between atoms: C13_17  and  C14_18 
ROOT
HETATM    1  N1  UNL     1      27.436  -6.005  31.290  1.00  0.00    -0.354 N 
ATOM      2  H1  UNL     1      26.735  -6.739  31.397  1.00  0.00     0.166 HD
ENDROOT
BRANCH   1   3
HETATM    3  C7  UNL     1      26.957  -4.673  31.226  1.00  0.00     0.049 A 
HETATM    4  C2  UNL     1      25.810  -4.348  30.542  1.00  0.00     0.067 A 
HETATM    5  C3  UNL     1      25.436  -3.002  30.407  1.00  0.00     0.021 A 
HETATM    6  C4  UNL     1      26.230  -2.032  30.966  1.00  0.00     0.001 A 
HETATM    7  C5  UNL     1      27.369  -2.384  31.645  1.00  0.00     0.002 A 
HETATM    8  C6  UNL     1      27.774  -3.692  31.801  1.00  0.00     0.030 A 
BRANCH   4   9
HETATM    9  C1  UNL     1      24.879  -5.296  29.955  1.00  0.00     0.211 C 
HETATM   10  O1  UNL     1      24.949  -6.539  30.205  1.00  0.00    -0.644 OA
HETATM   11  O2  UNL     1      23.888  -4.893  29.104  1.00  0.00    -0.644 OA
ENDBRANCH   4   9
ENDBRANCH   1   3
BRANCH   1  12
HETATM   12  C8  UNL     1      28.782  -6.421  31.220  1.00  0.00     0.049 A 
HETATM   13  C9  UNL     1      29.489  -6.761  32.384  1.00  0.00     0.030 A 
HETATM   14  C10 UNL     1      30.772  -7.262  32.367  1.00  0.00     0.002 A 
HETATM   15  C11 UNL     1      31.385  -7.437  31.150  1.00  0.00     0.001 A 
HETATM   16  C12 UNL     1      30.729  -7.119  29.999  1.00  0.00     0.021 A 
HETATM   17  C13 UNL     1      29.419  -6.606  30.020  1.00  0.00     0.067 A 
BRANCH  17  18
HETATM   18  C14 UNL     1      28.812  -6.255  28.752  1.00  0.00     0.211 C 
HETATM   19  O3  UNL     1      29.177  -5.372  27.990  1.00  0.00    -0.644 OA
HETATM   20  O4  UNL     1      27.681  -6.991  28.333  1.00  0.00    -0.644 OA
ENDBRANCH  17  18
ENDBRANCH   1  12
TORSDOF 4
ENDMDL
