MODEL 2
REMARK VINA RESULT: -8.472325016      0.086      4.949
REMARK  4 active torsions:
REMARK  status: ('A' for Active; 'I' for Inactive)
REMARK    1  A    between atoms: C1_2  and  C2_4 
REMARK    2  A    between atoms: C7_9  and  N1_10 
REMARK    3  A    between atoms: N1_10  and  C8_12 
REMARK    4  A    between atoms: C13_17  and  C14_18 
ROOT
HETATM    1  N1  UNL     1      31.122  -5.906  29.315  1.00  0.00    -0.354 N 
ATOM      2  H1  UNL     1      30.936  -4.906  29.246  1.00  0.00     0.166 HD
ENDROOT
BRANCH   1   3
HETATM    3  C7  UNL     1      32.027  -6.452  28.370  1.00  0.00     0.049 A 
HETATM    4  C2  UNL     1      32.004  -6.080  27.047  1.00  0.00     0.067 A 
HETATM    5  C3  UNL     1      32.839  -6.731  26.126  1.00  0.00     0.021 A 
HETATM    6  C4  UNL     1      33.667  -7.731  26.570  1.00  0.00     0.001 A 
HETATM    7  C5  UNL     1      33.671  -8.082  27.896  1.00  0.00     0.002 A 
HETATM    8  C6  UNL     1      32.868  -7.471  28.834  1.00  0.00     0.030 A 
BRANCH   4   9
HETATM    9  C1  UNL     1      31.203  -5.007  26.486  1.00  0.00     0.211 C 
HETATM   10  O1  UNL     1      31.733  -3.939  26.049  1.00  0.00    -0.644 OA
HETATM   11  O2  UNL     1      29.841  -5.097  26.406  1.00  0.00    -0.644 OA
ENDBRANCH   4   9
ENDBRANCH   1   3
BRANCH   1  12
HETATM   12  C8  UNL     1      30.452  -6.605  30.341  1.00  0.00     0.049 A 
HETATM   13  C9  UNL     1      31.164  -7.154  31.419  1.00  0.00     0.030 A 
HETATM   14  C10 UNL     1      30.553  -7.763  32.493  1.00  0.00     0.002 A 
HETATM   15  C11 UNL     1      29.181  -7.832  32.507  1.00  0.00     0.001 A 
HETATM   16  C12 UNL     1      28.457  -7.309  31.479  1.00  0.00     0.021 A 
HETATM   17  C13 UNL     1      29.084  -6.689  30.382  1.00  0.00     0.067 A 
BRANCH  17  18
HETATM   18  C14 UNL     1      28.239  -6.198  29.312  1.00  0.00     0.211 C 
HETATM   19  O3  UNL     1      28.048  -5.028  29.015  1.00  0.00    -0.644 OA
HETATM   20  O4  UNL     1      27.556  -7.147  28.518  1.00  0.00    -0.644 OA
ENDBRANCH  17  18
ENDBRANCH   1  12
TORSDOF 4
ENDMDL
