MODEL 7
REMARK VINA RESULT: -8.188546805      3.193      4.814
REMARK  4 active torsions:
REMARK  status: ('A' for Active; 'I' for Inactive)
REMARK    1  A    between atoms: C1_2  and  C2_4 
REMARK    2  A    between atoms: C7_9  and  N1_10 
REMARK    3  A    between atoms: N1_10  and  C8_12 
REMARK    4  A    between atoms: C13_17  and  C14_18 
ROOT
HETATM    1  N1  UNL     1      28.054  -6.186  30.161  1.00  0.00    -0.354 N 
ATOM      2  H1  UNL     1      27.418  -6.803  29.657  1.00  0.00     0.166 HD
ENDROOT
BRANCH   1   3
HETATM    3  C7  UNL     1      27.485  -5.031  30.753  1.00  0.00     0.049 A 
HETATM    4  C2  UNL     1      26.141  -4.757  30.659  1.00  0.00     0.067 A 
HETATM    5  C3  UNL     1      25.640  -3.545  31.159  1.00  0.00     0.021 A 
HETATM    6  C4  UNL     1      26.509  -2.654  31.736  1.00  0.00     0.001 A 
HETATM    7  C5  UNL     1      27.846  -2.953  31.819  1.00  0.00     0.002 A 
HETATM    8  C6  UNL     1      28.381  -4.130  31.340  1.00  0.00     0.030 A 
BRANCH   4   9
HETATM    9  C1  UNL     1      25.134  -5.648  30.112  1.00  0.00     0.211 C 
HETATM   10  O1  UNL     1      25.269  -6.911  30.151  1.00  0.00    -0.644 OA
HETATM   11  O2  UNL     1      23.996  -5.169  29.524  1.00  0.00    -0.644 OA
ENDBRANCH   4   9
ENDBRANCH   1   3
BRANCH   1  12
HETATM   12  C8  UNL     1      29.412  -6.569  30.198  1.00  0.00     0.049 A 
HETATM   13  C9  UNL     1      30.273  -6.265  29.132  1.00  0.00     0.030 A 
HETATM   14  C10 UNL     1      31.624  -6.531  29.156  1.00  0.00     0.002 A 
HETATM   15  C11 UNL     1      32.150  -7.120  30.279  1.00  0.00     0.001 A 
HETATM   16  C12 UNL     1      31.346  -7.429  31.334  1.00  0.00     0.021 A 
HETATM   17  C13 UNL     1      29.966  -7.158  31.307  1.00  0.00     0.067 A 
BRANCH  17  18
HETATM   18  C14 UNL     1      29.177  -7.557  32.454  1.00  0.00     0.211 C 
HETATM   19  O3  UNL     1      28.047  -8.023  32.434  1.00  0.00    -0.644 OA
HETATM   20  O4  UNL     1      29.748  -7.400  33.738  1.00  0.00    -0.644 OA
ENDBRANCH  17  18
ENDBRANCH   1  12
TORSDOF 4
ENDMDL
