MODEL 3
REMARK VINA RESULT: -8.304306171      3.149      5.879
REMARK  4 active torsions:
REMARK  status: ('A' for Active; 'I' for Inactive)
REMARK    1  A    between atoms: C1_2  and  C2_4 
REMARK    2  A    between atoms: C7_9  and  N1_10 
REMARK    3  A    between atoms: N1_10  and  C8_12 
REMARK    4  A    between atoms: C13_17  and  C14_18 
ROOT
HETATM    1  N1  UNL     1      28.205  -6.133  30.180  1.00  0.00    -0.354 N 
ATOM      2  H1  UNL     1      27.561  -6.683  29.611  1.00  0.00     0.166 HD
ENDROOT
BRANCH   1   3
HETATM    3  C7  UNL     1      29.549  -6.580  30.231  1.00  0.00     0.049 A 
HETATM    4  C2  UNL     1      30.075  -7.164  31.359  1.00  0.00     0.067 A 
HETATM    5  C3  UNL     1      31.441  -7.485  31.406  1.00  0.00     0.021 A 
HETATM    6  C4  UNL     1      32.226  -7.208  30.315  1.00  0.00     0.001 A 
HETATM    7  C5  UNL     1      31.676  -6.625  29.201  1.00  0.00     0.002 A 
HETATM    8  C6  UNL     1      30.341  -6.293  29.113  1.00  0.00     0.030 A 
BRANCH   4   9
HETATM    9  C1  UNL     1      29.324  -7.540  32.543  1.00  0.00     0.211 C 
HETATM   10  O1  UNL     1      29.815  -7.424  33.709  1.00  0.00    -0.644 OA
HETATM   11  O2  UNL     1      28.055  -8.042  32.457  1.00  0.00    -0.644 OA
ENDBRANCH   4   9
ENDBRANCH   1   3
BRANCH   1  12
HETATM   12  C8  UNL     1      27.666  -5.006  30.835  1.00  0.00     0.049 A 
HETATM   13  C9  UNL     1      28.503  -4.092  31.495  1.00  0.00     0.030 A 
HETATM   14  C10 UNL     1      28.042  -2.928  32.069  1.00  0.00     0.002 A 
HETATM   15  C11 UNL     1      26.699  -2.651  31.988  1.00  0.00     0.001 A 
HETATM   16  C12 UNL     1      25.857  -3.514  31.354  1.00  0.00     0.021 A 
HETATM   17  C13 UNL     1      26.330  -4.703  30.770  1.00  0.00     0.067 A 
BRANCH  17  18
HETATM   18  C14 UNL     1      25.360  -5.585  30.153  1.00  0.00     0.211 C 
HETATM   19  O3  UNL     1      25.376  -6.806  30.163  1.00  0.00    -0.644 OA
HETATM   20  O4  UNL     1      24.276  -4.996  29.461  1.00  0.00    -0.644 OA
ENDBRANCH  17  18
ENDBRANCH   1  12
TORSDOF 4
ENDMDL
