MODEL 1
REMARK VINA RESULT: -8.507235605      0.000      0.000
REMARK  4 active torsions:
REMARK  status: ('A' for Active; 'I' for Inactive)
REMARK    1  A    between atoms: C1_2  and  C2_4 
REMARK    2  A    between atoms: C7_9  and  N1_10 
REMARK    3  A    between atoms: N1_10  and  C8_12 
REMARK    4  A    between atoms: C13_17  and  C14_18 
ROOT
HETATM    1  N1  UNL     1      31.155  -5.912  29.298  1.00  0.00    -0.354 N 
ATOM      2  H1  UNL     1      30.985  -4.908  29.241  1.00  0.00     0.166 HD
ENDROOT
BRANCH   1   3
HETATM    3  C7  UNL     1      30.471  -6.617  30.321  1.00  0.00     0.049 A 
HETATM    4  C2  UNL     1      29.100  -6.711  30.343  1.00  0.00     0.067 A 
HETATM    5  C3  UNL     1      28.460  -7.317  31.435  1.00  0.00     0.021 A 
HETATM    6  C4  UNL     1      29.224  -7.808  32.464  1.00  0.00     0.001 A 
HETATM    7  C5  UNL     1      30.592  -7.702  32.416  1.00  0.00     0.002 A 
HETATM    8  C6  UNL     1      31.260  -7.114  31.364  1.00  0.00     0.030 A 
BRANCH   4   9
HETATM    9  C1  UNL     1      28.206  -6.268  29.287  1.00  0.00     0.211 C 
HETATM   10  O1  UNL     1      27.555  -7.094  28.575  1.00  0.00    -0.644 OA
HETATM   11  O2  UNL     1      28.028  -4.941  29.009  1.00  0.00    -0.644 OA
ENDBRANCH   4   9
ENDBRANCH   1   3
BRANCH   1  12
HETATM   12  C8  UNL     1      32.047  -6.458  28.350  1.00  0.00     0.049 A 
HETATM   13  C9  UNL     1      32.965  -7.454  28.720  1.00  0.00     0.030 A 
HETATM   14  C10 UNL     1      33.792  -8.087  27.818  1.00  0.00     0.002 A 
HETATM   15  C11 UNL     1      33.710  -7.725  26.496  1.00  0.00     0.001 A 
HETATM   16  C12 UNL     1      32.829  -6.763  26.100  1.00  0.00     0.021 A 
HETATM   17  C13 UNL     1      31.987  -6.117  27.023  1.00  0.00     0.067 A 
BRANCH  17  18
HETATM   18  C14 UNL     1      31.111  -5.077  26.524  1.00  0.00     0.211 C 
HETATM   19  O3  UNL     1      29.893  -5.131  26.436  1.00  0.00    -0.644 OA
HETATM   20  O4  UNL     1      31.699  -3.868  26.086  1.00  0.00    -0.644 OA
ENDBRANCH  17  18
ENDBRANCH   1  12
TORSDOF 4
ENDMDL
