MODEL 10
REMARK VINA RESULT: -7.478235322      2.238      3.323
REMARK  6 active torsions:
REMARK  status: ('A' for Active; 'I' for Inactive)
REMARK    1  A    between atoms: C1_2  and  C2_4 
REMARK       I    between atoms: N1_8  and  C6_9 
REMARK    2  A    between atoms: C6_9  and  C7_11 
REMARK    3  A    between atoms: C7_11  and  O4_12 
REMARK    4  A    between atoms: O4_12  and  P1_13 
REMARK    5  A    between atoms: P1_13  and  O7_16 
REMARK    6  A    between atoms: O7_16  and  P2_17 
ROOT
HETATM    1  C2  UNL     1     -25.959 -23.154 -18.773  1.00  0.00     0.188 C 
HETATM    2  C3  UNL     1     -27.346 -23.795 -18.649  1.00  0.00     0.038 C 
HETATM    3  C4  UNL     1     -27.922 -23.395 -20.014  1.00  0.00     0.022 C 
HETATM    4  C5  UNL     1     -27.540 -21.933 -20.061  1.00  0.00     0.127 C 
HETATM    5  N1  UNL     1     -26.216 -21.931 -19.489  1.00  0.00    -0.336 N 
HETATM    6  C6  UNL     1     -25.287 -20.860 -19.616  1.00  0.00     0.244 C 
HETATM    7  O3  UNL     1     -24.143 -20.949 -19.077  1.00  0.00    -0.271 OA
ENDROOT
BRANCH   6   8
HETATM    8  C7  UNL     1     -25.625 -19.652 -20.358  1.00  0.00     0.284 C 
BRANCH   8   9
HETATM    9  O4  UNL     1     -25.045 -19.719 -21.620  1.00  0.00    -0.280 OA
BRANCH   9  10
HETATM   10  P1  UNL     1     -24.239 -18.488 -22.037  1.00  0.00     0.418 P 
HETATM   11  O5  UNL     1     -24.635 -18.626 -23.620  1.00  0.00    -0.624 OA
HETATM   12  O6  UNL     1     -22.868 -19.310 -21.504  1.00  0.00    -0.624 OA
BRANCH  10  13
HETATM   13  O7  UNL     1     -25.021 -17.506 -21.011  1.00  0.00    -0.173 OA
BRANCH  13  14
HETATM   14  P2  UNL     1     -24.387 -16.020 -20.811  1.00  0.00     0.431 P 
HETATM   15  O8  UNL     1     -23.104 -15.526 -21.741  1.00  0.00    -0.616 OA
HETATM   16  O9  UNL     1     -25.142 -14.918 -19.827  1.00  0.00    -0.616 OA
HETATM   17  O10 UNL     1     -23.462 -16.482 -19.693  1.00  0.00    -0.616 OA
ENDBRANCH  13  14
ENDBRANCH  10  13
ENDBRANCH   9  10
ENDBRANCH   8   9
ENDBRANCH   6   8
BRANCH   1  18
HETATM   18  C1  UNL     1     -25.173 -24.099 -19.641  1.00  0.00     0.196 C 
HETATM   19  O1  UNL     1     -24.814 -25.225 -19.219  1.00  0.00    -0.646 OA
HETATM   20  O2  UNL     1     -24.820 -23.763 -20.932  1.00  0.00    -0.646 OA
ENDBRANCH   1  18
TORSDOF 6
ENDMDL
