MODEL 3
REMARK VINA RESULT: -8.738077351      0.521      1.212
REMARK  7 active torsions:
REMARK  status: ('A' for Active; 'I' for Inactive)
REMARK    1  A    between atoms: C5_6  and  C6_7 
REMARK    2  A    between atoms: C6_7  and  N2_8 
REMARK       I    between atoms: N2_8  and  C7_10 
REMARK    3  A    between atoms: C7_10  and  C8_12 
REMARK       I    between atoms: N3_16  and  C12_17 
REMARK    4  A    between atoms: C12_17  and  C13_19 
REMARK    5  A    between atoms: C13_19  and  N4_20 
REMARK    6  A    between atoms: C13_19  and  C14_24 
REMARK    7  A    between atoms: C14_24  and  C15_25 
ROOT
HETATM    1  C8  UNL     1      17.973 -11.907  20.563  1.00  0.00     0.179 C 
HETATM    2  C9  UNL     1      18.972 -12.348  19.463  1.00  0.00     0.037 C 
HETATM    3  C10 UNL     1      20.157 -12.737  20.311  1.00  0.00     0.022 C 
HETATM    4  C11 UNL     1      19.549 -13.157  21.640  1.00  0.00     0.127 C 
HETATM    5  N3  UNL     1      18.077 -12.991  21.460  1.00  0.00    -0.337 N 
HETATM    6  C12 UNL     1      17.199 -13.848  22.153  1.00  0.00     0.251 C 
HETATM    7  O2  UNL     1      15.948 -13.686  21.970  1.00  0.00    -0.271 OA
ENDROOT
BRANCH   1   8
HETATM    8  C7  UNL     1      16.707 -11.552  19.972  1.00  0.00     0.240 C 
HETATM    9  N2  UNL     1      15.673 -11.120  20.889  1.00  0.00    -0.355 N 
ATOM     10  H2  UNL     1      15.875 -11.085  21.888  1.00  0.00     0.162 HD
HETATM   11  O1  UNL     1      16.387 -11.568  18.787  1.00  0.00    -0.271 OA
BRANCH   9  12
HETATM   12  C6  UNL     1      14.371 -10.740  20.422  1.00  0.00     0.162 C 
BRANCH  12  13
HETATM   13  C5  UNL     1      13.422 -10.504  21.554  1.00  0.00    -0.025 A 
HETATM   14  C4  UNL     1      13.333  -9.275  22.182  1.00  0.00     0.011 A 
HETATM   15  C3  UNL     1      12.430  -9.142  23.223  1.00  0.00     0.018 A 
HETATM   16  C2  UNL     1      11.648 -10.209  23.614  1.00  0.00     0.090 A 
HETATM   17  N1  UNL     1      11.738 -11.401  23.001  1.00  0.00    -0.370 N 
HETATM   18  C1  UNL     1      10.898 -12.486  23.449  1.00  0.00     0.154 C 
HETATM   19  C21 UNL     1      12.623 -11.542  21.977  1.00  0.00     0.098 A 
ENDBRANCH  12  13
ENDBRANCH   9  12
ENDBRANCH   1   8
BRANCH   6  20
HETATM   20  C13 UNL     1      17.655 -14.929  23.083  1.00  0.00     0.279 C 
BRANCH  20  21
HETATM   21  N4  UNL     1      16.661 -16.007  22.973  1.00  0.00    -0.066 N 
ATOM     22  H43 UNL     1      15.835 -15.744  22.435  1.00  0.00     0.275 HD
ATOM     23  H42 UNL     1      16.961 -16.776  22.373  1.00  0.00     0.275 HD
ATOM     24  H41 UNL     1      16.450 -16.295  23.927  1.00  0.00     0.275 HD
ENDBRANCH  20  21
BRANCH  20  25
HETATM   25  C14 UNL     1      17.732 -14.457  24.520  1.00  0.00     0.081 C 
BRANCH  25  26
HETATM   26  C15 UNL     1      19.144 -14.584  24.964  1.00  0.00    -0.056 A 
HETATM   27  C16 UNL     1      19.869 -13.522  25.455  1.00  0.00     0.007 A 
HETATM   28  C17 UNL     1      21.183 -13.646  25.869  1.00  0.00     0.001 A 
HETATM   29  C18 UNL     1      21.817 -14.876  25.798  1.00  0.00     0.000 A 
HETATM   30  C19 UNL     1      21.082 -15.952  25.301  1.00  0.00     0.001 A 
HETATM   31  C20 UNL     1      19.774 -15.812  24.893  1.00  0.00     0.007 A 
ENDBRANCH  25  26
ENDBRANCH  20  25
ENDBRANCH   6  20
TORSDOF 7
ENDMDL
