MODEL 10
REMARK VINA RESULT: -7.618609907      1.665      2.038
REMARK  7 active torsions:
REMARK  status: ('A' for Active; 'I' for Inactive)
REMARK    1  A    between atoms: C5_6  and  C6_7 
REMARK    2  A    between atoms: C6_7  and  N2_8 
REMARK       I    between atoms: N2_8  and  C7_10 
REMARK    3  A    between atoms: C7_10  and  C8_12 
REMARK       I    between atoms: N3_16  and  C12_17 
REMARK    4  A    between atoms: C12_17  and  C13_19 
REMARK    5  A    between atoms: C13_19  and  N4_20 
REMARK    6  A    between atoms: C13_19  and  C14_24 
REMARK    7  A    between atoms: C14_24  and  C15_25 
ROOT
HETATM    1  C8  UNL     1      16.842 -14.414  20.402  1.00  0.00     0.179 C 
HETATM    2  C9  UNL     1      15.822 -15.419  19.807  1.00  0.00     0.037 C 
HETATM    3  C10 UNL     1      16.578 -16.711  19.981  1.00  0.00     0.022 C 
HETATM    4  C11 UNL     1      17.482 -16.462  21.178  1.00  0.00     0.127 C 
HETATM    5  N3  UNL     1      17.177 -15.066  21.607  1.00  0.00    -0.337 N 
HETATM    6  C12 UNL     1      17.285 -14.726  22.970  1.00  0.00     0.251 C 
HETATM    7  O2  UNL     1      17.009 -13.528  23.305  1.00  0.00    -0.271 OA
ENDROOT
BRANCH   1   8
HETATM    8  C7  UNL     1      16.285 -13.084  20.407  1.00  0.00     0.240 C 
HETATM    9  N2  UNL     1      14.867 -12.985  20.133  1.00  0.00    -0.355 N 
ATOM     10  H2  UNL     1      14.333 -13.834  19.951  1.00  0.00     0.162 HD
HETATM   11  O1  UNL     1      16.858 -12.019  20.615  1.00  0.00    -0.271 OA
BRANCH   9  12
HETATM   12  C6  UNL     1      14.198 -11.716  20.112  1.00  0.00     0.162 C 
BRANCH  12  13
HETATM   13  C5  UNL     1      13.234 -11.577  21.247  1.00  0.00    -0.025 A 
HETATM   14  C4  UNL     1      12.420 -12.624  21.639  1.00  0.00     0.011 A 
HETATM   15  C3  UNL     1      11.553 -12.411  22.698  1.00  0.00     0.018 A 
HETATM   16  C2  UNL     1      11.511 -11.189  23.335  1.00  0.00     0.090 A 
HETATM   17  N1  UNL     1      12.303 -10.174  22.950  1.00  0.00    -0.370 N 
HETATM   18  C1  UNL     1      12.220  -8.914  23.650  1.00  0.00     0.154 C 
HETATM   19  C21 UNL     1      13.158 -10.373  21.911  1.00  0.00     0.098 A 
ENDBRANCH  12  13
ENDBRANCH   9  12
ENDBRANCH   1   8
BRANCH   6  20
HETATM   20  C13 UNL     1      17.703 -15.691  24.036  1.00  0.00     0.279 C 
BRANCH  20  21
HETATM   21  N4  UNL     1      16.516 -16.504  24.338  1.00  0.00    -0.066 N 
ATOM     22  H43 UNL     1      15.647 -15.969  24.337  1.00  0.00     0.275 HD
ATOM     23  H42 UNL     1      16.265 -17.150  23.590  1.00  0.00     0.275 HD
ATOM     24  H41 UNL     1      16.709 -16.966  25.227  1.00  0.00     0.275 HD
ENDBRANCH  20  21
BRANCH  20  25
HETATM   25  C14 UNL     1      18.170 -14.989  25.295  1.00  0.00     0.081 C 
BRANCH  25  26
HETATM   26  C15 UNL     1      19.578 -14.565  25.082  1.00  0.00    -0.056 A 
HETATM   27  C16 UNL     1      20.088 -13.394  25.595  1.00  0.00     0.007 A 
HETATM   28  C17 UNL     1      21.400 -13.004  25.395  1.00  0.00     0.001 A 
HETATM   29  C18 UNL     1      22.254 -13.804  24.654  1.00  0.00     0.000 A 
HETATM   30  C19 UNL     1      21.737 -14.990  24.135  1.00  0.00     0.001 A 
HETATM   31  C20 UNL     1      20.428 -15.365  24.343  1.00  0.00     0.007 A 
ENDBRANCH  25  26
ENDBRANCH  20  25
ENDBRANCH   6  20
TORSDOF 7
ENDMDL
