MODEL 12
REMARK VINA RESULT: -7.443974746      4.211      9.557
REMARK  7 active torsions:
REMARK  status: ('A' for Active; 'I' for Inactive)
REMARK    1  A    between atoms: C5_6  and  C6_7 
REMARK    2  A    between atoms: C6_7  and  N2_8 
REMARK       I    between atoms: N2_8  and  C7_10 
REMARK    3  A    between atoms: C7_10  and  C8_12 
REMARK       I    between atoms: N3_16  and  C12_17 
REMARK    4  A    between atoms: C12_17  and  C13_19 
REMARK    5  A    between atoms: C13_19  and  N4_20 
REMARK    6  A    between atoms: C13_19  and  C14_24 
REMARK    7  A    between atoms: C14_24  and  C15_25 
ROOT
HETATM    1  C8  UNL     1      21.609 -14.767  24.954  1.00  0.00     0.179 C 
HETATM    2  C9  UNL     1      21.448 -13.891  26.223  1.00  0.00     0.037 C 
HETATM    3  C10 UNL     1      20.698 -12.715  25.649  1.00  0.00     0.022 C 
HETATM    4  C11 UNL     1      19.938 -13.293  24.466  1.00  0.00     0.127 C 
HETATM    5  N3  UNL     1      20.292 -14.742  24.451  1.00  0.00    -0.337 N 
HETATM    6  C12 UNL     1      19.347 -15.676  23.981  1.00  0.00     0.251 C 
HETATM    7  O2  UNL     1      19.676 -16.907  23.989  1.00  0.00    -0.271 OA
ENDROOT
BRANCH   1   8
HETATM    8  C7  UNL     1      22.252 -16.014  25.289  1.00  0.00     0.240 C 
HETATM    9  N2  UNL     1      22.374 -16.310  26.700  1.00  0.00    -0.355 N 
ATOM     10  H2  UNL     1      22.012 -15.645  27.384  1.00  0.00     0.162 HD
HETATM   11  O1  UNL     1      22.712 -16.862  24.530  1.00  0.00    -0.271 OA
BRANCH   9  12
HETATM   12  C6  UNL     1      22.995 -17.520  27.159  1.00  0.00     0.162 C 
BRANCH  12  13
HETATM   13  C5  UNL     1      23.260 -17.485  28.631  1.00  0.00    -0.025 A 
HETATM   14  C4  UNL     1      23.894 -16.412  29.228  1.00  0.00     0.011 A 
HETATM   15  C3  UNL     1      24.104 -16.460  30.596  1.00  0.00     0.018 A 
HETATM   16  C2  UNL     1      23.689 -17.551  31.331  1.00  0.00     0.090 A 
HETATM   17  N1  UNL     1      23.073 -18.592  30.746  1.00  0.00    -0.370 N 
HETATM   18  C1  UNL     1      22.659 -19.710  31.560  1.00  0.00     0.154 C 
HETATM   19  C21 UNL     1      22.863 -18.554  29.402  1.00  0.00     0.098 A 
ENDBRANCH  12  13
ENDBRANCH   9  12
ENDBRANCH   1   8
BRANCH   6  20
HETATM   20  C13 UNL     1      17.988 -15.300  23.477  1.00  0.00     0.279 C 
BRANCH  20  21
HETATM   21  N4  UNL     1      17.035 -16.161  24.193  1.00  0.00    -0.066 N 
ATOM     22  H43 UNL     1      16.212 -16.403  23.641  1.00  0.00     0.275 HD
ATOM     23  H42 UNL     1      17.375 -17.112  24.335  1.00  0.00     0.275 HD
ATOM     24  H41 UNL     1      16.814 -15.675  25.062  1.00  0.00     0.275 HD
ENDBRANCH  20  21
BRANCH  20  25
HETATM   25  C14 UNL     1      17.847 -15.522  21.985  1.00  0.00     0.081 C 
BRANCH  25  26
HETATM   26  C15 UNL     1      18.348 -14.305  21.296  1.00  0.00    -0.056 A 
HETATM   27  C16 UNL     1      19.602 -14.232  20.731  1.00  0.00     0.007 A 
HETATM   28  C17 UNL     1      20.064 -13.098  20.090  1.00  0.00     0.001 A 
HETATM   29  C18 UNL     1      19.255 -11.977  19.998  1.00  0.00     0.000 A 
HETATM   30  C19 UNL     1      17.986 -12.051  20.570  1.00  0.00     0.001 A 
HETATM   31  C20 UNL     1      17.540 -13.189  21.205  1.00  0.00     0.007 A 
ENDBRANCH  25  26
ENDBRANCH  20  25
ENDBRANCH   6  20
TORSDOF 7
ENDMDL
