MODEL 1
REMARK VINA RESULT: -9.772416701      0.000      0.000
REMARK  7 active torsions:
REMARK  status: ('A' for Active; 'I' for Inactive)
REMARK    1  A    between atoms: C5_6  and  C6_7 
REMARK    2  A    between atoms: C6_7  and  N2_8 
REMARK       I    between atoms: N2_8  and  C7_10 
REMARK    3  A    between atoms: C7_10  and  C8_12 
REMARK       I    between atoms: N3_16  and  C12_17 
REMARK    4  A    between atoms: C12_17  and  C13_19 
REMARK    5  A    between atoms: C13_19  and  N4_20 
REMARK    6  A    between atoms: C13_19  and  C14_24 
REMARK    7  A    between atoms: C14_24  and  C15_25 
ROOT
HETATM    1  C8  UNL     1      18.066 -11.888  20.533  1.00  0.00     0.179 C 
HETATM    2  C9  UNL     1      19.024 -12.365  19.413  1.00  0.00     0.037 C 
HETATM    3  C10 UNL     1      20.210 -12.801  20.236  1.00  0.00     0.022 C 
HETATM    4  C11 UNL     1      19.614 -13.200  21.576  1.00  0.00     0.127 C 
HETATM    5  N3  UNL     1      18.146 -12.976  21.427  1.00  0.00    -0.337 N 
HETATM    6  C12 UNL     1      17.249 -13.799  22.136  1.00  0.00     0.251 C 
HETATM    7  O2  UNL     1      16.002 -13.589  21.980  1.00  0.00    -0.271 OA
ENDROOT
BRANCH   1   8
HETATM    8  C7  UNL     1      16.802 -11.483  19.968  1.00  0.00     0.240 C 
HETATM    9  N2  UNL     1      15.827 -10.956  20.899  1.00  0.00    -0.355 N 
ATOM     10  H2  UNL     1      16.064 -10.894  21.889  1.00  0.00     0.162 HD
HETATM   11  O1  UNL     1      16.443 -11.526  18.796  1.00  0.00    -0.271 OA
BRANCH   9  12
HETATM   12  C6  UNL     1      14.533 -10.519  20.458  1.00  0.00     0.162 C 
BRANCH  12  13
HETATM   13  C5  UNL     1      13.439 -11.061  21.322  1.00  0.00    -0.025 A 
HETATM   14  C4  UNL     1      12.959 -12.348  21.164  1.00  0.00     0.011 A 
HETATM   15  C3  UNL     1      11.943 -12.770  22.004  1.00  0.00     0.018 A 
HETATM   16  C2  UNL     1      11.432 -11.924  22.966  1.00  0.00     0.090 A 
HETATM   17  N1  UNL     1      11.901 -10.675  23.116  1.00  0.00    -0.370 N 
HETATM   18  C1  UNL     1      11.331  -9.829  24.138  1.00  0.00     0.154 C 
HETATM   19  C21 UNL     1      12.899 -10.250  22.295  1.00  0.00     0.098 A 
ENDBRANCH  12  13
ENDBRANCH   9  12
ENDBRANCH   1   8
BRANCH   6  20
HETATM   20  C13 UNL     1      17.682 -14.900  23.056  1.00  0.00     0.279 C 
BRANCH  20  21
HETATM   21  N4  UNL     1      16.681 -15.967  22.913  1.00  0.00    -0.066 N 
ATOM     22  H43 UNL     1      16.613 -16.334  21.963  1.00  0.00     0.275 HD
ATOM     23  H42 UNL     1      16.952 -16.840  23.364  1.00  0.00     0.275 HD
ATOM     24  H41 UNL     1      15.805 -15.583  23.264  1.00  0.00     0.275 HD
ENDBRANCH  20  21
BRANCH  20  25
HETATM   25  C14 UNL     1      17.738 -14.450  24.502  1.00  0.00     0.081 C 
BRANCH  25  26
HETATM   26  C15 UNL     1      19.150 -14.552  24.953  1.00  0.00    -0.056 A 
HETATM   27  C16 UNL     1      19.875 -13.464  25.385  1.00  0.00     0.007 A 
HETATM   28  C17 UNL     1      21.189 -13.564  25.805  1.00  0.00     0.001 A 
HETATM   29  C18 UNL     1      21.824 -14.795  25.801  1.00  0.00     0.000 A 
HETATM   30  C19 UNL     1      21.091 -15.897  25.363  1.00  0.00     0.001 A 
HETATM   31  C20 UNL     1      19.783 -15.781  24.948  1.00  0.00     0.007 A 
ENDBRANCH  25  26
ENDBRANCH  20  25
ENDBRANCH   6  20
TORSDOF 7
ENDMDL
