MODEL 13
REMARK VINA RESULT: -7.401176966      4.072      9.278
REMARK  7 active torsions:
REMARK  status: ('A' for Active; 'I' for Inactive)
REMARK    1  A    between atoms: C5_6  and  C6_7 
REMARK    2  A    between atoms: C6_7  and  N2_8 
REMARK       I    between atoms: N2_8  and  C7_10 
REMARK    3  A    between atoms: C7_10  and  C8_12 
REMARK       I    between atoms: N3_16  and  C12_17 
REMARK    4  A    between atoms: C12_17  and  C13_19 
REMARK    5  A    between atoms: C13_19  and  N4_20 
REMARK    6  A    between atoms: C13_19  and  C14_24 
REMARK    7  A    between atoms: C14_24  and  C15_25 
ROOT
HETATM    1  C8  UNL     1      21.603 -14.869  24.891  1.00  0.00     0.179 C 
HETATM    2  C9  UNL     1      21.456 -13.970  26.145  1.00  0.00     0.037 C 
HETATM    3  C10 UNL     1      20.735 -12.787  25.551  1.00  0.00     0.022 C 
HETATM    4  C11 UNL     1      19.966 -13.366  24.374  1.00  0.00     0.127 C 
HETATM    5  N3  UNL     1      20.289 -14.822  24.381  1.00  0.00    -0.337 N 
HETATM    6  C12 UNL     1      19.326 -15.742  23.921  1.00  0.00     0.251 C 
HETATM    7  O2  UNL     1      19.628 -16.980  23.949  1.00  0.00    -0.271 OA
ENDROOT
BRANCH   1   8
HETATM    8  C7  UNL     1      22.218 -16.124  25.246  1.00  0.00     0.240 C 
HETATM    9  N2  UNL     1      21.617 -16.837  26.353  1.00  0.00    -0.355 N 
ATOM     10  H2  UNL     1      20.806 -16.436  26.825  1.00  0.00     0.162 HD
HETATM   11  O1  UNL     1      23.188 -16.670  24.731  1.00  0.00    -0.271 OA
BRANCH   9  12
HETATM   12  C6  UNL     1      22.137 -18.098  26.800  1.00  0.00     0.162 C 
BRANCH  12  13
HETATM   13  C5  UNL     1      22.487 -18.070  28.254  1.00  0.00    -0.025 A 
HETATM   14  C4  UNL     1      22.065 -19.060  29.121  1.00  0.00     0.011 A 
HETATM   15  C3  UNL     1      22.430 -18.957  30.453  1.00  0.00     0.018 A 
HETATM   16  C2  UNL     1      23.192 -17.894  30.890  1.00  0.00     0.090 A 
HETATM   17  N1  UNL     1      23.600 -16.934  30.045  1.00  0.00    -0.370 N 
HETATM   18  C1  UNL     1      24.396 -15.842  30.553  1.00  0.00     0.154 C 
HETATM   19  C21 UNL     1      23.246 -17.026  28.734  1.00  0.00     0.098 A 
ENDBRANCH  12  13
ENDBRANCH   9  12
ENDBRANCH   1   8
BRANCH   6  20
HETATM   20  C13 UNL     1      17.977 -15.344  23.406  1.00  0.00     0.279 C 
BRANCH  20  21
HETATM   21  N4  UNL     1      17.005 -16.194  24.110  1.00  0.00    -0.066 N 
ATOM     22  H43 UNL     1      16.612 -16.931  23.524  1.00  0.00     0.275 HD
ATOM     23  H42 UNL     1      17.430 -16.803  24.809  1.00  0.00     0.275 HD
ATOM     24  H41 UNL     1      16.304 -15.562  24.495  1.00  0.00     0.275 HD
ENDBRANCH  20  21
BRANCH  20  25
HETATM   25  C14 UNL     1      17.847 -15.558  21.912  1.00  0.00     0.081 C 
BRANCH  25  26
HETATM   26  C15 UNL     1      18.346 -14.334  21.234  1.00  0.00    -0.056 A 
HETATM   27  C16 UNL     1      19.619 -14.233  20.721  1.00  0.00     0.007 A 
HETATM   28  C17 UNL     1      20.079 -13.092  20.090  1.00  0.00     0.001 A 
HETATM   29  C18 UNL     1      19.246 -11.993  19.954  1.00  0.00     0.000 A 
HETATM   30  C19 UNL     1      17.956 -12.096  20.473  1.00  0.00     0.001 A 
HETATM   31  C20 UNL     1      17.513 -13.240  21.099  1.00  0.00     0.007 A 
ENDBRANCH  25  26
ENDBRANCH  20  25
ENDBRANCH   6  20
TORSDOF 7
ENDMDL
