MODEL 7
REMARK VINA RESULT: -7.874614230      3.069      4.763
REMARK  7 active torsions:
REMARK  status: ('A' for Active; 'I' for Inactive)
REMARK    1  A    between atoms: C5_6  and  C6_7 
REMARK    2  A    between atoms: C6_7  and  N2_8 
REMARK       I    between atoms: N2_8  and  C7_10 
REMARK    3  A    between atoms: C7_10  and  C8_12 
REMARK       I    between atoms: N3_16  and  C12_17 
REMARK    4  A    between atoms: C12_17  and  C13_19 
REMARK    5  A    between atoms: C13_19  and  N4_20 
REMARK    6  A    between atoms: C13_19  and  C14_24 
REMARK    7  A    between atoms: C14_24  and  C15_25 
ROOT
HETATM    1  C8  UNL     1      18.196 -11.969  20.422  1.00  0.00     0.179 C 
HETATM    2  C9  UNL     1      19.253 -12.463  19.402  1.00  0.00     0.037 C 
HETATM    3  C10 UNL     1      20.381 -12.827  20.334  1.00  0.00     0.022 C 
HETATM    4  C11 UNL     1      19.692 -13.186  21.641  1.00  0.00     0.127 C 
HETATM    5  N3  UNL     1      18.235 -13.015  21.367  1.00  0.00    -0.337 N 
HETATM    6  C12 UNL     1      17.308 -13.834  22.041  1.00  0.00     0.251 C 
HETATM    7  O2  UNL     1      16.071 -13.670  21.778  1.00  0.00    -0.271 OA
ENDROOT
BRANCH   1   8
HETATM    8  C7  UNL     1      16.970 -11.628  19.742  1.00  0.00     0.240 C 
HETATM    9  N2  UNL     1      16.725 -12.310  18.489  1.00  0.00    -0.355 N 
ATOM     10  H2  UNL     1      17.409 -12.984  18.145  1.00  0.00     0.162 HD
HETATM   11  O1  UNL     1      16.103 -10.832  20.088  1.00  0.00    -0.271 OA
BRANCH   9  12
HETATM   12  C6  UNL     1      15.540 -12.057  17.720  1.00  0.00     0.162 C 
BRANCH  12  13
HETATM   13  C5  UNL     1      15.808 -12.120  16.250  1.00  0.00    -0.025 A 
HETATM   14  C4  UNL     1      16.227 -11.010  15.540  1.00  0.00     0.011 A 
HETATM   15  C3  UNL     1      16.450 -11.154  14.181  1.00  0.00     0.018 A 
HETATM   16  C2  UNL     1      16.258 -12.372  13.564  1.00  0.00     0.090 A 
HETATM   17  N1  UNL     1      15.850 -13.448  14.257  1.00  0.00    -0.370 N 
HETATM   18  C1  UNL     1      15.663 -14.700  13.564  1.00  0.00     0.154 C 
HETATM   19  C21 UNL     1      15.628 -13.317  15.593  1.00  0.00     0.098 A 
ENDBRANCH  12  13
ENDBRANCH   9  12
ENDBRANCH   1   8
BRANCH   6  20
HETATM   20  C13 UNL     1      17.696 -14.881  23.040  1.00  0.00     0.279 C 
BRANCH  20  21
HETATM   21  N4  UNL     1      16.656 -15.917  22.970  1.00  0.00    -0.066 N 
ATOM     22  H43 UNL     1      16.244 -16.016  22.041  1.00  0.00     0.275 HD
ATOM     23  H42 UNL     1      17.022 -16.866  23.045  1.00  0.00     0.275 HD
ATOM     24  H41 UNL     1      15.976 -15.685  23.694  1.00  0.00     0.275 HD
ENDBRANCH  20  21
BRANCH  20  25
HETATM   25  C14 UNL     1      17.766 -14.330  24.449  1.00  0.00     0.081 C 
BRANCH  25  26
HETATM   26  C15 UNL     1      19.160 -14.505  24.935  1.00  0.00    -0.056 A 
HETATM   27  C16 UNL     1      19.907 -13.468  25.445  1.00  0.00     0.007 A 
HETATM   28  C17 UNL     1      21.203 -13.635  25.897  1.00  0.00     0.001 A 
HETATM   29  C18 UNL     1      21.796 -14.886  25.846  1.00  0.00     0.000 A 
HETATM   30  C19 UNL     1      21.040 -15.937  25.329  1.00  0.00     0.001 A 
HETATM   31  C20 UNL     1      19.750 -15.753  24.883  1.00  0.00     0.007 A 
ENDBRANCH  25  26
ENDBRANCH  20  25
ENDBRANCH   6  20
TORSDOF 7
ENDMDL
