MODEL 4
REMARK VINA RESULT: -8.522359198      1.169      1.608
REMARK  7 active torsions:
REMARK  status: ('A' for Active; 'I' for Inactive)
REMARK    1  A    between atoms: C5_6  and  C6_7 
REMARK    2  A    between atoms: C6_7  and  N2_8 
REMARK       I    between atoms: N2_8  and  C7_10 
REMARK    3  A    between atoms: C7_10  and  C8_12 
REMARK       I    between atoms: N3_16  and  C12_17 
REMARK    4  A    between atoms: C12_17  and  C13_19 
REMARK    5  A    between atoms: C13_19  and  N4_20 
REMARK    6  A    between atoms: C13_19  and  C14_24 
REMARK    7  A    between atoms: C14_24  and  C15_25 
ROOT
HETATM    1  C8  UNL     1      18.116 -12.123  20.033  1.00  0.00     0.179 C 
HETATM    2  C9  UNL     1      19.111 -12.061  18.847  1.00  0.00     0.037 C 
HETATM    3  C10 UNL     1      20.417 -12.253  19.576  1.00  0.00     0.022 C 
HETATM    4  C11 UNL     1      20.046 -13.059  20.810  1.00  0.00     0.127 C 
HETATM    5  N3  UNL     1      18.574 -13.279  20.698  1.00  0.00    -0.337 N 
HETATM    6  C12 UNL     1      18.012 -14.457  21.229  1.00  0.00     0.251 C 
HETATM    7  O2  UNL     1      16.754 -14.620  21.109  1.00  0.00    -0.271 OA
ENDROOT
BRANCH   1   8
HETATM    8  C7  UNL     1      16.760 -12.033  19.550  1.00  0.00     0.240 C 
HETATM    9  N2  UNL     1      15.720 -12.071  20.556  1.00  0.00    -0.355 N 
ATOM     10  H2  UNL     1      15.979 -12.159  21.539  1.00  0.00     0.162 HD
HETATM   11  O1  UNL     1      16.369 -11.927  18.391  1.00  0.00    -0.271 OA
BRANCH   9  12
HETATM   12  C6  UNL     1      14.333 -11.989  20.200  1.00  0.00     0.162 C 
BRANCH  12  13
HETATM   13  C5  UNL     1      13.533 -11.276  21.244  1.00  0.00    -0.025 A 
HETATM   14  C4  UNL     1      13.730  -9.935  21.520  1.00  0.00     0.011 A 
HETATM   15  C3  UNL     1      12.950  -9.353  22.504  1.00  0.00     0.018 A 
HETATM   16  C2  UNL     1      12.007 -10.096  23.182  1.00  0.00     0.090 A 
HETATM   17  N1  UNL     1      11.819 -11.398  22.912  1.00  0.00    -0.370 N 
HETATM   18  C1  UNL     1      10.819 -12.131  23.652  1.00  0.00     0.154 C 
HETATM   19  C21 UNL     1      12.581 -11.980  21.947  1.00  0.00     0.098 A 
ENDBRANCH  12  13
ENDBRANCH   9  12
ENDBRANCH   1   8
BRANCH   6  20
HETATM   20  C13 UNL     1      18.810 -15.520  21.920  1.00  0.00     0.279 C 
BRANCH  20  21
HETATM   21  N4  UNL     1      18.403 -16.795  21.313  1.00  0.00    -0.066 N 
ATOM     22  H43 UNL     1      18.097 -17.490  21.994  1.00  0.00     0.275 HD
ATOM     23  H42 UNL     1      17.527 -16.736  20.793  1.00  0.00     0.275 HD
ATOM     24  H41 UNL     1      19.191 -17.102  20.744  1.00  0.00     0.275 HD
ENDBRANCH  20  21
BRANCH  20  25
HETATM   25  C14 UNL     1      18.542 -15.561  23.410  1.00  0.00     0.081 C 
BRANCH  25  26
HETATM   26  C15 UNL     1      19.624 -14.799  24.086  1.00  0.00    -0.056 A 
HETATM   27  C16 UNL     1      19.388 -13.951  25.145  1.00  0.00     0.007 A 
HETATM   28  C17 UNL     1      20.398 -13.244  25.772  1.00  0.00     0.001 A 
HETATM   29  C18 UNL     1      21.707 -13.377  25.337  1.00  0.00     0.000 A 
HETATM   30  C19 UNL     1      21.946 -14.236  24.266  1.00  0.00     0.001 A 
HETATM   31  C20 UNL     1      20.929 -14.933  23.652  1.00  0.00     0.007 A 
ENDBRANCH  25  26
ENDBRANCH  20  25
ENDBRANCH   6  20
TORSDOF 7
ENDMDL
