MODEL 9
REMARK VINA RESULT: -7.190431842      3.021      9.240
REMARK  7 active torsions:
REMARK  status: ('A' for Active; 'I' for Inactive)
REMARK    1  A    between atoms: C4_5  and  C5_6 
REMARK    2  A    between atoms: C5_6  and  N2_7 
REMARK       I    between atoms: N2_7  and  C6_9 
REMARK    3  A    between atoms: C6_9  and  C7_11 
REMARK       I    between atoms: N3_15  and  C11_16 
REMARK    4  A    between atoms: C11_16  and  C12_18 
REMARK    5  A    between atoms: C12_18  and  N4_19 
REMARK    6  A    between atoms: C12_18  and  C13_23 
REMARK    7  A    between atoms: C13_23  and  C14_24 
ROOT
HETATM    1  C7  UNL     1      21.226 -13.205  23.829  1.00  0.00     0.179 C 
HETATM    2  C8  UNL     1      21.711 -12.394  25.023  1.00  0.00     0.037 C 
HETATM    3  C9  UNL     1      20.629 -12.537  26.039  1.00  0.00     0.022 C 
HETATM    4  C10 UNL     1      19.561 -13.371  25.392  1.00  0.00     0.127 C 
HETATM    5  N3  UNL     1      19.816 -13.338  23.942  1.00  0.00    -0.337 N 
HETATM    6  C11 UNL     1      18.785 -13.432  22.997  1.00  0.00     0.251 C 
HETATM    7  O2  UNL     1      17.581 -13.553  23.468  1.00  0.00    -0.271 OA
ENDROOT
BRANCH   1   8
HETATM    8  C6  UNL     1      21.926 -14.517  23.760  1.00  0.00     0.240 C 
HETATM    9  N2  UNL     1      23.082 -14.848  24.513  1.00  0.00    -0.355 N 
ATOM     10  H2  UNL     1      23.460 -14.143  25.146  1.00  0.00     0.162 HD
HETATM   11  O1  UNL     1      21.482 -15.423  22.981  1.00  0.00    -0.271 OA
BRANCH   9  12
HETATM   12  C5  UNL     1      23.752 -16.113  24.439  1.00  0.00     0.161 C 
BRANCH  12  13
HETATM   13  C4  UNL     1      23.707 -16.891  25.715  1.00  0.00    -0.038 A 
HETATM   14  C3  UNL     1      22.585 -16.847  26.517  1.00  0.00     0.026 A 
HETATM   15  C2  UNL     1      22.506 -17.552  27.700  1.00  0.00     0.090 A 
HETATM   16  N1  UNL     1      23.524 -18.319  28.128  1.00  0.00    -0.371 N 
HETATM   17  C1  UNL     1      23.438 -19.066  29.383  1.00  0.00     0.154 C 
HETATM   18  C21 UNL     1      24.626 -18.374  27.361  1.00  0.00     0.090 A 
HETATM   19  C20 UNL     1      24.750 -17.678  26.156  1.00  0.00     0.026 A 
ENDBRANCH  12  13
ENDBRANCH   9  12
ENDBRANCH   1   8
BRANCH   6  20
HETATM   20  C12 UNL     1      18.838 -13.418  21.541  1.00  0.00     0.279 C 
BRANCH  20  21
HETATM   21  N4  UNL     1      19.915 -14.082  20.904  1.00  0.00    -0.066 N 
ATOM     22  H43 UNL     1      19.700 -15.076  20.834  1.00  0.00     0.275 HD
ATOM     23  H42 UNL     1      19.934 -13.817  19.919  1.00  0.00     0.275 HD
ATOM     24  H41 UNL     1      20.851 -13.969  21.296  1.00  0.00     0.275 HD
ENDBRANCH  20  21
BRANCH  20  25
HETATM   25  C13 UNL     1      18.752 -11.980  20.998  1.00  0.00     0.081 C 
BRANCH  25  26
HETATM   26  C14 UNL     1      17.433 -11.805  20.344  1.00  0.00    -0.056 A 
HETATM   27  C15 UNL     1      17.348 -11.796  18.963  1.00  0.00     0.007 A 
HETATM   28  C16 UNL     1      16.139 -11.647  18.325  1.00  0.00     0.001 A 
HETATM   29  C17 UNL     1      14.962 -11.499  19.044  1.00  0.00     0.000 A 
HETATM   30  C18 UNL     1      15.065 -11.510  20.413  1.00  0.00     0.001 A 
HETATM   31  C19 UNL     1      16.267 -11.659  21.062  1.00  0.00     0.007 A 
ENDBRANCH  25  26
ENDBRANCH  20  25
ENDBRANCH   6  20
TORSDOF 7
ENDMDL
