MODEL 2
REMARK VINA RESULT: -7.851027094      1.903      8.178
REMARK  7 active torsions:
REMARK  status: ('A' for Active; 'I' for Inactive)
REMARK    1  A    between atoms: C4_5  and  C5_6 
REMARK    2  A    between atoms: C5_6  and  N2_7 
REMARK       I    between atoms: N2_7  and  C6_9 
REMARK    3  A    between atoms: C6_9  and  C7_11 
REMARK       I    between atoms: N3_15  and  C11_16 
REMARK    4  A    between atoms: C11_16  and  C12_18 
REMARK    5  A    between atoms: C12_18  and  N4_19 
REMARK    6  A    between atoms: C12_18  and  C13_23 
REMARK    7  A    between atoms: C13_23  and  C14_24 
ROOT
HETATM    1  C7  UNL     1      18.581 -13.152  21.034  1.00  0.00     0.179 C 
HETATM    2  C8  UNL     1      19.919 -13.361  20.339  1.00  0.00     0.037 C 
HETATM    3  C9  UNL     1      20.329 -11.997  19.897  1.00  0.00     0.022 C 
HETATM    4  C10 UNL     1      19.215 -11.077  20.305  1.00  0.00     0.127 C 
HETATM    5  N3  UNL     1      18.040 -11.924  20.570  1.00  0.00    -0.337 N 
HETATM    6  C11 UNL     1      16.729 -11.473  20.363  1.00  0.00     0.251 C 
HETATM    7  O2  UNL     1      16.600 -10.258  19.924  1.00  0.00    -0.271 OA
ENDROOT
BRANCH   1   8
HETATM    8  C6  UNL     1      18.741 -13.190  22.514  1.00  0.00     0.240 C 
HETATM    9  N2  UNL     1      19.990 -13.136  23.186  1.00  0.00    -0.355 N 
ATOM     10  H2  UNL     1      20.835 -13.064  22.620  1.00  0.00     0.162 HD
HETATM   11  O1  UNL     1      17.706 -13.279  23.254  1.00  0.00    -0.271 OA
BRANCH   9  12
HETATM   12  C5  UNL     1      20.136 -13.176  24.611  1.00  0.00     0.161 C 
BRANCH  12  13
HETATM   13  C4  UNL     1      20.607 -14.497  25.128  1.00  0.00    -0.038 A 
HETATM   14  C3  UNL     1      19.839 -15.629  24.946  1.00  0.00     0.026 A 
HETATM   15  C2  UNL     1      20.242 -16.865  25.408  1.00  0.00     0.090 A 
HETATM   16  N1  UNL     1      21.407 -17.024  26.060  1.00  0.00    -0.371 N 
HETATM   17  C1  UNL     1      21.832 -18.336  26.549  1.00  0.00     0.154 C 
HETATM   18  C21 UNL     1      22.168 -15.933  26.247  1.00  0.00     0.090 A 
HETATM   19  C20 UNL     1      21.802 -14.663  25.797  1.00  0.00     0.026 A 
ENDBRANCH  12  13
ENDBRANCH   9  12
ENDBRANCH   1   8
BRANCH   6  20
HETATM   20  C12 UNL     1      15.456 -12.154  20.564  1.00  0.00     0.279 C 
BRANCH  20  21
HETATM   21  N4  UNL     1      15.347 -13.505  20.151  1.00  0.00    -0.066 N 
ATOM     22  H43 UNL     1      14.972 -13.534  19.203  1.00  0.00     0.275 HD
ATOM     23  H42 UNL     1      16.282 -13.884  20.003  1.00  0.00     0.275 HD
ATOM     24  H41 UNL     1      14.816 -14.148  20.739  1.00  0.00     0.275 HD
ENDBRANCH  20  21
BRANCH  20  25
HETATM   25  C13 UNL     1      14.296 -11.353  19.946  1.00  0.00     0.081 C 
BRANCH  25  26
HETATM   26  C14 UNL     1      13.410 -10.892  21.041  1.00  0.00    -0.056 A 
HETATM   27  C15 UNL     1      12.452 -11.749  21.554  1.00  0.00     0.007 A 
HETATM   28  C16 UNL     1      11.621 -11.356  22.577  1.00  0.00     0.001 A 
HETATM   29  C17 UNL     1      11.713 -10.088  23.130  1.00  0.00     0.000 A 
HETATM   30  C18 UNL     1      12.668  -9.251  22.608  1.00  0.00     0.001 A 
HETATM   31  C19 UNL     1      13.505  -9.631  21.585  1.00  0.00     0.007 A 
ENDBRANCH  25  26
ENDBRANCH  20  25
ENDBRANCH   6  20
TORSDOF 7
ENDMDL
