MODEL 8
REMARK VINA RESULT: -7.372902507      2.320      7.698
REMARK  7 active torsions:
REMARK  status: ('A' for Active; 'I' for Inactive)
REMARK    1  A    between atoms: C4_5  and  C5_6 
REMARK    2  A    between atoms: C5_6  and  N2_7 
REMARK       I    between atoms: N2_7  and  C6_9 
REMARK    3  A    between atoms: C6_9  and  C7_11 
REMARK       I    between atoms: N3_15  and  C11_16 
REMARK    4  A    between atoms: C11_16  and  C12_18 
REMARK    5  A    between atoms: C12_18  and  N4_19 
REMARK    6  A    between atoms: C12_18  and  C13_23 
REMARK    7  A    between atoms: C13_23  and  C14_24 
ROOT
HETATM    1  C7  UNL     1      18.618 -13.106  20.781  1.00  0.00     0.179 C 
HETATM    2  C8  UNL     1      19.992 -13.165  20.128  1.00  0.00     0.037 C 
HETATM    3  C9  UNL     1      20.375 -11.738  19.927  1.00  0.00     0.022 C 
HETATM    4  C10 UNL     1      19.212 -10.925  20.420  1.00  0.00     0.127 C 
HETATM    5  N3  UNL     1      18.056 -11.834  20.489  1.00  0.00    -0.337 N 
HETATM    6  C11 UNL     1      16.741 -11.392  20.292  1.00  0.00     0.251 C 
HETATM    7  O2  UNL     1      16.590 -10.126  20.044  1.00  0.00    -0.271 OA
ENDROOT
BRANCH   1   8
HETATM    8  C6  UNL     1      18.714 -13.375  22.242  1.00  0.00     0.240 C 
HETATM    9  N2  UNL     1      17.619 -13.760  23.058  1.00  0.00    -0.355 N 
ATOM     10  H2  UNL     1      16.705 -13.862  22.617  1.00  0.00     0.162 HD
HETATM   11  O1  UNL     1      19.840 -13.258  22.828  1.00  0.00    -0.271 OA
BRANCH   9  12
HETATM   12  C5  UNL     1      17.719 -14.014  24.465  1.00  0.00     0.161 C 
BRANCH  12  13
HETATM   13  C4  UNL     1      18.009 -15.443  24.797  1.00  0.00    -0.038 A 
HETATM   14  C3  UNL     1      17.001 -16.384  24.763  1.00  0.00     0.026 A 
HETATM   15  C2  UNL     1      17.231 -17.711  25.062  1.00  0.00     0.090 A 
HETATM   16  N1  UNL     1      18.455 -18.150  25.402  1.00  0.00    -0.371 N 
HETATM   17  C1  UNL     1      18.697 -19.558  25.717  1.00  0.00     0.154 C 
HETATM   18  C21 UNL     1      19.450 -17.249  25.441  1.00  0.00     0.090 A 
HETATM   19  C20 UNL     1      19.264 -15.896  25.146  1.00  0.00     0.026 A 
ENDBRANCH  12  13
ENDBRANCH   9  12
ENDBRANCH   1   8
BRANCH   6  20
HETATM   20  C12 UNL     1      15.485 -12.130  20.320  1.00  0.00     0.279 C 
BRANCH  20  21
HETATM   21  N4  UNL     1      15.438 -13.397  19.687  1.00  0.00    -0.066 N 
ATOM     22  H43 UNL     1      16.050 -13.384  18.872  1.00  0.00     0.275 HD
ATOM     23  H42 UNL     1      15.912 -14.081  20.276  1.00  0.00     0.275 HD
ATOM     24  H41 UNL     1      14.527 -13.766  19.414  1.00  0.00     0.275 HD
ENDBRANCH  20  21
BRANCH  20  25
HETATM   25  C13 UNL     1      14.325 -11.268  19.789  1.00  0.00     0.081 C 
BRANCH  25  26
HETATM   26  C14 UNL     1      13.438 -10.925  20.927  1.00  0.00    -0.056 A 
HETATM   27  C15 UNL     1      13.469  -9.648  21.458  1.00  0.00     0.007 A 
HETATM   28  C16 UNL     1      12.651  -9.293  22.505  1.00  0.00     0.001 A 
HETATM   29  C17 UNL     1      11.769 -10.204  23.067  1.00  0.00     0.000 A 
HETATM   30  C18 UNL     1      11.752 -11.466  22.527  1.00  0.00     0.001 A 
HETATM   31  C19 UNL     1      12.564 -11.833  21.480  1.00  0.00     0.007 A 
ENDBRANCH  25  26
ENDBRANCH  20  25
ENDBRANCH   6  20
TORSDOF 7
ENDMDL
