MODEL 1
REMARK VINA RESULT: -7.980810696      0.000      0.000
REMARK  7 active torsions:
REMARK  status: ('A' for Active; 'I' for Inactive)
REMARK    1  A    between atoms: C4_5  and  C5_6 
REMARK    2  A    between atoms: C5_6  and  N2_7 
REMARK       I    between atoms: N2_7  and  C6_9 
REMARK    3  A    between atoms: C6_9  and  C7_11 
REMARK       I    between atoms: N3_15  and  C11_16 
REMARK    4  A    between atoms: C11_16  and  C12_18 
REMARK    5  A    between atoms: C12_18  and  N4_19 
REMARK    6  A    between atoms: C12_18  and  C13_23 
REMARK    7  A    between atoms: C13_23  and  C14_24 
ROOT
HETATM    1  C7  UNL     1      18.131 -12.044  21.566  1.00  0.00     0.179 C 
HETATM    2  C8  UNL     1      18.934 -11.040  20.752  1.00  0.00     0.037 C 
HETATM    3  C9  UNL     1      19.702 -11.871  19.781  1.00  0.00     0.022 C 
HETATM    4  C10 UNL     1      19.355 -13.298  20.093  1.00  0.00     0.127 C 
HETATM    5  N3  UNL     1      18.769 -13.308  21.444  1.00  0.00    -0.337 N 
HETATM    6  C11 UNL     1      18.894 -14.404  22.308  1.00  0.00     0.251 C 
HETATM    7  O2  UNL     1      19.558 -15.423  21.853  1.00  0.00    -0.271 OA
ENDROOT
BRANCH   1   8
HETATM    8  C6  UNL     1      16.710 -12.069  21.124  1.00  0.00     0.240 C 
HETATM    9  N2  UNL     1      16.059 -10.998  20.459  1.00  0.00    -0.355 N 
ATOM     10  H2  UNL     1      16.599 -10.154  20.269  1.00  0.00     0.162 HD
HETATM   11  O1  UNL     1      16.004 -13.108  21.345  1.00  0.00    -0.271 OA
BRANCH   9  12
HETATM   12  C5  UNL     1      14.689 -11.029  20.039  1.00  0.00     0.161 C 
BRANCH  12  13
HETATM   13  C4  UNL     1      13.720 -10.699  21.129  1.00  0.00    -0.038 A 
HETATM   14  C3  UNL     1      13.657  -9.417  21.638  1.00  0.00     0.026 A 
HETATM   15  C2  UNL     1      12.776  -9.075  22.643  1.00  0.00     0.090 A 
HETATM   16  N1  UNL     1      11.934  -9.978  23.175  1.00  0.00    -0.371 N 
HETATM   17  C1  UNL     1      10.999  -9.612  24.239  1.00  0.00     0.154 C 
HETATM   18  C21 UNL     1      11.981 -11.231  22.692  1.00  0.00     0.090 A 
HETATM   19  C20 UNL     1      12.856 -11.623  21.677  1.00  0.00     0.026 A 
ENDBRANCH  12  13
ENDBRANCH   9  12
ENDBRANCH   1   8
BRANCH   6  20
HETATM   20  C12 UNL     1      18.392 -14.598  23.663  1.00  0.00     0.279 C 
BRANCH  20  21
HETATM   21  N4  UNL     1      16.994 -14.518  23.876  1.00  0.00    -0.066 N 
ATOM     22  H43 UNL     1      16.808 -13.830  24.606  1.00  0.00     0.275 HD
ATOM     23  H42 UNL     1      16.559 -14.069  23.070  1.00  0.00     0.275 HD
ATOM     24  H41 UNL     1      16.489 -15.378  24.091  1.00  0.00     0.275 HD
ENDBRANCH  20  21
BRANCH  20  25
HETATM   25  C13 UNL     1      19.099 -13.657  24.654  1.00  0.00     0.081 C 
BRANCH  25  26
HETATM   26  C14 UNL     1      20.560 -13.892  24.561  1.00  0.00    -0.056 A 
HETATM   27  C15 UNL     1      21.081 -15.124  24.917  1.00  0.00     0.007 A 
HETATM   28  C16 UNL     1      22.430 -15.378  24.832  1.00  0.00     0.001 A 
HETATM   29  C17 UNL     1      23.316 -14.408  24.389  1.00  0.00     0.000 A 
HETATM   30  C18 UNL     1      22.782 -13.192  24.040  1.00  0.00     0.001 A 
HETATM   31  C19 UNL     1      21.436 -12.926  24.120  1.00  0.00     0.007 A 
ENDBRANCH  25  26
ENDBRANCH  20  25
ENDBRANCH   6  20
TORSDOF 7
ENDMDL
