MODEL 4
REMARK VINA RESULT: -7.672214521      0.903      1.293
REMARK  7 active torsions:
REMARK  status: ('A' for Active; 'I' for Inactive)
REMARK    1  A    between atoms: C4_5  and  C5_6 
REMARK    2  A    between atoms: C5_6  and  N2_7 
REMARK       I    between atoms: N2_7  and  C6_9 
REMARK    3  A    between atoms: C6_9  and  C7_11 
REMARK       I    between atoms: N3_15  and  C11_16 
REMARK    4  A    between atoms: C11_16  and  C12_18 
REMARK    5  A    between atoms: C12_18  and  N4_19 
REMARK    6  A    between atoms: C12_18  and  C13_23 
REMARK    7  A    between atoms: C13_23  and  C14_24 
ROOT
HETATM    1  C7  UNL     1      18.291 -11.987  21.479  1.00  0.00     0.179 C 
HETATM    2  C8  UNL     1      19.099 -10.937  20.728  1.00  0.00     0.037 C 
HETATM    3  C9  UNL     1      19.906 -11.715  19.745  1.00  0.00     0.022 C 
HETATM    4  C10 UNL     1      19.574 -13.160  19.989  1.00  0.00     0.127 C 
HETATM    5  N3  UNL     1      18.953 -13.234  21.322  1.00  0.00    -0.337 N 
HETATM    6  C11 UNL     1      19.074 -14.363  22.144  1.00  0.00     0.251 C 
HETATM    7  O2  UNL     1      19.766 -15.352  21.666  1.00  0.00    -0.271 OA
ENDROOT
BRANCH   1   8
HETATM    8  C6  UNL     1      16.883 -12.016  20.997  1.00  0.00     0.240 C 
HETATM    9  N2  UNL     1      16.191 -10.891  20.477  1.00  0.00    -0.355 N 
ATOM     10  H2  UNL     1      16.690 -10.003  20.428  1.00  0.00     0.162 HD
HETATM   11  O1  UNL     1      16.227 -13.109  21.044  1.00  0.00    -0.271 OA
BRANCH   9  12
HETATM   12  C5  UNL     1      14.834 -10.927  20.019  1.00  0.00     0.161 C 
BRANCH  12  13
HETATM   13  C4  UNL     1      13.829 -10.677  21.098  1.00  0.00    -0.038 A 
HETATM   14  C3  UNL     1      13.653  -9.405  21.603  1.00  0.00     0.026 A 
HETATM   15  C2  UNL     1      12.736  -9.136  22.598  1.00  0.00     0.090 A 
HETATM   16  N1  UNL     1      11.968 -10.106  23.124  1.00  0.00    -0.371 N 
HETATM   17  C1  UNL     1      10.995  -9.818  24.178  1.00  0.00     0.154 C 
HETATM   18  C21 UNL     1      12.125 -11.351  22.645  1.00  0.00     0.090 A 
HETATM   19  C20 UNL     1      13.040 -11.670  21.639  1.00  0.00     0.026 A 
ENDBRANCH  12  13
ENDBRANCH   9  12
ENDBRANCH   1   8
BRANCH   6  20
HETATM   20  C12 UNL     1      18.539 -14.620  23.476  1.00  0.00     0.279 C 
BRANCH  20  21
HETATM   21  N4  UNL     1      17.190 -14.273  23.734  1.00  0.00    -0.066 N 
ATOM     22  H43 UNL     1      16.599 -14.671  23.005  1.00  0.00     0.275 HD
ATOM     23  H42 UNL     1      16.865 -14.788  24.552  1.00  0.00     0.275 HD
ATOM     24  H41 UNL     1      16.960 -13.286  23.848  1.00  0.00     0.275 HD
ENDBRANCH  20  21
BRANCH  20  25
HETATM   25  C13 UNL     1      19.430 -13.988  24.560  1.00  0.00     0.081 C 
BRANCH  25  26
HETATM   26  C14 UNL     1      20.274 -15.053  25.152  1.00  0.00    -0.056 A 
HETATM   27  C15 UNL     1      19.799 -16.352  25.211  1.00  0.00     0.007 A 
HETATM   28  C16 UNL     1      20.561 -17.365  25.743  1.00  0.00     0.001 A 
HETATM   29  C17 UNL     1      21.832 -17.121  26.241  1.00  0.00     0.000 A 
HETATM   30  C18 UNL     1      22.288 -15.827  26.174  1.00  0.00     0.001 A 
HETATM   31  C19 UNL     1      21.536 -14.806  25.644  1.00  0.00     0.007 A 
ENDBRANCH  25  26
ENDBRANCH  20  25
ENDBRANCH   6  20
TORSDOF 7
ENDMDL
