MODEL 14
REMARK VINA RESULT: -6.786804120      3.866      5.242
REMARK  1 active torsions:
REMARK  status: ('A' for Active; 'I' for Inactive)
REMARK    1  A    between atoms: C7_8  and  O1_9 
ROOT
HETATM    1  N1  UNL     1       3.555   5.622  11.086  1.00  0.00    -0.191 NA
HETATM    2  C1  UNL     1       3.431   6.695  11.500  1.00  0.00     0.105 C 
HETATM    3  C2  UNL     1       3.267   8.016  11.991  1.00  0.00     0.120 A 
HETATM    4  C3  UNL     1       4.240   8.976  11.743  1.00  0.00     0.043 A 
HETATM    5  C4  UNL     1       4.102  10.267  12.212  1.00  0.00    -0.000 A 
HETATM    6  C5  UNL     1       5.031  11.257  11.998  1.00  0.00     0.017 A 
HETATM    7  C6  UNL     1       4.876  12.542  12.473  1.00  0.00     0.037 A 
HETATM    8  C7  UNL     1       3.750  12.851  13.191  1.00  0.00     0.068 A 
HETATM    9  C8  UNL     1       2.811  11.869  13.415  1.00  0.00     0.074 A 
HETATM   10  C9  UNL     1       2.959  10.576  12.939  1.00  0.00     0.092 A 
HETATM   11  O2  UNL     1       2.046   9.661  13.169  1.00  0.00    -0.273 OA
HETATM   12  C10 UNL     1       2.173   8.427  12.722  1.00  0.00     0.309 A 
HETATM   13  O3  UNL     1       1.285   7.557  12.951  1.00  0.00    -0.258 OA
ENDROOT
BRANCH   8  14
HETATM   14  O1  UNL     1       3.517  14.137  13.712  1.00  0.00    -0.361 OA
ATOM     15  H1  UNL     1       2.940  14.290  14.450  1.00  0.00     0.217 HD
ENDBRANCH   8  14
TORSDOF 1
ENDMDL
