MODEL 1
REMARK VINA RESULT: -8.166381064      0.000      0.000
REMARK  1 active torsions:
REMARK  status: ('A' for Active; 'I' for Inactive)
REMARK    1  A    between atoms: C7_8  and  O1_9 
ROOT
HETATM    1  N1  UNL     1      -0.667  13.376  15.091  1.00  0.00    -0.191 NA
HETATM    2  C1  UNL     1       0.414  13.265  14.695  1.00  0.00     0.105 C 
HETATM    3  C2  UNL     1       1.736  13.141  14.195  1.00  0.00     0.120 A 
HETATM    4  C3  UNL     1       2.064  12.088  13.349  1.00  0.00     0.043 A 
HETATM    5  C4  UNL     1       3.343  11.949  12.851  1.00  0.00    -0.000 A 
HETATM    6  C5  UNL     1       3.725  10.929  12.012  1.00  0.00     0.017 A 
HETATM    7  C6  UNL     1       5.008  10.804  11.523  1.00  0.00     0.037 A 
HETATM    8  C7  UNL     1       5.948  11.734  11.886  1.00  0.00     0.068 A 
HETATM    9  C8  UNL     1       5.581  12.760  12.727  1.00  0.00     0.074 A 
HETATM   10  C9  UNL     1       4.293  12.893  13.222  1.00  0.00     0.092 A 
HETATM   11  O2  UNL     1       3.973  13.883  14.022  1.00  0.00    -0.273 OA
HETATM   12  C10 UNL     1       2.752  14.021  14.500  1.00  0.00     0.309 A 
HETATM   13  O3  UNL     1       2.459  14.980  15.270  1.00  0.00    -0.258 OA
ENDROOT
BRANCH   8  14
HETATM   14  O1  UNL     1       7.278  11.677  11.432  1.00  0.00    -0.361 OA
ATOM     15  H1  UNL     1       7.522  11.896  10.541  1.00  0.00     0.217 HD
ENDBRANCH   8  14
TORSDOF 1
ENDMDL
