MODEL 5
REMARK VINA RESULT: -7.280013785      4.604      6.043
REMARK  1 active torsions:
REMARK  status: ('A' for Active; 'I' for Inactive)
REMARK    1  A    between atoms: C7_8  and  O1_9 
ROOT
HETATM    1  N1  UNL     1       3.558   4.736  11.151  1.00  0.00    -0.191 NA
HETATM    2  C1  UNL     1       3.250   5.770  11.568  1.00  0.00     0.105 C 
HETATM    3  C2  UNL     1       2.858   7.039  12.065  1.00  0.00     0.120 A 
HETATM    4  C3  UNL     1       3.537   8.183  11.666  1.00  0.00     0.043 A 
HETATM    5  C4  UNL     1       3.173   9.428  12.137  1.00  0.00    -0.000 A 
HETATM    6  C5  UNL     1       3.808  10.593  11.778  1.00  0.00     0.017 A 
HETATM    7  C6  UNL     1       3.430  11.829  12.258  1.00  0.00     0.037 A 
HETATM    8  C7  UNL     1       2.377  11.906  13.133  1.00  0.00     0.068 A 
HETATM    9  C8  UNL     1       1.732  10.747  13.503  1.00  0.00     0.074 A 
HETATM   10  C9  UNL     1       2.105   9.501  13.024  1.00  0.00     0.092 A 
HETATM   11  O2  UNL     1       1.470   8.414  13.396  1.00  0.00    -0.273 OA
HETATM   12  C10 UNL     1       1.814   7.223  12.948  1.00  0.00     0.309 A 
HETATM   13  O3  UNL     1       1.193   6.185  13.315  1.00  0.00    -0.258 OA
ENDROOT
BRANCH   8  14
HETATM   14  O1  UNL     1       1.931  13.127  13.670  1.00  0.00    -0.361 OA
ATOM     15  H1  UNL     1       1.013  13.303  13.839  1.00  0.00     0.217 HD
ENDBRANCH   8  14
TORSDOF 1
ENDMDL
