MODEL 3
REMARK VINA RESULT: -7.324943689      3.406      4.228
REMARK  1 active torsions:
REMARK  status: ('A' for Active; 'I' for Inactive)
REMARK    1  A    between atoms: C7_8  and  O1_9 
ROOT
HETATM    1  N1  UNL     1       1.346  13.753  14.246  1.00  0.00    -0.191 NA
HETATM    2  C1  UNL     1       1.740  12.737  13.856  1.00  0.00     0.105 C 
HETATM    3  C2  UNL     1       2.212  11.494  13.362  1.00  0.00     0.120 A 
HETATM    4  C3  UNL     1       1.559  10.316  13.704  1.00  0.00     0.043 A 
HETATM    5  C4  UNL     1       2.001   9.096  13.234  1.00  0.00    -0.000 A 
HETATM    6  C5  UNL     1       1.397   7.899  13.539  1.00  0.00     0.017 A 
HETATM    7  C6  UNL     1       1.852   6.689  13.061  1.00  0.00     0.037 A 
HETATM    8  C7  UNL     1       2.954   6.671  12.245  1.00  0.00     0.068 A 
HETATM    9  C8  UNL     1       3.571   7.862  11.932  1.00  0.00     0.074 A 
HETATM   10  C9  UNL     1       3.119   9.083  12.408  1.00  0.00     0.092 A 
HETATM   11  O2  UNL     1       3.729  10.201  12.092  1.00  0.00    -0.273 OA
HETATM   12  C10 UNL     1       3.310  11.369  12.537  1.00  0.00     0.309 A 
HETATM   13  O3  UNL     1       3.907  12.438  12.223  1.00  0.00    -0.258 OA
ENDROOT
BRANCH   8  14
HETATM   14  O1  UNL     1       3.482   5.479  11.717  1.00  0.00    -0.361 OA
ATOM     15  H1  UNL     1       3.197   4.623  12.011  1.00  0.00     0.217 HD
ENDBRANCH   8  14
TORSDOF 1
ENDMDL
