MODEL 2
REMARK VINA RESULT: -7.411494709      2.001      2.645
REMARK  1 active torsions:
REMARK  status: ('A' for Active; 'I' for Inactive)
REMARK    1  A    between atoms: C7_8  and  O1_9 
ROOT
HETATM    1  N1  UNL     1       0.913  16.312  16.866  1.00  0.00    -0.191 NA
HETATM    2  C1  UNL     1       1.243  15.490  16.121  1.00  0.00     0.105 C 
HETATM    3  C2  UNL     1       1.649  14.470  15.224  1.00  0.00     0.120 A 
HETATM    4  C3  UNL     1       2.972  14.402  14.801  1.00  0.00     0.043 A 
HETATM    5  C4  UNL     1       3.389  13.418  13.929  1.00  0.00    -0.000 A 
HETATM    6  C5  UNL     1       4.682  13.301  13.477  1.00  0.00     0.017 A 
HETATM    7  C6  UNL     1       5.083  12.311  12.604  1.00  0.00     0.037 A 
HETATM    8  C7  UNL     1       4.156  11.402  12.165  1.00  0.00     0.068 A 
HETATM    9  C8  UNL     1       2.856  11.506  12.607  1.00  0.00     0.074 A 
HETATM   10  C9  UNL     1       2.446  12.498  13.485  1.00  0.00     0.092 A 
HETATM   11  O2  UNL     1       1.200  12.572  13.889  1.00  0.00    -0.273 OA
HETATM   12  C10 UNL     1       0.796  13.510  14.724  1.00  0.00     0.309 A 
HETATM   13  O3  UNL     1      -0.408  13.568  15.104  1.00  0.00    -0.258 OA
ENDROOT
BRANCH   8  14
HETATM   14  O1  UNL     1       4.483  10.363  11.274  1.00  0.00    -0.361 OA
ATOM     15  H1  UNL     1       4.937   9.578  11.553  1.00  0.00     0.217 HD
ENDBRANCH   8  14
TORSDOF 1
ENDMDL
