MODEL 14
REMARK VINA RESULT: -7.620255569      3.028      8.047
REMARK  9 active torsions:
REMARK  status: ('A' for Active; 'I' for Inactive)
REMARK    1  A    between atoms: C5_7  and  C6_8 
REMARK    2  A    between atoms: C6_8  and  N2_9 
REMARK       I    between atoms: N2_9  and  C7_11 
REMARK    3  A    between atoms: C7_11  and  C8_13 
REMARK    4  A    between atoms: N3_17  and  C12_18 
REMARK    5  A    between atoms: C12_18  and  O2_19 
REMARK    6  A    between atoms: C12_18  and  C13_21 
REMARK    7  A    between atoms: C13_21  and  N4_22 
REMARK    8  A    between atoms: C13_21  and  C14_26 
REMARK    9  A    between atoms: C14_26  and  C15_27 
ROOT
HETATM    1  C8  UNL     1      17.793 -12.991  20.823  1.00  0.00     0.178 C 
HETATM    2  C9  UNL     1      19.264 -12.973  20.364  1.00  0.00     0.037 C 
HETATM    3  C10 UNL     1      19.608 -11.528  20.412  1.00  0.00     0.022 C 
HETATM    4  C11 UNL     1      18.332 -10.768  20.657  1.00  0.00     0.126 C 
HETATM    5  N3  UNL     1      17.315 -11.765  20.309  1.00  0.00    -0.350 N 
ENDROOT
BRANCH   5   6
HETATM    6  C12 UNL     1      16.154 -11.459  19.609  1.00  0.00     0.145 C 
BRANCH   6   7
HETATM    7  O2  UNL     1      16.275 -10.487  18.723  1.00  0.00    -0.348 OA
ATOM      8  H2  UNL     1      15.579 -10.442  18.078  1.00  0.00     0.219 HD
ENDBRANCH   6   7
BRANCH   6   9
HETATM    9  C13 UNL     1      14.804 -11.990  19.645  1.00  0.00     0.261 C 
BRANCH   9  10
HETATM   10  N4  UNL     1      14.420 -12.957  18.677  1.00  0.00    -0.067 N 
ATOM     11  H43 UNL     1      14.963 -13.806  18.827  1.00  0.00     0.275 HD
ATOM     12  H42 UNL     1      13.477 -13.282  18.894  1.00  0.00     0.275 HD
ATOM     13  H41 UNL     1      14.462 -12.709  17.689  1.00  0.00     0.275 HD
ENDBRANCH   9  10
BRANCH   9  14
HETATM   14  C14 UNL     1      13.846 -10.795  19.540  1.00  0.00     0.079 C 
BRANCH  14  15
HETATM   15  C15 UNL     1      13.098 -10.540  20.793  1.00  0.00    -0.056 A 
HETATM   16  C16 UNL     1      13.182  -9.284  21.379  1.00  0.00     0.007 A 
HETATM   17  C17 UNL     1      12.492  -9.066  22.550  1.00  0.00     0.001 A 
HETATM   18  C18 UNL     1      11.728 -10.038  23.159  1.00  0.00     0.000 A 
HETATM   19  C19 UNL     1      11.652 -11.280  22.570  1.00  0.00     0.001 A 
HETATM   20  C20 UNL     1      12.331 -11.522  21.400  1.00  0.00     0.007 A 
ENDBRANCH  14  15
ENDBRANCH   9  14
ENDBRANCH   6   9
ENDBRANCH   5   6
BRANCH   1  21
HETATM   21  C7  UNL     1      17.735 -13.035  22.316  1.00  0.00     0.240 C 
HETATM   22  N2  UNL     1      18.886 -13.453  23.076  1.00  0.00    -0.355 N 
ATOM     23  H2  UNL     1      19.742 -13.719  22.588  1.00  0.00     0.162 HD
HETATM   24  O1  UNL     1      16.714 -12.721  22.966  1.00  0.00    -0.271 OA
BRANCH  22  25
HETATM   25  C6  UNL     1      18.845 -13.500  24.508  1.00  0.00     0.164 C 
BRANCH  25  26
HETATM   26  C5  UNL     1      19.965 -14.212  25.157  1.00  0.00    -0.003 A 
HETATM   27  C4  UNL     1      20.987 -13.473  25.762  1.00  0.00     0.044 A 
HETATM   28  C3  UNL     1      22.020 -14.127  26.360  1.00  0.00     0.041 A 
HETATM   29 CL1  UNL     1      20.877 -11.727  25.715  1.00  0.00    -0.084 Cl
HETATM   30  C2  UNL     1      22.074 -15.508  26.378  1.00  0.00     0.091 A 
HETATM   31  N1  UNL     1      21.090 -16.207  25.796  1.00  0.00    -0.370 N 
HETATM   32  C1  UNL     1      21.159 -17.668  25.821  1.00  0.00     0.154 C 
HETATM   33  C21 UNL     1      20.055 -15.571  25.197  1.00  0.00     0.100 A 
ENDBRANCH  25  26
ENDBRANCH  22  25
ENDBRANCH   1  21
TORSDOF 9
ENDMDL
