MODEL 10
REMARK VINA RESULT: -7.783793922      2.776      8.204
REMARK  9 active torsions:
REMARK  status: ('A' for Active; 'I' for Inactive)
REMARK    1  A    between atoms: C5_7  and  C6_8 
REMARK    2  A    between atoms: C6_8  and  N2_9 
REMARK       I    between atoms: N2_9  and  C7_11 
REMARK    3  A    between atoms: C7_11  and  C8_13 
REMARK    4  A    between atoms: N3_17  and  C12_18 
REMARK    5  A    between atoms: C12_18  and  O2_19 
REMARK    6  A    between atoms: C12_18  and  C13_21 
REMARK    7  A    between atoms: C13_21  and  N4_22 
REMARK    8  A    between atoms: C13_21  and  C14_26 
REMARK    9  A    between atoms: C14_26  and  C15_27 
ROOT
HETATM    1  C8  UNL     1      16.558 -12.376  21.920  1.00  0.00     0.178 C 
HETATM    2  C9  UNL     1      16.102 -13.847  21.899  1.00  0.00     0.037 C 
HETATM    3  C10 UNL     1      16.150 -14.189  20.452  1.00  0.00     0.022 C 
HETATM    4  C11 UNL     1      16.393 -12.910  19.696  1.00  0.00     0.126 C 
HETATM    5  N3  UNL     1      16.043 -11.896  20.694  1.00  0.00    -0.350 N 
ENDROOT
BRANCH   5   6
HETATM    6  C12 UNL     1      15.341 -10.736  20.391  1.00  0.00     0.145 C 
BRANCH   6   7
HETATM    7  O2  UNL     1      16.069  -9.635  20.353  1.00  0.00    -0.348 OA
ATOM      8  H2  UNL     1      15.639  -8.856  20.683  1.00  0.00     0.219 HD
ENDBRANCH   6   7
BRANCH   6   9
HETATM    9  C13 UNL     1      13.945 -10.467  20.100  1.00  0.00     0.261 C 
BRANCH   9  10
HETATM   10  N4  UNL     1      13.565 -10.168  18.764  1.00  0.00    -0.067 N 
ATOM     11  H43 UNL     1      12.576  -9.920  18.751  1.00  0.00     0.275 HD
ATOM     12  H42 UNL     1      13.996  -9.284  18.489  1.00  0.00     0.275 HD
ATOM     13  H41 UNL     1      13.740 -10.860  18.035  1.00  0.00     0.275 HD
ENDBRANCH   9  10
BRANCH   9  14
HETATM   14  C14 UNL     1      13.514  -9.297  20.997  1.00  0.00     0.079 C 
BRANCH  14  15
HETATM   15  C15 UNL     1      12.609  -9.710  22.094  1.00  0.00    -0.056 A 
HETATM   16  C16 UNL     1      12.105 -11.004  22.095  1.00  0.00     0.007 A 
HETATM   17  C17 UNL     1      11.255 -11.370  23.114  1.00  0.00     0.001 A 
HETATM   18  C18 UNL     1      10.887 -10.507  24.125  1.00  0.00     0.000 A 
HETATM   19  C19 UNL     1      11.392  -9.227  24.114  1.00  0.00     0.001 A 
HETATM   20  C20 UNL     1      12.243  -8.839  23.108  1.00  0.00     0.007 A 
ENDBRANCH  14  15
ENDBRANCH   9  14
ENDBRANCH   6   9
ENDBRANCH   5   6
BRANCH   1  21
HETATM   21  C7  UNL     1      18.050 -12.315  21.964  1.00  0.00     0.240 C 
HETATM   22  N2  UNL     1      18.789 -13.210  22.819  1.00  0.00    -0.355 N 
ATOM     23  H2  UNL     1      18.286 -13.886  23.394  1.00  0.00     0.162 HD
HETATM   24  O1  UNL     1      18.718 -11.507  21.282  1.00  0.00    -0.271 OA
BRANCH  22  25
HETATM   25  C6  UNL     1      20.220 -13.162  22.872  1.00  0.00     0.164 C 
BRANCH  25  26
HETATM   26  C5  UNL     1      20.854 -14.062  23.858  1.00  0.00    -0.003 A 
HETATM   27  C4  UNL     1      21.144 -13.579  25.139  1.00  0.00     0.044 A 
HETATM   28  C3  UNL     1      21.728 -14.406  26.047  1.00  0.00     0.041 A 
HETATM   29 CL1  UNL     1      20.733 -11.917  25.502  1.00  0.00    -0.084 Cl
HETATM   30  C2  UNL     1      22.038 -15.714  25.725  1.00  0.00     0.091 A 
HETATM   31  N1  UNL     1      21.756 -16.167  24.496  1.00  0.00    -0.370 N 
HETATM   32  C1  UNL     1      22.090 -17.553  24.167  1.00  0.00     0.154 C 
HETATM   33  C21 UNL     1      21.175 -15.357  23.580  1.00  0.00     0.100 A 
ENDBRANCH  25  26
ENDBRANCH  22  25
ENDBRANCH   1  21
TORSDOF 9
ENDMDL
