MODEL 15
REMARK VINA RESULT: -7.590412810      2.930      5.065
REMARK  9 active torsions:
REMARK  status: ('A' for Active; 'I' for Inactive)
REMARK    1  A    between atoms: C5_7  and  C6_8 
REMARK    2  A    between atoms: C6_8  and  N2_9 
REMARK       I    between atoms: N2_9  and  C7_11 
REMARK    3  A    between atoms: C7_11  and  C8_13 
REMARK    4  A    between atoms: N3_17  and  C12_18 
REMARK    5  A    between atoms: C12_18  and  O2_19 
REMARK    6  A    between atoms: C12_18  and  C13_21 
REMARK    7  A    between atoms: C13_21  and  N4_22 
REMARK    8  A    between atoms: C13_21  and  C14_26 
REMARK    9  A    between atoms: C14_26  and  C15_27 
ROOT
HETATM    1  C8  UNL     1      13.797 -11.137  21.692  1.00  0.00     0.178 C 
HETATM    2  C9  UNL     1      13.090  -9.842  22.135  1.00  0.00     0.037 C 
HETATM    3  C10 UNL     1      12.794  -9.167  20.843  1.00  0.00     0.022 C 
HETATM    4  C11 UNL     1      13.506  -9.934  19.761  1.00  0.00     0.126 C 
HETATM    5  N3  UNL     1      14.481 -10.710  20.531  1.00  0.00    -0.350 N 
ENDROOT
BRANCH   5   6
HETATM    6  C12 UNL     1      15.791 -10.920  20.115  1.00  0.00     0.145 C 
BRANCH   6   7
HETATM    7  O2  UNL     1      16.624  -9.927  20.370  1.00  0.00    -0.348 OA
ATOM      8  H2  UNL     1      16.722  -9.294  19.668  1.00  0.00     0.219 HD
ENDBRANCH   6   7
BRANCH   6   9
HETATM    9  C13 UNL     1      16.454 -12.021  19.443  1.00  0.00     0.261 C 
BRANCH   9  10
HETATM   10  N4  UNL     1      15.827 -12.617  18.316  1.00  0.00    -0.067 N 
ATOM     11  H43 UNL     1      16.042 -13.614  18.310  1.00  0.00     0.275 HD
ATOM     12  H42 UNL     1      14.819 -12.632  18.470  1.00  0.00     0.275 HD
ATOM     13  H41 UNL     1      16.013 -12.235  17.389  1.00  0.00     0.275 HD
ENDBRANCH   9  10
BRANCH   9  14
HETATM   14  C14 UNL     1      16.693 -13.114  20.496  1.00  0.00     0.079 C 
BRANCH  14  15
HETATM   15  C15 UNL     1      18.000 -12.984  21.179  1.00  0.00    -0.056 A 
HETATM   16  C16 UNL     1      18.071 -13.232  22.543  1.00  0.00     0.007 A 
HETATM   17  C17 UNL     1      19.290 -13.095  23.167  1.00  0.00     0.001 A 
HETATM   18  C18 UNL     1      20.435 -12.723  22.495  1.00  0.00     0.000 A 
HETATM   19  C19 UNL     1      20.354 -12.479  21.143  1.00  0.00     0.001 A 
HETATM   20  C20 UNL     1      19.148 -12.610  20.497  1.00  0.00     0.007 A 
ENDBRANCH  14  15
ENDBRANCH   9  14
ENDBRANCH   6   9
ENDBRANCH   5   6
BRANCH   1  21
HETATM   21  C7  UNL     1      12.776 -12.185  21.388  1.00  0.00     0.240 C 
HETATM   22  N2  UNL     1      13.053 -13.208  20.411  1.00  0.00    -0.355 N 
ATOM     23  H2  UNL     1      13.951 -13.212  19.928  1.00  0.00     0.162 HD
HETATM   24  O1  UNL     1      11.659 -12.229  21.948  1.00  0.00    -0.271 OA
BRANCH  22  25
HETATM   25  C6  UNL     1      12.083 -14.219  20.109  1.00  0.00     0.164 C 
BRANCH  25  26
HETATM   26  C5  UNL     1      12.363 -15.559  20.664  1.00  0.00    -0.003 A 
HETATM   27  C4  UNL     1      11.553 -16.638  20.291  1.00  0.00     0.044 A 
HETATM   28  C3  UNL     1      11.810 -17.873  20.802  1.00  0.00     0.041 A 
HETATM   29 CL1  UNL     1      10.242 -16.333  19.174  1.00  0.00    -0.084 Cl
HETATM   30  C2  UNL     1      12.856 -18.078  21.682  1.00  0.00     0.091 A 
HETATM   31  N1  UNL     1      13.625 -17.038  22.033  1.00  0.00    -0.370 N 
HETATM   32  C1  UNL     1      14.728 -17.267  22.966  1.00  0.00     0.154 C 
HETATM   33  C21 UNL     1      13.383 -15.803  21.534  1.00  0.00     0.100 A 
ENDBRANCH  25  26
ENDBRANCH  22  25
ENDBRANCH   1  21
TORSDOF 9
ENDMDL
