MODEL 7
REMARK VINA RESULT: -9.521937553      4.169      7.295
REMARK  2 active torsions:
REMARK  status: ('A' for Active; 'I' for Inactive)
REMARK    1  A    between atoms: C4_6  and  O3_7 
REMARK    2  A    between atoms: C11_16  and  O5_17 
ROOT
HETATM    1  O1  UNL     1       0.566 -17.806  13.568  1.00  0.00    -0.259 OA
HETATM    2  C1  UNL     1       1.729 -17.622  13.081  1.00  0.00     0.302 A 
HETATM    3  O2  UNL     1       2.343 -16.472  13.205  1.00  0.00    -0.274 OA
HETATM    4  C2  UNL     1       3.535 -16.235  12.723  1.00  0.00     0.095 A 
HETATM    5  C3  UNL     1       4.147 -14.999  12.879  1.00  0.00     0.074 A 
HETATM    6  C4  UNL     1       5.403 -14.770  12.364  1.00  0.00     0.068 A 
HETATM    7  C5  UNL     1       6.031 -15.795  11.693  1.00  0.00     0.037 A 
HETATM    8  C6  UNL     1       5.461 -17.031  11.517  1.00  0.00     0.020 A 
HETATM    9  C7  UNL     1       4.198 -17.238  12.045  1.00  0.00     0.033 A 
HETATM   10  C8  UNL     1       3.604 -18.484  11.875  1.00  0.00     0.106 A 
HETATM   11  O4  UNL     1       3.989 -19.593  11.290  1.00  0.00    -0.308 OA
HETATM   12  C9  UNL     1       3.034 -20.484  11.424  1.00  0.00     0.090 A 
HETATM   13  C10 UNL     1       2.966 -21.791  10.983  1.00  0.00     0.074 A 
HETATM   14  C11 UNL     1       1.842 -22.554  11.241  1.00  0.00     0.068 A 
HETATM   15  C12 UNL     1       0.787 -22.005  11.943  1.00  0.00     0.037 A 
HETATM   16  C13 UNL     1       0.828 -20.699  12.396  1.00  0.00     0.018 A 
HETATM   17  C14 UNL     1       1.965 -19.957  12.123  1.00  0.00     0.017 A 
HETATM   18  C15 UNL     1       2.347 -18.651  12.414  1.00  0.00     0.087 A 
ENDROOT
BRANCH   6  19
HETATM   19  O3  UNL     1       6.051 -13.536  12.502  1.00  0.00    -0.361 OA
ATOM     20  H3  UNL     1       6.112 -13.088  13.337  1.00  0.00     0.217 HD
ENDBRANCH   6  19
BRANCH  14  21
HETATM   21  O5  UNL     1       1.800 -23.865  10.787  1.00  0.00    -0.361 OA
ATOM     22  H5  UNL     1       2.615 -24.340  10.671  1.00  0.00     0.217 HD
ENDBRANCH  14  21
TORSDOF 2
ENDMDL
