MODEL 3
REMARK VINA RESULT: -10.185535453      2.033      3.784
REMARK  2 active torsions:
REMARK  status: ('A' for Active; 'I' for Inactive)
REMARK    1  A    between atoms: C4_6  and  O3_7 
REMARK    2  A    between atoms: C11_16  and  O5_17 
ROOT
HETATM    1  O1  UNL     1      -0.413 -17.976  12.831  1.00  0.00    -0.259 OA
HETATM    2  C1  UNL     1       0.316 -18.949  12.447  1.00  0.00     0.302 A 
HETATM    3  O2  UNL     1       1.606 -18.806  12.278  1.00  0.00    -0.274 OA
HETATM    4  C2  UNL     1       2.394 -19.772  11.886  1.00  0.00     0.095 A 
HETATM    5  C3  UNL     1       3.758 -19.573  11.720  1.00  0.00     0.074 A 
HETATM    6  C4  UNL     1       4.571 -20.604  11.307  1.00  0.00     0.068 A 
HETATM    7  C5  UNL     1       3.997 -21.832  11.064  1.00  0.00     0.037 A 
HETATM    8  C6  UNL     1       2.654 -22.070  11.216  1.00  0.00     0.020 A 
HETATM    9  C7  UNL     1       1.857 -21.017  11.633  1.00  0.00     0.033 A 
HETATM   10  C8  UNL     1       0.493 -21.240  11.791  1.00  0.00     0.106 A 
HETATM   11  O4  UNL     1      -0.273 -22.292  11.627  1.00  0.00    -0.308 OA
HETATM   12  C9  UNL     1      -1.507 -21.955  11.919  1.00  0.00     0.090 A 
HETATM   13  C10 UNL     1      -2.666 -22.706  11.900  1.00  0.00     0.074 A 
HETATM   14  C11 UNL     1      -3.873 -22.132  12.252  1.00  0.00     0.068 A 
HETATM   15  C12 UNL     1      -3.918 -20.803  12.623  1.00  0.00     0.037 A 
HETATM   16  C13 UNL     1      -2.773 -20.026  12.651  1.00  0.00     0.018 A 
HETATM   17  C14 UNL     1      -1.578 -20.627  12.293  1.00  0.00     0.017 A 
HETATM   18  C15 UNL     1      -0.267 -20.169  12.207  1.00  0.00     0.087 A 
ENDROOT
BRANCH   6  19
HETATM   19  O3  UNL     1       5.950 -20.441  11.129  1.00  0.00    -0.361 OA
ATOM     20  H3  UNL     1       6.541 -21.181  11.047  1.00  0.00     0.217 HD
ENDBRANCH   6  19
BRANCH  14  21
HETATM   21  O5  UNL     1      -5.023 -22.911  12.224  1.00  0.00    -0.361 OA
ATOM     22  H5  UNL     1      -5.425 -23.110  11.387  1.00  0.00     0.217 HD
ENDBRANCH  14  21
TORSDOF 2
ENDMDL
