MODEL 5
REMARK VINA RESULT: -9.957015143      1.015      6.654
REMARK  2 active torsions:
REMARK  status: ('A' for Active; 'I' for Inactive)
REMARK    1  A    between atoms: C4_6  and  O3_7 
REMARK    2  A    between atoms: C11_16  and  O5_17 
ROOT
HETATM    1  O1  UNL     1      -0.164 -17.800  12.690  1.00  0.00    -0.259 OA
HETATM    2  C1  UNL     1      -1.147 -18.611  12.660  1.00  0.00     0.302 A 
HETATM    3  O2  UNL     1      -2.365 -18.213  12.931  1.00  0.00    -0.274 OA
HETATM    4  C2  UNL     1      -3.404 -19.006  12.913  1.00  0.00     0.095 A 
HETATM    5  C3  UNL     1      -4.677 -18.538  13.208  1.00  0.00     0.074 A 
HETATM    6  C4  UNL     1      -5.759 -19.391  13.183  1.00  0.00     0.068 A 
HETATM    7  C5  UNL     1      -5.543 -20.712  12.860  1.00  0.00     0.037 A 
HETATM    8  C6  UNL     1      -4.300 -21.214  12.563  1.00  0.00     0.020 A 
HETATM    9  C7  UNL     1      -3.229 -20.337  12.594  1.00  0.00     0.033 A 
HETATM   10  C8  UNL     1      -1.962 -20.828  12.296  1.00  0.00     0.106 A 
HETATM   11  O4  UNL     1      -1.510 -22.015  11.967  1.00  0.00    -0.308 OA
HETATM   12  C9  UNL     1      -0.212 -21.929  11.790  1.00  0.00     0.090 A 
HETATM   13  C10 UNL     1       0.706 -22.899  11.439  1.00  0.00     0.074 A 
HETATM   14  C11 UNL     1       2.044 -22.575  11.309  1.00  0.00     0.068 A 
HETATM   15  C12 UNL     1       2.460 -21.277  11.531  1.00  0.00     0.037 A 
HETATM   16  C13 UNL     1       1.562 -20.286  11.884  1.00  0.00     0.018 A 
HETATM   17  C14 UNL     1       0.228 -20.638  12.008  1.00  0.00     0.017 A 
HETATM   18  C15 UNL     1      -0.921 -19.927  12.337  1.00  0.00     0.087 A 
ENDROOT
BRANCH   6  19
HETATM   19  O3  UNL     1      -7.057 -18.955  13.475  1.00  0.00    -0.361 OA
ATOM     20  H3  UNL     1      -7.718 -19.538  13.829  1.00  0.00     0.217 HD
ENDBRANCH   6  19
BRANCH  14  21
HETATM   21  O5  UNL     1       2.946 -23.569  10.954  1.00  0.00    -0.361 OA
ATOM     22  H5  UNL     1       3.739 -23.328  10.489  1.00  0.00     0.217 HD
ENDBRANCH  14  21
TORSDOF 2
ENDMDL
