MODEL 1
REMARK VINA RESULT: -10.745744063      0.000      0.000
REMARK  2 active torsions:
REMARK  status: ('A' for Active; 'I' for Inactive)
REMARK    1  A    between atoms: C4_6  and  O3_7 
REMARK    2  A    between atoms: C11_16  and  O5_17 
ROOT
HETATM    1  O1  UNL     1      -3.540 -23.308  11.764  1.00  0.00    -0.259 OA
HETATM    2  C1  UNL     1      -2.527 -22.539  11.855  1.00  0.00     0.302 A 
HETATM    3  O2  UNL     1      -1.322 -22.965  11.574  1.00  0.00    -0.274 OA
HETATM    4  C2  UNL     1      -0.255 -22.215  11.652  1.00  0.00     0.095 A 
HETATM    5  C3  UNL     1       1.004 -22.712  11.344  1.00  0.00     0.074 A 
HETATM    6  C4  UNL     1       2.116 -21.904  11.433  1.00  0.00     0.068 A 
HETATM    7  C5  UNL     1       1.945 -20.598  11.834  1.00  0.00     0.037 A 
HETATM    8  C6  UNL     1       0.719 -20.069  12.148  1.00  0.00     0.020 A 
HETATM    9  C7  UNL     1      -0.385 -20.900  12.050  1.00  0.00     0.033 A 
HETATM   10  C8  UNL     1      -1.636 -20.381  12.365  1.00  0.00     0.106 A 
HETATM   11  O4  UNL     1      -2.048 -19.200  12.761  1.00  0.00    -0.308 OA
HETATM   12  C9  UNL     1      -3.351 -19.247  12.916  1.00  0.00     0.090 A 
HETATM   13  C10 UNL     1      -4.237 -18.266  13.316  1.00  0.00     0.074 A 
HETATM   14  C11 UNL     1      -5.587 -18.547  13.412  1.00  0.00     0.068 A 
HETATM   15  C12 UNL     1      -6.048 -19.811  13.104  1.00  0.00     0.037 A 
HETATM   16  C13 UNL     1      -5.183 -20.813  12.701  1.00  0.00     0.018 A 
HETATM   17  C14 UNL     1      -3.836 -20.505  12.616  1.00  0.00     0.017 A 
HETATM   18  C15 UNL     1      -2.709 -21.237  12.255  1.00  0.00     0.087 A 
ENDROOT
BRANCH   6  19
HETATM   19  O3  UNL     1       3.401 -22.370  11.131  1.00  0.00    -0.361 OA
ATOM     20  H3  UNL     1       3.986 -22.709  11.798  1.00  0.00     0.217 HD
ENDBRANCH   6  19
BRANCH  14  21
HETATM   21  O5  UNL     1      -6.457 -17.542  13.816  1.00  0.00    -0.361 OA
ATOM     22  H5  UNL     1      -7.377 -17.748  13.932  1.00  0.00     0.217 HD
ENDBRANCH  14  21
TORSDOF 2
ENDMDL
