MODEL 4
REMARK VINA RESULT: -10.183680947      1.835      6.828
REMARK  2 active torsions:
REMARK  status: ('A' for Active; 'I' for Inactive)
REMARK    1  A    between atoms: C4_6  and  O3_7 
REMARK    2  A    between atoms: C11_16  and  O5_17 
ROOT
HETATM    1  O1  UNL     1       0.421 -17.791  12.677  1.00  0.00    -0.259 OA
HETATM    2  C1  UNL     1      -0.157 -18.912  12.491  1.00  0.00     0.302 A 
HETATM    3  O2  UNL     1      -1.449 -19.045  12.656  1.00  0.00    -0.274 OA
HETATM    4  C2  UNL     1      -2.087 -20.172  12.476  1.00  0.00     0.095 A 
HETATM    5  C3  UNL     1      -3.459 -20.265  12.664  1.00  0.00     0.074 A 
HETATM    6  C4  UNL     1      -4.112 -21.462  12.470  1.00  0.00     0.068 A 
HETATM    7  C5  UNL     1      -3.370 -22.557  12.087  1.00  0.00     0.037 A 
HETATM    8  C6  UNL     1      -2.012 -22.506  11.891  1.00  0.00     0.020 A 
HETATM    9  C7  UNL     1      -1.378 -21.292  12.092  1.00  0.00     0.033 A 
HETATM   10  C8  UNL     1      -0.003 -21.222  11.899  1.00  0.00     0.106 A 
HETATM   11  O4  UNL     1       0.904 -22.102  11.544  1.00  0.00    -0.308 OA
HETATM   12  C9  UNL     1       2.071 -21.503  11.512  1.00  0.00     0.090 A 
HETATM   13  C10 UNL     1       3.320 -22.002  11.198  1.00  0.00     0.074 A 
HETATM   14  C11 UNL     1       4.427 -21.174  11.232  1.00  0.00     0.068 A 
HETATM   15  C12 UNL     1       4.280 -19.846  11.580  1.00  0.00     0.037 A 
HETATM   16  C13 UNL     1       3.041 -19.320  11.899  1.00  0.00     0.018 A 
HETATM   17  C14 UNL     1       1.949 -20.171  11.858  1.00  0.00     0.017 A 
HETATM   18  C15 UNL     1       0.592 -19.997  12.108  1.00  0.00     0.087 A 
ENDROOT
BRANCH   6  19
HETATM   19  O3  UNL     1      -5.494 -21.594  12.650  1.00  0.00    -0.361 OA
ATOM     20  H3  UNL     1      -5.897 -21.569  13.510  1.00  0.00     0.217 HD
ENDBRANCH   6  19
BRANCH  14  21
HETATM   21  O5  UNL     1       5.671 -21.701  10.911  1.00  0.00    -0.361 OA
ATOM     22  H5  UNL     1       5.775 -22.645  10.867  1.00  0.00     0.217 HD
ENDBRANCH  14  21
TORSDOF 2
ENDMDL
