MODEL 6
REMARK VINA RESULT: -8.454862869      2.880      7.622
REMARK  6 active torsions:
REMARK  status: ('A' for Active; 'I' for Inactive)
REMARK    1  A    between atoms: C6_8  and  C7_9 
REMARK    2  A    between atoms: C7_9  and  N2_10 
REMARK       I    between atoms: N2_10  and  C8_12 
REMARK    3  A    between atoms: C8_12  and  C9_14 
REMARK       I    between atoms: N3_18  and  C13_19 
REMARK    4  A    between atoms: C13_19  and  C14_21 
REMARK    5  A    between atoms: C14_21  and  C15_23 
REMARK    6  A    between atoms: C15_23  and  C16_24 
ROOT
HETATM    1  C9  UNL     1      14.502 -15.274  20.572  1.00  0.00     0.179 C 
HETATM    2  C10 UNL     1      14.857 -15.943  19.213  1.00  0.00     0.037 C 
HETATM    3  C11 UNL     1      14.319 -14.989  18.187  1.00  0.00     0.022 C 
HETATM    4  C12 UNL     1      13.550 -13.980  19.007  1.00  0.00     0.127 C 
HETATM    5  N3  UNL     1      14.429 -13.914  20.199  1.00  0.00    -0.334 N 
HETATM    6  C13 UNL     1      14.978 -12.693  20.711  1.00  0.00     0.268 C 
HETATM    7  O2  UNL     1      15.657 -12.692  21.741  1.00  0.00    -0.266 OA
ENDROOT
BRANCH   1   8
HETATM    8  C8  UNL     1      15.490 -15.743  21.505  1.00  0.00     0.240 C 
HETATM    9  N2  UNL     1      16.860 -15.445  21.233  1.00  0.00    -0.354 N 
ATOM     10  H2  UNL     1      17.091 -14.914  20.393  1.00  0.00     0.162 HD
HETATM   11  O1  UNL     1      15.240 -16.387  22.527  1.00  0.00    -0.271 OA
BRANCH   9  12
HETATM   12  C7  UNL     1      17.928 -15.870  22.107  1.00  0.00     0.179 C 
BRANCH  12  13
HETATM   13  C6  UNL     1      18.960 -14.833  22.242  1.00  0.00     0.030 A 
HETATM   14  N1  UNL     1      19.761 -14.722  23.332  1.00  0.00    -0.363 N 
HETATM   15  C1  UNL     1      19.539 -15.707  24.385  1.00  0.00     0.155 C 
HETATM   16  C2  UNL     1      20.702 -13.769  23.445  1.00  0.00     0.092 A 
HETATM   17  C3  UNL     1      20.912 -12.837  22.450  1.00  0.00     0.041 A 
HETATM   18  C4  UNL     1      20.119 -12.914  21.324  1.00  0.00     0.037 A 
HETATM   19 CL1  UNL     1      20.385 -11.734  20.066  1.00  0.00    -0.084 Cl
HETATM   20  C5  UNL     1      19.152 -13.905  21.224  1.00  0.00     0.050 A 
ENDBRANCH  12  13
ENDBRANCH   9  12
ENDBRANCH   1   8
BRANCH   6  21
HETATM   21  C14 UNL     1      14.741 -11.410  20.014  1.00  0.00     0.115 C 
HETATM   22  N4  UNL     1      15.878 -10.508  20.048  1.00  0.00    -0.097 NA
BRANCH  21  23
HETATM   23  C15 UNL     1      13.416 -10.800  20.133  1.00  0.00     0.043 C 
BRANCH  23  24
HETATM   24  C16 UNL     1      12.837 -10.458  21.402  1.00  0.00    -0.034 A 
HETATM   25  C17 UNL     1      13.077  -9.232  21.985  1.00  0.00     0.011 A 
HETATM   26  C18 UNL     1      12.501  -8.897  23.220  1.00  0.00     0.001 A 
HETATM   27  C19 UNL     1      11.684  -9.785  23.880  1.00  0.00     0.000 A 
HETATM   28  C20 UNL     1      11.438 -11.011  23.308  1.00  0.00     0.001 A 
HETATM   29  C21 UNL     1      12.019 -11.318  22.087  1.00  0.00     0.011 A 
ENDBRANCH  23  24
ENDBRANCH  21  23
ENDBRANCH   6  21
TORSDOF 6
ENDMDL
