MODEL 11
REMARK VINA RESULT: -8.177437222      2.563      7.715
REMARK  6 active torsions:
REMARK  status: ('A' for Active; 'I' for Inactive)
REMARK    1  A    between atoms: C6_8  and  C7_9 
REMARK    2  A    between atoms: C7_9  and  N2_10 
REMARK       I    between atoms: N2_10  and  C8_12 
REMARK    3  A    between atoms: C8_12  and  C9_14 
REMARK       I    between atoms: N3_18  and  C13_19 
REMARK    4  A    between atoms: C13_19  and  C14_21 
REMARK    5  A    between atoms: C14_21  and  C15_23 
REMARK    6  A    between atoms: C15_23  and  C16_24 
ROOT
HETATM    1  C9  UNL     1      15.462 -13.974  21.698  1.00  0.00     0.179 C 
HETATM    2  C10 UNL     1      14.827 -15.135  20.881  1.00  0.00     0.037 C 
HETATM    3  C11 UNL     1      13.437 -14.652  20.584  1.00  0.00     0.022 C 
HETATM    4  C12 UNL     1      13.321 -13.381  21.393  1.00  0.00     0.127 C 
HETATM    5  N3  UNL     1      14.704 -12.871  21.245  1.00  0.00    -0.334 N 
HETATM    6  C13 UNL     1      15.017 -11.562  20.753  1.00  0.00     0.268 C 
HETATM    7  O2  UNL     1      16.186 -11.170  20.705  1.00  0.00    -0.266 OA
ENDROOT
BRANCH   1   8
HETATM    8  C8  UNL     1      16.877 -14.060  21.458  1.00  0.00     0.240 C 
HETATM    9  N2  UNL     1      17.738 -13.225  22.234  1.00  0.00    -0.354 N 
ATOM     10  H2  UNL     1      17.325 -12.600  22.927  1.00  0.00     0.162 HD
HETATM   11  O1  UNL     1      17.404 -14.804  20.628  1.00  0.00    -0.271 OA
BRANCH   9  12
HETATM   12  C7  UNL     1      19.173 -13.236  22.071  1.00  0.00     0.179 C 
BRANCH  12  13
HETATM   13  C6  UNL     1      19.851 -13.705  23.287  1.00  0.00     0.030 A 
HETATM   14  N1  UNL     1      20.391 -14.944  23.403  1.00  0.00    -0.363 N 
HETATM   15  C1  UNL     1      20.258 -15.805  22.233  1.00  0.00     0.155 C 
HETATM   16  C2  UNL     1      21.009 -15.363  24.521  1.00  0.00     0.092 A 
HETATM   17  C3  UNL     1      21.133 -14.549  25.627  1.00  0.00     0.041 A 
HETATM   18  C4  UNL     1      20.599 -13.280  25.551  1.00  0.00     0.037 A 
HETATM   19 CL1  UNL     1      20.757 -12.251  26.953  1.00  0.00    -0.084 Cl
HETATM   20  C5  UNL     1      19.963 -12.864  24.389  1.00  0.00     0.050 A 
ENDBRANCH  12  13
ENDBRANCH   9  12
ENDBRANCH   1   8
BRANCH   6  21
HETATM   21  C14 UNL     1      13.944 -10.654  20.292  1.00  0.00     0.115 C 
HETATM   22  N4  UNL     1      13.824 -10.578  18.847  1.00  0.00    -0.097 NA
BRANCH  21  23
HETATM   23  C15 UNL     1      13.731  -9.411  21.035  1.00  0.00     0.043 C 
BRANCH  23  24
HETATM   24  C16 UNL     1      12.918  -9.350  22.217  1.00  0.00    -0.034 A 
HETATM   25  C17 UNL     1      12.098 -10.401  22.570  1.00  0.00     0.011 A 
HETATM   26  C18 UNL     1      11.313 -10.342  23.731  1.00  0.00     0.001 A 
HETATM   27  C19 UNL     1      11.340  -9.234  24.545  1.00  0.00     0.000 A 
HETATM   28  C20 UNL     1      12.154  -8.180  24.203  1.00  0.00     0.001 A 
HETATM   29  C21 UNL     1      12.921  -8.261  23.050  1.00  0.00     0.011 A 
ENDBRANCH  23  24
ENDBRANCH  21  23
ENDBRANCH   6  21
TORSDOF 6
ENDMDL
