MODEL 1
REMARK VINA RESULT: -10.055993636      0.000      0.000
REMARK  6 active torsions:
REMARK  status: ('A' for Active; 'I' for Inactive)
REMARK    1  A    between atoms: C6_8  and  C7_9 
REMARK    2  A    between atoms: C7_9  and  N2_10 
REMARK       I    between atoms: N2_10  and  C8_12 
REMARK    3  A    between atoms: C8_12  and  C9_14 
REMARK       I    between atoms: N3_18  and  C13_19 
REMARK    4  A    between atoms: C13_19  and  C14_21 
REMARK    5  A    between atoms: C14_21  and  C15_23 
REMARK    6  A    between atoms: C15_23  and  C16_24 
ROOT
HETATM    1  C9  UNL     1      17.998 -11.420  20.933  1.00  0.00     0.179 C 
HETATM    2  C10 UNL     1      18.988 -11.636  19.754  1.00  0.00     0.037 C 
HETATM    3  C11 UNL     1      20.003 -12.596  20.302  1.00  0.00     0.022 C 
HETATM    4  C12 UNL     1      19.641 -12.700  21.765  1.00  0.00     0.127 C 
HETATM    5  N3  UNL     1      18.165 -12.622  21.656  1.00  0.00    -0.334 N 
HETATM    6  C13 UNL     1      17.277 -13.604  22.207  1.00  0.00     0.268 C 
HETATM    7  O2  UNL     1      16.054 -13.457  22.136  1.00  0.00    -0.266 OA
ENDROOT
BRANCH   1   8
HETATM    8  C8  UNL     1      16.739 -11.080  20.326  1.00  0.00     0.240 C 
HETATM    9  N2  UNL     1      15.641 -10.781  21.189  1.00  0.00    -0.354 N 
ATOM     10  H2  UNL     1      15.783 -10.819  22.198  1.00  0.00     0.162 HD
HETATM   11  O1  UNL     1      16.539 -11.027  19.111  1.00  0.00    -0.271 OA
BRANCH   9  12
HETATM   12  C7  UNL     1      14.337 -10.428  20.680  1.00  0.00     0.179 C 
BRANCH  12  13
HETATM   13  C6  UNL     1      13.360 -10.263  21.765  1.00  0.00     0.030 A 
HETATM   14  N1  UNL     1      12.522 -11.252  22.164  1.00  0.00    -0.363 N 
HETATM   15  C1  UNL     1      12.643 -12.515  21.443  1.00  0.00     0.155 C 
HETATM   16  C2  UNL     1      11.632 -11.091  23.159  1.00  0.00     0.092 A 
HETATM   17  C3  UNL     1      11.518  -9.898  23.840  1.00  0.00     0.041 A 
HETATM   18  C4  UNL     1      12.352  -8.865  23.467  1.00  0.00     0.037 A 
HETATM   19 CL1  UNL     1      12.205  -7.354  24.330  1.00  0.00    -0.084 Cl
HETATM   20  C5  UNL     1      13.265  -9.049  22.437  1.00  0.00     0.050 A 
ENDBRANCH  12  13
ENDBRANCH   9  12
ENDBRANCH   1   8
BRANCH   6  21
HETATM   21  C14 UNL     1      17.811 -14.812  22.873  1.00  0.00     0.115 C 
HETATM   22  N4  UNL     1      17.350 -16.055  22.281  1.00  0.00    -0.097 NA
BRANCH  21  23
HETATM   23  C15 UNL     1      17.947 -14.789  24.330  1.00  0.00     0.043 C 
BRANCH  23  24
HETATM   24  C16 UNL     1      19.176 -14.435  24.983  1.00  0.00    -0.034 A 
HETATM   25  C17 UNL     1      20.179 -15.365  25.162  1.00  0.00     0.011 A 
HETATM   26  C18 UNL     1      21.383 -15.013  25.790  1.00  0.00     0.001 A 
HETATM   27  C19 UNL     1      21.592 -13.732  26.244  1.00  0.00     0.000 A 
HETATM   28  C20 UNL     1      20.599 -12.797  26.071  1.00  0.00     0.001 A 
HETATM   29  C21 UNL     1      19.418 -13.169  25.447  1.00  0.00     0.011 A 
ENDBRANCH  23  24
ENDBRANCH  21  23
ENDBRANCH   6  21
TORSDOF 6
ENDMDL
