MODEL 14
REMARK VINA RESULT: -8.120470399      1.560      2.099
REMARK  6 active torsions:
REMARK  status: ('A' for Active; 'I' for Inactive)
REMARK    1  A    between atoms: C6_8  and  C7_9 
REMARK    2  A    between atoms: C7_9  and  N2_10 
REMARK       I    between atoms: N2_10  and  C8_12 
REMARK    3  A    between atoms: C8_12  and  C9_14 
REMARK       I    between atoms: N3_18  and  C13_19 
REMARK    4  A    between atoms: C13_19  and  C14_21 
REMARK    5  A    between atoms: C14_21  and  C15_23 
REMARK    6  A    between atoms: C15_23  and  C16_24 
ROOT
HETATM    1  C9  UNL     1      15.919 -13.192  19.713  1.00  0.00     0.179 C 
HETATM    2  C10 UNL     1      14.634 -14.045  19.516  1.00  0.00     0.037 C 
HETATM    3  C11 UNL     1      14.985 -15.376  20.116  1.00  0.00     0.022 C 
HETATM    4  C12 UNL     1      16.460 -15.250  20.422  1.00  0.00     0.127 C 
HETATM    5  N3  UNL     1      16.502 -13.826  20.832  1.00  0.00    -0.334 N 
HETATM    6  C13 UNL     1      17.038 -13.379  22.084  1.00  0.00     0.268 C 
HETATM    7  O2  UNL     1      17.100 -12.175  22.348  1.00  0.00    -0.266 OA
ENDROOT
BRANCH   1   8
HETATM    8  C8  UNL     1      15.472 -11.826  19.774  1.00  0.00     0.240 C 
HETATM    9  N2  UNL     1      14.279 -11.547  20.508  1.00  0.00    -0.354 N 
ATOM     10  H2  UNL     1      13.788 -12.317  20.961  1.00  0.00     0.162 HD
HETATM   11  O1  UNL     1      16.045 -10.876  19.237  1.00  0.00    -0.271 OA
BRANCH   9  12
HETATM   12  C7  UNL     1      13.747 -10.210  20.631  1.00  0.00     0.179 C 
BRANCH  12  13
HETATM   13  C6  UNL     1      12.943 -10.059  21.851  1.00  0.00     0.030 A 
HETATM   14  N1  UNL     1      12.141 -11.040  22.337  1.00  0.00    -0.363 N 
HETATM   15  C1  UNL     1      12.119 -12.279  21.567  1.00  0.00     0.155 C 
HETATM   16  C2  UNL     1      11.410 -10.891  23.455  1.00  0.00     0.092 A 
HETATM   17  C3  UNL     1      11.431  -9.720  24.182  1.00  0.00     0.041 A 
HETATM   18  C4  UNL     1      12.233  -8.696  23.724  1.00  0.00     0.037 A 
HETATM   19 CL1  UNL     1      12.259  -7.214  24.646  1.00  0.00    -0.084 Cl
HETATM   20  C5  UNL     1      12.982  -8.867  22.567  1.00  0.00     0.050 A 
ENDBRANCH  12  13
ENDBRANCH   9  12
ENDBRANCH   1   8
BRANCH   6  21
HETATM   21  C14 UNL     1      17.528 -14.352  23.084  1.00  0.00     0.115 C 
HETATM   22  N4  UNL     1      16.752 -15.578  23.134  1.00  0.00    -0.097 NA
BRANCH  21  23
HETATM   23  C15 UNL     1      18.019 -13.835  24.362  1.00  0.00     0.043 C 
BRANCH  23  24
HETATM   24  C16 UNL     1      19.383 -13.426  24.554  1.00  0.00    -0.034 A 
HETATM   25  C17 UNL     1      20.271 -13.397  23.500  1.00  0.00     0.011 A 
HETATM   26  C18 UNL     1      21.599 -12.987  23.689  1.00  0.00     0.001 A 
HETATM   27  C19 UNL     1      22.049 -12.606  24.932  1.00  0.00     0.000 A 
HETATM   28  C20 UNL     1      21.172 -12.633  25.991  1.00  0.00     0.001 A 
HETATM   29  C21 UNL     1      19.864 -13.041  25.778  1.00  0.00     0.011 A 
ENDBRANCH  23  24
ENDBRANCH  21  23
ENDBRANCH   6  21
TORSDOF 6
ENDMDL
