MODEL 12
REMARK VINA RESULT: -8.169544399      2.548      7.242
REMARK  6 active torsions:
REMARK  status: ('A' for Active; 'I' for Inactive)
REMARK    1  A    between atoms: C6_8  and  C7_9 
REMARK    2  A    between atoms: C7_9  and  N2_10 
REMARK       I    between atoms: N2_10  and  C8_12 
REMARK    3  A    between atoms: C8_12  and  C9_14 
REMARK       I    between atoms: N3_18  and  C13_19 
REMARK    4  A    between atoms: C13_19  and  C14_21 
REMARK    5  A    between atoms: C14_21  and  C15_23 
REMARK    6  A    between atoms: C15_23  and  C16_24 
ROOT
HETATM    1  C9  UNL     1      16.849 -12.594  19.529  1.00  0.00     0.179 C 
HETATM    2  C10 UNL     1      16.611 -11.554  18.397  1.00  0.00     0.037 C 
HETATM    3  C11 UNL     1      15.143 -11.662  18.107  1.00  0.00     0.022 C 
HETATM    4  C12 UNL     1      14.704 -12.852  18.927  1.00  0.00     0.127 C 
HETATM    5  N3  UNL     1      15.566 -12.659  20.117  1.00  0.00    -0.334 N 
HETATM    6  C13 UNL     1      15.062 -12.582  21.457  1.00  0.00     0.268 C 
HETATM    7  O2  UNL     1      15.833 -12.478  22.414  1.00  0.00    -0.266 OA
ENDROOT
BRANCH   1   8
HETATM    8  C8  UNL     1      17.987 -12.114  20.265  1.00  0.00     0.240 C 
HETATM    9  N2  UNL     1      18.934 -13.076  20.731  1.00  0.00    -0.354 N 
ATOM     10  H2  UNL     1      18.774 -14.063  20.530  1.00  0.00     0.162 HD
HETATM   11  O1  UNL     1      18.206 -10.928  20.523  1.00  0.00    -0.271 OA
BRANCH   9  12
HETATM   12  C7  UNL     1      20.111 -12.697  21.479  1.00  0.00     0.179 C 
BRANCH  12  13
HETATM   13  C6  UNL     1      20.182 -13.402  22.766  1.00  0.00     0.030 A 
HETATM   14  N1  UNL     1      20.136 -14.754  22.874  1.00  0.00    -0.363 N 
HETATM   15  C1  UNL     1      20.008 -15.486  21.619  1.00  0.00     0.155 C 
HETATM   16  C2  UNL     1      20.203 -15.389  24.057  1.00  0.00     0.092 A 
HETATM   17  C3  UNL     1      20.323 -14.697  25.244  1.00  0.00     0.041 A 
HETATM   18  C4  UNL     1      20.375 -13.320  25.179  1.00  0.00     0.037 A 
HETATM   19 CL1  UNL     1      20.527 -12.445  26.682  1.00  0.00    -0.084 Cl
HETATM   20  C5  UNL     1      20.304 -12.681  23.949  1.00  0.00     0.050 A 
ENDBRANCH  12  13
ENDBRANCH   9  12
ENDBRANCH   1   8
BRANCH   6  21
HETATM   21  C14 UNL     1      13.606 -12.627  21.717  1.00  0.00     0.115 C 
HETATM   22  N4  UNL     1      12.999 -13.910  21.413  1.00  0.00    -0.097 NA
BRANCH  21  23
HETATM   23  C15 UNL     1      12.816 -11.436  21.403  1.00  0.00     0.043 C 
BRANCH  23  24
HETATM   24  C16 UNL     1      12.463 -10.461  22.397  1.00  0.00    -0.034 A 
HETATM   25  C17 UNL     1      11.580 -10.769  23.410  1.00  0.00     0.011 A 
HETATM   26  C18 UNL     1      11.246  -9.818  24.387  1.00  0.00     0.001 A 
HETATM   27  C19 UNL     1      11.790  -8.556  24.356  1.00  0.00     0.000 A 
HETATM   28  C20 UNL     1      12.672  -8.238  23.350  1.00  0.00     0.001 A 
HETATM   29  C21 UNL     1      12.987  -9.195  22.397  1.00  0.00     0.011 A 
ENDBRANCH  23  24
ENDBRANCH  21  23
ENDBRANCH   6  21
TORSDOF 6
ENDMDL
