MODEL 2
REMARK VINA RESULT: -9.811448486      0.156      1.001
REMARK  9 active torsions:
REMARK  status: ('A' for Active; 'I' for Inactive)
REMARK    1  A    between atoms: N1_2  and  C2_3 
REMARK    2  A    between atoms: N1_2  and  C9_20 
REMARK    3  A    between atoms: C2_3  and  C3_4 
REMARK    4  A    between atoms: C12_23  and  C13_24 
REMARK       I    between atoms: C13_24  and  N8_26 
REMARK    5  A    between atoms: N8_26  and  C14_28 
REMARK    6  A    between atoms: C14_28  and  C15_29 
REMARK    7  A    between atoms: C14_28  and  C18_34 
REMARK    8  A    between atoms: C15_29  and  C16_30 
REMARK    9  A    between atoms: C16_30  and  C17_31 
ROOT
HETATM    1  C9  UNL     1      37.773 -41.642  -9.366  1.00  0.00     0.030 A 
HETATM    2  C10 UNL     1      37.513 -42.991  -9.330  1.00  0.00     0.030 A 
HETATM    3  C11 UNL     1      38.536 -43.907  -9.119  1.00  0.00     0.019 A 
HETATM    4  C12 UNL     1      39.845 -43.528  -8.936  1.00  0.00     0.032 A 
HETATM    5  C19 UNL     1      40.099 -42.174  -8.973  1.00  0.00     0.019 A 
HETATM    6  C20 UNL     1      39.108 -41.240  -9.180  1.00  0.00     0.030 A 
ENDROOT
BRANCH   1   7
HETATM    7  N1  UNL     1      36.762 -40.675  -9.581  1.00  0.00    -0.380 N 
HETATM    8  C1  UNL     1      37.099 -39.272  -9.302  1.00  0.00     0.150 C 
BRANCH   7   9
HETATM    9  C2  UNL     1      35.444 -40.931 -10.042  1.00  0.00     0.181 C 
BRANCH   9  10
HETATM   10  C3  UNL     1      34.418 -40.916  -8.956  1.00  0.00     0.043 A 
HETATM   11  C4  UNL     1      34.823 -40.820  -7.642  1.00  0.00     0.116 A 
HETATM   12  N2  UNL     1      33.917 -40.802  -6.629  1.00  0.00    -0.348 N 
HETATM   13  C5  UNL     1      32.597 -40.875  -6.874  1.00  0.00     0.138 A 
ATOM     14  H2  UNL     1      34.244 -40.730  -5.666  1.00  0.00     0.167 HD
HETATM   15  N3  UNL     1      31.667 -40.860  -5.884  1.00  0.00    -0.315 N 
HETATM   16  C8  UNL     1      32.185 -40.970  -8.178  1.00  0.00     0.119 A 
HETATM   17  C6  UNL     1      30.346 -40.934  -6.128  1.00  0.00     0.195 A 
ATOM     18  H3  UNL     1      31.983 -40.789  -4.916  1.00  0.00     0.170 HD
HETATM   19  N4  UNL     1      29.414 -40.914  -5.043  1.00  0.00    -0.063 NA
HETATM   20  N5  UNL     1      29.956 -41.026  -7.405  1.00  0.00    -0.317 N 
HETATM   21  C7  UNL     1      30.830 -41.046  -8.429  1.00  0.00     0.149 A 
ATOM     22  H5  UNL     1      28.958 -41.084  -7.610  1.00  0.00     0.169 HD
HETATM   23  N6  UNL     1      30.423 -41.139  -9.785  1.00  0.00    -0.080 NA
HETATM   24  N7  UNL     1      33.095 -40.988  -9.185  1.00  0.00    -0.351 N 
ATOM     25  H7  UNL     1      32.765 -41.058 -10.147  1.00  0.00     0.166 HD
ENDBRANCH   9  10
ENDBRANCH   7   9
ENDBRANCH   1   7
BRANCH   4  26
HETATM   26  C13 UNL     1      40.923 -44.477  -8.694  1.00  0.00     0.252 C 
HETATM   27  O1  UNL     1      42.138 -44.178  -8.962  1.00  0.00    -0.268 OA
HETATM   28  N8  UNL     1      40.734 -45.774  -8.158  1.00  0.00    -0.342 N 
ATOM     29  H8  UNL     1      39.785 -46.062  -7.919  1.00  0.00     0.163 HD
BRANCH  28  30
HETATM   30  C14 UNL     1      41.806 -46.708  -7.932  1.00  0.00     0.186 C 
BRANCH  30  31
HETATM   31  C15 UNL     1      42.365 -46.676  -6.543  1.00  0.00     0.046 C 
BRANCH  31  32
HETATM   32  C16 UNL     1      41.527 -45.993  -5.521  1.00  0.00     0.116 C 
BRANCH  32  33
HETATM   33  C17 UNL     1      42.097 -44.703  -5.069  1.00  0.00     0.172 C 
HETATM   34  O2  UNL     1      43.112 -44.222  -5.631  1.00  0.00    -0.648 OA
HETATM   35  O3  UNL     1      41.559 -43.949  -4.013  1.00  0.00    -0.648 OA
ENDBRANCH  32  33
ENDBRANCH  31  32
ENDBRANCH  30  31
BRANCH  30  36
HETATM   36  C18 UNL     1      41.479 -48.073  -8.384  1.00  0.00     0.196 C 
HETATM   37  O4  UNL     1      40.747 -48.308  -9.389  1.00  0.00    -0.646 OA
HETATM   38  O5  UNL     1      41.971 -49.184  -7.715  1.00  0.00    -0.646 OA
ENDBRANCH  30  36
ENDBRANCH  28  30
ENDBRANCH   4  26
TORSDOF 9
ENDMDL
