MODEL 1
REMARK VINA RESULT: -9.840344470      0.000      0.000
REMARK  9 active torsions:
REMARK  status: ('A' for Active; 'I' for Inactive)
REMARK    1  A    between atoms: N1_2  and  C2_3 
REMARK    2  A    between atoms: N1_2  and  C9_20 
REMARK    3  A    between atoms: C2_3  and  C3_4 
REMARK    4  A    between atoms: C12_23  and  C13_24 
REMARK       I    between atoms: C13_24  and  N8_26 
REMARK    5  A    between atoms: N8_26  and  C14_28 
REMARK    6  A    between atoms: C14_28  and  C15_29 
REMARK    7  A    between atoms: C14_28  and  C18_34 
REMARK    8  A    between atoms: C15_29  and  C16_30 
REMARK    9  A    between atoms: C16_30  and  C17_31 
ROOT
HETATM    1  C9  UNL     1      37.835 -41.591  -9.371  1.00  0.00     0.030 A 
HETATM    2  C10 UNL     1      39.149 -41.228  -9.192  1.00  0.00     0.030 A 
HETATM    3  C11 UNL     1      40.128 -42.189  -8.969  1.00  0.00     0.019 A 
HETATM    4  C12 UNL     1      39.849 -43.534  -8.915  1.00  0.00     0.032 A 
HETATM    5  C19 UNL     1      38.530 -43.891  -9.095  1.00  0.00     0.019 A 
HETATM    6  C20 UNL     1      37.536 -42.964  -9.318  1.00  0.00     0.030 A 
ENDROOT
BRANCH   1   7
HETATM    7  N1  UNL     1      36.806 -40.646  -9.598  1.00  0.00    -0.380 N 
HETATM    8  C1  UNL     1      37.116 -39.234  -9.332  1.00  0.00     0.150 C 
BRANCH   7   9
HETATM    9  C2  UNL     1      35.494 -40.932 -10.058  1.00  0.00     0.181 C 
BRANCH   9  10
HETATM   10  C3  UNL     1      34.463 -40.910  -8.977  1.00  0.00     0.043 A 
HETATM   11  C4  UNL     1      34.862 -40.792  -7.662  1.00  0.00     0.116 A 
HETATM   12  N2  UNL     1      33.951 -40.766  -6.653  1.00  0.00    -0.348 N 
HETATM   13  C5  UNL     1      32.633 -40.855  -6.903  1.00  0.00     0.138 A 
ATOM     14  H2  UNL     1      34.274 -40.678  -5.690  1.00  0.00     0.167 HD
HETATM   15  N3  UNL     1      31.699 -40.834  -5.916  1.00  0.00    -0.315 N 
HETATM   16  C8  UNL     1      32.227 -40.973  -8.207  1.00  0.00     0.119 A 
HETATM   17  C6  UNL     1      30.380 -40.924  -6.165  1.00  0.00     0.195 A 
ATOM     18  H3  UNL     1      32.010 -40.745  -4.949  1.00  0.00     0.170 HD
HETATM   19  N4  UNL     1      29.443 -40.896  -5.085  1.00  0.00    -0.063 NA
HETATM   20  N5  UNL     1      29.996 -41.038  -7.442  1.00  0.00    -0.317 N 
HETATM   21  C7  UNL     1      30.875 -41.064  -8.462  1.00  0.00     0.149 A 
ATOM     22  H5  UNL     1      28.999 -41.108  -7.650  1.00  0.00     0.169 HD
HETATM   23  N6  UNL     1      30.474 -41.182  -9.819  1.00  0.00    -0.080 NA
HETATM   24  N7  UNL     1      33.142 -40.997  -9.210  1.00  0.00    -0.351 N 
ATOM     25  H7  UNL     1      32.816 -41.085 -10.172  1.00  0.00     0.166 HD
ENDBRANCH   9  10
ENDBRANCH   7   9
ENDBRANCH   1   7
BRANCH   4  26
HETATM   26  C13 UNL     1      40.869 -44.551  -8.702  1.00  0.00     0.252 C 
HETATM   27  O1  UNL     1      42.072 -44.373  -9.100  1.00  0.00    -0.268 OA
HETATM   28  N8  UNL     1      40.634 -45.788  -8.055  1.00  0.00    -0.342 N 
ATOM     29  H8  UNL     1      39.693 -45.979  -7.709  1.00  0.00     0.163 HD
BRANCH  28  30
HETATM   30  C14 UNL     1      41.647 -46.791  -7.858  1.00  0.00     0.186 C 
BRANCH  30  31
HETATM   31  C15 UNL     1      42.324 -46.725  -6.523  1.00  0.00     0.046 C 
BRANCH  31  32
HETATM   32  C16 UNL     1      41.553 -46.065  -5.435  1.00  0.00     0.116 C 
BRANCH  32  33
HETATM   33  C17 UNL     1      42.098 -44.741  -5.057  1.00  0.00     0.172 C 
HETATM   34  O2  UNL     1      43.070 -44.248  -5.682  1.00  0.00    -0.648 OA
HETATM   35  O3  UNL     1      41.581 -43.966  -4.006  1.00  0.00    -0.648 OA
ENDBRANCH  32  33
ENDBRANCH  31  32
ENDBRANCH  30  31
BRANCH  30  36
HETATM   36  C18 UNL     1      41.181 -48.149  -8.194  1.00  0.00     0.196 C 
HETATM   37  O4  UNL     1      41.436 -49.160  -7.478  1.00  0.00    -0.646 OA
HETATM   38  O5  UNL     1      40.423 -48.383  -9.332  1.00  0.00    -0.646 OA
ENDBRANCH  30  36
ENDBRANCH  28  30
ENDBRANCH   4  26
TORSDOF 9
ENDMDL
