MODEL 14
REMARK VINA RESULT: -8.318580235      4.653     10.389
REMARK  9 active torsions:
REMARK  status: ('A' for Active; 'I' for Inactive)
REMARK    1  A    between atoms: N1_2  and  C2_3 
REMARK    2  A    between atoms: N1_2  and  C9_20 
REMARK    3  A    between atoms: C2_3  and  C3_4 
REMARK    4  A    between atoms: C12_23  and  C13_24 
REMARK       I    between atoms: C13_24  and  N8_26 
REMARK    5  A    between atoms: N8_26  and  C14_28 
REMARK    6  A    between atoms: C14_28  and  C15_29 
REMARK    7  A    between atoms: C14_28  and  C18_34 
REMARK    8  A    between atoms: C15_29  and  C16_30 
REMARK    9  A    between atoms: C16_30  and  C17_31 
ROOT
HETATM    1  C9  UNL     1      40.276 -43.603  -9.290  1.00  0.00     0.030 A 
HETATM    2  C10 UNL     1      39.004 -44.125  -9.265  1.00  0.00     0.030 A 
HETATM    3  C11 UNL     1      37.903 -43.305  -9.052  1.00  0.00     0.019 A 
HETATM    4  C12 UNL     1      38.015 -41.949  -8.856  1.00  0.00     0.032 A 
HETATM    5  C19 UNL     1      39.292 -41.432  -8.882  1.00  0.00     0.019 A 
HETATM    6  C20 UNL     1      40.405 -42.217  -9.092  1.00  0.00     0.030 A 
ENDROOT
BRANCH   1   7
HETATM    7  N1  UNL     1      41.425 -44.402  -9.501  1.00  0.00    -0.380 N 
HETATM    8  C1  UNL     1      42.488 -43.844 -10.349  1.00  0.00     0.150 C 
BRANCH   7   9
HETATM    9  C2  UNL     1      41.651 -45.699  -8.972  1.00  0.00     0.181 C 
BRANCH   9  10
HETATM   10  C3  UNL     1      42.600 -45.718  -7.818  1.00  0.00     0.043 A 
HETATM   11  C4  UNL     1      43.841 -46.299  -7.970  1.00  0.00     0.116 A 
HETATM   12  N2  UNL     1      44.730 -46.332  -6.943  1.00  0.00    -0.348 N 
HETATM   13  C5  UNL     1      44.430 -45.800  -5.745  1.00  0.00     0.138 A 
ATOM     14  H2  UNL     1      45.641 -46.768  -7.083  1.00  0.00     0.167 HD
HETATM   15  N3  UNL     1      45.297 -45.818  -4.699  1.00  0.00    -0.315 N 
HETATM   16  C8  UNL     1      43.199 -45.219  -5.585  1.00  0.00     0.119 A 
HETATM   17  C6  UNL     1      44.998 -45.286  -3.500  1.00  0.00     0.195 A 
ATOM     18  H3  UNL     1      46.211 -46.252  -4.828  1.00  0.00     0.170 HD
HETATM   19  N4  UNL     1      45.951 -45.336  -2.435  1.00  0.00    -0.063 NA
HETATM   20  N5  UNL     1      43.793 -44.722  -3.356  1.00  0.00    -0.317 N 
HETATM   21  C7  UNL     1      42.892 -44.673  -4.356  1.00  0.00     0.149 A 
ATOM     22  H5  UNL     1      43.547 -44.313  -2.453  1.00  0.00     0.169 HD
HETATM   23  N6  UNL     1      41.614 -44.073  -4.209  1.00  0.00    -0.080 NA
HETATM   24  N7  UNL     1      42.316 -45.190  -6.615  1.00  0.00    -0.351 N 
ATOM     25  H7  UNL     1      41.406 -44.752  -6.472  1.00  0.00     0.166 HD
ENDBRANCH   9  10
ENDBRANCH   7   9
ENDBRANCH   1   7
BRANCH   4  26
HETATM   26  C13 UNL     1      36.867 -41.076  -8.651  1.00  0.00     0.252 C 
HETATM   27  O1  UNL     1      36.862 -39.877  -9.097  1.00  0.00    -0.268 OA
HETATM   28  N8  UNL     1      35.690 -41.460  -7.965  1.00  0.00    -0.342 N 
ATOM     29  H8  UNL     1      35.637 -42.410  -7.596  1.00  0.00     0.163 HD
BRANCH  28  30
HETATM   30  C14 UNL     1      34.565 -40.586  -7.759  1.00  0.00     0.186 C 
BRANCH  30  31
HETATM   31  C15 UNL     1      33.582 -40.575  -8.890  1.00  0.00     0.046 C 
BRANCH  31  32
HETATM   32  C16 UNL     1      32.561 -41.658  -8.874  1.00  0.00     0.116 C 
BRANCH  32  33
HETATM   33  C17 UNL     1      31.173 -41.149  -8.963  1.00  0.00     0.172 C 
HETATM   34  O2  UNL     1      30.539 -40.838  -7.924  1.00  0.00    -0.648 OA
HETATM   35  O3  UNL     1      30.490 -40.981 -10.179  1.00  0.00    -0.648 OA
ENDBRANCH  32  33
ENDBRANCH  31  32
ENDBRANCH  30  31
BRANCH  30  36
HETATM   36  C18 UNL     1      33.922 -40.781  -6.447  1.00  0.00     0.196 C 
HETATM   37  O4  UNL     1      33.282 -39.866  -5.852  1.00  0.00    -0.646 OA
HETATM   38  O5  UNL     1      33.991 -42.001  -5.792  1.00  0.00    -0.646 OA
ENDBRANCH  30  36
ENDBRANCH  28  30
ENDBRANCH   4  26
TORSDOF 9
ENDMDL
