MODEL 8
REMARK VINA RESULT: -8.834862728      4.436      9.267
REMARK  9 active torsions:
REMARK  status: ('A' for Active; 'I' for Inactive)
REMARK    1  A    between atoms: N1_2  and  C2_3 
REMARK    2  A    between atoms: N1_2  and  C9_20 
REMARK    3  A    between atoms: C2_3  and  C3_4 
REMARK    4  A    between atoms: C12_23  and  C13_24 
REMARK       I    between atoms: C13_24  and  N8_26 
REMARK    5  A    between atoms: N8_26  and  C14_28 
REMARK    6  A    between atoms: C14_28  and  C15_29 
REMARK    7  A    between atoms: C14_28  and  C18_34 
REMARK    8  A    between atoms: C15_29  and  C16_30 
REMARK    9  A    between atoms: C16_30  and  C17_31 
ROOT
HETATM    1  C9  UNL     1      35.976 -40.694  -8.456  1.00  0.00     0.030 A 
HETATM    2  C10 UNL     1      34.971 -39.772  -8.283  1.00  0.00     0.030 A 
HETATM    3  C11 UNL     1      33.957 -39.989  -7.357  1.00  0.00     0.019 A 
HETATM    4  C12 UNL     1      33.899 -41.116  -6.572  1.00  0.00     0.032 A 
HETATM    5  C19 UNL     1      34.909 -42.036  -6.749  1.00  0.00     0.019 A 
HETATM    6  C20 UNL     1      35.928 -41.851  -7.658  1.00  0.00     0.030 A 
ENDROOT
BRANCH   1   7
HETATM    7  N1  UNL     1      37.025 -40.515  -9.388  1.00  0.00    -0.380 N 
HETATM    8  C1  UNL     1      36.651 -40.174 -10.768  1.00  0.00     0.150 C 
BRANCH   7   9
HETATM    9  C2  UNL     1      38.413 -40.634  -9.119  1.00  0.00     0.181 C 
BRANCH   9  10
HETATM   10  C3  UNL     1      38.914 -42.041  -9.172  1.00  0.00     0.043 A 
HETATM   11  C4  UNL     1      38.010 -43.083  -9.171  1.00  0.00     0.116 A 
HETATM   12  N2  UNL     1      38.429 -44.375  -9.221  1.00  0.00    -0.348 N 
HETATM   13  C5  UNL     1      39.737 -44.680  -9.271  1.00  0.00     0.138 A 
ATOM     14  H2  UNL     1      37.739 -45.125  -9.219  1.00  0.00     0.167 HD
HETATM   15  N3  UNL     1      40.187 -45.961  -9.320  1.00  0.00    -0.315 N 
HETATM   16  C8  UNL     1      40.643 -43.652  -9.272  1.00  0.00     0.119 A 
HETATM   17  C6  UNL     1      41.496 -46.269  -9.369  1.00  0.00     0.195 A 
ATOM     18  H3  UNL     1      39.506 -46.720  -9.319  1.00  0.00     0.170 HD
HETATM   19  N4  UNL     1      41.911 -47.637  -9.419  1.00  0.00    -0.063 NA
HETATM   20  N5  UNL     1      42.371 -45.256  -9.370  1.00  0.00    -0.317 N 
HETATM   21  C7  UNL     1      41.985 -43.966  -9.323  1.00  0.00     0.149 A 
ATOM     22  H5  UNL     1      43.368 -45.469  -9.407  1.00  0.00     0.169 HD
HETATM   23  N6  UNL     1      42.908 -42.888  -9.327  1.00  0.00    -0.080 NA
HETATM   24  N7  UNL     1      40.217 -42.363  -9.223  1.00  0.00    -0.351 N 
ATOM     25  H7  UNL     1      40.910 -41.615  -9.225  1.00  0.00     0.166 HD
ENDBRANCH   9  10
ENDBRANCH   7   9
ENDBRANCH   1   7
BRANCH   4  26
HETATM   26  C13 UNL     1      32.854 -41.345  -5.585  1.00  0.00     0.252 C 
HETATM   27  O1  UNL     1      31.630 -41.076  -5.845  1.00  0.00    -0.268 OA
HETATM   28  N8  UNL     1      33.085 -41.871  -4.291  1.00  0.00    -0.342 N 
ATOM     29  H8  UNL     1      34.042 -42.112  -4.033  1.00  0.00     0.163 HD
BRANCH  28  30
HETATM   30  C14 UNL     1      32.045 -42.085  -3.319  1.00  0.00     0.186 C 
BRANCH  30  31
HETATM   31  C15 UNL     1      31.846 -43.520  -2.939  1.00  0.00     0.046 C 
BRANCH  31  32
HETATM   32  C16 UNL     1      33.076 -44.269  -2.562  1.00  0.00     0.116 C 
BRANCH  32  33
HETATM   33  C17 UNL     1      33.483 -45.268  -3.577  1.00  0.00     0.172 C 
HETATM   34  O2  UNL     1      33.374 -46.497  -3.342  1.00  0.00    -0.648 OA
HETATM   35  O3  UNL     1      34.001 -44.921  -4.835  1.00  0.00    -0.648 OA
ENDBRANCH  32  33
ENDBRANCH  31  32
ENDBRANCH  30  31
BRANCH  30  36
HETATM   36  C18 UNL     1      32.165 -41.197  -2.148  1.00  0.00     0.196 C 
HETATM   37  O4  UNL     1      33.219 -40.548  -1.882  1.00  0.00    -0.646 OA
HETATM   38  O5  UNL     1      31.106 -41.026  -1.268  1.00  0.00    -0.646 OA
ENDBRANCH  30  36
ENDBRANCH  28  30
ENDBRANCH   4  26
TORSDOF 9
ENDMDL
