MODEL 13
REMARK VINA RESULT: -8.455251284      4.425      9.927
REMARK  9 active torsions:
REMARK  status: ('A' for Active; 'I' for Inactive)
REMARK    1  A    between atoms: N1_2  and  C2_3 
REMARK    2  A    between atoms: N1_2  and  C9_20 
REMARK    3  A    between atoms: C2_3  and  C3_4 
REMARK    4  A    between atoms: C12_23  and  C13_24 
REMARK       I    between atoms: C13_24  and  N8_26 
REMARK    5  A    between atoms: N8_26  and  C14_28 
REMARK    6  A    between atoms: C14_28  and  C15_29 
REMARK    7  A    between atoms: C14_28  and  C18_34 
REMARK    8  A    between atoms: C15_29  and  C16_30 
REMARK    9  A    between atoms: C16_30  and  C17_31 
ROOT
HETATM    1  C9  UNL     1      40.238 -43.457  -9.313  1.00  0.00     0.030 A 
HETATM    2  C10 UNL     1      40.377 -42.095  -9.186  1.00  0.00     0.030 A 
HETATM    3  C11 UNL     1      39.269 -41.284  -8.977  1.00  0.00     0.019 A 
HETATM    4  C12 UNL     1      37.991 -41.782  -8.886  1.00  0.00     0.032 A 
HETATM    5  C19 UNL     1      37.858 -43.148  -9.014  1.00  0.00     0.019 A 
HETATM    6  C20 UNL     1      38.936 -43.981  -9.222  1.00  0.00     0.030 A 
ENDROOT
BRANCH   1   7
HETATM    7  N1  UNL     1      41.339 -44.320  -9.529  1.00  0.00    -0.380 N 
HETATM    8  C1  UNL     1      42.656 -43.698  -9.724  1.00  0.00     0.150 C 
BRANCH   7   9
HETATM    9  C2  UNL     1      41.294 -45.738  -9.578  1.00  0.00     0.181 C 
BRANCH   9  10
HETATM   10  C3  UNL     1      41.593 -46.392  -8.268  1.00  0.00     0.043 A 
HETATM   11  C4  UNL     1      41.816 -47.752  -8.225  1.00  0.00     0.116 A 
HETATM   12  N2  UNL     1      42.093 -48.380  -7.052  1.00  0.00    -0.348 N 
HETATM   13  C5  UNL     1      42.157 -47.697  -5.896  1.00  0.00     0.138 A 
ATOM     14  H2  UNL     1      42.254 -49.387  -7.049  1.00  0.00     0.167 HD
HETATM   15  N3  UNL     1      42.431 -48.296  -4.708  1.00  0.00    -0.315 N 
HETATM   16  C8  UNL     1      41.937 -46.345  -5.929  1.00  0.00     0.119 A 
HETATM   17  C6  UNL     1      42.495 -47.614  -3.549  1.00  0.00     0.195 A 
ATOM     18  H3  UNL     1      42.594 -49.303  -4.693  1.00  0.00     0.170 HD
HETATM   19  N4  UNL     1      42.786 -48.300  -2.328  1.00  0.00    -0.063 NA
HETATM   20  N5  UNL     1      42.278 -46.294  -3.595  1.00  0.00    -0.317 N 
HETATM   21  C7  UNL     1      42.003 -45.645  -4.742  1.00  0.00     0.149 A 
ATOM     22  H5  UNL     1      42.322 -45.760  -2.726  1.00  0.00     0.169 HD
HETATM   23  N6  UNL     1      41.776 -44.245  -4.797  1.00  0.00    -0.080 NA
HETATM   24  N7  UNL     1      41.662 -45.724  -7.104  1.00  0.00    -0.351 N 
ATOM     25  H7  UNL     1      41.502 -44.717  -7.104  1.00  0.00     0.166 HD
ENDBRANCH   9  10
ENDBRANCH   7   9
ENDBRANCH   1   7
BRANCH   4  26
HETATM   26  C13 UNL     1      36.824 -40.945  -8.648  1.00  0.00     0.252 C 
HETATM   27  O1  UNL     1      36.801 -39.723  -9.027  1.00  0.00    -0.268 OA
HETATM   28  N8  UNL     1      35.646 -41.389  -8.000  1.00  0.00    -0.342 N 
ATOM     29  H8  UNL     1      35.607 -42.358  -7.685  1.00  0.00     0.163 HD
BRANCH  28  30
HETATM   30  C14 UNL     1      34.502 -40.549  -7.761  1.00  0.00     0.186 C 
BRANCH  30  31
HETATM   31  C15 UNL     1      33.516 -40.520  -8.889  1.00  0.00     0.046 C 
BRANCH  31  32
HETATM   32  C16 UNL     1      32.544 -41.645  -8.932  1.00  0.00     0.116 C 
BRANCH  32  33
HETATM   33  C17 UNL     1      31.133 -41.194  -8.967  1.00  0.00     0.172 C 
HETATM   34  O2  UNL     1      30.539 -41.043 -10.064  1.00  0.00    -0.648 OA
HETATM   35  O3  UNL     1      30.385 -40.913  -7.813  1.00  0.00    -0.648 OA
ENDBRANCH  32  33
ENDBRANCH  31  32
ENDBRANCH  30  31
BRANCH  30  36
HETATM   36  C18 UNL     1      33.867 -40.806  -6.456  1.00  0.00     0.196 C 
HETATM   37  O4  UNL     1      33.109 -39.970  -5.883  1.00  0.00    -0.646 OA
HETATM   38  O5  UNL     1      34.074 -42.001  -5.783  1.00  0.00    -0.646 OA
ENDBRANCH  30  36
ENDBRANCH  28  30
ENDBRANCH   4  26
TORSDOF 9
ENDMDL
