MODEL 4
REMARK VINA RESULT: -9.224156748      1.177      2.019
REMARK  9 active torsions:
REMARK  status: ('A' for Active; 'I' for Inactive)
REMARK    1  A    between atoms: N1_2  and  C2_3 
REMARK    2  A    between atoms: N1_2  and  C9_20 
REMARK    3  A    between atoms: C2_3  and  C3_4 
REMARK    4  A    between atoms: C12_23  and  C13_24 
REMARK       I    between atoms: C13_24  and  N8_26 
REMARK    5  A    between atoms: N8_26  and  C14_28 
REMARK    6  A    between atoms: C14_28  and  C15_29 
REMARK    7  A    between atoms: C14_28  and  C18_34 
REMARK    8  A    between atoms: C15_29  and  C16_30 
REMARK    9  A    between atoms: C16_30  and  C17_31 
ROOT
HETATM    1  C9  UNL     1      37.316 -41.379  -9.262  1.00  0.00     0.030 A 
HETATM    2  C10 UNL     1      38.587 -40.855  -9.246  1.00  0.00     0.030 A 
HETATM    3  C11 UNL     1      39.694 -41.680  -9.094  1.00  0.00     0.019 A 
HETATM    4  C12 UNL     1      39.590 -43.044  -8.955  1.00  0.00     0.032 A 
HETATM    5  C19 UNL     1      38.314 -43.563  -8.973  1.00  0.00     0.019 A 
HETATM    6  C20 UNL     1      37.195 -42.773  -9.121  1.00  0.00     0.030 A 
ENDROOT
BRANCH   1   7
HETATM    7  N1  UNL     1      36.161 -40.576  -9.411  1.00  0.00    -0.380 N 
HETATM    8  C1  UNL     1      36.292 -39.143  -9.113  1.00  0.00     0.150 C 
BRANCH   7   9
HETATM    9  C2  UNL     1      34.877 -41.023  -9.821  1.00  0.00     0.181 C 
BRANCH   9  10
HETATM   10  C3  UNL     1      33.877 -41.068  -8.712  1.00  0.00     0.043 A 
HETATM   11  C4  UNL     1      32.555 -40.781  -8.980  1.00  0.00     0.116 A 
HETATM   12  N2  UNL     1      31.617 -40.814  -7.996  1.00  0.00    -0.348 N 
HETATM   13  C5  UNL     1      31.947 -41.127  -6.731  1.00  0.00     0.138 A 
ATOM     14  H2  UNL     1      30.647 -40.598  -8.222  1.00  0.00     0.167 HD
HETATM   15  N3  UNL     1      31.033 -41.168  -5.727  1.00  0.00    -0.315 N 
HETATM   16  C8  UNL     1      33.259 -41.414  -6.456  1.00  0.00     0.119 A 
HETATM   17  C6  UNL     1      31.362 -41.481  -4.460  1.00  0.00     0.195 A 
ATOM     18  H3  UNL     1      30.059 -40.954  -5.941  1.00  0.00     0.170 HD
HETATM   19  N4  UNL     1      30.356 -41.507  -3.443  1.00  0.00    -0.063 NA
HETATM   20  N5  UNL     1      32.645 -41.759  -4.203  1.00  0.00    -0.317 N 
HETATM   21  C7  UNL     1      33.596 -41.735  -5.157  1.00  0.00     0.149 A 
ATOM     22  H5  UNL     1      32.914 -41.998  -3.248  1.00  0.00     0.169 HD
HETATM   23  N6  UNL     1      34.958 -42.033  -4.891  1.00  0.00    -0.080 NA
HETATM   24  N7  UNL     1      34.190 -41.379  -7.443  1.00  0.00    -0.351 N 
ATOM     25  H7  UNL     1      35.159 -41.597  -7.214  1.00  0.00     0.166 HD
ENDBRANCH   9  10
ENDBRANCH   7   9
ENDBRANCH   1   7
BRANCH   4  26
HETATM   26  C13 UNL     1      40.744 -43.921  -8.816  1.00  0.00     0.252 C 
HETATM   27  O1  UNL     1      41.932 -43.483  -9.001  1.00  0.00    -0.268 OA
HETATM   28  N8  UNL     1      40.663 -45.292  -8.473  1.00  0.00    -0.342 N 
ATOM     29  H8  UNL     1      39.739 -45.692  -8.306  1.00  0.00     0.163 HD
BRANCH  28  30
HETATM   30  C14 UNL     1      41.810 -46.153  -8.348  1.00  0.00     0.186 C 
BRANCH  30  31
HETATM   31  C15 UNL     1      42.172 -46.489  -6.934  1.00  0.00     0.046 C 
BRANCH  31  32
HETATM   32  C16 UNL     1      41.358 -45.826  -5.879  1.00  0.00     0.116 C 
BRANCH  32  33
HETATM   33  C17 UNL     1      42.045 -44.671  -5.255  1.00  0.00     0.172 C 
HETATM   34  O2  UNL     1      43.092 -44.200  -5.764  1.00  0.00    -0.648 OA
HETATM   35  O3  UNL     1      41.586 -44.041  -4.088  1.00  0.00    -0.648 OA
ENDBRANCH  32  33
ENDBRANCH  31  32
ENDBRANCH  30  31
BRANCH  30  36
HETATM   36  C18 UNL     1      41.729 -47.343  -9.214  1.00  0.00     0.196 C 
HETATM   37  O4  UNL     1      40.708 -48.090  -9.264  1.00  0.00    -0.646 OA
HETATM   38  O5  UNL     1      42.789 -47.705 -10.032  1.00  0.00    -0.646 OA
ENDBRANCH  30  36
ENDBRANCH  28  30
ENDBRANCH   4  26
TORSDOF 9
ENDMDL
