MODEL 3
REMARK VINA RESULT: -9.522859107      1.204      1.798
REMARK  9 active torsions:
REMARK  status: ('A' for Active; 'I' for Inactive)
REMARK    1  A    between atoms: N1_2  and  C2_3 
REMARK    2  A    between atoms: N1_2  and  C9_20 
REMARK    3  A    between atoms: C2_3  and  C3_4 
REMARK    4  A    between atoms: C12_23  and  C13_24 
REMARK       I    between atoms: C13_24  and  N8_26 
REMARK    5  A    between atoms: N8_26  and  C14_28 
REMARK    6  A    between atoms: C14_28  and  C15_29 
REMARK    7  A    between atoms: C14_28  and  C18_34 
REMARK    8  A    between atoms: C15_29  and  C16_30 
REMARK    9  A    between atoms: C16_30  and  C17_31 
ROOT
HETATM    1  C9  UNL     1     -21.215  11.314 -31.417  1.00  0.00     0.030 A 
HETATM    2  C10 UNL     1     -21.248  10.236 -32.269  1.00  0.00     0.030 A 
HETATM    3  C11 UNL     1     -21.782   9.020 -31.859  1.00  0.00     0.019 A 
HETATM    4  C12 UNL     1     -22.302   8.825 -30.602  1.00  0.00     0.032 A 
HETATM    5  C19 UNL     1     -22.267   9.909 -29.752  1.00  0.00     0.019 A 
HETATM    6  C20 UNL     1     -21.745  11.128 -30.127  1.00  0.00     0.030 A 
ENDROOT
BRANCH   1   7
HETATM    7  N1  UNL     1     -20.678  12.568 -31.792  1.00  0.00    -0.380 N 
HETATM    8  C1  UNL     1     -19.854  12.613 -33.008  1.00  0.00     0.150 C 
BRANCH   7   9
HETATM    9  C2  UNL     1     -20.857  13.795 -31.101  1.00  0.00     0.181 C 
BRANCH   9  10
HETATM   10  C3  UNL     1     -19.654  14.226 -30.326  1.00  0.00     0.043 A 
HETATM   11  C4  UNL     1     -18.550  13.402 -30.273  1.00  0.00     0.116 A 
HETATM   12  N2  UNL     1     -17.439  13.762 -29.580  1.00  0.00    -0.348 N 
HETATM   13  C5  UNL     1     -17.378  14.933 -28.922  1.00  0.00     0.138 A 
ATOM     14  H2  UNL     1     -16.636  13.134 -29.558  1.00  0.00     0.167 HD
HETATM   15  N3  UNL     1     -16.282  15.321 -28.219  1.00  0.00    -0.315 N 
HETATM   16  C8  UNL     1     -18.471  15.759 -28.968  1.00  0.00     0.119 A 
HETATM   17  C6  UNL     1     -16.220  16.493 -27.559  1.00  0.00     0.195 A 
ATOM     18  H3  UNL     1     -15.473  14.700 -28.191  1.00  0.00     0.170 HD
HETATM   19  N4  UNL     1     -15.039  16.847 -26.836  1.00  0.00    -0.063 NA
HETATM   20  N5  UNL     1     -17.293  17.290 -27.613  1.00  0.00    -0.317 N 
HETATM   21  C7  UNL     1     -18.408  16.961 -28.293  1.00  0.00     0.149 A 
ATOM     22  H5  UNL     1     -17.266  18.183 -27.118  1.00  0.00     0.169 HD
HETATM   23  N6  UNL     1     -19.548  17.805 -28.355  1.00  0.00    -0.080 NA
HETATM   24  N7  UNL     1     -19.578  15.393 -29.663  1.00  0.00    -0.351 N 
ATOM     25  H7  UNL     1     -20.378  16.025 -29.684  1.00  0.00     0.166 HD
ENDBRANCH   9  10
ENDBRANCH   7   9
ENDBRANCH   1   7
BRANCH   4  26
HETATM   26  C13 UNL     1     -22.883   7.563 -30.167  1.00  0.00     0.252 C 
HETATM   27  O1  UNL     1     -23.321   6.711 -31.016  1.00  0.00    -0.268 OA
HETATM   28  N8  UNL     1     -23.011   7.172 -28.813  1.00  0.00    -0.342 N 
ATOM     29  H8  UNL     1     -22.670   7.810 -28.094  1.00  0.00     0.163 HD
BRANCH  28  30
HETATM   30  C14 UNL     1     -23.597   5.925 -28.393  1.00  0.00     0.186 C 
BRANCH  30  31
HETATM   31  C15 UNL     1     -22.657   5.026 -27.650  1.00  0.00     0.046 C 
BRANCH  31  32
HETATM   32  C16 UNL     1     -22.130   3.862 -28.412  1.00  0.00     0.116 C 
BRANCH  32  33
HETATM   33  C17 UNL     1     -20.791   4.106 -28.995  1.00  0.00     0.172 C 
HETATM   34  O2  UNL     1     -20.385   5.278 -29.194  1.00  0.00    -0.648 OA
HETATM   35  O3  UNL     1     -19.907   3.076 -29.354  1.00  0.00    -0.648 OA
ENDBRANCH  32  33
ENDBRANCH  31  32
ENDBRANCH  30  31
BRANCH  30  36
HETATM   36  C18 UNL     1     -24.885   6.103 -27.699  1.00  0.00     0.196 C 
HETATM   37  O4  UNL     1     -25.138   7.103 -26.966  1.00  0.00    -0.646 OA
HETATM   38  O5  UNL     1     -25.898   5.164 -27.822  1.00  0.00    -0.646 OA
ENDBRANCH  30  36
ENDBRANCH  28  30
ENDBRANCH   4  26
TORSDOF 9
ENDMDL
