MODEL 7
REMARK VINA RESULT: -9.001506900      1.325      1.800
REMARK  9 active torsions:
REMARK  status: ('A' for Active; 'I' for Inactive)
REMARK    1  A    between atoms: N1_2  and  C2_3 
REMARK    2  A    between atoms: N1_2  and  C9_20 
REMARK    3  A    between atoms: C2_3  and  C3_4 
REMARK    4  A    between atoms: C12_23  and  C13_24 
REMARK       I    between atoms: C13_24  and  N8_26 
REMARK    5  A    between atoms: N8_26  and  C14_28 
REMARK    6  A    between atoms: C14_28  and  C15_29 
REMARK    7  A    between atoms: C14_28  and  C18_34 
REMARK    8  A    between atoms: C15_29  and  C16_30 
REMARK    9  A    between atoms: C16_30  and  C17_31 
ROOT
HETATM    1  C9  UNL     1     -21.376  11.465 -31.143  1.00  0.00     0.030 A 
HETATM    2  C10 UNL     1     -21.108  10.981 -32.402  1.00  0.00     0.030 A 
HETATM    3  C11 UNL     1     -21.412   9.668 -32.739  1.00  0.00     0.019 A 
HETATM    4  C12 UNL     1     -21.989   8.790 -31.853  1.00  0.00     0.032 A 
HETATM    5  C19 UNL     1     -22.256   9.280 -30.594  1.00  0.00     0.019 A 
HETATM    6  C20 UNL     1     -21.967  10.576 -30.227  1.00  0.00     0.030 A 
ENDROOT
BRANCH   1   7
HETATM    7  N1  UNL     1     -21.080  12.793 -30.756  1.00  0.00    -0.380 N 
HETATM    8  C1  UNL     1     -21.816  13.342 -29.608  1.00  0.00     0.150 C 
BRANCH   7   9
HETATM    9  C2  UNL     1     -20.137  13.655 -31.375  1.00  0.00     0.181 C 
BRANCH   9  10
HETATM   10  C3  UNL     1     -19.084  14.159 -30.442  1.00  0.00     0.043 A 
HETATM   11  C4  UNL     1     -17.949  13.405 -30.231  1.00  0.00     0.116 A 
HETATM   12  N2  UNL     1     -16.970  13.833 -29.391  1.00  0.00    -0.348 N 
HETATM   13  C5  UNL     1     -17.075  15.003 -28.738  1.00  0.00     0.138 A 
ATOM     14  H2  UNL     1     -16.141  13.255 -29.253  1.00  0.00     0.167 HD
HETATM   15  N3  UNL     1     -16.114  15.458 -27.892  1.00  0.00    -0.315 N 
HETATM   16  C8  UNL     1     -18.200  15.760 -28.943  1.00  0.00     0.119 A 
HETATM   17  C6  UNL     1     -16.219  16.629 -27.238  1.00  0.00     0.195 A 
ATOM     18  H3  UNL     1     -15.281  14.888 -27.747  1.00  0.00     0.170 HD
HETATM   19  N4  UNL     1     -15.175  17.055 -26.359  1.00  0.00    -0.063 NA
HETATM   20  N5  UNL     1     -17.321  17.358 -27.446  1.00  0.00    -0.317 N 
HETATM   21  C7  UNL     1     -18.307  16.961 -28.273  1.00  0.00     0.149 A 
ATOM     22  H5  UNL     1     -17.419  18.250 -26.958  1.00  0.00     0.169 HD
HETATM   23  N6  UNL     1     -19.477  17.732 -28.500  1.00  0.00    -0.080 NA
HETATM   24  N7  UNL     1     -19.174  15.327 -29.783  1.00  0.00    -0.351 N 
ATOM     25  H7  UNL     1     -20.001  15.907 -29.919  1.00  0.00     0.166 HD
ENDBRANCH   9  10
ENDBRANCH   7   9
ENDBRANCH   1   7
BRANCH   4  26
HETATM   26  C13 UNL     1     -22.331   7.418 -32.201  1.00  0.00     0.252 C 
HETATM   27  O1  UNL     1     -22.916   7.143 -33.306  1.00  0.00    -0.268 OA
HETATM   28  N8  UNL     1     -22.056   6.298 -31.379  1.00  0.00    -0.342 N 
ATOM     29  H8  UNL     1     -21.583   6.459 -30.490  1.00  0.00     0.163 HD
BRANCH  28  30
HETATM   30  C14 UNL     1     -22.408   4.946 -31.728  1.00  0.00     0.186 C 
BRANCH  30  31
HETATM   31  C15 UNL     1     -21.302   4.175 -32.383  1.00  0.00     0.046 C 
BRANCH  31  32
HETATM   32  C16 UNL     1     -19.928   4.709 -32.180  1.00  0.00     0.116 C 
BRANCH  32  33
HETATM   33  C17 UNL     1     -19.295   4.226 -30.932  1.00  0.00     0.172 C 
HETATM   34  O2  UNL     1     -18.608   5.003 -30.223  1.00  0.00    -0.648 OA
HETATM   35  O3  UNL     1     -19.415   2.907 -30.467  1.00  0.00    -0.648 OA
ENDBRANCH  32  33
ENDBRANCH  31  32
ENDBRANCH  30  31
BRANCH  30  36
HETATM   36  C18 UNL     1     -23.032   4.212 -30.613  1.00  0.00     0.196 C 
HETATM   37  O4  UNL     1     -24.064   3.492 -30.756  1.00  0.00    -0.646 OA
HETATM   38  O5  UNL     1     -22.506   4.276 -29.331  1.00  0.00    -0.646 OA
ENDBRANCH  30  36
ENDBRANCH  28  30
ENDBRANCH   4  26
TORSDOF 9
ENDMDL
