MODEL 19
REMARK VINA RESULT: -8.188687277      4.546     10.376
REMARK  9 active torsions:
REMARK  status: ('A' for Active; 'I' for Inactive)
REMARK    1  A    between atoms: N1_2  and  C2_3 
REMARK    2  A    between atoms: N1_2  and  C9_20 
REMARK    3  A    between atoms: C2_3  and  C3_4 
REMARK    4  A    between atoms: C12_23  and  C13_24 
REMARK       I    between atoms: C13_24  and  N8_26 
REMARK    5  A    between atoms: N8_26  and  C14_28 
REMARK    6  A    between atoms: C14_28  and  C15_29 
REMARK    7  A    between atoms: C14_28  and  C18_34 
REMARK    8  A    between atoms: C15_29  and  C16_30 
REMARK    9  A    between atoms: C16_30  and  C17_31 
ROOT
HETATM    1  C9  UNL     1     -22.386   9.153 -31.086  1.00  0.00     0.030 A 
HETATM    2  C10 UNL     1     -21.752   9.576 -32.230  1.00  0.00     0.030 A 
HETATM    3  C11 UNL     1     -20.958  10.717 -32.223  1.00  0.00     0.019 A 
HETATM    4  C12 UNL     1     -20.761  11.476 -31.095  1.00  0.00     0.032 A 
HETATM    5  C19 UNL     1     -21.398  11.047 -29.951  1.00  0.00     0.019 A 
HETATM    6  C20 UNL     1     -22.192   9.921 -29.924  1.00  0.00     0.030 A 
ENDROOT
BRANCH   1   7
HETATM    7  N1  UNL     1     -23.206   8.000 -31.049  1.00  0.00    -0.380 N 
HETATM    8  C1  UNL     1     -23.809   7.642 -29.757  1.00  0.00     0.150 C 
BRANCH   7   9
HETATM    9  C2  UNL     1     -23.502   7.149 -32.145  1.00  0.00     0.181 C 
BRANCH   9  10
HETATM   10  C3  UNL     1     -22.507   6.050 -32.334  1.00  0.00     0.043 A 
HETATM   11  C4  UNL     1     -22.449   5.389 -33.544  1.00  0.00     0.116 A 
HETATM   12  N2  UNL     1     -21.556   4.386 -33.752  1.00  0.00    -0.348 N 
HETATM   13  C5  UNL     1     -20.701   4.005 -32.788  1.00  0.00     0.138 A 
ATOM     14  H2  UNL     1     -21.535   3.915 -34.656  1.00  0.00     0.167 HD
HETATM   15  N3  UNL     1     -19.797   3.006 -32.966  1.00  0.00    -0.315 N 
HETATM   16  C8  UNL     1     -20.751   4.656 -31.583  1.00  0.00     0.119 A 
HETATM   17  C6  UNL     1     -18.940   2.623 -32.002  1.00  0.00     0.195 A 
ATOM     18  H3  UNL     1     -19.767   2.528 -33.867  1.00  0.00     0.170 HD
HETATM   19  N4  UNL     1     -18.011   1.563 -32.247  1.00  0.00    -0.063 NA
HETATM   20  N5  UNL     1     -18.999   3.266 -30.830  1.00  0.00    -0.317 N 
HETATM   21  C7  UNL     1     -19.872   4.264 -30.594  1.00  0.00     0.149 A 
ATOM     22  H5  UNL     1     -18.357   2.989 -30.086  1.00  0.00     0.169 HD
HETATM   23  N6  UNL     1     -19.936   4.951 -29.354  1.00  0.00    -0.080 NA
HETATM   24  N7  UNL     1     -21.645   5.657 -31.381  1.00  0.00    -0.351 N 
ATOM     25  H7  UNL     1     -21.663   6.127 -30.477  1.00  0.00     0.166 HD
ENDBRANCH   9  10
ENDBRANCH   7   9
ENDBRANCH   1   7
BRANCH   4  26
HETATM   26  C13 UNL     1     -19.915  12.661 -31.070  1.00  0.00     0.252 C 
HETATM   27  O1  UNL     1     -20.055  13.589 -31.940  1.00  0.00    -0.268 OA
HETATM   28  N8  UNL     1     -18.897  12.891 -30.114  1.00  0.00    -0.342 N 
ATOM     29  H8  UNL     1     -18.748  12.187 -29.391  1.00  0.00     0.163 HD
BRANCH  28  30
HETATM   30  C14 UNL     1     -18.060  14.063 -30.105  1.00  0.00     0.186 C 
BRANCH  30  31
HETATM   31  C15 UNL     1     -18.628  15.216 -29.336  1.00  0.00     0.046 C 
BRANCH  31  32
HETATM   32  C16 UNL     1     -17.750  15.789 -28.280  1.00  0.00     0.116 C 
BRANCH  32  33
HETATM   33  C17 UNL     1     -17.979  17.234 -28.054  1.00  0.00     0.172 C 
HETATM   34  O2  UNL     1     -17.029  17.988 -27.726  1.00  0.00    -0.648 OA
HETATM   35  O3  UNL     1     -19.236  17.845 -28.187  1.00  0.00    -0.648 OA
ENDBRANCH  32  33
ENDBRANCH  31  32
ENDBRANCH  30  31
BRANCH  30  36
HETATM   36  C18 UNL     1     -16.664  13.764 -29.738  1.00  0.00     0.196 C 
HETATM   37  O4  UNL     1     -15.692  14.503 -30.073  1.00  0.00    -0.646 OA
HETATM   38  O5  UNL     1     -16.345  12.639 -28.992  1.00  0.00    -0.646 OA
ENDBRANCH  30  36
ENDBRANCH  28  30
ENDBRANCH   4  26
TORSDOF 9
ENDMDL
