MODEL 2
REMARK VINA RESULT: -9.597924980      0.963      1.303
REMARK  9 active torsions:
REMARK  status: ('A' for Active; 'I' for Inactive)
REMARK    1  A    between atoms: N1_2  and  C2_3 
REMARK    2  A    between atoms: N1_2  and  C9_20 
REMARK    3  A    between atoms: C2_3  and  C3_4 
REMARK    4  A    between atoms: C12_23  and  C13_24 
REMARK       I    between atoms: C13_24  and  N8_26 
REMARK    5  A    between atoms: N8_26  and  C14_28 
REMARK    6  A    between atoms: C14_28  and  C15_29 
REMARK    7  A    between atoms: C14_28  and  C18_34 
REMARK    8  A    between atoms: C15_29  and  C16_30 
REMARK    9  A    between atoms: C16_30  and  C17_31 
ROOT
HETATM    1  C9  UNL     1     -21.210  11.450 -31.340  1.00  0.00     0.030 A 
HETATM    2  C10 UNL     1     -21.713  11.333 -30.065  1.00  0.00     0.030 A 
HETATM    3  C11 UNL     1     -22.297  10.147 -29.637  1.00  0.00     0.019 A 
HETATM    4  C12 UNL     1     -22.405   9.040 -30.445  1.00  0.00     0.032 A 
HETATM    5  C19 UNL     1     -21.899   9.163 -31.720  1.00  0.00     0.019 A 
HETATM    6  C20 UNL     1     -21.314  10.324 -32.176  1.00  0.00     0.030 A 
ENDROOT
BRANCH   1   7
HETATM    7  N1  UNL     1     -20.610  12.639 -31.817  1.00  0.00    -0.380 N 
HETATM    8  C1  UNL     1     -19.762  12.535 -33.012  1.00  0.00     0.150 C 
BRANCH   7   9
HETATM    9  C2  UNL     1     -20.747  13.933 -31.249  1.00  0.00     0.181 C 
BRANCH   9  10
HETATM   10  C3  UNL     1     -19.586  14.340 -30.401  1.00  0.00     0.043 A 
HETATM   11  C4  UNL     1     -18.488  13.511 -30.313  1.00  0.00     0.116 A 
HETATM   12  N2  UNL     1     -17.413  13.851 -29.553  1.00  0.00    -0.348 N 
HETATM   13  C5  UNL     1     -17.385  15.004 -28.863  1.00  0.00     0.138 A 
ATOM     14  H2  UNL     1     -16.614  13.220 -29.506  1.00  0.00     0.167 HD
HETATM   15  N3  UNL     1     -16.326  15.371 -28.095  1.00  0.00    -0.315 N 
HETATM   16  C8  UNL     1     -18.473  15.835 -28.945  1.00  0.00     0.119 A 
HETATM   17  C6  UNL     1     -16.297  16.525 -27.403  1.00  0.00     0.195 A 
ATOM     18  H3  UNL     1     -15.521  14.747 -28.040  1.00  0.00     0.170 HD
HETATM   19  N4  UNL     1     -15.155  16.857 -26.610  1.00  0.00    -0.063 NA
HETATM   20  N5  UNL     1     -17.365  17.327 -27.491  1.00  0.00    -0.317 N 
HETATM   21  C7  UNL     1     -18.443  17.018 -28.237  1.00  0.00     0.149 A 
ATOM     22  H5  UNL     1     -17.362  18.207 -26.974  1.00  0.00     0.169 HD
HETATM   23  N6  UNL     1     -19.577  17.867 -28.337  1.00  0.00    -0.080 NA
HETATM   24  N7  UNL     1     -19.543  15.490 -29.706  1.00  0.00    -0.351 N 
ATOM     25  H7  UNL     1     -20.340  16.124 -29.752  1.00  0.00     0.166 HD
ENDBRANCH   9  10
ENDBRANCH   7   9
ENDBRANCH   1   7
BRANCH   4  26
HETATM   26  C13 UNL     1     -22.997   7.785 -30.001  1.00  0.00     0.252 C 
HETATM   27  O1  UNL     1     -23.922   7.217 -30.679  1.00  0.00    -0.268 OA
HETATM   28  N8  UNL     1     -22.617   7.101 -28.822  1.00  0.00    -0.342 N 
ATOM     29  H8  UNL     1     -21.877   7.505 -28.248  1.00  0.00     0.163 HD
BRANCH  28  30
HETATM   30  C14 UNL     1     -23.215   5.865 -28.388  1.00  0.00     0.186 C 
BRANCH  30  31
HETATM   31  C15 UNL     1     -22.238   4.749 -28.182  1.00  0.00     0.046 C 
BRANCH  31  32
HETATM   32  C16 UNL     1     -21.726   4.096 -29.417  1.00  0.00     0.116 C 
BRANCH  32  33
HETATM   33  C17 UNL     1     -20.619   4.845 -30.055  1.00  0.00     0.172 C 
HETATM   34  O2  UNL     1     -19.446   4.746 -29.618  1.00  0.00    -0.648 OA
HETATM   35  O3  UNL     1     -20.798   5.692 -31.160  1.00  0.00    -0.648 OA
ENDBRANCH  32  33
ENDBRANCH  31  32
ENDBRANCH  30  31
BRANCH  30  36
HETATM   36  C18 UNL     1     -24.127   6.044 -27.243  1.00  0.00     0.196 C 
HETATM   37  O4  UNL     1     -25.165   6.766 -27.296  1.00  0.00    -0.646 OA
HETATM   38  O5  UNL     1     -23.885   5.413 -26.032  1.00  0.00    -0.646 OA
ENDBRANCH  30  36
ENDBRANCH  28  30
ENDBRANCH   4  26
TORSDOF 9
ENDMDL
