MODEL 1
REMARK VINA RESULT: -9.707208160      0.000      0.000
REMARK  9 active torsions:
REMARK  status: ('A' for Active; 'I' for Inactive)
REMARK    1  A    between atoms: N1_2  and  C2_3 
REMARK    2  A    between atoms: N1_2  and  C9_20 
REMARK    3  A    between atoms: C2_3  and  C3_4 
REMARK    4  A    between atoms: C12_23  and  C13_24 
REMARK       I    between atoms: C13_24  and  N8_26 
REMARK    5  A    between atoms: N8_26  and  C14_28 
REMARK    6  A    between atoms: C14_28  and  C15_29 
REMARK    7  A    between atoms: C14_28  and  C18_34 
REMARK    8  A    between atoms: C15_29  and  C16_30 
REMARK    9  A    between atoms: C16_30  and  C17_31 
ROOT
HETATM    1  C9  UNL     1     -21.133  11.460 -31.425  1.00  0.00     0.030 A 
HETATM    2  C10 UNL     1     -21.656  11.307 -30.162  1.00  0.00     0.030 A 
HETATM    3  C11 UNL     1     -22.151  10.078 -29.742  1.00  0.00     0.019 A 
HETATM    4  C12 UNL     1     -22.147   8.963 -30.544  1.00  0.00     0.032 A 
HETATM    5  C19 UNL     1     -21.621   9.122 -31.808  1.00  0.00     0.019 A 
HETATM    6  C20 UNL     1     -21.122  10.326 -32.256  1.00  0.00     0.030 A 
ENDROOT
BRANCH   1   7
HETATM    7  N1  UNL     1     -20.621  12.692 -31.895  1.00  0.00    -0.380 N 
HETATM    8  C1  UNL     1     -19.850  12.671 -33.146  1.00  0.00     0.150 C 
BRANCH   7   9
HETATM    9  C2  UNL     1     -20.780  13.957 -31.270  1.00  0.00     0.181 C 
BRANCH   9  10
HETATM   10  C3  UNL     1     -19.616  14.356 -30.423  1.00  0.00     0.043 A 
HETATM   11  C4  UNL     1     -18.520  13.523 -30.341  1.00  0.00     0.116 A 
HETATM   12  N2  UNL     1     -17.442  13.854 -29.581  1.00  0.00    -0.348 N 
HETATM   13  C5  UNL     1     -17.409  15.004 -28.886  1.00  0.00     0.138 A 
ATOM     14  H2  UNL     1     -16.646  13.220 -29.539  1.00  0.00     0.167 HD
HETATM   15  N3  UNL     1     -16.347  15.363 -28.117  1.00  0.00    -0.315 N 
HETATM   16  C8  UNL     1     -18.493  15.839 -28.961  1.00  0.00     0.119 A 
HETATM   17  C6  UNL     1     -16.312  16.513 -27.420  1.00  0.00     0.195 A 
ATOM     18  H3  UNL     1     -15.544  14.736 -28.068  1.00  0.00     0.170 HD
HETATM   19  N4  UNL     1     -15.167  16.837 -26.627  1.00  0.00    -0.063 NA
HETATM   20  N5  UNL     1     -17.377  17.320 -27.502  1.00  0.00    -0.317 N 
HETATM   21  C7  UNL     1     -18.458  17.018 -28.247  1.00  0.00     0.149 A 
ATOM     22  H5  UNL     1     -17.370  18.197 -26.980  1.00  0.00     0.169 HD
HETATM   23  N6  UNL     1     -19.588  17.872 -28.340  1.00  0.00    -0.080 NA
HETATM   24  N7  UNL     1     -19.566  15.502 -29.722  1.00  0.00    -0.351 N 
ATOM     25  H7  UNL     1     -20.361  16.139 -29.763  1.00  0.00     0.166 HD
ENDBRANCH   9  10
ENDBRANCH   7   9
ENDBRANCH   1   7
BRANCH   4  26
HETATM   26  C13 UNL     1     -22.644   7.666 -30.108  1.00  0.00     0.252 C 
HETATM   27  O1  UNL     1     -23.891   7.476 -29.891  1.00  0.00    -0.268 OA
HETATM   28  N8  UNL     1     -21.824   6.532 -29.893  1.00  0.00    -0.342 N 
ATOM     29  H8  UNL     1     -20.822   6.625 -30.059  1.00  0.00     0.163 HD
BRANCH  28  30
HETATM   30  C14 UNL     1     -22.325   5.256 -29.451  1.00  0.00     0.186 C 
BRANCH  30  31
HETATM   31  C15 UNL     1     -21.904   4.103 -30.310  1.00  0.00     0.046 C 
BRANCH  31  32
HETATM   32  C16 UNL     1     -20.829   4.386 -31.299  1.00  0.00     0.116 C 
BRANCH  32  33
HETATM   33  C17 UNL     1     -19.471   4.112 -30.776  1.00  0.00     0.172 C 
HETATM   34  O2  UNL     1     -18.818   5.013 -30.194  1.00  0.00    -0.648 OA
HETATM   35  O3  UNL     1     -18.838   2.864 -30.890  1.00  0.00    -0.648 OA
ENDBRANCH  32  33
ENDBRANCH  31  32
ENDBRANCH  30  31
BRANCH  30  36
HETATM   36  C18 UNL     1     -22.089   5.015 -28.016  1.00  0.00     0.196 C 
HETATM   37  O4  UNL     1     -23.028   4.874 -27.180  1.00  0.00    -0.646 OA
HETATM   38  O5  UNL     1     -20.802   4.928 -27.508  1.00  0.00    -0.646 OA
ENDBRANCH  30  36
ENDBRANCH  28  30
ENDBRANCH   4  26
TORSDOF 9
ENDMDL
