MODEL 8
REMARK VINA RESULT: -8.985100452      1.139      1.411
REMARK  9 active torsions:
REMARK  status: ('A' for Active; 'I' for Inactive)
REMARK    1  A    between atoms: N1_2  and  C2_3 
REMARK    2  A    between atoms: N1_2  and  C9_20 
REMARK    3  A    between atoms: C2_3  and  C3_4 
REMARK    4  A    between atoms: C12_23  and  C13_24 
REMARK       I    between atoms: C13_24  and  N8_26 
REMARK    5  A    between atoms: N8_26  and  C14_28 
REMARK    6  A    between atoms: C14_28  and  C15_29 
REMARK    7  A    between atoms: C14_28  and  C18_34 
REMARK    8  A    between atoms: C15_29  and  C16_30 
REMARK    9  A    between atoms: C16_30  and  C17_31 
ROOT
HETATM    1  C9  UNL     1     -21.259  11.411 -31.245  1.00  0.00     0.030 A 
HETATM    2  C10 UNL     1     -21.757  11.399 -29.964  1.00  0.00     0.030 A 
HETATM    3  C11 UNL     1     -22.340  10.253 -29.438  1.00  0.00     0.019 A 
HETATM    4  C12 UNL     1     -22.451   9.083 -30.151  1.00  0.00     0.032 A 
HETATM    5  C19 UNL     1     -21.950   9.101 -31.435  1.00  0.00     0.019 A 
HETATM    6  C20 UNL     1     -21.366  10.221 -31.986  1.00  0.00     0.030 A 
ENDROOT
BRANCH   1   7
HETATM    7  N1  UNL     1     -20.661  12.557 -31.821  1.00  0.00    -0.380 N 
HETATM    8  C1  UNL     1     -19.863  12.362 -33.040  1.00  0.00     0.150 C 
BRANCH   7   9
HETATM    9  C2  UNL     1     -20.754  13.886 -31.331  1.00  0.00     0.181 C 
BRANCH   9  10
HETATM   10  C3  UNL     1     -19.603  14.288 -30.467  1.00  0.00     0.043 A 
HETATM   11  C4  UNL     1     -18.504  13.460 -30.374  1.00  0.00     0.116 A 
HETATM   12  N2  UNL     1     -17.438  13.795 -29.600  1.00  0.00    -0.348 N 
HETATM   13  C5  UNL     1     -17.420  14.942 -28.900  1.00  0.00     0.138 A 
ATOM     14  H2  UNL     1     -16.639  13.165 -29.550  1.00  0.00     0.167 HD
HETATM   15  N3  UNL     1     -16.371  15.304 -28.117  1.00  0.00    -0.315 N 
HETATM   16  C8  UNL     1     -18.509  15.772 -28.986  1.00  0.00     0.119 A 
HETATM   17  C6  UNL     1     -16.351  16.452 -27.415  1.00  0.00     0.195 A 
ATOM     18  H3  UNL     1     -15.565  14.681 -28.059  1.00  0.00     0.170 HD
HETATM   19  N4  UNL     1     -15.218  16.780 -26.606  1.00  0.00    -0.063 NA
HETATM   20  N5  UNL     1     -17.419  17.253 -27.508  1.00  0.00    -0.317 N 
HETATM   21  C7  UNL     1     -18.489  16.949 -28.267  1.00  0.00     0.149 A 
ATOM     22  H5  UNL     1     -17.423  18.128 -26.982  1.00  0.00     0.169 HD
HETATM   23  N6  UNL     1     -19.623  17.796 -28.372  1.00  0.00    -0.080 NA
HETATM   24  N7  UNL     1     -19.569  15.431 -29.762  1.00  0.00    -0.351 N 
ATOM     25  H7  UNL     1     -20.367  16.064 -29.811  1.00  0.00     0.166 HD
ENDBRANCH   9  10
ENDBRANCH   7   9
ENDBRANCH   1   7
BRANCH   4  26
HETATM   26  C13 UNL     1     -23.042   7.870 -29.604  1.00  0.00     0.252 C 
HETATM   27  O1  UNL     1     -24.310   7.750 -29.483  1.00  0.00    -0.268 OA
HETATM   28  N8  UNL     1     -22.295   6.748 -29.172  1.00  0.00    -0.342 N 
ATOM     29  H8  UNL     1     -21.279   6.786 -29.255  1.00  0.00     0.163 HD
BRANCH  28  30
HETATM   30  C14 UNL     1     -22.888   5.556 -28.624  1.00  0.00     0.186 C 
BRANCH  30  31
HETATM   31  C15 UNL     1     -23.161   4.486 -29.636  1.00  0.00     0.046 C 
BRANCH  31  32
HETATM   32  C16 UNL     1     -22.052   4.184 -30.580  1.00  0.00     0.116 C 
BRANCH  32  33
HETATM   33  C17 UNL     1     -22.342   4.601 -31.971  1.00  0.00     0.172 C 
HETATM   34  O2  UNL     1     -22.926   5.689 -32.202  1.00  0.00    -0.648 OA
HETATM   35  O3  UNL     1     -21.996   3.833 -33.094  1.00  0.00    -0.648 OA
ENDBRANCH  32  33
ENDBRANCH  31  32
ENDBRANCH  30  31
BRANCH  30  36
HETATM   36  C18 UNL     1     -22.169   5.052 -27.440  1.00  0.00     0.196 C 
HETATM   37  O4  UNL     1     -20.923   5.202 -27.278  1.00  0.00    -0.646 OA
HETATM   38  O5  UNL     1     -22.838   4.378 -26.430  1.00  0.00    -0.646 OA
ENDBRANCH  30  36
ENDBRANCH  28  30
ENDBRANCH   4  26
TORSDOF 9
ENDMDL
