MODEL 8
REMARK VINA RESULT: -6.616003055      3.290      3.839
REMARK  5 active torsions:
REMARK  status: ('A' for Active; 'I' for Inactive)
REMARK    1  A    between atoms: N1_1  and  S1_4 
REMARK    2  A    between atoms: S1_4  and  C1_7 
REMARK    3  A    between atoms: C4_10  and  N2_11 
REMARK       I    between atoms: N2_11  and  C5_13 
REMARK    4  A    between atoms: C5_13  and  C6_15 
REMARK    5  A    between atoms: C6_15  and  C7_16 
ROOT
HETATM    1  C1  UNL     1      16.024   1.933  15.984  1.00  0.00     0.079 A 
HETATM    2  C2  UNL     1      17.391   1.972  15.807  1.00  0.00     0.027 A 
HETATM    3  C3  UNL     1      17.971   2.952  15.009  1.00  0.00     0.031 A 
HETATM    4  C4  UNL     1      17.194   3.898  14.378  1.00  0.00     0.034 A 
HETATM    5  C11 UNL     1      15.835   3.850  14.565  1.00  0.00     0.031 A 
HETATM    6  C12 UNL     1      15.231   2.886  15.356  1.00  0.00     0.027 A 
ENDROOT
BRANCH   4   7
HETATM    7  N2  UNL     1      17.800   4.835  13.461  1.00  0.00    -0.327 N 
HETATM    8  C5  UNL     1      18.022   6.176  13.896  1.00  0.00     0.226 C 
HETATM    9  O3  UNL     1      17.633   6.433  15.108  1.00  0.00    -0.273 OA
ATOM     10  H2  UNL     1      18.065   4.544  12.521  1.00  0.00     0.169 HD
BRANCH   8  11
HETATM   11  C6  UNL     1      18.615   7.266  13.158  1.00  0.00     0.149 C 
BRANCH  11  12
HETATM   12  C7  UNL     1      19.683   8.056  13.794  1.00  0.00    -0.009 A 
HETATM   13  C8  UNL     1      19.633   8.664  15.019  1.00  0.00     0.015 A 
HETATM   14  C9  UNL     1      20.712   9.348  15.411  1.00  0.00     0.008 A 
HETATM   15  C10 UNL     1      21.787   9.385  14.564  1.00  0.00     0.050 A 
HETATM   16  S2  UNL     1      21.234   8.450  13.234  1.00  0.00    -0.106 SA
ENDBRANCH  11  12
ENDBRANCH   8  11
ENDBRANCH   4   7
BRANCH   1  17
HETATM   17  S1  UNL     1      15.321   0.667  16.950  1.00  0.00     0.256 S 
HETATM   18  O1  UNL     1      15.705  -0.676  16.350  1.00  0.00    -0.201 OA
HETATM   19  O2  UNL     1      15.823   0.694  18.344  1.00  0.00    -0.201 OA
BRANCH  17  20
HETATM   20  N1  UNL     1      13.606   0.717  16.951  1.00  0.00    -0.324 N 
ATOM     21  H12 UNL     1      13.001   0.643  16.133  1.00  0.00     0.169 HD
ATOM     22  H11 UNL     1      13.327   0.833  17.925  1.00  0.00     0.169 HD
ENDBRANCH  17  20
ENDBRANCH   1  17
TORSDOF 5
ENDMDL
