MODEL 14
REMARK VINA RESULT: -6.494925823      4.407      8.058
REMARK  5 active torsions:
REMARK  status: ('A' for Active; 'I' for Inactive)
REMARK    1  A    between atoms: N1_1  and  S1_4 
REMARK    2  A    between atoms: S1_4  and  C1_7 
REMARK    3  A    between atoms: C4_10  and  N2_11 
REMARK       I    between atoms: N2_11  and  C5_13 
REMARK    4  A    between atoms: C5_13  and  C6_15 
REMARK    5  A    between atoms: C6_15  and  C7_16 
ROOT
HETATM    1  C1  UNL     1      19.626   2.588  10.123  1.00  0.00     0.079 A 
HETATM    2  C2  UNL     1      19.977   1.318  10.529  1.00  0.00     0.027 A 
HETATM    3  C3  UNL     1      19.148   0.595  11.378  1.00  0.00     0.031 A 
HETATM    4  C4  UNL     1      17.965   1.133  11.835  1.00  0.00     0.034 A 
HETATM    5  C11 UNL     1      17.625   2.396  11.420  1.00  0.00     0.031 A 
HETATM    6  C12 UNL     1      18.432   3.138  10.572  1.00  0.00     0.027 A 
ENDROOT
BRANCH   4   7
HETATM    7  N2  UNL     1      17.174   0.416  12.807  1.00  0.00    -0.327 N 
HETATM    8  C5  UNL     1      17.290   0.771  14.185  1.00  0.00     0.226 C 
HETATM    9  O3  UNL     1      18.132   1.726  14.437  1.00  0.00    -0.273 OA
ATOM     10  H2  UNL     1      16.544  -0.331  12.515  1.00  0.00     0.169 HD
BRANCH   8  11
HETATM   11  C6  UNL     1      16.596   0.199  15.314  1.00  0.00     0.149 C 
BRANCH  11  12
HETATM   12  C7  UNL     1      15.772   1.079  16.160  1.00  0.00    -0.009 A 
HETATM   13  C8  UNL     1      15.440   0.876  17.472  1.00  0.00     0.015 A 
HETATM   14  C9  UNL     1      14.666   1.794  18.059  1.00  0.00     0.008 A 
HETATM   15  C10 UNL     1      14.270   2.870  17.310  1.00  0.00     0.050 A 
HETATM   16  S2  UNL     1      15.004   2.545  15.793  1.00  0.00    -0.106 SA
ENDBRANCH  11  12
ENDBRANCH   8  11
ENDBRANCH   4   7
BRANCH   1  17
HETATM   17  S1  UNL     1      20.706   3.489   9.097  1.00  0.00     0.256 S 
HETATM   18  O1  UNL     1      20.962   2.684   7.832  1.00  0.00    -0.201 OA
HETATM   19  O2  UNL     1      20.124   4.789   8.689  1.00  0.00    -0.201 OA
BRANCH  17  20
HETATM   20  N1  UNL     1      22.241   3.743   9.820  1.00  0.00    -0.324 N 
ATOM     21  H12 UNL     1      23.108   3.967   9.330  1.00  0.00     0.169 HD
ATOM     22  H11 UNL     1      22.104   3.626  10.824  1.00  0.00     0.169 HD
ENDBRANCH  17  20
ENDBRANCH   1  17
TORSDOF 5
ENDMDL
