MODEL 20
REMARK VINA RESULT: -6.315205504      2.455      2.817
REMARK  5 active torsions:
REMARK  status: ('A' for Active; 'I' for Inactive)
REMARK    1  A    between atoms: N1_1  and  S1_4 
REMARK    2  A    between atoms: S1_4  and  C1_7 
REMARK    3  A    between atoms: C4_10  and  N2_11 
REMARK       I    between atoms: N2_11  and  C5_13 
REMARK    4  A    between atoms: C5_13  and  C6_15 
REMARK    5  A    between atoms: C6_15  and  C7_16 
ROOT
HETATM    1  C1  UNL     1      17.114   1.704  13.911  1.00  0.00     0.079 A 
HETATM    2  C2  UNL     1      16.558   1.276  12.724  1.00  0.00     0.027 A 
HETATM    3  C3  UNL     1      16.721   2.019  11.560  1.00  0.00     0.031 A 
HETATM    4  C4  UNL     1      17.435   3.197  11.571  1.00  0.00     0.034 A 
HETATM    5  C11 UNL     1      17.987   3.610  12.758  1.00  0.00     0.031 A 
HETATM    6  C12 UNL     1      17.842   2.888  13.932  1.00  0.00     0.027 A 
ENDROOT
BRANCH   4   7
HETATM    7  N2  UNL     1      17.497   4.014  10.382  1.00  0.00    -0.327 N 
HETATM    8  C5  UNL     1      16.649   5.159  10.290  1.00  0.00     0.226 C 
HETATM    9  O3  UNL     1      15.872   5.351  11.312  1.00  0.00    -0.273 OA
ATOM     10  H2  UNL     1      18.134   3.778   9.622  1.00  0.00     0.169 HD
BRANCH   8  11
HETATM   11  C6  UNL     1      16.551   6.110   9.209  1.00  0.00     0.149 C 
BRANCH  11  12
HETATM   12  C7  UNL     1      15.283   6.834   9.013  1.00  0.00    -0.009 A 
HETATM   13  C8  UNL     1      14.133   6.337   8.464  1.00  0.00     0.015 A 
HETATM   14  C9  UNL     1      13.089   7.167   8.365  1.00  0.00     0.008 A 
HETATM   15  C10 UNL     1      13.246   8.447   8.825  1.00  0.00     0.050 A 
HETATM   16  S2  UNL     1      14.870   8.437   9.382  1.00  0.00    -0.106 SA
ENDBRANCH  11  12
ENDBRANCH   8  11
ENDBRANCH   4   7
BRANCH   1  17
HETATM   17  S1  UNL     1      16.854   0.778  15.361  1.00  0.00     0.256 S 
HETATM   18  O1  UNL     1      16.584  -0.668  14.976  1.00  0.00    -0.201 OA
HETATM   19  O2  UNL     1      18.043   0.791  16.245  1.00  0.00    -0.201 OA
BRANCH  17  20
HETATM   20  N1  UNL     1      15.476   1.303  16.239  1.00  0.00    -0.324 N 
ATOM     21  H12 UNL     1      14.627   0.763  16.406  1.00  0.00     0.169 HD
ATOM     22  H11 UNL     1      15.683   2.252  16.551  1.00  0.00     0.169 HD
ENDBRANCH  17  20
ENDBRANCH   1  17
TORSDOF 5
ENDMDL
