MODEL 11
REMARK VINA RESULT: -6.583012492      3.049      3.437
REMARK  5 active torsions:
REMARK  status: ('A' for Active; 'I' for Inactive)
REMARK    1  A    between atoms: N1_1  and  S1_4 
REMARK    2  A    between atoms: S1_4  and  C1_7 
REMARK    3  A    between atoms: C4_10  and  N2_11 
REMARK       I    between atoms: N2_11  and  C5_13 
REMARK    4  A    between atoms: C5_13  and  C6_15 
REMARK    5  A    between atoms: C6_15  and  C7_16 
ROOT
HETATM    1  C1  UNL     1      15.810   1.950  16.165  1.00  0.00     0.079 A 
HETATM    2  C2  UNL     1      15.039   2.887  15.509  1.00  0.00     0.027 A 
HETATM    3  C3  UNL     1      15.609   3.726  14.558  1.00  0.00     0.031 A 
HETATM    4  C4  UNL     1      16.951   3.644  14.258  1.00  0.00     0.034 A 
HETATM    5  C11 UNL     1      17.705   2.705  14.916  1.00  0.00     0.031 A 
HETATM    6  C12 UNL     1      17.163   1.853  15.866  1.00  0.00     0.027 A 
ENDROOT
BRANCH   4   7
HETATM    7  N2  UNL     1      17.548   4.600  13.356  1.00  0.00    -0.327 N 
HETATM    8  C5  UNL     1      17.811   5.920  13.829  1.00  0.00     0.226 C 
HETATM    9  O3  UNL     1      17.464   6.142  15.060  1.00  0.00    -0.273 OA
ATOM     10  H2  UNL     1      17.778   4.336  12.398  1.00  0.00     0.169 HD
BRANCH   8  11
HETATM   11  C6  UNL     1      18.404   7.023  13.110  1.00  0.00     0.149 C 
BRANCH  11  12
HETATM   12  C7  UNL     1      19.443   7.828  13.775  1.00  0.00    -0.009 A 
HETATM   13  C8  UNL     1      19.373   8.384  15.023  1.00  0.00     0.015 A 
HETATM   14  C9  UNL     1      20.427   9.093  15.440  1.00  0.00     0.008 A 
HETATM   15  C10 UNL     1      21.497   9.205  14.593  1.00  0.00     0.050 A 
HETATM   16  S2  UNL     1      20.976   8.302  13.229  1.00  0.00    -0.106 SA
ENDBRANCH  11  12
ENDBRANCH   8  11
ENDBRANCH   4   7
BRANCH   1  17
HETATM   17  S1  UNL     1      15.080   0.943  17.384  1.00  0.00     0.256 S 
HETATM   18  O1  UNL     1      13.691   0.540  16.916  1.00  0.00    -0.201 OA
HETATM   19  O2  UNL     1      15.855  -0.300  17.609  1.00  0.00    -0.201 OA
BRANCH  17  20
HETATM   20  N1  UNL     1      14.862   1.768  18.873  1.00  0.00    -0.324 N 
ATOM     21  H12 UNL     1      14.052   1.695  19.488  1.00  0.00     0.169 HD
ATOM     22  H11 UNL     1      15.700   2.334  19.008  1.00  0.00     0.169 HD
ENDBRANCH  17  20
ENDBRANCH   1  17
TORSDOF 5
ENDMDL
