MODEL 10
REMARK VINA RESULT: -6.859828127      3.515      3.993
REMARK  5 active torsions:
REMARK  status: ('A' for Active; 'I' for Inactive)
REMARK    1  A    between atoms: N1_1  and  S1_4 
REMARK    2  A    between atoms: S1_4  and  C1_7 
REMARK    3  A    between atoms: C4_10  and  N2_11 
REMARK       I    between atoms: N2_11  and  C5_13 
REMARK    4  A    between atoms: C5_13  and  C6_15 
REMARK    5  A    between atoms: C6_15  and  C7_16 
ROOT
HETATM    1  C1  UNL     1      15.919   2.029  16.096  1.00  0.00     0.082 A 
HETATM    2  C2  UNL     1      17.274   2.064  15.850  1.00  0.00     0.028 A 
HETATM    3  C3  UNL     1      17.771   3.127  15.115  1.00  0.00     0.034 A 
HETATM    4  C4  UNL     1      17.000   4.141  14.616  1.00  0.00     0.073 A 
HETATM    5  C11 UNL     1      15.628   4.073  14.883  1.00  0.00     0.144 A 
HETATM    6  F1  UNL     1      14.765   5.031  14.438  1.00  0.00    -0.204 F 
HETATM    7  C12 UNL     1      15.097   3.039  15.609  1.00  0.00     0.070 A 
ENDROOT
BRANCH   4   8
HETATM    8  N2  UNL     1      17.456   5.259  13.880  1.00  0.00    -0.324 N 
HETATM    9  C5  UNL     1      18.781   5.526  13.473  1.00  0.00     0.227 C 
HETATM   10  O3  UNL     1      19.695   4.733  13.745  1.00  0.00    -0.273 OA
ATOM     11  H2  UNL     1      16.751   5.948  13.615  1.00  0.00     0.169 HD
BRANCH   9  12
HETATM   12  C6  UNL     1      19.126   6.751  12.711  1.00  0.00     0.149 C 
BRANCH  12  13
HETATM   13  C7  UNL     1      19.808   7.747  13.609  1.00  0.00    -0.009 A 
HETATM   14  C8  UNL     1      19.459   8.082  14.884  1.00  0.00     0.015 A 
HETATM   15  C9  UNL     1      20.201   9.001  15.508  1.00  0.00     0.008 A 
HETATM   16  C10 UNL     1      21.256   9.536  14.817  1.00  0.00     0.050 A 
HETATM   17  S2  UNL     1      21.172   8.733  13.314  1.00  0.00    -0.106 SA
ENDBRANCH  12  13
ENDBRANCH   9  12
ENDBRANCH   4   8
BRANCH   1  18
HETATM   18  S1  UNL     1      15.209   0.730  17.039  1.00  0.00     0.256 S 
HETATM   19  O1  UNL     1      15.707  -0.574  16.552  1.00  0.00    -0.201 OA
HETATM   20  O2  UNL     1      15.671   0.872  18.483  1.00  0.00    -0.201 OA
BRANCH  18  21
HETATM   21  N1  UNL     1      13.481   0.761  16.964  1.00  0.00    -0.324 N 
ATOM     22  H12 UNL     1      12.926   0.266  16.266  1.00  0.00     0.169 HD
ATOM     23  H11 UNL     1      13.114   1.343  17.717  1.00  0.00     0.169 HD
ENDBRANCH  18  21
ENDBRANCH   1  18
TORSDOF 5
ENDMDL
