MODEL 6
REMARK VINA RESULT: -7.080576834      1.413      1.651
REMARK  5 active torsions:
REMARK  status: ('A' for Active; 'I' for Inactive)
REMARK    1  A    between atoms: N1_1  and  S1_4 
REMARK    2  A    between atoms: S1_4  and  C1_7 
REMARK    3  A    between atoms: C4_10  and  N2_11 
REMARK       I    between atoms: N2_11  and  C5_13 
REMARK    4  A    between atoms: C5_13  and  C6_15 
REMARK    5  A    between atoms: C6_15  and  C7_16 
ROOT
HETATM    1  C1  UNL     1      16.519   2.153  14.744  1.00  0.00     0.082 A 
HETATM    2  C2  UNL     1      17.477   2.386  13.780  1.00  0.00     0.028 A 
HETATM    3  C3  UNL     1      17.450   3.605  13.123  1.00  0.00     0.034 A 
HETATM    4  C4  UNL     1      16.532   4.588  13.369  1.00  0.00     0.073 A 
HETATM    5  C11 UNL     1      15.574   4.318  14.353  1.00  0.00     0.144 A 
HETATM    6  F1  UNL     1      14.613   5.228  14.683  1.00  0.00    -0.204 F 
HETATM    7  C12 UNL     1      15.567   3.125  15.028  1.00  0.00     0.070 A 
ENDROOT
BRANCH   4   8
HETATM    8  N2  UNL     1      16.472   5.857  12.747  1.00  0.00    -0.324 N 
HETATM    9  C5  UNL     1      16.176   6.125  11.392  1.00  0.00     0.227 C 
HETATM   10  O3  UNL     1      15.923   5.199  10.608  1.00  0.00    -0.273 OA
ATOM     11  H2  UNL     1      16.662   6.665  13.339  1.00  0.00     0.169 HD
BRANCH   9  12
HETATM   12  C6  UNL     1      16.158   7.511  10.863  1.00  0.00     0.149 C 
BRANCH  12  13
HETATM   13  C7  UNL     1      15.079   7.657   9.825  1.00  0.00    -0.009 A 
HETATM   14  C8  UNL     1      13.733   7.720  10.037  1.00  0.00     0.015 A 
HETATM   15  C9  UNL     1      12.942   7.846   8.969  1.00  0.00     0.008 A 
HETATM   16  C10 UNL     1      13.545   7.901   7.740  1.00  0.00     0.050 A 
HETATM   17  S2  UNL     1      15.202   7.775   8.125  1.00  0.00    -0.106 SA
ENDBRANCH  12  13
ENDBRANCH   9  12
ENDBRANCH   4   8
BRANCH   1  18
HETATM   18  S1  UNL     1      16.494   0.645  15.640  1.00  0.00     0.256 S 
HETATM   19  O1  UNL     1      16.382  -0.494  14.704  1.00  0.00    -0.201 OA
HETATM   20  O2  UNL     1      17.821   0.494  16.370  1.00  0.00    -0.201 OA
BRANCH  18  21
HETATM   21  N1  UNL     1      15.187   0.600  16.773  1.00  0.00    -0.324 N 
ATOM     22  H12 UNL     1      14.658  -0.239  17.009  1.00  0.00     0.169 HD
ATOM     23  H11 UNL     1      15.034   1.532  17.159  1.00  0.00     0.169 HD
ENDBRANCH  18  21
ENDBRANCH   1  18
TORSDOF 5
ENDMDL
