MODEL 12
REMARK VINA RESULT: -6.832579151      2.096      2.395
REMARK  5 active torsions:
REMARK  status: ('A' for Active; 'I' for Inactive)
REMARK    1  A    between atoms: N1_1  and  S1_4 
REMARK    2  A    between atoms: S1_4  and  C1_7 
REMARK    3  A    between atoms: C4_10  and  N2_11 
REMARK       I    between atoms: N2_11  and  C5_13 
REMARK    4  A    between atoms: C5_13  and  C6_15 
REMARK    5  A    between atoms: C6_15  and  C7_16 
ROOT
HETATM    1  C1  UNL     1      16.792   2.072  14.409  1.00  0.00     0.082 A 
HETATM    2  C2  UNL     1      17.165   3.298  14.916  1.00  0.00     0.028 A 
HETATM    3  C3  UNL     1      17.282   4.355  14.029  1.00  0.00     0.034 A 
HETATM    4  C4  UNL     1      17.052   4.258  12.685  1.00  0.00     0.073 A 
HETATM    5  C11 UNL     1      16.677   2.998  12.205  1.00  0.00     0.144 A 
HETATM    6  F1  UNL     1      16.419   2.786  10.881  1.00  0.00    -0.204 F 
HETATM    7  C12 UNL     1      16.548   1.926  13.048  1.00  0.00     0.070 A 
ENDROOT
BRANCH   4   8
HETATM    8  N2  UNL     1      17.134   5.307  11.740  1.00  0.00    -0.324 N 
HETATM    9  C5  UNL     1      16.172   6.312  11.501  1.00  0.00     0.227 C 
HETATM   10  O3  UNL     1      15.122   6.348  12.160  1.00  0.00    -0.273 OA
ATOM     11  H2  UNL     1      17.978   5.341  11.169  1.00  0.00     0.169 HD
BRANCH   9  12
HETATM   12  C6  UNL     1      16.379   7.353  10.464  1.00  0.00     0.149 C 
BRANCH  12  13
HETATM   13  C7  UNL     1      15.132   7.520   9.638  1.00  0.00    -0.009 A 
HETATM   14  C8  UNL     1      14.458   6.550   8.957  1.00  0.00     0.015 A 
HETATM   15  C9  UNL     1      13.368   6.914   8.277  1.00  0.00     0.008 A 
HETATM   16  C10 UNL     1      13.011   8.236   8.318  1.00  0.00     0.050 A 
HETATM   17  S2  UNL     1      14.218   8.924   9.308  1.00  0.00    -0.106 SA
ENDBRANCH  12  13
ENDBRANCH   9  12
ENDBRANCH   4   8
BRANCH   1  18
HETATM   18  S1  UNL     1      16.599   0.684  15.465  1.00  0.00     0.256 S 
HETATM   19  O1  UNL     1      16.448  -0.545  14.657  1.00  0.00    -0.201 OA
HETATM   20  O2  UNL     1      17.870   0.522  16.289  1.00  0.00    -0.201 OA
BRANCH  18  21
HETATM   21  N1  UNL     1      15.234   0.866  16.512  1.00  0.00    -0.324 N 
ATOM     22  H12 UNL     1      15.160   0.447  17.439  1.00  0.00     0.169 HD
ATOM     23  H11 UNL     1      14.529   1.450  16.061  1.00  0.00     0.169 HD
ENDBRANCH  18  21
ENDBRANCH   1  18
TORSDOF 5
ENDMDL
