MODEL 5
REMARK VINA RESULT: -7.119506103      1.105      1.549
REMARK  5 active torsions:
REMARK  status: ('A' for Active; 'I' for Inactive)
REMARK    1  A    between atoms: N1_1  and  S1_4 
REMARK    2  A    between atoms: S1_4  and  C1_7 
REMARK    3  A    between atoms: C4_10  and  N2_11 
REMARK       I    between atoms: N2_11  and  C5_13 
REMARK    4  A    between atoms: C5_13  and  C6_15 
REMARK    5  A    between atoms: C6_15  and  C7_16 
ROOT
HETATM    1  C1  UNL     1      15.639   2.431  15.887  1.00  0.00     0.082 A 
HETATM    2  C2  UNL     1      14.698   3.415  15.675  1.00  0.00     0.028 A 
HETATM    3  C3  UNL     1      14.989   4.400  14.747  1.00  0.00     0.034 A 
HETATM    4  C4  UNL     1      16.153   4.458  14.030  1.00  0.00     0.073 A 
HETATM    5  C11 UNL     1      17.087   3.445  14.272  1.00  0.00     0.144 A 
HETATM    6  F1  UNL     1      18.280   3.401  13.611  1.00  0.00    -0.204 F 
HETATM    7  C12 UNL     1      16.836   2.450  15.181  1.00  0.00     0.070 A 
ENDROOT
BRANCH   4   8
HETATM    8  N2  UNL     1      16.493   5.425  13.056  1.00  0.00    -0.324 N 
HETATM    9  C5  UNL     1      16.451   5.269  11.653  1.00  0.00     0.227 C 
HETATM   10  O3  UNL     1      16.076   4.200  11.149  1.00  0.00    -0.273 OA
ATOM     11  H2  UNL     1      16.801   6.333  13.403  1.00  0.00     0.169 HD
BRANCH   9  12
HETATM   12  C6  UNL     1      16.849   6.368  10.739  1.00  0.00     0.149 C 
BRANCH  12  13
HETATM   13  C7  UNL     1      15.659   6.845   9.951  1.00  0.00    -0.009 A 
HETATM   14  C8  UNL     1      14.486   7.335  10.444  1.00  0.00     0.015 A 
HETATM   15  C9  UNL     1      13.550   7.701   9.565  1.00  0.00     0.008 A 
HETATM   16  C10 UNL     1      13.841   7.556   8.234  1.00  0.00     0.050 A 
HETATM   17  S2  UNL     1      15.420   6.909   8.260  1.00  0.00    -0.106 SA
ENDBRANCH  12  13
ENDBRANCH   9  12
ENDBRANCH   4   8
BRANCH   1  18
HETATM   18  S1  UNL     1      15.342   1.133  17.029  1.00  0.00     0.256 S 
HETATM   19  O1  UNL     1      14.192   0.320  16.578  1.00  0.00    -0.201 OA
HETATM   20  O2  UNL     1      16.557   0.216  17.046  1.00  0.00    -0.201 OA
BRANCH  18  21
HETATM   21  N1  UNL     1      15.038   1.742  18.619  1.00  0.00    -0.324 N 
ATOM     22  H12 UNL     1      14.177   2.211  18.902  1.00  0.00     0.169 HD
ATOM     23  H11 UNL     1      15.845   1.561  19.218  1.00  0.00     0.169 HD
ENDBRANCH  18  21
ENDBRANCH   1  18
TORSDOF 5
ENDMDL
