MODEL 14
REMARK VINA RESULT: -6.786116230      2.524      3.171
REMARK  5 active torsions:
REMARK  status: ('A' for Active; 'I' for Inactive)
REMARK    1  A    between atoms: N1_1  and  S1_4 
REMARK    2  A    between atoms: S1_4  and  C1_7 
REMARK    3  A    between atoms: C4_10  and  N2_11 
REMARK       I    between atoms: N2_11  and  C5_13 
REMARK    4  A    between atoms: C5_13  and  C6_15 
REMARK    5  A    between atoms: C6_15  and  C7_16 
ROOT
HETATM    1  C1  UNL     1      15.839   2.149  15.939  1.00  0.00     0.082 A 
HETATM    2  C2  UNL     1      17.160   2.197  15.549  1.00  0.00     0.028 A 
HETATM    3  C3  UNL     1      17.582   3.300  14.828  1.00  0.00     0.034 A 
HETATM    4  C4  UNL     1      16.770   4.343  14.476  1.00  0.00     0.073 A 
HETATM    5  C11 UNL     1      15.434   4.261  14.887  1.00  0.00     0.144 A 
HETATM    6  F1  UNL     1      14.536   5.246  14.595  1.00  0.00    -0.204 F 
HETATM    7  C12 UNL     1      14.977   3.187  15.604  1.00  0.00     0.070 A 
ENDROOT
BRANCH   4   8
HETATM    8  N2  UNL     1      17.151   5.502  13.762  1.00  0.00    -0.324 N 
HETATM    9  C5  UNL     1      16.923   5.771  12.395  1.00  0.00     0.227 C 
HETATM   10  O3  UNL     1      16.321   4.952  11.684  1.00  0.00    -0.273 OA
ATOM     11  H2  UNL     1      17.644   6.222  14.291  1.00  0.00     0.169 HD
BRANCH   9  12
HETATM   12  C6  UNL     1      17.390   7.030  11.764  1.00  0.00     0.149 C 
BRANCH  12  13
HETATM   13  C7  UNL     1      18.805   7.328  12.183  1.00  0.00    -0.009 A 
HETATM   14  C8  UNL     1      19.234   8.363  12.961  1.00  0.00     0.015 A 
HETATM   15  C9  UNL     1      20.543   8.448  13.211  1.00  0.00     0.008 A 
HETATM   16  C10 UNL     1      21.354   7.489  12.665  1.00  0.00     0.050 A 
HETATM   17  S2  UNL     1      20.253   6.498  11.819  1.00  0.00    -0.106 SA
ENDBRANCH  12  13
ENDBRANCH   9  12
ENDBRANCH   4   8
BRANCH   1  18
HETATM   18  S1  UNL     1      15.226   0.797  16.875  1.00  0.00     0.256 S 
HETATM   19  O1  UNL     1      15.698  -0.475  16.290  1.00  0.00    -0.201 OA
HETATM   20  O2  UNL     1      15.802   0.882  18.282  1.00  0.00    -0.201 OA
BRANCH  18  21
HETATM   21  N1  UNL     1      13.497   0.803  16.942  1.00  0.00    -0.324 N 
ATOM     22  H12 UNL     1      12.920  -0.037  16.992  1.00  0.00     0.169 HD
ATOM     23  H11 UNL     1      13.154   1.764  16.925  1.00  0.00     0.169 HD
ENDBRANCH  18  21
ENDBRANCH   1  18
TORSDOF 5
ENDMDL
