MODEL 11
REMARK VINA RESULT: -8.461067378      3.801      8.179
REMARK  4 active torsions:
REMARK  status: ('A' for Active; 'I' for Inactive)
REMARK    1  A    between atoms: C2_2  and  C4_4 
REMARK    2  A    between atoms: C7_7  and  N1_8 
REMARK    3  A    between atoms: N2_10  and  C8_12 
REMARK    4  A    between atoms: C11_15  and  O1_16 
ROOT
HETATM    1  N1  UNL     1       6.687  -4.027  17.717  1.00  0.00    -0.300 N 
ATOM      2  H1  UNL     1       6.579  -3.488  18.576  1.00  0.00     0.187 HD
HETATM    3  N2  UNL     1       7.690  -4.795  17.623  1.00  0.00    -0.300 N 
ATOM      4  H2  UNL     1       7.820  -5.343  16.773  1.00  0.00     0.187 HD
ENDROOT
BRANCH   1   5
HETATM    5  C7  UNL     1       5.707  -3.866  16.711  1.00  0.00     0.048 A 
HETATM    6  C6  UNL     1       4.937  -2.720  16.624  1.00  0.00     0.031 A 
HETATM    7  C5  UNL     1       3.981  -2.562  15.643  1.00  0.00     0.010 A 
HETATM    8  C4  UNL     1       3.784  -3.569  14.722  1.00  0.00    -0.055 A 
HETATM    9  C15 UNL     1       4.542  -4.720  14.789  1.00  0.00     0.010 A 
HETATM   10  C14 UNL     1       5.476  -4.843  15.770  1.00  0.00     0.031 A 
BRANCH   8  11
HETATM   11  C2  UNL     1       2.778  -3.476  13.638  1.00  0.00     0.010 C 
HETATM   12  C1  UNL     1       1.587  -4.309  14.060  1.00  0.00     0.015 C 
HETATM   13  C3  UNL     1       3.411  -4.011  12.376  1.00  0.00     0.015 C 
ENDBRANCH   8  11
ENDBRANCH   1   5
BRANCH   3  14
HETATM   14  C8  UNL     1       8.650  -4.910  18.691  1.00  0.00     0.048 A 
HETATM   15  C9  UNL     1       9.866  -5.514  18.446  1.00  0.00     0.034 A 
HETATM   16  C10 UNL     1      10.843  -5.668  19.408  1.00  0.00     0.039 A 
HETATM   17  C11 UNL     1      10.591  -5.194  20.678  1.00  0.00     0.065 A 
HETATM   18  C12 UNL     1       9.366  -4.584  20.927  1.00  0.00     0.039 A 
HETATM   19  C13 UNL     1       8.399  -4.440  19.949  1.00  0.00     0.034 A 
BRANCH  17  20
HETATM   20  O1  UNL     1      11.511  -5.301  21.715  1.00  0.00    -0.361 OA
ATOM     21  H1  UNL     1      11.297  -5.698  22.551  1.00  0.00     0.217 HD
ENDBRANCH  17  20
ENDBRANCH   3  14
TORSDOF 4
ENDMDL
