MODEL 1
REMARK VINA RESULT: -8.579187856      0.000      0.000
REMARK  4 active torsions:
REMARK  status: ('A' for Active; 'I' for Inactive)
REMARK    1  A    between atoms: C2_2  and  C4_4 
REMARK    2  A    between atoms: C7_7  and  N1_8 
REMARK    3  A    between atoms: N2_10  and  C8_12 
REMARK    4  A    between atoms: C11_15  and  O1_16 
ROOT
HETATM    1  N1  UNL     1       5.641  -4.290  15.564  1.00  0.00    -0.300 N 
ATOM      2  H1  UNL     1       5.721  -3.784  14.682  1.00  0.00     0.187 HD
HETATM    3  N2  UNL     1       4.531  -4.837  15.833  1.00  0.00    -0.300 N 
ATOM      4  H2  UNL     1       4.425  -5.347  16.710  1.00  0.00     0.187 HD
ENDROOT
BRANCH   1   5
HETATM    5  C7  UNL     1       6.776  -4.332  16.405  1.00  0.00     0.048 A 
HETATM    6  C6  UNL     1       7.672  -5.385  16.362  1.00  0.00     0.031 A 
HETATM    7  C5  UNL     1       8.781  -5.427  17.182  1.00  0.00     0.010 A 
HETATM    8  C4  UNL     1       9.007  -4.395  18.067  1.00  0.00    -0.055 A 
HETATM    9  C15 UNL     1       8.128  -3.334  18.126  1.00  0.00     0.010 A 
HETATM   10  C14 UNL     1       7.044  -3.325  17.304  1.00  0.00     0.031 A 
BRANCH   8  11
HETATM   11  C2  UNL     1      10.174  -4.366  18.980  1.00  0.00     0.010 C 
HETATM   12  C1  UNL     1      10.739  -5.769  19.028  1.00  0.00     0.015 C 
HETATM   13  C3  UNL     1       9.686  -3.916  20.336  1.00  0.00     0.015 C 
ENDBRANCH   8  11
ENDBRANCH   1   5
BRANCH   3  14
HETATM   14  C8  UNL     1       3.413  -4.754  14.927  1.00  0.00     0.048 A 
HETATM   15  C9  UNL     1       2.300  -5.538  15.150  1.00  0.00     0.034 A 
HETATM   16  C10 UNL     1       1.188  -5.523  14.335  1.00  0.00     0.039 A 
HETATM   17  C11 UNL     1       1.189  -4.683  13.242  1.00  0.00     0.065 A 
HETATM   18  C12 UNL     1       2.309  -3.892  13.015  1.00  0.00     0.039 A 
HETATM   19  C13 UNL     1       3.416  -3.921  13.844  1.00  0.00     0.034 A 
BRANCH  17  20
HETATM   20  O1  UNL     1       0.115  -4.596  12.362  1.00  0.00    -0.361 OA
ATOM     21  H1  UNL     1       0.188  -4.197  11.503  1.00  0.00     0.217 HD
ENDBRANCH  17  20
ENDBRANCH   3  14
TORSDOF 4
ENDMDL
