MODEL 10
REMARK VINA RESULT: -8.529575821      3.297      8.127
REMARK  4 active torsions:
REMARK  status: ('A' for Active; 'I' for Inactive)
REMARK    1  A    between atoms: C2_2  and  C4_4 
REMARK    2  A    between atoms: C7_7  and  N1_8 
REMARK    3  A    between atoms: N2_10  and  C8_12 
REMARK    4  A    between atoms: C11_15  and  O1_16 
ROOT
HETATM    1  N1  UNL     1       5.461  -4.522  16.440  1.00  0.00    -0.300 N 
ATOM      2  H1  UNL     1       5.313  -4.192  17.394  1.00  0.00     0.187 HD
HETATM    3  N2  UNL     1       6.629  -4.892  16.118  1.00  0.00    -0.300 N 
ATOM      4  H2  UNL     1       6.803  -5.225  15.169  1.00  0.00     0.187 HD
ENDROOT
BRANCH   1   5
HETATM    5  C7  UNL     1       4.350  -4.533  15.567  1.00  0.00     0.048 A 
HETATM    6  C6  UNL     1       3.572  -3.407  15.366  1.00  0.00     0.031 A 
HETATM    7  C5  UNL     1       2.488  -3.417  14.514  1.00  0.00     0.010 A 
HETATM    8  C4  UNL     1       2.167  -4.577  13.842  1.00  0.00    -0.055 A 
HETATM    9  C15 UNL     1       2.929  -5.712  14.026  1.00  0.00     0.010 A 
HETATM   10  C14 UNL     1       3.992  -5.667  14.874  1.00  0.00     0.031 A 
BRANCH   8  11
HETATM   11  C2  UNL     1       1.019  -4.669  12.909  1.00  0.00     0.010 C 
HETATM   12  C1  UNL     1       0.633  -3.255  12.535  1.00  0.00     0.015 C 
HETATM   13  C3  UNL     1      -0.102  -5.379  13.629  1.00  0.00     0.015 C 
ENDBRANCH   8  11
ENDBRANCH   1   5
BRANCH   3  14
HETATM   14  C8  UNL     1       7.716  -4.854  17.062  1.00  0.00     0.048 A 
HETATM   15  C9  UNL     1       9.009  -5.037  16.615  1.00  0.00     0.034 A 
HETATM   16  C10 UNL     1      10.108  -5.017  17.448  1.00  0.00     0.039 A 
HETATM   17  C11 UNL     1       9.905  -4.805  18.795  1.00  0.00     0.065 A 
HETATM   18  C12 UNL     1       8.604  -4.620  19.247  1.00  0.00     0.039 A 
HETATM   19  C13 UNL     1       7.514  -4.644  18.397  1.00  0.00     0.034 A 
BRANCH  17  20
HETATM   20  O1  UNL     1      10.948  -4.767  19.713  1.00  0.00    -0.361 OA
ATOM     21  H1  UNL     1      10.807  -4.648  20.645  1.00  0.00     0.217 HD
ENDBRANCH  17  20
ENDBRANCH   3  14
TORSDOF 4
ENDMDL
