MODEL 12
REMARK VINA RESULT: -8.389013675      3.824      8.131
REMARK  4 active torsions:
REMARK  status: ('A' for Active; 'I' for Inactive)
REMARK    1  A    between atoms: C2_2  and  C4_4 
REMARK    2  A    between atoms: C7_7  and  N1_8 
REMARK    3  A    between atoms: N2_10  and  C8_12 
REMARK    4  A    between atoms: C11_15  and  O1_16 
ROOT
HETATM    1  N1  UNL     1       6.711  -4.040  17.781  1.00  0.00    -0.300 N 
ATOM      2  H1  UNL     1       6.608  -3.445  18.604  1.00  0.00     0.187 HD
HETATM    3  N2  UNL     1       7.697  -4.833  17.746  1.00  0.00    -0.300 N 
ATOM      4  H2  UNL     1       7.823  -5.438  16.935  1.00  0.00     0.187 HD
ENDROOT
BRANCH   1   5
HETATM    5  C7  UNL     1       5.743  -3.924  16.758  1.00  0.00     0.048 A 
HETATM    6  C6  UNL     1       5.545  -4.929  15.828  1.00  0.00     0.031 A 
HETATM    7  C5  UNL     1       4.600  -4.816  14.829  1.00  0.00     0.010 A 
HETATM    8  C4  UNL     1       3.831  -3.675  14.752  1.00  0.00    -0.055 A 
HETATM    9  C15 UNL     1       4.010  -2.661  15.669  1.00  0.00     0.010 A 
HETATM   10  C14 UNL     1       4.951  -2.804  16.641  1.00  0.00     0.031 A 
BRANCH   8  11
HETATM   11  C2  UNL     1       2.795  -3.478  13.710  1.00  0.00     0.010 C 
HETATM   12  C1  UNL     1       1.580  -4.277  14.130  1.00  0.00     0.015 C 
HETATM   13  C3  UNL     1       3.361  -3.975  12.401  1.00  0.00     0.015 C 
ENDBRANCH   8  11
ENDBRANCH   1   5
BRANCH   3  14
HETATM   14  C8  UNL     1       8.646  -4.900  18.828  1.00  0.00     0.048 A 
HETATM   15  C9  UNL     1       9.890  -5.454  18.606  1.00  0.00     0.034 A 
HETATM   16  C10 UNL     1      10.858  -5.559  19.583  1.00  0.00     0.039 A 
HETATM   17  C11 UNL     1      10.568  -5.087  20.845  1.00  0.00     0.065 A 
HETATM   18  C12 UNL     1       9.316  -4.528  21.072  1.00  0.00     0.039 A 
HETATM   19  C13 UNL     1       8.358  -4.431  20.079  1.00  0.00     0.034 A 
BRANCH  17  20
HETATM   20  O1  UNL     1      11.477  -5.147  21.896  1.00  0.00    -0.361 OA
ATOM     21  H1  UNL     1      11.335  -4.702  22.723  1.00  0.00     0.217 HD
ENDBRANCH  17  20
ENDBRANCH   3  14
TORSDOF 4
ENDMDL
