MODEL 2
REMARK VINA RESULT: -8.577770008      1.345      1.906
REMARK  4 active torsions:
REMARK  status: ('A' for Active; 'I' for Inactive)
REMARK    1  A    between atoms: C2_2  and  C4_4 
REMARK    2  A    between atoms: C7_7  and  N1_8 
REMARK    3  A    between atoms: N2_10  and  C8_12 
REMARK    4  A    between atoms: C11_15  and  O1_16 
ROOT
HETATM    1  N1  UNL     1       6.784  -4.832  16.385  1.00  0.00    -0.300 N 
ATOM      2  H1  UNL     1       7.057  -5.071  15.432  1.00  0.00     0.187 HD
HETATM    3  N2  UNL     1       5.573  -4.528  16.595  1.00  0.00    -0.300 N 
ATOM      4  H2  UNL     1       5.276  -4.285  17.539  1.00  0.00     0.187 HD
ENDROOT
BRANCH   1   5
HETATM    5  C7  UNL     1       7.784  -4.863  17.384  1.00  0.00     0.048 A 
HETATM    6  C6  UNL     1       7.509  -4.525  18.697  1.00  0.00     0.031 A 
HETATM    7  C5  UNL     1       8.484  -4.555  19.672  1.00  0.00     0.010 A 
HETATM    8  C4  UNL     1       9.767  -4.932  19.335  1.00  0.00    -0.055 A 
HETATM    9  C15 UNL     1      10.063  -5.274  18.032  1.00  0.00     0.010 A 
HETATM   10  C14 UNL     1       9.078  -5.233  17.095  1.00  0.00     0.031 A 
BRANCH   8  11
HETATM   11  C2  UNL     1      10.869  -4.990  20.324  1.00  0.00     0.010 C 
HETATM   12  C1  UNL     1      11.567  -6.320  20.137  1.00  0.00     0.015 C 
HETATM   13  C3  UNL     1      10.258  -4.872  21.700  1.00  0.00     0.015 C 
ENDBRANCH   8  11
ENDBRANCH   1   5
BRANCH   3  14
HETATM   14  C8  UNL     1       4.605  -4.518  15.527  1.00  0.00     0.048 A 
HETATM   15  C9  UNL     1       4.243  -5.708  14.930  1.00  0.00     0.034 A 
HETATM   16  C10 UNL     1       3.327  -5.792  13.902  1.00  0.00     0.039 A 
HETATM   17  C11 UNL     1       2.745  -4.628  13.448  1.00  0.00     0.065 A 
HETATM   18  C12 UNL     1       3.109  -3.427  14.048  1.00  0.00     0.039 A 
HETATM   19  C13 UNL     1       4.029  -3.363  15.077  1.00  0.00     0.034 A 
BRANCH  17  20
HETATM   20  O1  UNL     1       1.810  -4.608  12.418  1.00  0.00    -0.361 OA
ATOM     21  H1  UNL     1       1.454  -3.802  12.065  1.00  0.00     0.217 HD
ENDBRANCH  17  20
ENDBRANCH   3  14
TORSDOF 4
ENDMDL
