MODEL 13
REMARK VINA RESULT: -8.366949771      3.815      8.125
REMARK  4 active torsions:
REMARK  status: ('A' for Active; 'I' for Inactive)
REMARK    1  A    between atoms: C2_2  and  C4_4 
REMARK    2  A    between atoms: C7_7  and  N1_8 
REMARK    3  A    between atoms: N2_10  and  C8_12 
REMARK    4  A    between atoms: C11_15  and  O1_16 
ROOT
HETATM    1  N1  UNL     1       6.517  -3.709  17.763  1.00  0.00    -0.300 N 
ATOM      2  H1  UNL     1       6.573  -2.913  18.397  1.00  0.00     0.187 HD
HETATM    3  N2  UNL     1       7.293  -4.688  17.973  1.00  0.00    -0.300 N 
ATOM      4  H2  UNL     1       7.258  -5.496  17.352  1.00  0.00     0.187 HD
ENDROOT
BRANCH   1   5
HETATM    5  C7  UNL     1       5.579  -3.647  16.707  1.00  0.00     0.048 A 
HETATM    6  C6  UNL     1       4.727  -2.568  16.556  1.00  0.00     0.031 A 
HETATM    7  C5  UNL     1       3.811  -2.506  15.527  1.00  0.00     0.010 A 
HETATM    8  C4  UNL     1       3.740  -3.544  14.622  1.00  0.00    -0.055 A 
HETATM    9  C15 UNL     1       4.580  -4.629  14.753  1.00  0.00     0.010 A 
HETATM   10  C14 UNL     1       5.471  -4.658  15.780  1.00  0.00     0.031 A 
BRANCH   8  11
HETATM   11  C2  UNL     1       2.784  -3.552  13.489  1.00  0.00     0.010 C 
HETATM   12  C1  UNL     1       1.559  -4.316  13.943  1.00  0.00     0.015 C 
HETATM   13  C3  UNL     1       3.461  -4.231  12.323  1.00  0.00     0.015 C 
ENDBRANCH   8  11
ENDBRANCH   1   5
BRANCH   3  14
HETATM   14  C8  UNL     1       8.226  -4.684  19.071  1.00  0.00     0.048 A 
HETATM   15  C9  UNL     1       7.825  -4.200  20.300  1.00  0.00     0.034 A 
HETATM   16  C10 UNL     1       8.651  -4.158  21.404  1.00  0.00     0.039 A 
HETATM   17  C11 UNL     1       9.943  -4.622  21.273  1.00  0.00     0.065 A 
HETATM   18  C12 UNL     1      10.349  -5.109  20.036  1.00  0.00     0.039 A 
HETATM   19  C13 UNL     1       9.507  -5.144  18.940  1.00  0.00     0.034 A 
BRANCH  17  20
HETATM   20  O1  UNL     1      10.850  -4.622  22.327  1.00  0.00    -0.361 OA
ATOM     21  H1  UNL     1      11.511  -5.295  22.434  1.00  0.00     0.217 HD
ENDBRANCH  17  20
ENDBRANCH   3  14
TORSDOF 4
ENDMDL
