MODEL 3
REMARK VINA RESULT: -8.567524414      0.070      1.119
REMARK  4 active torsions:
REMARK  status: ('A' for Active; 'I' for Inactive)
REMARK    1  A    between atoms: C2_2  and  C4_4 
REMARK    2  A    between atoms: C7_7  and  N1_8 
REMARK    3  A    between atoms: N2_10  and  C8_12 
REMARK    4  A    between atoms: C11_15  and  O1_16 
ROOT
HETATM    1  N1  UNL     1       5.608  -4.340  15.572  1.00  0.00    -0.300 N 
ATOM      2  H1  UNL     1       5.670  -3.833  14.689  1.00  0.00     0.187 HD
HETATM    3  N2  UNL     1       4.509  -4.902  15.855  1.00  0.00    -0.300 N 
ATOM      4  H2  UNL     1       4.422  -5.415  16.732  1.00  0.00     0.187 HD
ENDROOT
BRANCH   1   5
HETATM    5  C7  UNL     1       6.756  -4.370  16.397  1.00  0.00     0.048 A 
HETATM    6  C6  UNL     1       7.647  -5.427  16.363  1.00  0.00     0.031 A 
HETATM    7  C5  UNL     1       8.767  -5.456  17.167  1.00  0.00     0.010 A 
HETATM    8  C4  UNL     1       9.009  -4.407  18.028  1.00  0.00    -0.055 A 
HETATM    9  C15 UNL     1       8.134  -3.342  18.078  1.00  0.00     0.010 A 
HETATM   10  C14 UNL     1       7.039  -3.346  17.272  1.00  0.00     0.031 A 
BRANCH   8  11
HETATM   11  C2  UNL     1      10.190  -4.364  18.924  1.00  0.00     0.010 C 
HETATM   12  C1  UNL     1      10.747  -5.769  18.997  1.00  0.00     0.015 C 
HETATM   13  C3  UNL     1       9.723  -3.880  20.275  1.00  0.00     0.015 C 
ENDBRANCH   8  11
ENDBRANCH   1   5
BRANCH   3  14
HETATM   14  C8  UNL     1       3.378  -4.831  14.964  1.00  0.00     0.048 A 
HETATM   15  C9  UNL     1       3.412  -3.961  13.894  1.00  0.00     0.034 A 
HETATM   16  C10 UNL     1       2.376  -3.828  12.993  1.00  0.00     0.039 A 
HETATM   17  C11 UNL     1       1.250  -4.604  13.172  1.00  0.00     0.065 A 
HETATM   18  C12 UNL     1       1.214  -5.481  14.249  1.00  0.00     0.039 A 
HETATM   19  C13 UNL     1       2.263  -5.601  15.142  1.00  0.00     0.034 A 
BRANCH  17  20
HETATM   20  O1  UNL     1       0.154  -4.543  12.318  1.00  0.00    -0.361 OA
ATOM     21  H1  UNL     1       0.214  -4.747  11.392  1.00  0.00     0.217 HD
ENDBRANCH  17  20
ENDBRANCH   3  14
TORSDOF 4
ENDMDL
