MODEL 4
REMARK VINA RESULT: -8.566013013      3.302      8.067
REMARK  4 active torsions:
REMARK  status: ('A' for Active; 'I' for Inactive)
REMARK    1  A    between atoms: C2_2  and  C4_4 
REMARK    2  A    between atoms: C7_7  and  N1_8 
REMARK    3  A    between atoms: N2_10  and  C8_12 
REMARK    4  A    between atoms: C11_15  and  O1_16 
ROOT
HETATM    1  N1  UNL     1       5.550  -4.547  16.389  1.00  0.00    -0.300 N 
ATOM      2  H1  UNL     1       5.423  -4.205  17.342  1.00  0.00     0.187 HD
HETATM    3  N2  UNL     1       6.708  -4.933  16.050  1.00  0.00    -0.300 N 
ATOM      4  H2  UNL     1       6.861  -5.278  15.103  1.00  0.00     0.187 HD
ENDROOT
BRANCH   1   5
HETATM    5  C7  UNL     1       4.423  -4.557  15.537  1.00  0.00     0.048 A 
HETATM    6  C6  UNL     1       3.684  -3.412  15.296  1.00  0.00     0.031 A 
HETATM    7  C5  UNL     1       2.584  -3.422  14.464  1.00  0.00     0.010 A 
HETATM    8  C4  UNL     1       2.208  -4.599  13.853  1.00  0.00    -0.055 A 
HETATM    9  C15 UNL     1       2.931  -5.752  14.078  1.00  0.00     0.010 A 
HETATM   10  C14 UNL     1       4.010  -5.708  14.905  1.00  0.00     0.031 A 
BRANCH   8  11
HETATM   11  C2  UNL     1       1.040  -4.691  12.946  1.00  0.00     0.010 C 
HETATM   12  C1  UNL     1       0.667  -3.278  12.553  1.00  0.00     0.015 C 
HETATM   13  C3  UNL     1      -0.076  -5.371  13.701  1.00  0.00     0.015 C 
ENDBRANCH   8  11
ENDBRANCH   1   5
BRANCH   3  14
HETATM   14  C8  UNL     1       7.813  -4.895  16.974  1.00  0.00     0.048 A 
HETATM   15  C9  UNL     1       7.568  -4.688  18.316  1.00  0.00     0.034 A 
HETATM   16  C10 UNL     1       8.564  -4.636  19.269  1.00  0.00     0.039 A 
HETATM   17  C11 UNL     1       9.870  -4.799  18.859  1.00  0.00     0.065 A 
HETATM   18  C12 UNL     1      10.120  -5.009  17.508  1.00  0.00     0.039 A 
HETATM   19  C13 UNL     1       9.107  -5.057  16.567  1.00  0.00     0.034 A 
BRANCH  17  20
HETATM   20  O1  UNL     1      10.943  -4.765  19.743  1.00  0.00    -0.361 OA
ATOM     21  H1  UNL     1      11.590  -4.069  19.737  1.00  0.00     0.217 HD
ENDBRANCH  17  20
ENDBRANCH   3  14
TORSDOF 4
ENDMDL
