MODEL 13
REMARK VINA RESULT: -6.277334656      3.562      5.472
REMARK  2 active torsions:
REMARK  status: ('A' for Active; 'I' for Inactive)
REMARK    1  A    between atoms: O1_2  and  C2_3 
REMARK    2  A    between atoms: C7_8  and  C8_9 
ROOT
HETATM    1  C8  UNL     1      55.388  34.956  87.661  1.00  0.00     0.050 A 
HETATM    2  C9  UNL     1      56.432  34.467  88.406  1.00  0.00     0.072 A 
HETATM    3  C10 UNL     1      56.377  34.455  89.793  1.00  0.00     0.107 A 
HETATM    4 CL1  UNL     1      57.726  33.825  90.700  1.00  0.00    -0.064 Cl
HETATM    5  N1  UNL     1      55.264  34.938  90.364  1.00  0.00    -0.321 N 
ATOM      6  H1  UNL     1      55.204  34.936  91.382  1.00  0.00     0.169 HD
HETATM    7  C11 UNL     1      54.230  35.420  89.674  1.00  0.00     0.194 A 
HETATM    8  N2  UNL     1      53.080  35.917  90.360  1.00  0.00    -0.063 NA
HETATM    9  N3  UNL     1      54.320  35.415  88.337  1.00  0.00    -0.330 N 
ATOM     10  H3  UNL     1      53.533  35.782  87.801  1.00  0.00     0.168 HD
ENDROOT
BRANCH   1  11
HETATM   11  C7  UNL     1      55.430  34.976  86.211  1.00  0.00     0.024 A 
HETATM   12  C2  UNL     1      55.652  36.189  85.578  1.00  0.00     0.080 A 
HETATM   13  C3  UNL     1      55.703  36.271  84.189  1.00  0.00     0.037 A 
HETATM   14  C4  UNL     1      55.535  35.156  83.398  1.00  0.00     0.003 A 
HETATM   15  C5  UNL     1      55.313  33.949  84.019  1.00  0.00     0.001 A 
HETATM   16  C6  UNL     1      55.263  33.870  85.420  1.00  0.00     0.016 A 
BRANCH  12  17
HETATM   17  O1  UNL     1      55.821  37.309  86.376  1.00  0.00    -0.355 OA
HETATM   18  C1  UNL     1      55.079  38.467  86.048  1.00  0.00     0.210 C 
ENDBRANCH  12  17
ENDBRANCH   1  11
TORSDOF 2
ENDMDL
