MODEL 10
REMARK VINA RESULT: -6.313855903      3.438      5.494
REMARK  2 active torsions:
REMARK  status: ('A' for Active; 'I' for Inactive)
REMARK    1  A    between atoms: O1_2  and  C2_3 
REMARK    2  A    between atoms: C7_8  and  C8_9 
ROOT
HETATM    1  C8  UNL     1      55.591  36.203  87.826  1.00  0.00     0.050 A 
HETATM    2  C9  UNL     1      56.646  36.706  88.546  1.00  0.00     0.072 A 
HETATM    3  C10 UNL     1      56.976  36.185  89.789  1.00  0.00     0.107 A 
HETATM    4 CL1  UNL     1      58.325  36.855  90.670  1.00  0.00    -0.064 Cl
HETATM    5  N1  UNL     1      56.222  35.176  90.250  1.00  0.00    -0.321 N 
ATOM      6  H1  UNL     1      56.450  34.780  91.161  1.00  0.00     0.169 HD
HETATM    7  C11 UNL     1      55.190  34.662  89.580  1.00  0.00     0.194 A 
HETATM    8  N2  UNL     1      54.436  33.587  90.141  1.00  0.00    -0.063 NA
HETATM    9  N3  UNL     1      54.902  35.190  88.383  1.00  0.00    -0.330 N 
ATOM     10  H3  UNL     1      54.115  34.802  87.863  1.00  0.00     0.168 HD
ENDROOT
BRANCH   1  11
HETATM   11  C7  UNL     1      55.232  36.735  86.525  1.00  0.00     0.024 A 
HETATM   12  C2  UNL     1      55.209  35.868  85.444  1.00  0.00     0.080 A 
HETATM   13  C3  UNL     1      54.873  36.321  84.172  1.00  0.00     0.037 A 
HETATM   14  C4  UNL     1      54.553  37.640  83.942  1.00  0.00     0.003 A 
HETATM   15  C5  UNL     1      54.574  38.508  85.010  1.00  0.00     0.001 A 
HETATM   16  C6  UNL     1      54.913  38.046  86.291  1.00  0.00     0.016 A 
BRANCH  12  17
HETATM   17  O1  UNL     1      55.532  34.541  85.679  1.00  0.00    -0.355 OA
HETATM   18  C1  UNL     1      55.134  33.587  84.714  1.00  0.00     0.210 C 
ENDBRANCH  12  17
ENDBRANCH   1  11
TORSDOF 2
ENDMDL
