MODEL 9
REMARK VINA RESULT: -6.378944780      2.813      3.997
REMARK  2 active torsions:
REMARK  status: ('A' for Active; 'I' for Inactive)
REMARK    1  A    between atoms: O1_2  and  C2_3 
REMARK    2  A    between atoms: C7_8  and  C8_9 
ROOT
HETATM    1  C8  UNL     1      55.068  35.636  86.443  1.00  0.00     0.050 A 
HETATM    2  C9  UNL     1      54.050  34.871  86.958  1.00  0.00     0.072 A 
HETATM    3  C10 UNL     1      53.669  33.684  86.349  1.00  0.00     0.107 A 
HETATM    4 CL1  UNL     1      52.371  32.744  87.037  1.00  0.00    -0.064 Cl
HETATM    5  N1  UNL     1      54.337  33.322  85.243  1.00  0.00    -0.321 N 
ATOM      6  H1  UNL     1      54.072  32.452  84.782  1.00  0.00     0.169 HD
HETATM    7  C11 UNL     1      55.329  34.038  84.714  1.00  0.00     0.194 A 
HETATM    8  N2  UNL     1      55.991  33.582  83.532  1.00  0.00    -0.063 NA
HETATM    9  N3  UNL     1      55.670  35.178  85.330  1.00  0.00    -0.330 N 
ATOM     10  H3  UNL     1      56.429  35.731  84.933  1.00  0.00     0.168 HD
ENDROOT
BRANCH   1  11
HETATM   11  C7  UNL     1      55.479  36.879  87.067  1.00  0.00     0.024 A 
HETATM   12  C2  UNL     1      56.357  36.817  88.138  1.00  0.00     0.080 A 
HETATM   13  C3  UNL     1      56.785  37.977  88.777  1.00  0.00     0.037 A 
HETATM   14  C4  UNL     1      56.356  39.221  88.371  1.00  0.00     0.003 A 
HETATM   15  C5  UNL     1      55.483  39.290  87.310  1.00  0.00     0.001 A 
HETATM   16  C6  UNL     1      55.054  38.118  86.667  1.00  0.00     0.016 A 
BRANCH  12  17
HETATM   17  O1  UNL     1      56.787  35.565  88.544  1.00  0.00    -0.355 OA
HETATM   18  C1  UNL     1      57.657  35.498  89.657  1.00  0.00     0.210 C 
ENDBRANCH  12  17
ENDBRANCH   1  11
TORSDOF 2
ENDMDL
