MODEL 16
REMARK VINA RESULT: -6.128965888      5.123      6.313
REMARK  2 active torsions:
REMARK  status: ('A' for Active; 'I' for Inactive)
REMARK    1  A    between atoms: O1_2  and  C2_3 
REMARK    2  A    between atoms: C7_8  and  C8_9 
ROOT
HETATM    1  C8  UNL     1      57.116  38.986  88.371  1.00  0.00     0.050 A 
HETATM    2  C9  UNL     1      56.598  39.548  89.512  1.00  0.00     0.072 A 
HETATM    3  C10 UNL     1      57.420  40.175  90.437  1.00  0.00     0.107 A 
HETATM    4 CL1  UNL     1      56.719  40.875  91.872  1.00  0.00    -0.064 Cl
HETATM    5  N1  UNL     1      58.733  40.205  90.167  1.00  0.00    -0.321 N 
ATOM      6  H1  UNL     1      59.353  40.662  90.835  1.00  0.00     0.169 HD
HETATM    7  C11 UNL     1      59.273  39.670  89.071  1.00  0.00     0.194 A 
HETATM    8  N2  UNL     1      60.683  39.745  88.858  1.00  0.00    -0.063 NA
HETATM    9  N3  UNL     1      58.448  39.075  88.200  1.00  0.00    -0.330 N 
ATOM     10  H3  UNL     1      58.852  38.664  87.359  1.00  0.00     0.168 HD
ENDROOT
BRANCH   1  11
HETATM   11  C7  UNL     1      56.271  38.327  87.394  1.00  0.00     0.024 A 
HETATM   12  C2  UNL     1      56.095  36.956  87.496  1.00  0.00     0.080 A 
HETATM   13  C3  UNL     1      55.296  36.269  86.587  1.00  0.00     0.037 A 
HETATM   14  C4  UNL     1      54.654  36.922  85.558  1.00  0.00     0.003 A 
HETATM   15  C5  UNL     1      54.825  38.283  85.450  1.00  0.00     0.001 A 
HETATM   16  C6  UNL     1      55.631  38.973  86.369  1.00  0.00     0.016 A 
BRANCH  12  17
HETATM   17  O1  UNL     1      56.742  36.301  88.531  1.00  0.00    -0.355 OA
HETATM   18  C1  UNL     1      56.640  34.891  88.583  1.00  0.00     0.210 C 
ENDBRANCH  12  17
ENDBRANCH   1  11
TORSDOF 2
ENDMDL
