MODEL 6
REMARK VINA RESULT: -7.415841060      4.191      5.646
REMARK  6 active torsions:
REMARK  status: ('A' for Active; 'I' for Inactive)
REMARK    1  A    between atoms: C4_4  and  C5_5 
REMARK    2  A    between atoms: C10_11  and  O1_12 
REMARK    3  A    between atoms: O1_12  and  C11_13 
REMARK    4  A    between atoms: C11_13  and  C12_14 
REMARK    5  A    between atoms: C12_14  and  C13_15 
REMARK    6  A    between atoms: C13_15  and  C14_16 
ROOT
HETATM    1  C5  UNL     1      14.371  -1.692  50.628  1.00  0.00     0.046 A 
HETATM    2  C6  UNL     1      14.822  -0.947  49.590  1.00  0.00     0.049 A 
HETATM    3 CL1  UNL     1      16.560  -0.696  49.329  1.00  0.00    -0.083 Cl
HETATM    4  C7  UNL     1      13.917  -0.373  48.721  1.00  0.00     0.025 A 
HETATM    5  C8  UNL     1      12.571  -0.550  48.900  1.00  0.00     0.004 A 
HETATM    6  C9  UNL     1      12.127  -1.307  49.955  1.00  0.00     0.038 A 
HETATM    7  C10 UNL     1      12.986  -1.918  50.873  1.00  0.00     0.083 A 
ENDROOT
BRANCH   1   8
HETATM    8  C4  UNL     1      15.352  -2.302  51.552  1.00  0.00     0.051 A 
HETATM    9  C3  UNL     1      15.785  -1.609  52.652  1.00  0.00     0.055 A 
HETATM   10  C2  UNL     1      16.700  -2.142  53.539  1.00  0.00     0.010 A 
HETATM   11  C1  UNL     1      17.164  -1.385  54.728  1.00  0.00     0.068 C 
HETATM   12  N3  UNL     1      17.141  -3.393  53.253  1.00  0.00    -0.334 N 
HETATM   13  C15 UNL     1      16.731  -4.085  52.183  1.00  0.00     0.193 A 
ATOM     14  H3  UNL     1      17.817  -3.827  53.883  1.00  0.00     0.168 HD
HETATM   15  N1  UNL     1      15.829  -3.549  51.318  1.00  0.00    -0.330 N 
HETATM   16  N2  UNL     1      17.215  -5.404  51.906  1.00  0.00    -0.063 NA
ATOM     17  H1  UNL     1      15.516  -4.077  50.503  1.00  0.00     0.168 HD
ENDBRANCH   1   8
BRANCH   7  18
HETATM   18  O1  UNL     1      12.644  -2.651  51.902  1.00  0.00    -0.350 OA
BRANCH  18  19
HETATM   19  C11 UNL     1      12.090  -2.866  53.070  1.00  0.00     0.176 C 
BRANCH  19  20
HETATM   20  C12 UNL     1      11.774  -1.738  54.012  1.00  0.00     0.035 C 
BRANCH  20  21
HETATM   21  C13 UNL     1      10.700  -1.967  55.003  1.00  0.00     0.119 C 
BRANCH  21  22
HETATM   22  C14 UNL     1       9.418  -1.237  54.747  1.00  0.00     0.388 C 
HETATM   23  F1  UNL     1       8.991  -1.180  53.466  1.00  0.00    -0.171 F 
HETATM   24  F2  UNL     1       8.422  -1.927  55.459  1.00  0.00    -0.171 F 
HETATM   25  F3  UNL     1       9.475   0.028  55.304  1.00  0.00    -0.171 F 
ENDBRANCH  21  22
ENDBRANCH  20  21
ENDBRANCH  19  20
ENDBRANCH  18  19
ENDBRANCH   7  18
TORSDOF 6
ENDMDL
