MODEL 2
REMARK VINA RESULT: -7.813482962      1.027      1.934
REMARK  6 active torsions:
REMARK  status: ('A' for Active; 'I' for Inactive)
REMARK    1  A    between atoms: C4_4  and  C5_5 
REMARK    2  A    between atoms: C10_11  and  O1_12 
REMARK    3  A    between atoms: O1_12  and  C11_13 
REMARK    4  A    between atoms: C11_13  and  C12_14 
REMARK    5  A    between atoms: C12_14  and  C13_15 
REMARK    6  A    between atoms: C13_15  and  C14_16 
ROOT
HETATM    1  C5  UNL     1      13.575  -1.298  51.397  1.00  0.00     0.046 A 
HETATM    2  C6  UNL     1      12.465  -1.160  50.632  1.00  0.00     0.049 A 
HETATM    3 CL1  UNL     1      12.583  -0.955  48.873  1.00  0.00    -0.083 Cl
HETATM    4  C7  UNL     1      11.222  -1.179  51.229  1.00  0.00     0.025 A 
HETATM    5  C8  UNL     1      11.102  -1.336  52.585  1.00  0.00     0.004 A 
HETATM    6  C9  UNL     1      12.234  -1.474  53.347  1.00  0.00     0.038 A 
HETATM    7  C10 UNL     1      13.524  -1.465  52.810  1.00  0.00     0.083 A 
ENDROOT
BRANCH   1   8
HETATM    8  C4  UNL     1      14.903  -1.276  50.743  1.00  0.00     0.051 A 
HETATM    9  C3  UNL     1      15.543  -2.450  50.445  1.00  0.00     0.055 A 
HETATM   10  C2  UNL     1      16.782  -2.473  49.835  1.00  0.00     0.010 A 
HETATM   11  C1  UNL     1      17.468  -3.749  49.516  1.00  0.00     0.068 C 
HETATM   12  N3  UNL     1      17.324  -1.262  49.550  1.00  0.00    -0.334 N 
HETATM   13  C15 UNL     1      16.714  -0.104  49.835  1.00  0.00     0.193 A 
ATOM     14  H3  UNL     1      18.237  -1.232  49.098  1.00  0.00     0.168 HD
HETATM   15  N1  UNL     1      15.493  -0.096  50.435  1.00  0.00    -0.330 N 
HETATM   16  N2  UNL     1      17.311   1.159  49.523  1.00  0.00    -0.063 NA
ATOM     17  H1  UNL     1      15.029   0.786  50.650  1.00  0.00     0.168 HD
ENDBRANCH   1   8
BRANCH   7  18
HETATM   18  O1  UNL     1      14.650  -1.590  53.466  1.00  0.00    -0.350 OA
BRANCH  18  19
HETATM   19  C11 UNL     1      15.386  -1.680  54.547  1.00  0.00     0.176 C 
BRANCH  19  20
HETATM   20  C12 UNL     1      16.875  -1.481  54.504  1.00  0.00     0.035 C 
BRANCH  20  21
HETATM   21  C13 UNL     1      17.627  -2.222  53.468  1.00  0.00     0.119 C 
BRANCH  21  22
HETATM   22  C14 UNL     1      17.565  -3.715  53.566  1.00  0.00     0.388 C 
HETATM   23  F1  UNL     1      16.514  -4.324  52.976  1.00  0.00    -0.171 F 
HETATM   24  F2  UNL     1      18.713  -4.201  52.918  1.00  0.00    -0.171 F 
HETATM   25  F3  UNL     1      17.682  -4.106  54.888  1.00  0.00    -0.171 F 
ENDBRANCH  21  22
ENDBRANCH  20  21
ENDBRANCH  19  20
ENDBRANCH  18  19
ENDBRANCH   7  18
TORSDOF 6
ENDMDL
