MODEL 7
REMARK VINA RESULT: -7.382112015      3.466      5.243
REMARK  6 active torsions:
REMARK  status: ('A' for Active; 'I' for Inactive)
REMARK    1  A    between atoms: C4_4  and  C5_5 
REMARK    2  A    between atoms: C10_11  and  O1_12 
REMARK    3  A    between atoms: O1_12  and  C11_13 
REMARK    4  A    between atoms: C11_13  and  C12_14 
REMARK    5  A    between atoms: C12_14  and  C13_15 
REMARK    6  A    between atoms: C13_15  and  C14_16 
ROOT
HETATM    1  C5  UNL     1      16.277  -3.068  51.731  1.00  0.00     0.046 A 
HETATM    2  C6  UNL     1      16.950  -4.079  51.130  1.00  0.00     0.049 A 
HETATM    3 CL1  UNL     1      17.281  -4.050  49.386  1.00  0.00    -0.083 Cl
HETATM    4  C7  UNL     1      17.385  -5.148  51.884  1.00  0.00     0.025 A 
HETATM    5  C8  UNL     1      17.144  -5.196  53.231  1.00  0.00     0.004 A 
HETATM    6  C9  UNL     1      16.461  -4.165  53.828  1.00  0.00     0.038 A 
HETATM    7  C10 UNL     1      15.992  -3.052  53.126  1.00  0.00     0.083 A 
ENDROOT
BRANCH   1   8
HETATM    8  C4  UNL     1      15.816  -1.926  50.910  1.00  0.00     0.051 A 
HETATM    9  C3  UNL     1      14.547  -1.919  50.393  1.00  0.00     0.055 A 
HETATM   10  C2  UNL     1      14.079  -0.873  49.621  1.00  0.00     0.010 A 
HETATM   11  C1  UNL     1      12.704  -0.872  49.065  1.00  0.00     0.068 C 
HETATM   12  N3  UNL     1      14.952   0.145  49.411  1.00  0.00    -0.334 N 
HETATM   13  C15 UNL     1      16.195   0.154  49.907  1.00  0.00     0.193 A 
ATOM     14  H3  UNL     1      14.647   0.939  48.848  1.00  0.00     0.168 HD
HETATM   15  N1  UNL     1      16.645  -0.882  50.665  1.00  0.00    -0.330 N 
HETATM   16  N2  UNL     1      17.095   1.242  49.667  1.00  0.00    -0.063 NA
ATOM     17  H1  UNL     1      17.592  -0.873  51.043  1.00  0.00     0.168 HD
ENDBRANCH   1   8
BRANCH   7  18
HETATM   18  O1  UNL     1      15.335  -2.033  53.619  1.00  0.00    -0.350 OA
BRANCH  18  19
HETATM   19  C11 UNL     1      14.450  -1.459  54.396  1.00  0.00     0.176 C 
BRANCH  19  20
HETATM   20  C12 UNL     1      12.979  -1.735  54.254  1.00  0.00     0.035 C 
BRANCH  20  21
HETATM   21  C13 UNL     1      12.257  -1.012  53.184  1.00  0.00     0.119 C 
BRANCH  21  22
HETATM   22  C14 UNL     1      10.878  -1.512  52.881  1.00  0.00     0.388 C 
HETATM   23  F1  UNL     1       9.865  -0.985  53.603  1.00  0.00    -0.171 F 
HETATM   24  F2  UNL     1      10.620  -1.174  51.542  1.00  0.00    -0.171 F 
HETATM   25  F3  UNL     1      10.855  -2.894  52.935  1.00  0.00    -0.171 F 
ENDBRANCH  21  22
ENDBRANCH  20  21
ENDBRANCH  19  20
ENDBRANCH  18  19
ENDBRANCH   7  18
TORSDOF 6
ENDMDL
