MODEL 5
REMARK VINA RESULT: -7.467121284      1.524      2.341
REMARK  6 active torsions:
REMARK  status: ('A' for Active; 'I' for Inactive)
REMARK    1  A    between atoms: C4_4  and  C5_5 
REMARK    2  A    between atoms: C10_11  and  O1_12 
REMARK    3  A    between atoms: O1_12  and  C11_13 
REMARK    4  A    between atoms: C11_13  and  C12_14 
REMARK    5  A    between atoms: C12_14  and  C13_15 
REMARK    6  A    between atoms: C13_15  and  C14_16 
ROOT
HETATM    1  C5  UNL     1      13.662  -1.175  51.334  1.00  0.00     0.046 A 
HETATM    2  C6  UNL     1      12.532  -1.078  50.592  1.00  0.00     0.049 A 
HETATM    3 CL1  UNL     1      12.607  -0.809  48.839  1.00  0.00    -0.083 Cl
HETATM    4  C7  UNL     1      11.303  -1.190  51.208  1.00  0.00     0.025 A 
HETATM    5  C8  UNL     1      11.217  -1.397  52.559  1.00  0.00     0.004 A 
HETATM    6  C9  UNL     1      12.369  -1.493  53.298  1.00  0.00     0.038 A 
HETATM    7  C10 UNL     1      13.646  -1.391  52.741  1.00  0.00     0.083 A 
ENDROOT
BRANCH   1   8
HETATM    8  C4  UNL     1      14.974  -1.054  50.660  1.00  0.00     0.051 A 
HETATM    9  C3  UNL     1      15.698  -2.176  50.356  1.00  0.00     0.055 A 
HETATM   10  C2  UNL     1      16.927  -2.106  49.728  1.00  0.00     0.010 A 
HETATM   11  C1  UNL     1      17.705  -3.327  49.403  1.00  0.00     0.068 C 
HETATM   12  N3  UNL     1      17.369  -0.858  49.431  1.00  0.00    -0.334 N 
HETATM   13  C15 UNL     1      16.676   0.250  49.720  1.00  0.00     0.193 A 
ATOM     14  H3  UNL     1      18.270  -0.760  48.965  1.00  0.00     0.168 HD
HETATM   15  N1  UNL     1      15.467   0.167  50.339  1.00  0.00    -0.330 N 
HETATM   16  N2  UNL     1      17.168   1.555  49.395  1.00  0.00    -0.063 NA
ATOM     17  H1  UNL     1      14.939   1.012  50.558  1.00  0.00     0.168 HD
ENDBRANCH   1   8
BRANCH   7  18
HETATM   18  O1  UNL     1      14.788  -1.470  53.375  1.00  0.00    -0.350 OA
BRANCH  18  19
HETATM   19  C11 UNL     1      15.570  -1.821  54.366  1.00  0.00     0.176 C 
BRANCH  19  20
HETATM   20  C12 UNL     1      15.947  -3.257  54.602  1.00  0.00     0.035 C 
BRANCH  20  21
HETATM   21  C13 UNL     1      16.568  -3.986  53.475  1.00  0.00     0.119 C 
BRANCH  21  22
HETATM   22  C14 UNL     1      15.693  -4.994  52.796  1.00  0.00     0.388 C 
HETATM   23  F1  UNL     1      14.491  -4.563  52.354  1.00  0.00    -0.171 F 
HETATM   24  F2  UNL     1      16.396  -5.425  51.658  1.00  0.00    -0.171 F 
HETATM   25  F3  UNL     1      15.550  -6.112  53.599  1.00  0.00    -0.171 F 
ENDBRANCH  21  22
ENDBRANCH  20  21
ENDBRANCH  19  20
ENDBRANCH  18  19
ENDBRANCH   7  18
TORSDOF 6
ENDMDL
