MODEL 8
REMARK VINA RESULT: -7.366681840      4.226      5.829
REMARK  6 active torsions:
REMARK  status: ('A' for Active; 'I' for Inactive)
REMARK    1  A    between atoms: C4_4  and  C5_5 
REMARK    2  A    between atoms: C10_11  and  O1_12 
REMARK    3  A    between atoms: O1_12  and  C11_13 
REMARK    4  A    between atoms: C11_13  and  C12_14 
REMARK    5  A    between atoms: C12_14  and  C13_15 
REMARK    6  A    between atoms: C13_15  and  C14_16 
ROOT
HETATM    1  C5  UNL     1      14.347  -1.636  50.658  1.00  0.00     0.046 A 
HETATM    2  C6  UNL     1      14.783  -0.939  49.581  1.00  0.00     0.049 A 
HETATM    3 CL1  UNL     1      16.516  -0.689  49.291  1.00  0.00    -0.083 Cl
HETATM    4  C7  UNL     1      13.866  -0.415  48.694  1.00  0.00     0.025 A 
HETATM    5  C8  UNL     1      12.523  -0.593  48.893  1.00  0.00     0.004 A 
HETATM    6  C9  UNL     1      12.095  -1.301  49.989  1.00  0.00     0.038 A 
HETATM    7  C10 UNL     1      12.967  -1.860  50.927  1.00  0.00     0.083 A 
ENDROOT
BRANCH   1   8
HETATM    8  C4  UNL     1      15.342  -2.193  51.601  1.00  0.00     0.051 A 
HETATM    9  C3  UNL     1      15.886  -3.431  51.377  1.00  0.00     0.055 A 
HETATM   10  C2  UNL     1      16.817  -3.986  52.234  1.00  0.00     0.010 A 
HETATM   11  C1  UNL     1      17.400  -5.327  51.984  1.00  0.00     0.068 C 
HETATM   12  N3  UNL     1      17.159  -3.230  53.307  1.00  0.00    -0.334 N 
HETATM   13  C15 UNL     1      16.638  -2.019  53.543  1.00  0.00     0.193 A 
ATOM     14  H3  UNL     1      17.844  -3.601  53.965  1.00  0.00     0.168 HD
HETATM   15  N1  UNL     1      15.722  -1.483  52.692  1.00  0.00    -0.330 N 
HETATM   16  N2  UNL     1      17.017  -1.244  54.686  1.00  0.00    -0.063 NA
ATOM     17  H1  UNL     1      15.326  -0.561  52.872  1.00  0.00     0.168 HD
ENDBRANCH   1   8
BRANCH   7  18
HETATM   18  O1  UNL     1      12.640  -2.544  51.993  1.00  0.00    -0.350 OA
BRANCH  18  19
HETATM   19  C11 UNL     1      12.074  -2.714  53.164  1.00  0.00     0.176 C 
BRANCH  19  20
HETATM   20  C12 UNL     1      11.834  -1.561  54.098  1.00  0.00     0.035 C 
BRANCH  20  21
HETATM   21  C13 UNL     1      10.795  -1.737  55.135  1.00  0.00     0.119 C 
BRANCH  21  22
HETATM   22  C14 UNL     1       9.471  -1.103  54.839  1.00  0.00     0.388 C 
HETATM   23  F1  UNL     1       9.046  -1.144  53.556  1.00  0.00    -0.171 F 
HETATM   24  F2  UNL     1       8.517  -1.811  55.588  1.00  0.00    -0.171 F 
HETATM   25  F3  UNL     1       9.448   0.192  55.324  1.00  0.00    -0.171 F 
ENDBRANCH  21  22
ENDBRANCH  20  21
ENDBRANCH  19  20
ENDBRANCH  18  19
ENDBRANCH   7  18
TORSDOF 6
ENDMDL
