MODEL 3
REMARK VINA RESULT: -7.791907415      1.174      2.145
REMARK  6 active torsions:
REMARK  status: ('A' for Active; 'I' for Inactive)
REMARK    1  A    between atoms: C4_4  and  C5_5 
REMARK    2  A    between atoms: C10_11  and  O1_12 
REMARK    3  A    between atoms: O1_12  and  C11_13 
REMARK    4  A    between atoms: C11_13  and  C12_14 
REMARK    5  A    between atoms: C12_14  and  C13_15 
REMARK    6  A    between atoms: C13_15  and  C14_16 
ROOT
HETATM    1  C5  UNL     1      13.484  -1.266  51.465  1.00  0.00     0.046 A 
HETATM    2  C6  UNL     1      12.366  -1.205  50.702  1.00  0.00     0.049 A 
HETATM    3 CL1  UNL     1      12.468  -1.099  48.933  1.00  0.00    -0.083 Cl
HETATM    4  C7  UNL     1      11.127  -1.227  51.309  1.00  0.00     0.025 A 
HETATM    5  C8  UNL     1      11.020  -1.308  52.672  1.00  0.00     0.004 A 
HETATM    6  C9  UNL     1      12.160  -1.369  53.433  1.00  0.00     0.038 A 
HETATM    7  C10 UNL     1      13.446  -1.353  52.886  1.00  0.00     0.083 A 
ENDROOT
BRANCH   1   8
HETATM    8  C4  UNL     1      14.806  -1.243  50.801  1.00  0.00     0.051 A 
HETATM    9  C3  UNL     1      15.444  -2.417  50.495  1.00  0.00     0.055 A 
HETATM   10  C2  UNL     1      16.679  -2.438  49.876  1.00  0.00     0.010 A 
HETATM   11  C1  UNL     1      17.362  -3.713  49.549  1.00  0.00     0.068 C 
HETATM   12  N3  UNL     1      17.218  -1.226  49.590  1.00  0.00    -0.334 N 
HETATM   13  C15 UNL     1      16.611  -0.069  49.882  1.00  0.00     0.193 A 
ATOM     14  H3  UNL     1      18.128  -1.195  49.131  1.00  0.00     0.168 HD
HETATM   15  N1  UNL     1      15.395  -0.062  50.491  1.00  0.00    -0.330 N 
HETATM   16  N2  UNL     1      17.205   1.195  49.568  1.00  0.00    -0.063 NA
ATOM     17  H1  UNL     1      14.932   0.820  50.712  1.00  0.00     0.168 HD
ENDBRANCH   1   8
BRANCH   7  18
HETATM   18  O1  UNL     1      14.579  -1.406  53.540  1.00  0.00    -0.350 OA
BRANCH  18  19
HETATM   19  C11 UNL     1      15.334  -1.662  54.580  1.00  0.00     0.176 C 
BRANCH  19  20
HETATM   20  C12 UNL     1      15.847  -3.047  54.860  1.00  0.00     0.035 C 
BRANCH  20  21
HETATM   21  C13 UNL     1      16.576  -3.731  53.770  1.00  0.00     0.119 C 
BRANCH  21  22
HETATM   22  C14 UNL     1      17.946  -3.204  53.477  1.00  0.00     0.388 C 
HETATM   23  F1  UNL     1      18.771  -3.025  54.532  1.00  0.00    -0.171 F 
HETATM   24  F2  UNL     1      18.567  -4.155  52.651  1.00  0.00    -0.171 F 
HETATM   25  F3  UNL     1      17.855  -2.048  52.722  1.00  0.00    -0.171 F 
ENDBRANCH  21  22
ENDBRANCH  20  21
ENDBRANCH  19  20
ENDBRANCH  18  19
ENDBRANCH   7  18
TORSDOF 6
ENDMDL
