MODEL 11
REMARK VINA RESULT: -7.652386767      3.797      6.589
REMARK  7 active torsions:
REMARK  status: ('A' for Active; 'I' for Inactive)
REMARK    1  A    between atoms: C2_2  and  C3_5 
REMARK    2  A    between atoms: C3_5  and  N1_6 
REMARK       I    between atoms: N1_6  and  C4_8 
REMARK       I    between atoms: C4_8  and  N2_10 
REMARK    3  A    between atoms: C8_19  and  C9_20 
REMARK    4  A    between atoms: C14_27  and  O2_28 
REMARK    5  A    between atoms: O2_28  and  C15_29 
REMARK    6  A    between atoms: C15_29  and  C16_30 
REMARK    7  A    between atoms: C16_30  and  N6_31 
ROOT
HETATM    1  N1  UNL     1      10.044  -2.223  55.554  1.00  0.00    -0.337 N 
ATOM      2  H1  UNL     1      10.212  -3.200  55.794  1.00  0.00     0.164 HD
HETATM    3  C4  UNL     1      10.919  -1.656  54.624  1.00  0.00     0.326 C 
HETATM    4  O1  UNL     1      10.782  -0.461  54.281  1.00  0.00    -0.246 OA
HETATM    5  N2  UNL     1      11.992  -2.390  54.027  1.00  0.00    -0.282 N 
HETATM    6  C5  UNL     1      12.264  -3.687  54.298  1.00  0.00     0.131 A 
HETATM    7  C6  UNL     1      13.354  -4.007  53.529  1.00  0.00     0.064 A 
HETATM    8  N3  UNL     1      14.056  -5.140  53.387  1.00  0.00    -0.329 N 
ATOM      9  H3  UNL     1      13.779  -5.961  53.925  1.00  0.00     0.168 HD
HETATM   10  C7  UNL     1      15.115  -5.234  52.557  1.00  0.00     0.193 A 
HETATM   11  N4  UNL     1      15.814  -6.470  52.458  1.00  0.00    -0.063 NA
HETATM   12  N5  UNL     1      15.471  -4.145  51.853  1.00  0.00    -0.329 N 
ATOM     13  H5  UNL     1      16.273  -4.220  51.226  1.00  0.00     0.168 HD
HETATM   14  C8  UNL     1      14.832  -2.964  51.926  1.00  0.00     0.063 A 
HETATM   15  C20 UNL     1      13.742  -2.912  52.796  1.00  0.00     0.036 A 
HETATM   16  C21 UNL     1      12.882  -1.915  53.119  1.00  0.00     0.117 A 
ENDROOT
BRANCH  14  17
HETATM   17  C9  UNL     1      15.229  -1.797  51.158  1.00  0.00     0.047 A 
HETATM   18  C10 UNL     1      14.385  -1.196  50.281  1.00  0.00     0.051 A 
HETATM   19 CL1  UNL     1      12.744  -1.776  49.998  1.00  0.00    -0.083 Cl
HETATM   20  C11 UNL     1      14.833  -0.098  49.591  1.00  0.00     0.048 A 
HETATM   21  C12 UNL     1      16.105   0.393  49.777  1.00  0.00     0.038 A 
HETATM   22 CL2  UNL     1      16.652   1.808  48.875  1.00  0.00    -0.084 Cl
HETATM   23  C13 UNL     1      16.989  -0.215  50.680  1.00  0.00     0.061 A 
HETATM   24  C14 UNL     1      16.536  -1.316  51.367  1.00  0.00     0.084 A 
BRANCH  24  25
HETATM   25  O2  UNL     1      17.348  -1.951  52.264  1.00  0.00    -0.348 OA
BRANCH  25  26
HETATM   26  C15 UNL     1      17.701  -1.673  53.558  1.00  0.00     0.197 C 
BRANCH  26  27
HETATM   27  C16 UNL     1      17.318  -2.765  54.497  1.00  0.00     0.175 C 
BRANCH  27  28
HETATM   28  N6  UNL     1      16.208  -2.382  55.358  1.00  0.00    -0.302 N 
HETATM   29  C17 UNL     1      15.604  -3.143  56.256  1.00  0.00     0.111 A 
HETATM   30  C18 UNL     1      14.593  -2.408  56.868  1.00  0.00     0.037 A 
HETATM   31  C19 UNL     1      14.652  -1.171  56.265  1.00  0.00     0.108 A 
HETATM   32  N7  UNL     1      15.640  -1.190  55.356  1.00  0.00    -0.310 N 
ATOM     33  H7  UNL     1      15.909  -0.407  54.758  1.00  0.00     0.186 HD
ENDBRANCH  27  28
ENDBRANCH  26  27
ENDBRANCH  25  26
ENDBRANCH  24  25
ENDBRANCH  14  17
BRANCH   1  34
HETATM   34  C3  UNL     1       8.937  -1.591  56.210  1.00  0.00     0.202 C 
BRANCH  34  35
HETATM   35  C2  UNL     1       8.188  -2.585  57.056  1.00  0.00     0.255 C 
HETATM   36  C1  UNL     1       6.726  -2.584  56.625  1.00  0.00     0.091 C 
HETATM   37  F1  UNL     1       8.688  -3.876  56.780  1.00  0.00    -0.205 F 
HETATM   38  F2  UNL     1       8.331  -2.421  58.390  1.00  0.00    -0.205 F 
ENDBRANCH  34  35
ENDBRANCH   1  34
TORSDOF 7
ENDMDL
