MODEL 1
REMARK VINA RESULT: -9.054331385      0.000      0.000
REMARK  7 active torsions:
REMARK  status: ('A' for Active; 'I' for Inactive)
REMARK    1  A    between atoms: C2_2  and  C3_5 
REMARK    2  A    between atoms: C3_5  and  N1_6 
REMARK       I    between atoms: N1_6  and  C4_8 
REMARK       I    between atoms: C4_8  and  N2_10 
REMARK    3  A    between atoms: C8_19  and  C9_20 
REMARK    4  A    between atoms: C14_27  and  O2_28 
REMARK    5  A    between atoms: O2_28  and  C15_29 
REMARK    6  A    between atoms: C15_29  and  C16_30 
REMARK    7  A    between atoms: C16_30  and  N6_31 
ROOT
HETATM    1  N1  UNL     1      17.385  -6.781  51.797  1.00  0.00    -0.337 N 
ATOM      2  H1  UNL     1      18.172  -6.312  51.348  1.00  0.00     0.164 HD
HETATM    3  C4  UNL     1      16.266  -5.988  52.064  1.00  0.00     0.326 C 
HETATM    4  O1  UNL     1      15.261  -6.488  52.618  1.00  0.00    -0.246 OA
HETATM    5  N2  UNL     1      16.207  -4.599  51.730  1.00  0.00    -0.282 N 
HETATM    6  C5  UNL     1      17.213  -3.921  51.131  1.00  0.00     0.131 A 
HETATM    7  C6  UNL     1      16.761  -2.634  50.988  1.00  0.00     0.064 A 
HETATM    8  N3  UNL     1      17.322  -1.534  50.467  1.00  0.00    -0.329 N 
ATOM      9  H3  UNL     1      18.266  -1.597  50.085  1.00  0.00     0.168 HD
HETATM   10  C7  UNL     1      16.684  -0.346  50.430  1.00  0.00     0.193 A 
HETATM   11  N4  UNL     1      17.344   0.780  49.861  1.00  0.00    -0.063 NA
HETATM   12  N5  UNL     1      15.441  -0.274  50.936  1.00  0.00    -0.329 N 
ATOM     13  H5  UNL     1      14.961   0.625  50.905  1.00  0.00     0.168 HD
HETATM   14  C8  UNL     1      14.793  -1.321  51.480  1.00  0.00     0.063 A 
HETATM   15  C20 UNL     1      15.490  -2.529  51.498  1.00  0.00     0.036 A 
HETATM   16  C21 UNL     1      15.162  -3.763  51.955  1.00  0.00     0.117 A 
ENDROOT
BRANCH  14  17
HETATM   17  C9  UNL     1      13.449  -1.227  52.023  1.00  0.00     0.047 A 
HETATM   18  C10 UNL     1      12.355  -1.172  51.221  1.00  0.00     0.051 A 
HETATM   19 CL1  UNL     1      12.469  -1.208  49.462  1.00  0.00    -0.083 Cl
HETATM   20  C11 UNL     1      11.118  -1.084  51.808  1.00  0.00     0.048 A 
HETATM   21  C12 UNL     1      10.978  -1.054  53.177  1.00  0.00     0.038 A 
HETATM   22 CL2  UNL     1       9.372  -0.940  53.902  1.00  0.00    -0.084 Cl
HETATM   23  C13 UNL     1      12.097  -1.111  54.019  1.00  0.00     0.061 A 
HETATM   24  C14 UNL     1      13.333  -1.197  53.426  1.00  0.00     0.084 A 
BRANCH  24  25
HETATM   25  O2  UNL     1      14.463  -1.259  54.193  1.00  0.00    -0.348 OA
BRANCH  25  26
HETATM   26  C15 UNL     1      14.672  -1.514  55.523  1.00  0.00     0.197 C 
BRANCH  26  27
HETATM   27  C16 UNL     1      15.227  -2.877  55.757  1.00  0.00     0.175 C 
BRANCH  27  28
HETATM   28  N6  UNL     1      16.563  -3.027  55.197  1.00  0.00    -0.302 N 
HETATM   29  C17 UNL     1      17.278  -4.138  55.143  1.00  0.00     0.111 A 
HETATM   30  C18 UNL     1      18.499  -3.864  54.533  1.00  0.00     0.037 A 
HETATM   31  C19 UNL     1      18.443  -2.520  54.237  1.00  0.00     0.108 A 
HETATM   32  N7  UNL     1      17.258  -2.044  54.653  1.00  0.00    -0.310 N 
ATOM     33  H7  UNL     1      16.944  -1.077  54.562  1.00  0.00     0.186 HD
ENDBRANCH  27  28
ENDBRANCH  26  27
ENDBRANCH  25  26
ENDBRANCH  24  25
ENDBRANCH  14  17
BRANCH   1  34
HETATM   34  C3  UNL     1      17.555  -8.176  52.079  1.00  0.00     0.202 C 
BRANCH  34  35
HETATM   35  C2  UNL     1      18.169  -8.367  53.440  1.00  0.00     0.255 C 
HETATM   36  C1  UNL     1      17.618  -9.653  54.045  1.00  0.00     0.091 C 
HETATM   37  F1  UNL     1      19.559  -8.560  53.282  1.00  0.00    -0.205 F 
HETATM   38  F2  UNL     1      18.044  -7.312  54.275  1.00  0.00    -0.205 F 
ENDBRANCH  34  35
ENDBRANCH   1  34
TORSDOF 7
ENDMDL
