MODEL 3
REMARK VINA RESULT: -8.212403651      1.066      1.679
REMARK  7 active torsions:
REMARK  status: ('A' for Active; 'I' for Inactive)
REMARK    1  A    between atoms: C2_2  and  C3_5 
REMARK    2  A    between atoms: C3_5  and  N1_6 
REMARK       I    between atoms: N1_6  and  C4_8 
REMARK       I    between atoms: C4_8  and  N2_10 
REMARK    3  A    between atoms: C8_19  and  C9_20 
REMARK    4  A    between atoms: C14_27  and  O2_28 
REMARK    5  A    between atoms: O2_28  and  C15_29 
REMARK    6  A    between atoms: C15_29  and  C16_30 
REMARK    7  A    between atoms: C16_30  and  N6_31 
ROOT
HETATM    1  N1  UNL     1      17.417  -6.841  51.824  1.00  0.00    -0.337 N 
ATOM      2  H1  UNL     1      18.197  -6.381  51.354  1.00  0.00     0.164 HD
HETATM    3  C4  UNL     1      16.312  -6.038  52.116  1.00  0.00     0.326 C 
HETATM    4  O1  UNL     1      15.317  -6.528  52.696  1.00  0.00    -0.246 OA
HETATM    5  N2  UNL     1      16.256  -4.650  51.778  1.00  0.00    -0.282 N 
HETATM    6  C5  UNL     1      17.252  -3.983  51.151  1.00  0.00     0.131 A 
HETATM    7  C6  UNL     1      16.807  -2.693  51.015  1.00  0.00     0.064 A 
HETATM    8  N3  UNL     1      17.364  -1.599  50.476  1.00  0.00    -0.329 N 
ATOM      9  H3  UNL     1      18.298  -1.671  50.071  1.00  0.00     0.168 HD
HETATM   10  C7  UNL     1      16.736  -0.406  50.449  1.00  0.00     0.193 A 
HETATM   11  N4  UNL     1      17.389   0.713  49.860  1.00  0.00    -0.063 NA
HETATM   12  N5  UNL     1      15.505  -0.323  50.986  1.00  0.00    -0.329 N 
ATOM     13  H5  UNL     1      15.032   0.581  50.964  1.00  0.00     0.168 HD
HETATM   14  C8  UNL     1      14.862  -1.361  51.550  1.00  0.00     0.063 A 
HETATM   15  C20 UNL     1      15.550  -2.576  51.555  1.00  0.00     0.036 A 
HETATM   16  C21 UNL     1      15.223  -3.805  52.025  1.00  0.00     0.117 A 
ENDROOT
BRANCH  14  17
HETATM   17  C9  UNL     1      13.533  -1.255  52.125  1.00  0.00     0.047 A 
HETATM   18  C10 UNL     1      12.419  -1.204  51.350  1.00  0.00     0.051 A 
HETATM   19 CL1  UNL     1      12.488  -1.262  49.590  1.00  0.00    -0.083 Cl
HETATM   20  C11 UNL     1      11.198  -1.103  51.968  1.00  0.00     0.048 A 
HETATM   21  C12 UNL     1      11.093  -1.056  53.339  1.00  0.00     0.038 A 
HETATM   22 CL2  UNL     1       9.507  -0.926  54.104  1.00  0.00    -0.084 Cl
HETATM   23  C13 UNL     1      12.233  -1.108  54.154  1.00  0.00     0.061 A 
HETATM   24  C14 UNL     1      13.453  -1.207  53.530  1.00  0.00     0.084 A 
BRANCH  24  25
HETATM   25  O2  UNL     1      14.602  -1.266  54.269  1.00  0.00    -0.348 OA
BRANCH  25  26
HETATM   26  C15 UNL     1      14.877  -1.741  55.524  1.00  0.00     0.197 C 
BRANCH  26  27
HETATM   27  C16 UNL     1      15.775  -2.930  55.494  1.00  0.00     0.175 C 
BRANCH  27  28
HETATM   28  N6  UNL     1      15.054  -4.167  55.760  1.00  0.00    -0.302 N 
HETATM   29  C17 UNL     1      13.778  -4.284  56.090  1.00  0.00     0.111 A 
HETATM   30  C18 UNL     1      13.474  -5.632  56.258  1.00  0.00     0.037 A 
HETATM   31  C19 UNL     1      14.658  -6.287  56.004  1.00  0.00     0.108 A 
HETATM   32  N7  UNL     1      15.594  -5.371  55.706  1.00  0.00    -0.310 N 
ATOM     33  H7  UNL     1      16.567  -5.573  55.475  1.00  0.00     0.186 HD
ENDBRANCH  27  28
ENDBRANCH  26  27
ENDBRANCH  25  26
ENDBRANCH  24  25
ENDBRANCH  14  17
BRANCH   1  34
HETATM   34  C3  UNL     1      17.583  -8.237  52.107  1.00  0.00     0.202 C 
BRANCH  34  35
HETATM   35  C2  UNL     1      18.210  -8.428  53.462  1.00  0.00     0.255 C 
HETATM   36  C1  UNL     1      17.721  -9.752  54.040  1.00  0.00     0.091 C 
HETATM   37  F1  UNL     1      19.607  -8.553  53.298  1.00  0.00    -0.205 F 
HETATM   38  F2  UNL     1      18.038  -7.398  54.321  1.00  0.00    -0.205 F 
ENDBRANCH  34  35
ENDBRANCH   1  34
TORSDOF 7
ENDMDL
