MODEL 4
REMARK VINA RESULT: -8.114749046      1.150      1.215
REMARK  7 active torsions:
REMARK  status: ('A' for Active; 'I' for Inactive)
REMARK    1  A    between atoms: C2_2  and  C3_5 
REMARK    2  A    between atoms: C3_5  and  N1_6 
REMARK       I    between atoms: N1_6  and  C4_8 
REMARK       I    between atoms: C4_8  and  N2_10 
REMARK    3  A    between atoms: C8_19  and  C9_20 
REMARK    4  A    between atoms: C14_27  and  O2_28 
REMARK    5  A    between atoms: O2_28  and  C15_29 
REMARK    6  A    between atoms: C15_29  and  C16_30 
REMARK    7  A    between atoms: C16_30  and  N6_31 
ROOT
HETATM    1  N1  UNL     1      17.426  -6.919  51.778  1.00  0.00    -0.337 N 
ATOM      2  H1  UNL     1      18.192  -6.467  51.278  1.00  0.00     0.164 HD
HETATM    3  C4  UNL     1      16.345  -6.102  52.122  1.00  0.00     0.326 C 
HETATM    4  O1  UNL     1      15.369  -6.582  52.740  1.00  0.00    -0.246 OA
HETATM    5  N2  UNL     1      16.297  -4.711  51.796  1.00  0.00    -0.282 N 
HETATM    6  C5  UNL     1      17.275  -4.053  51.133  1.00  0.00     0.131 A 
HETATM    7  C6  UNL     1      16.845  -2.756  51.025  1.00  0.00     0.064 A 
HETATM    8  N3  UNL     1      17.395  -1.666  50.471  1.00  0.00    -0.329 N 
ATOM      9  H3  UNL     1      18.309  -1.749  50.026  1.00  0.00     0.168 HD
HETATM   10  C7  UNL     1      16.784  -0.464  50.480  1.00  0.00     0.193 A 
HETATM   11  N4  UNL     1      17.429   0.649  49.872  1.00  0.00    -0.063 NA
HETATM   12  N5  UNL     1      15.579  -0.367  51.069  1.00  0.00    -0.329 N 
ATOM     13  H5  UNL     1      15.118   0.544  51.073  1.00  0.00     0.168 HD
HETATM   14  C8  UNL     1      14.945  -1.400  51.652  1.00  0.00     0.063 A 
HETATM   15  C20 UNL     1      15.613  -2.624  51.619  1.00  0.00     0.036 A 
HETATM   16  C21 UNL     1      15.288  -3.852  52.094  1.00  0.00     0.117 A 
ENDROOT
BRANCH  14  17
HETATM   17  C9  UNL     1      13.643  -1.278  52.283  1.00  0.00     0.047 A 
HETATM   18  C10 UNL     1      12.493  -1.283  51.561  1.00  0.00     0.051 A 
HETATM   19 CL1  UNL     1      12.480  -1.434  49.805  1.00  0.00    -0.083 Cl
HETATM   20  C11 UNL     1      11.301  -1.163  52.230  1.00  0.00     0.048 A 
HETATM   21  C12 UNL     1      11.259  -1.043  53.600  1.00  0.00     0.038 A 
HETATM   22 CL2  UNL     1       9.710  -0.891  54.432  1.00  0.00    -0.084 Cl
HETATM   23  C13 UNL     1      12.437  -1.038  54.361  1.00  0.00     0.061 A 
HETATM   24  C14 UNL     1      13.628  -1.156  53.686  1.00  0.00     0.084 A 
BRANCH  24  25
HETATM   25  O2  UNL     1      14.811  -1.161  54.371  1.00  0.00    -0.348 OA
BRANCH  25  26
HETATM   26  C15 UNL     1      15.335  -2.004  55.317  1.00  0.00     0.197 C 
BRANCH  26  27
HETATM   27  C16 UNL     1      16.790  -2.248  55.112  1.00  0.00     0.175 C 
BRANCH  27  28
HETATM   28  N6  UNL     1      17.479  -2.524  56.365  1.00  0.00    -0.302 N 
HETATM   29  C17 UNL     1      18.377  -3.471  56.582  1.00  0.00     0.111 A 
HETATM   30  C18 UNL     1      18.796  -3.405  57.909  1.00  0.00     0.037 A 
HETATM   31  C19 UNL     1      18.081  -2.356  58.444  1.00  0.00     0.108 A 
HETATM   32  N7  UNL     1      17.294  -1.846  57.484  1.00  0.00    -0.310 N 
ATOM     33  H7  UNL     1      16.654  -1.060  57.599  1.00  0.00     0.186 HD
ENDBRANCH  27  28
ENDBRANCH  26  27
ENDBRANCH  25  26
ENDBRANCH  24  25
ENDBRANCH  14  17
BRANCH   1  34
HETATM   34  C3  UNL     1      17.582  -8.319  52.044  1.00  0.00     0.202 C 
BRANCH  34  35
HETATM   35  C2  UNL     1      18.232  -8.531  53.385  1.00  0.00     0.255 C 
HETATM   36  C1  UNL     1      17.772  -9.875  53.940  1.00  0.00     0.091 C 
HETATM   37  F1  UNL     1      19.628  -8.630  53.197  1.00  0.00    -0.205 F 
HETATM   38  F2  UNL     1      18.058  -7.523  54.269  1.00  0.00    -0.205 F 
ENDBRANCH  34  35
ENDBRANCH   1  34
TORSDOF 7
ENDMDL
