MODEL 9
REMARK VINA RESULT: -7.738876473      5.093      7.351
REMARK  7 active torsions:
REMARK  status: ('A' for Active; 'I' for Inactive)
REMARK    1  A    between atoms: C2_2  and  C3_5 
REMARK    2  A    between atoms: C3_5  and  N1_6 
REMARK       I    between atoms: N1_6  and  C4_8 
REMARK       I    between atoms: C4_8  and  N2_10 
REMARK    3  A    between atoms: C8_19  and  C9_20 
REMARK    4  A    between atoms: C14_27  and  O2_28 
REMARK    5  A    between atoms: O2_28  and  C15_29 
REMARK    6  A    between atoms: C15_29  and  C16_30 
REMARK    7  A    between atoms: C16_30  and  N6_31 
ROOT
HETATM    1  N1  UNL     1       9.602  -5.735  57.022  1.00  0.00    -0.337 N 
ATOM      2  H1  UNL     1       8.981  -4.926  57.078  1.00  0.00     0.164 HD
HETATM    3  C4  UNL     1      10.939  -5.467  56.714  1.00  0.00     0.326 C 
HETATM    4  O1  UNL     1      11.760  -6.406  56.623  1.00  0.00    -0.246 OA
HETATM    5  N2  UNL     1      11.428  -4.142  56.493  1.00  0.00    -0.282 N 
HETATM    6  C5  UNL     1      10.661  -3.031  56.556  1.00  0.00     0.131 A 
HETATM    7  C6  UNL     1      11.501  -1.982  56.285  1.00  0.00     0.064 A 
HETATM    8  N3  UNL     1      11.298  -0.659  56.210  1.00  0.00    -0.329 N 
ATOM      9  H3  UNL     1      10.360  -0.295  56.377  1.00  0.00     0.168 HD
HETATM   10  C7  UNL     1      12.289   0.209  55.922  1.00  0.00     0.193 A 
HETATM   11  N4  UNL     1      11.999   1.602  55.860  1.00  0.00    -0.063 NA
HETATM   12  N5  UNL     1      13.522  -0.281  55.704  1.00  0.00    -0.329 N 
ATOM     13  H5  UNL     1      14.270   0.379  55.488  1.00  0.00     0.168 HD
HETATM   14  C8  UNL     1      13.827  -1.590  55.756  1.00  0.00     0.063 A 
HETATM   15  C20 UNL     1      12.772  -2.452  56.057  1.00  0.00     0.036 A 
HETATM   16  C21 UNL     1      12.707  -3.800  56.191  1.00  0.00     0.117 A 
ENDROOT
BRANCH  14  17
HETATM   17  C9  UNL     1      15.164  -2.104  55.518  1.00  0.00     0.047 A 
HETATM   18  C10 UNL     1      15.990  -2.452  56.539  1.00  0.00     0.051 A 
HETATM   19 CL1  UNL     1      15.515  -2.311  58.230  1.00  0.00    -0.083 Cl
HETATM   20  C11 UNL     1      17.240  -2.930  56.234  1.00  0.00     0.048 A 
HETATM   21  C12 UNL     1      17.657  -3.059  54.929  1.00  0.00     0.038 A 
HETATM   22 CL2  UNL     1      19.271  -3.677  54.569  1.00  0.00    -0.084 Cl
HETATM   23  C13 UNL     1      16.817  -2.705  53.864  1.00  0.00     0.061 A 
HETATM   24  C14 UNL     1      15.567  -2.226  54.174  1.00  0.00     0.084 A 
BRANCH  24  25
HETATM   25  O2  UNL     1      14.699  -1.867  53.180  1.00  0.00    -0.348 OA
BRANCH  25  26
HETATM   26  C15 UNL     1      14.244  -2.517  52.063  1.00  0.00     0.197 C 
BRANCH  26  27
HETATM   27  C16 UNL     1      14.096  -1.601  50.897  1.00  0.00     0.175 C 
BRANCH  27  28
HETATM   28  N6  UNL     1      15.370  -1.030  50.484  1.00  0.00    -0.302 N 
HETATM   29  C17 UNL     1      15.576   0.191  50.019  1.00  0.00     0.111 A 
HETATM   30  C18 UNL     1      16.931   0.348  49.738  1.00  0.00     0.037 A 
HETATM   31  C19 UNL     1      17.495  -0.864  50.073  1.00  0.00     0.108 A 
HETATM   32  N7  UNL     1      16.523  -1.675  50.520  1.00  0.00    -0.310 N 
ATOM     33  H7  UNL     1      16.653  -2.635  50.838  1.00  0.00     0.186 HD
ENDBRANCH  27  28
ENDBRANCH  26  27
ENDBRANCH  25  26
ENDBRANCH  24  25
ENDBRANCH  14  17
BRANCH   1  34
HETATM   34  C3  UNL     1       9.001  -7.013  57.269  1.00  0.00     0.202 C 
BRANCH  34  35
HETATM   35  C2  UNL     1       8.533  -7.107  58.696  1.00  0.00     0.255 C 
HETATM   36  C1  UNL     1       8.996  -8.441  59.271  1.00  0.00     0.091 C 
HETATM   37  F1  UNL     1       9.176  -6.101  59.448  1.00  0.00    -0.205 F 
HETATM   38  F2  UNL     1       7.209  -6.902  58.877  1.00  0.00    -0.205 F 
ENDBRANCH  34  35
ENDBRANCH   1  34
TORSDOF 7
ENDMDL
