MODEL 10
REMARK VINA RESULT: -7.703396915      2.620      4.652
REMARK  7 active torsions:
REMARK  status: ('A' for Active; 'I' for Inactive)
REMARK    1  A    between atoms: C2_2  and  C3_5 
REMARK    2  A    between atoms: C3_5  and  N1_6 
REMARK       I    between atoms: N1_6  and  C4_8 
REMARK       I    between atoms: C4_8  and  N2_10 
REMARK    3  A    between atoms: C8_19  and  C9_20 
REMARK    4  A    between atoms: C14_27  and  O2_28 
REMARK    5  A    between atoms: O2_28  and  C15_29 
REMARK    6  A    between atoms: C15_29  and  C16_30 
REMARK    7  A    between atoms: C16_30  and  N6_31 
ROOT
HETATM    1  N1  UNL     1      17.084  -7.751  54.053  1.00  0.00    -0.337 N 
ATOM      2  H1  UNL     1      17.368  -7.506  55.002  1.00  0.00     0.164 HD
HETATM    3  C4  UNL     1      16.499  -6.730  53.299  1.00  0.00     0.326 C 
HETATM    4  O1  UNL     1      16.120  -6.953  52.128  1.00  0.00    -0.246 OA
HETATM    5  N2  UNL     1      16.306  -5.409  53.810  1.00  0.00    -0.282 N 
HETATM    6  C5  UNL     1      16.663  -5.018  55.055  1.00  0.00     0.131 A 
HETATM    7  C6  UNL     1      16.311  -3.696  55.146  1.00  0.00     0.064 A 
HETATM    8  N3  UNL     1      16.423  -2.799  56.136  1.00  0.00    -0.329 N 
ATOM      9  H3  UNL     1      16.843  -3.090  57.019  1.00  0.00     0.168 HD
HETATM   10  C7  UNL     1      16.001  -1.525  56.007  1.00  0.00     0.193 A 
HETATM   11  N4  UNL     1      16.152  -0.627  57.102  1.00  0.00    -0.063 NA
HETATM   12  N5  UNL     1      15.448  -1.151  54.839  1.00  0.00    -0.329 N 
ATOM     13  H5  UNL     1      15.131  -0.186  54.745  1.00  0.00     0.168 HD
HETATM   14  C8  UNL     1      15.291  -1.976  53.788  1.00  0.00     0.063 A 
HETATM   15  C20 UNL     1      15.742  -3.285  53.965  1.00  0.00     0.036 A 
HETATM   16  C21 UNL     1      15.748  -4.365  53.145  1.00  0.00     0.117 A 
ENDROOT
BRANCH  14  17
HETATM   17  C9  UNL     1      14.693  -1.558  52.533  1.00  0.00     0.047 A 
HETATM   18  C10 UNL     1      15.443  -1.318  51.427  1.00  0.00     0.051 A 
HETATM   19 CL1  UNL     1      17.197  -1.491  51.418  1.00  0.00    -0.083 Cl
HETATM   20  C11 UNL     1      14.805  -0.925  50.277  1.00  0.00     0.048 A 
HETATM   21  C12 UNL     1      13.437  -0.776  50.235  1.00  0.00     0.038 A 
HETATM   22 CL2  UNL     1      12.645  -0.269  48.741  1.00  0.00    -0.084 Cl
HETATM   23  C13 UNL     1      12.648  -1.021  51.367  1.00  0.00     0.061 A 
HETATM   24  C14 UNL     1      13.292  -1.412  52.516  1.00  0.00     0.084 A 
BRANCH  24  25
HETATM   25  O2  UNL     1      12.579  -1.670  53.653  1.00  0.00    -0.348 OA
BRANCH  25  26
HETATM   26  C15 UNL     1      11.855  -0.870  54.499  1.00  0.00     0.197 C 
BRANCH  26  27
HETATM   27  C16 UNL     1      10.390  -1.123  54.402  1.00  0.00     0.175 C 
BRANCH  27  28
HETATM   28  N6  UNL     1       9.909  -1.970  55.484  1.00  0.00    -0.302 N 
HETATM   29  C17 UNL     1       8.845  -1.758  56.242  1.00  0.00     0.111 A 
HETATM   30  C18 UNL     1       8.727  -2.798  57.160  1.00  0.00     0.037 A 
HETATM   31  C19 UNL     1       9.793  -3.626  56.883  1.00  0.00     0.108 A 
HETATM   32  N7  UNL     1      10.488  -3.095  55.864  1.00  0.00    -0.310 N 
ATOM     33  H7  UNL     1      11.329  -3.497  55.450  1.00  0.00     0.186 HD
ENDBRANCH  27  28
ENDBRANCH  26  27
ENDBRANCH  25  26
ENDBRANCH  24  25
ENDBRANCH  14  17
BRANCH   1  34
HETATM   34  C3  UNL     1      17.333  -9.103  53.647  1.00  0.00     0.202 C 
BRANCH  34  35
HETATM   35  C2  UNL     1      18.682  -9.216  52.989  1.00  0.00     0.255 C 
HETATM   36  C1  UNL     1      19.192 -10.642  53.171  1.00  0.00     0.091 C 
HETATM   37  F1  UNL     1      18.523  -9.020  51.600  1.00  0.00    -0.205 F 
HETATM   38  F2  UNL     1      19.587  -8.293  53.382  1.00  0.00    -0.205 F 
ENDBRANCH  34  35
ENDBRANCH   1  34
TORSDOF 7
ENDMDL
