MODEL 6
REMARK VINA RESULT: -4.389584213     10.646     11.905
REMARK  6 active torsions:
REMARK  status: ('A' for Active; 'I' for Inactive)
REMARK    1  A    between atoms: O1_2  and  C2_3 
REMARK    2  A    between atoms: C3_5  and  C4_6 
REMARK    3  A    between atoms: C4_6  and  O3_7 
REMARK    4  A    between atoms: C5_9  and  O4_10 
REMARK    5  A    between atoms: C6_12  and  O5_13 
REMARK    6  A    between atoms: C7_15  and  O6_16 
ROOT
HETATM    1  C2  UNL     1      19.160  64.027  49.251  1.00  0.00     0.290 C 
HETATM    2  O2  UNL     1      19.070  62.661  49.523  1.00  0.00    -0.349 OA
HETATM    3  C3  UNL     1      17.802  62.163  49.448  1.00  0.00     0.179 C 
HETATM    4  C5  UNL     1      16.703  63.135  49.611  1.00  0.00     0.180 C 
HETATM    5  C6  UNL     1      17.020  64.351  50.418  1.00  0.00     0.183 C 
HETATM    6  C7  UNL     1      18.481  64.704  50.446  1.00  0.00     0.204 C 
ENDROOT
BRANCH   3   7
HETATM    7  C4  UNL     1      17.676  61.428  48.107  1.00  0.00     0.198 C 
BRANCH   7   8
HETATM    8  O3  UNL     1      16.689  62.065  47.340  1.00  0.00    -0.398 OA
ATOM      9  H3  UNL     1      17.018  62.175  46.456  1.00  0.00     0.209 HD
ENDBRANCH   7   8
ENDBRANCH   3   7
BRANCH   4  10
HETATM   10  O4  UNL     1      15.596  62.466  50.180  1.00  0.00    -0.390 OA
ATOM     11  H4  UNL     1      15.216  63.028  50.845  1.00  0.00     0.210 HD
ENDBRANCH   4  10
BRANCH   1  12
HETATM   12  O1  UNL     1      20.500  64.339  49.180  1.00  0.00    -0.363 OA
HETATM   13  C1  UNL     1      21.282  63.580  50.042  1.00  0.00     0.204 C 
ENDBRANCH   1  12
BRANCH   5  14
HETATM   14  O5  UNL     1      16.234  65.427  49.975  1.00  0.00    -0.390 OA
ATOM     15  H5  UNL     1      16.266  66.129  50.615  1.00  0.00     0.210 HD
ENDBRANCH   5  14
BRANCH   6  16
HETATM   16  O6  UNL     1      18.674  66.065  50.446  1.00  0.00    -0.388 OA
ATOM     17  H6  UNL     1      19.000  66.379  51.281  1.00  0.00     0.210 HD
ENDBRANCH   6  16
TORSDOF 6
ENDMDL
