MODEL 20
REMARK VINA RESULT: -3.891565390      1.632      3.610
REMARK  6 active torsions:
REMARK  status: ('A' for Active; 'I' for Inactive)
REMARK    1  A    between atoms: O1_2  and  C2_3 
REMARK    2  A    between atoms: C3_5  and  C4_6 
REMARK    3  A    between atoms: C4_6  and  O3_7 
REMARK    4  A    between atoms: C5_9  and  O4_10 
REMARK    5  A    between atoms: C6_12  and  O5_13 
REMARK    6  A    between atoms: C7_15  and  O6_16 
ROOT
HETATM    1  C2  UNL     1      21.807  70.105  58.201  1.00  0.00     0.290 C 
HETATM    2  O2  UNL     1      22.180  71.288  57.560  1.00  0.00    -0.349 OA
HETATM    3  C3  UNL     1      23.287  71.166  56.773  1.00  0.00     0.179 C 
HETATM    4  C5  UNL     1      24.199  70.049  57.088  1.00  0.00     0.180 C 
HETATM    5  C6  UNL     1      24.190  69.577  58.506  1.00  0.00     0.183 C 
HETATM    6  C7  UNL     1      22.909  69.866  59.239  1.00  0.00     0.204 C 
ENDROOT
BRANCH   3   7
HETATM    7  C4  UNL     1      22.810  71.077  55.318  1.00  0.00     0.198 C 
BRANCH   7   8
HETATM    8  O3  UNL     1      23.520  70.049  54.678  1.00  0.00    -0.398 OA
ATOM      9  H3  UNL     1      23.238  70.008  53.772  1.00  0.00     0.209 HD
ENDBRANCH   7   8
ENDBRANCH   3   7
BRANCH   4  10
HETATM   10  O4  UNL     1      25.511  70.427  56.726  1.00  0.00    -0.390 OA
ATOM     11  H4  UNL     1      26.086  70.265  57.465  1.00  0.00     0.210 HD
ENDBRANCH   4  10
BRANCH   1  12
HETATM   12  O1  UNL     1      20.586  70.334  58.797  1.00  0.00    -0.363 OA
HETATM   13  C1  UNL     1      20.520  71.558  59.449  1.00  0.00     0.204 C 
ENDBRANCH   1  12
BRANCH   5  14
HETATM   14  O5  UNL     1      24.518  68.213  58.549  1.00  0.00    -0.390 OA
ATOM     15  H5  UNL     1      23.815  67.731  58.970  1.00  0.00     0.210 HD
ENDBRANCH   5  14
BRANCH   6  16
HETATM   16  O6  UNL     1      22.585  68.854  60.112  1.00  0.00    -0.388 OA
ATOM     17  H6  UNL     1      23.261  68.717  60.765  1.00  0.00     0.210 HD
ENDBRANCH   6  16
TORSDOF 6
ENDMDL
