MODEL 7
REMARK VINA RESULT: -4.368689296      9.834     11.541
REMARK  6 active torsions:
REMARK  status: ('A' for Active; 'I' for Inactive)
REMARK    1  A    between atoms: O1_2  and  C2_3 
REMARK    2  A    between atoms: C3_5  and  C4_6 
REMARK    3  A    between atoms: C4_6  and  O3_7 
REMARK    4  A    between atoms: C5_9  and  O4_10 
REMARK    5  A    between atoms: C6_12  and  O5_13 
REMARK    6  A    between atoms: C7_15  and  O6_16 
ROOT
HETATM    1  C2  UNL     1      17.885  63.184  50.709  1.00  0.00     0.290 C 
HETATM    2  O2  UNL     1      18.854  62.852  51.657  1.00  0.00    -0.349 OA
HETATM    3  C3  UNL     1      20.036  63.514  51.496  1.00  0.00     0.179 C 
HETATM    4  C5  UNL     1      20.316  64.042  50.146  1.00  0.00     0.180 C 
HETATM    5  C6  UNL     1      19.661  63.321  49.013  1.00  0.00     0.183 C 
HETATM    6  C7  UNL     1      18.407  62.586  49.398  1.00  0.00     0.204 C 
ENDROOT
BRANCH   3   7
HETATM    7  C4  UNL     1      20.076  64.642  52.534  1.00  0.00     0.198 C 
BRANCH   7   8
HETATM    8  O3  UNL     1      20.075  65.871  51.857  1.00  0.00    -0.398 OA
ATOM      9  H3  UNL     1      19.730  65.734  50.983  1.00  0.00     0.209 HD
ENDBRANCH   7   8
ENDBRANCH   3   7
BRANCH   4  10
HETATM   10  O4  UNL     1      21.715  64.054  49.951  1.00  0.00    -0.390 OA
ATOM     11  H4  UNL     1      21.918  64.679  49.266  1.00  0.00     0.210 HD
ENDBRANCH   4  10
BRANCH   1  12
HETATM   12  O1  UNL     1      16.708  62.590  51.107  1.00  0.00    -0.363 OA
HETATM   13  C1  UNL     1      16.649  62.361  52.475  1.00  0.00     0.204 C 
ENDBRANCH   1  12
BRANCH   5  14
HETATM   14  O5  UNL     1      19.434  64.217  47.955  1.00  0.00    -0.390 OA
ATOM     15  H5  UNL     1      18.540  64.536  47.996  1.00  0.00     0.210 HD
ENDBRANCH   5  14
BRANCH   6  16
HETATM   16  O6  UNL     1      17.465  62.632  48.398  1.00  0.00    -0.388 OA
ATOM     17  H6  UNL     1      17.031  63.476  48.356  1.00  0.00     0.210 HD
ENDBRANCH   6  16
TORSDOF 6
ENDMDL
