MODEL 2
REMARK VINA RESULT: -4.936476558      2.062      3.602
REMARK  6 active torsions:
REMARK  status: ('A' for Active; 'I' for Inactive)
REMARK    1  A    between atoms: O1_2  and  C2_3 
REMARK    2  A    between atoms: C3_5  and  C4_6 
REMARK    3  A    between atoms: C4_6  and  O3_7 
REMARK    4  A    between atoms: C5_9  and  O4_10 
REMARK    5  A    between atoms: C6_12  and  O5_13 
REMARK    6  A    between atoms: C7_15  and  O6_16 
ROOT
HETATM    1  C2  UNL     1      21.340  70.647  57.680  1.00  0.00     0.290 C 
HETATM    2  O2  UNL     1      22.013  71.829  57.368  1.00  0.00    -0.349 OA
HETATM    3  C3  UNL     1      22.718  71.775  56.201  1.00  0.00     0.179 C 
HETATM    4  C5  UNL     1      23.101  70.431  55.727  1.00  0.00     0.180 C 
HETATM    5  C6  UNL     1      23.248  69.382  56.780  1.00  0.00     0.183 C 
HETATM    6  C7  UNL     1      22.452  69.651  58.027  1.00  0.00     0.204 C 
ENDROOT
BRANCH   3   7
HETATM    7  C4  UNL     1      21.897  72.509  55.134  1.00  0.00     0.198 C 
BRANCH   7   8
HETATM    8  O3  UNL     1      21.931  71.756  53.949  1.00  0.00    -0.398 OA
ATOM      9  H3  UNL     1      21.158  71.964  53.438  1.00  0.00     0.209 HD
ENDBRANCH   7   8
ENDBRANCH   3   7
BRANCH   4  10
HETATM   10  O4  UNL     1      24.307  70.540  54.999  1.00  0.00    -0.390 OA
ATOM     11  H4  UNL     1      24.157  70.221  54.117  1.00  0.00     0.210 HD
ENDBRANCH   4  10
BRANCH   1  12
HETATM   12  O1  UNL     1      20.535  70.912  58.766  1.00  0.00    -0.363 OA
HETATM   13  C1  UNL     1      20.467  72.264  59.076  1.00  0.00     0.204 C 
ENDBRANCH   1  12
BRANCH   5  14
HETATM   14  O5  UNL     1      22.950  68.123  56.235  1.00  0.00    -0.390 OA
ATOM     15  H5  UNL     1      23.757  67.681  55.996  1.00  0.00     0.210 HD
ENDBRANCH   5  14
BRANCH   6  16
HETATM   16  O6  UNL     1      21.954  68.490  58.572  1.00  0.00    -0.388 OA
ATOM     17  H6  UNL     1      21.938  68.520  59.521  1.00  0.00     0.210 HD
ENDBRANCH   6  16
TORSDOF 6
ENDMDL
