MODEL 10
REMARK VINA RESULT: -4.326047372      9.335     10.751
REMARK  6 active torsions:
REMARK  status: ('A' for Active; 'I' for Inactive)
REMARK    1  A    between atoms: O1_2  and  C2_3 
REMARK    2  A    between atoms: C3_5  and  C4_6 
REMARK    3  A    between atoms: C4_6  and  O3_7 
REMARK    4  A    between atoms: C5_9  and  O4_10 
REMARK    5  A    between atoms: C6_12  and  O5_13 
REMARK    6  A    between atoms: C7_15  and  O6_16 
ROOT
HETATM    1  C2  UNL     1      20.039  64.348  51.767  1.00  0.00     0.290 C 
HETATM    2  O2  UNL     1      19.593  63.033  51.908  1.00  0.00    -0.349 OA
HETATM    3  C3  UNL     1      19.529  62.341  50.734  1.00  0.00     0.179 C 
HETATM    4  C5  UNL     1      19.420  63.145  49.501  1.00  0.00     0.180 C 
HETATM    5  C6  UNL     1      18.791  64.492  49.652  1.00  0.00     0.183 C 
HETATM    6  C7  UNL     1      18.897  65.065  51.038  1.00  0.00     0.204 C 
ENDROOT
BRANCH   3   7
HETATM    7  C4  UNL     1      20.757  61.425  50.673  1.00  0.00     0.198 C 
BRANCH   7   8
HETATM    8  O3  UNL     1      21.515  61.770  49.543  1.00  0.00    -0.398 OA
ATOM      9  H3  UNL     1      21.399  62.697  49.374  1.00  0.00     0.209 HD
ENDBRANCH   7   8
ENDBRANCH   3   7
BRANCH   4  10
HETATM   10  O4  UNL     1      18.705  62.396  48.540  1.00  0.00    -0.390 OA
ATOM     11  H4  UNL     1      18.818  62.810  47.692  1.00  0.00     0.210 HD
ENDBRANCH   4  10
BRANCH   1  12
HETATM   12  O1  UNL     1      20.230  64.850  53.035  1.00  0.00    -0.363 OA
HETATM   13  C1  UNL     1      20.170  63.875  54.022  1.00  0.00     0.204 C 
ENDBRANCH   1  12
BRANCH   5  14
HETATM   14  O5  UNL     1      19.316  65.366  48.686  1.00  0.00    -0.390 OA
ATOM     15  H5  UNL     1      20.224  65.556  48.889  1.00  0.00     0.210 HD
ENDBRANCH   5  14
BRANCH   6  16
HETATM   16  O6  UNL     1      19.079  66.429  51.010  1.00  0.00    -0.388 OA
ATOM     17  H6  UNL     1      19.960  66.676  51.263  1.00  0.00     0.210 HD
ENDBRANCH   6  16
TORSDOF 6
ENDMDL
