MODEL 8
REMARK VINA RESULT: -3.433883695      4.558      5.454
REMARK  3 active torsions:
REMARK  status: ('A' for Active; 'I' for Inactive)
REMARK    1  A    between atoms: N1_2  and  C4_5 
REMARK    2  A    between atoms: C4_5  and  C5_6 
REMARK    3  A    between atoms: C5_6  and  O1_7 
ROOT
HETATM    1  C1  UNL     1      -0.295   3.937 -21.655  1.00  0.00     0.271 C 
HETATM    2  N1  UNL     1      -0.125   3.117 -20.448  1.00  0.00    -0.077 N 
HETATM    3  C2  UNL     1       0.881   3.783 -19.639  1.00  0.00     0.271 C 
HETATM    4  C3  UNL     1       0.415   1.856 -20.870  1.00  0.00     0.271 C 
ENDROOT
BRANCH   2   5
HETATM    5  C4  UNL     1      -1.394   3.040 -19.808  1.00  0.00     0.262 C 
BRANCH   5   6
HETATM    6  C5  UNL     1      -1.401   2.306 -18.504  1.00  0.00     0.192 C 
BRANCH   6   7
HETATM    7  O1  UNL     1      -2.030   3.025 -17.489  1.00  0.00    -0.399 OA
ATOM      8  H1  UNL     1      -2.170   2.505 -16.706  1.00  0.00     0.209 HD
ENDBRANCH   6   7
ENDBRANCH   5   6
ENDBRANCH   2   5
TORSDOF 3
ENDMDL
