MODEL 16
REMARK VINA RESULT: -3.204411182      1.411      2.141
REMARK  3 active torsions:
REMARK  status: ('A' for Active; 'I' for Inactive)
REMARK    1  A    between atoms: N1_2  and  C4_5 
REMARK    2  A    between atoms: C4_5  and  C5_6 
REMARK    3  A    between atoms: C5_6  and  O1_7 
ROOT
HETATM    1  C1  UNL     1      -4.573   4.061 -22.008  1.00  0.00     0.271 C 
HETATM    2  N1  UNL     1      -5.987   3.971 -21.620  1.00  0.00    -0.077 N 
HETATM    3  C2  UNL     1      -6.562   2.896 -22.410  1.00  0.00     0.271 C 
HETATM    4  C3  UNL     1      -6.612   5.198 -22.028  1.00  0.00     0.271 C 
ENDROOT
BRANCH   2   5
HETATM    5  C4  UNL     1      -6.024   3.717 -20.220  1.00  0.00     0.262 C 
BRANCH   5   6
HETATM    6  C5  UNL     1      -5.488   4.821 -19.363  1.00  0.00     0.192 C 
BRANCH   6   7
HETATM    7  O1  UNL     1      -4.362   4.436 -18.638  1.00  0.00    -0.399 OA
ATOM      8  H1  UNL     1      -3.604   4.978 -18.825  1.00  0.00     0.209 HD
ENDBRANCH   6   7
ENDBRANCH   5   6
ENDBRANCH   2   5
TORSDOF 3
ENDMDL
