MODEL 1
REMARK VINA RESULT: -3.723353341      0.000      0.000
REMARK  3 active torsions:
REMARK  status: ('A' for Active; 'I' for Inactive)
REMARK    1  A    between atoms: N1_2  and  C4_5 
REMARK    2  A    between atoms: C4_5  and  C5_6 
REMARK    3  A    between atoms: C5_6  and  O1_7 
ROOT
HETATM    1  C1  UNL     1      -6.172   2.918 -21.931  1.00  0.00     0.271 C 
HETATM    2  N1  UNL     1      -5.669   4.185 -21.382  1.00  0.00    -0.077 N 
HETATM    3  C2  UNL     1      -6.042   4.199 -19.977  1.00  0.00     0.271 C 
HETATM    4  C3  UNL     1      -6.389   5.240 -22.037  1.00  0.00     0.271 C 
ENDROOT
BRANCH   2   5
HETATM    5  C4  UNL     1      -4.261   4.203 -21.586  1.00  0.00     0.262 C 
BRANCH   5   6
HETATM    6  C5  UNL     1      -3.443   3.864 -20.379  1.00  0.00     0.192 C 
BRANCH   6   7
HETATM    7  O1  UNL     1      -2.929   2.569 -20.428  1.00  0.00    -0.399 OA
ATOM      8  H1  UNL     1      -2.064   2.506 -20.042  1.00  0.00     0.209 HD
ENDBRANCH   6   7
ENDBRANCH   5   6
ENDBRANCH   2   5
TORSDOF 3
ENDMDL
