MODEL 6
REMARK VINA RESULT: -3.498965317      4.509      5.406
REMARK  3 active torsions:
REMARK  status: ('A' for Active; 'I' for Inactive)
REMARK    1  A    between atoms: N1_2  and  C4_5 
REMARK    2  A    between atoms: C4_5  and  C5_6 
REMARK    3  A    between atoms: C5_6  and  O1_7 
ROOT
HETATM    1  C1  UNL     1       0.758   3.836 -19.625  1.00  0.00     0.271 C 
HETATM    2  N1  UNL     1      -0.201   3.185 -20.529  1.00  0.00    -0.077 N 
HETATM    3  C2  UNL     1       0.378   1.901 -20.885  1.00  0.00     0.271 C 
HETATM    4  C3  UNL     1      -0.262   3.984 -21.720  1.00  0.00     0.271 C 
ENDROOT
BRANCH   2   5
HETATM    5  C4  UNL     1      -1.432   3.068 -19.824  1.00  0.00     0.262 C 
BRANCH   5   6
HETATM    6  C5  UNL     1      -1.342   2.350 -18.513  1.00  0.00     0.192 C 
BRANCH   6   7
HETATM    7  O1  UNL     1      -2.028   3.010 -17.494  1.00  0.00    -0.399 OA
ATOM      8  H1  UNL     1      -2.191   2.451 -16.744  1.00  0.00     0.209 HD
ENDBRANCH   6   7
ENDBRANCH   5   6
ENDBRANCH   2   5
TORSDOF 3
ENDMDL
