MODEL 3
REMARK VINA RESULT: -3.642774055      0.958      1.869
REMARK  3 active torsions:
REMARK  status: ('A' for Active; 'I' for Inactive)
REMARK    1  A    between atoms: N1_2  and  C4_5 
REMARK    2  A    between atoms: C4_5  and  C5_6 
REMARK    3  A    between atoms: C5_6  and  O1_7 
ROOT
HETATM    1  C1  UNL     1      -6.218   5.213 -21.775  1.00  0.00     0.271 C 
HETATM    2  N1  UNL     1      -5.898   3.837 -21.370  1.00  0.00    -0.077 N 
HETATM    3  C2  UNL     1      -6.434   2.970 -22.405  1.00  0.00     0.271 C 
HETATM    4  C3  UNL     1      -6.626   3.577 -20.160  1.00  0.00     0.271 C 
ENDROOT
BRANCH   2   5
HETATM    5  C4  UNL     1      -4.483   3.752 -21.247  1.00  0.00     0.262 C 
BRANCH   5   6
HETATM    6  C5  UNL     1      -3.876   4.703 -20.263  1.00  0.00     0.192 C 
BRANCH   6   7
HETATM    7  O1  UNL     1      -3.263   4.049 -19.196  1.00  0.00    -0.399 OA
ATOM      8  H1  UNL     1      -2.583   4.573 -18.789  1.00  0.00     0.209 HD
ENDBRANCH   6   7
ENDBRANCH   5   6
ENDBRANCH   2   5
TORSDOF 3
ENDMDL
