MODEL 9
REMARK VINA RESULT: -3.324324724      3.819      4.798
REMARK  3 active torsions:
REMARK  status: ('A' for Active; 'I' for Inactive)
REMARK    1  A    between atoms: N1_2  and  C4_5 
REMARK    2  A    between atoms: C4_5  and  C5_6 
REMARK    3  A    between atoms: C5_6  and  O1_7 
ROOT
HETATM    1  C1  UNL     1      -0.119   3.551 -21.649  1.00  0.00     0.271 C 
HETATM    2  N1  UNL     1      -0.633   4.282 -20.483  1.00  0.00    -0.077 N 
HETATM    3  C2  UNL     1      -2.063   4.434 -20.692  1.00  0.00     0.271 C 
HETATM    4  C3  UNL     1      -0.043   5.590 -20.516  1.00  0.00     0.271 C 
ENDROOT
BRANCH   2   5
HETATM    5  C4  UNL     1      -0.316   3.512 -19.329  1.00  0.00     0.262 C 
BRANCH   5   6
HETATM    6  C5  UNL     1      -1.426   2.641 -18.827  1.00  0.00     0.192 C 
BRANCH   6   7
HETATM    7  O1  UNL     1      -1.856   3.005 -17.552  1.00  0.00    -0.399 OA
ATOM      8  H1  UNL     1      -1.775   3.938 -17.392  1.00  0.00     0.209 HD
ENDBRANCH   6   7
ENDBRANCH   5   6
ENDBRANCH   2   5
TORSDOF 3
ENDMDL
