MODEL 13
REMARK VINA RESULT: -3.245177399      1.405      2.161
REMARK  3 active torsions:
REMARK  status: ('A' for Active; 'I' for Inactive)
REMARK    1  A    between atoms: N1_2  and  C4_5 
REMARK    2  A    between atoms: C4_5  and  C5_6 
REMARK    3  A    between atoms: C5_6  and  O1_7 
ROOT
HETATM    1  C1  UNL     1      -6.394   2.901 -22.343  1.00  0.00     0.271 C 
HETATM    2  N1  UNL     1      -5.821   4.046 -21.620  1.00  0.00    -0.077 N 
HETATM    3  C2  UNL     1      -6.480   5.231 -22.141  1.00  0.00     0.271 C 
HETATM    4  C3  UNL     1      -4.434   4.119 -21.985  1.00  0.00     0.271 C 
ENDROOT
BRANCH   2   5
HETATM    5  C4  UNL     1      -6.065   3.834 -20.235  1.00  0.00     0.262 C 
BRANCH   5   6
HETATM    6  C5  UNL     1      -5.556   4.914 -19.331  1.00  0.00     0.192 C 
BRANCH   6   7
HETATM    7  O1  UNL     1      -4.447   4.512 -18.589  1.00  0.00    -0.399 OA
ATOM      8  H1  UNL     1      -3.917   5.245 -18.300  1.00  0.00     0.209 HD
ENDBRANCH   6   7
ENDBRANCH   5   6
ENDBRANCH   2   5
TORSDOF 3
ENDMDL
