MODEL 2
REMARK VINA RESULT: -3.646615758      0.987      1.663
REMARK  3 active torsions:
REMARK  status: ('A' for Active; 'I' for Inactive)
REMARK    1  A    between atoms: N1_2  and  C4_5 
REMARK    2  A    between atoms: C4_5  and  C5_6 
REMARK    3  A    between atoms: C5_6  and  O1_7 
ROOT
HETATM    1  C1  UNL     1      -6.611   3.586 -20.139  1.00  0.00     0.271 C 
HETATM    2  N1  UNL     1      -5.885   3.842 -21.390  1.00  0.00    -0.077 N 
HETATM    3  C2  UNL     1      -6.236   5.192 -21.798  1.00  0.00     0.271 C 
HETATM    4  C3  UNL     1      -6.410   2.936 -22.372  1.00  0.00     0.271 C 
ENDROOT
BRANCH   2   5
HETATM    5  C4  UNL     1      -4.498   3.686 -21.112  1.00  0.00     0.262 C 
BRANCH   5   6
HETATM    6  C5  UNL     1      -3.934   4.674 -20.139  1.00  0.00     0.192 C 
BRANCH   6   7
HETATM    7  O1  UNL     1      -3.238   4.061 -19.098  1.00  0.00    -0.399 OA
ATOM      8  H1  UNL     1      -2.381   4.446 -18.956  1.00  0.00     0.209 HD
ENDBRANCH   6   7
ENDBRANCH   5   6
ENDBRANCH   2   5
TORSDOF 3
ENDMDL
