MODEL 18
REMARK VINA RESULT: -9.297290481      2.823      7.671
REMARK  7 active torsions:
REMARK  status: ('A' for Active; 'I' for Inactive)
REMARK    1  A    between atoms: N1_2  and  C2_3 
REMARK    2  A    between atoms: N1_2  and  S1_10 
REMARK    3  A    between atoms: C2_3  and  C3_4 
REMARK    4  A    between atoms: S1_10  and  N2_13 
REMARK    5  A    between atoms: N2_13  and  C7_15 
REMARK    6  A    between atoms: C15_25  and  C16_26 
REMARK    7  A    between atoms: N5_30  and  C18_31 
ROOT
HETATM    1  C7  UNL     1       0.836  -4.832 -16.597  1.00  0.00     0.044 A 
HETATM    2  C8  UNL     1       1.482  -5.832 -17.285  1.00  0.00     0.031 A 
HETATM    3  C9  UNL     1       0.823  -6.963 -17.775  1.00  0.00     0.014 A 
HETATM    4  C10 UNL     1      -0.523  -7.117 -17.582  1.00  0.00    -0.022 A 
HETATM    5  C11 UNL     1      -1.040  -8.282 -18.120  1.00  0.00     0.014 C 
HETATM    6  C12 UNL     1      -2.240  -8.905 -17.845  1.00  0.00     0.031 C 
HETATM    7  C13 UNL     1      -3.322  -8.368 -17.165  1.00  0.00     0.046 A 
HETATM    8  N3  UNL     1      -4.350  -9.226 -17.060  1.00  0.00    -0.364 N 
ATOM      9  H3  UNL     1      -4.265 -10.158 -17.466  1.00  0.00     0.165 HD
HETATM   10  C14 UNL     1      -5.489  -8.888 -16.434  1.00  0.00     0.100 A 
HETATM   11  C15 UNL     1      -5.680  -7.650 -15.863  1.00  0.00    -0.007 A 
HETATM   12  C24 UNL     1      -4.643  -6.734 -15.948  1.00  0.00     0.031 A 
HETATM   13  C25 UNL     1      -3.491  -7.117 -16.598  1.00  0.00     0.042 A 
HETATM   14  C26 UNL     1      -2.553  -6.108 -16.603  1.00  0.00     0.195 C 
HETATM   15  O5  UNL     1      -2.995  -4.951 -16.289  1.00  0.00    -0.287 OA
HETATM   16  C27 UNL     1      -1.186  -6.125 -16.894  1.00  0.00     0.027 A 
HETATM   17  C28 UNL     1      -0.546  -5.012 -16.410  1.00  0.00     0.046 A 
ENDROOT
BRANCH   1  18
HETATM   18  N2  UNL     1       1.453  -3.664 -16.081  1.00  0.00    -0.268 N 
ATOM     19  H2  UNL     1       1.621  -2.872 -16.701  1.00  0.00     0.180 HD
BRANCH  18  20
HETATM   20  S1  UNL     1       1.916  -3.562 -14.458  1.00  0.00     0.321 S 
HETATM   21  O3  UNL     1       2.738  -2.288 -14.302  1.00  0.00    -0.182 OA
HETATM   22  O4  UNL     1       2.864  -4.699 -14.167  1.00  0.00    -0.182 OA
BRANCH  20  23
HETATM   23  N1  UNL     1       0.676  -3.601 -13.309  1.00  0.00    -0.296 N 
HETATM   24  C1  UNL     1       0.935  -4.429 -12.182  1.00  0.00     0.164 C 
BRANCH  23  25
HETATM   25  C2  UNL     1       0.028  -2.369 -13.025  1.00  0.00     0.170 C 
BRANCH  25  26
HETATM   26  C3  UNL     1      -1.388  -2.252 -13.520  1.00  0.00     0.163 C 
HETATM   27  C4  UNL     1      -1.439  -0.980 -14.371  1.00  0.00     0.201 C 
HETATM   28  O1  UNL     1      -2.743  -0.588 -14.575  1.00  0.00    -0.386 OA
HETATM   29  C5  UNL     1      -3.630  -1.634 -14.404  1.00  0.00     0.193 C 
HETATM   30  C6  UNL     1      -3.605  -2.173 -12.996  1.00  0.00     0.194 C 
HETATM   31  O2  UNL     1      -2.315  -2.228 -12.509  1.00  0.00    -0.380 OA
ENDBRANCH  25  26
ENDBRANCH  23  25
ENDBRANCH  20  23
ENDBRANCH  18  20
ENDBRANCH   1  18
BRANCH  11  32
HETATM   32  C16 UNL     1      -6.922  -7.299 -15.187  1.00  0.00     0.009 A 
HETATM   33  C17 UNL     1      -8.175  -7.753 -15.532  1.00  0.00     0.121 A 
HETATM   34  N4  UNL     1      -9.073  -7.219 -14.687  1.00  0.00    -0.309 N 
HETATM   35  N5  UNL     1      -8.444  -6.437 -13.809  1.00  0.00    -0.298 N 
ATOM     36  H4  UNL     1     -10.079  -7.387 -14.713  1.00  0.00     0.186 HD
HETATM   37  C23 UNL     1      -7.118  -6.475 -14.101  1.00  0.00     0.124 A 
BRANCH  35  38
HETATM   38  C18 UNL     1      -9.106  -5.710 -12.760  1.00  0.00     0.110 C 
HETATM   39  C19 UNL     1      -9.916  -4.566 -13.261  1.00  0.00     0.055 C 
HETATM   40  C20 UNL     1      -9.207  -3.266 -13.385  1.00  0.00     0.234 C 
HETATM   41  N6  UNL     1      -8.194  -3.036 -12.388  1.00  0.00    -0.075 N 
HETATM   42  C21 UNL     1      -7.289  -4.164 -12.268  1.00  0.00     0.234 C 
ATOM     43  H62 UNL     1      -7.686  -2.170 -12.567  1.00  0.00     0.277 HD
ATOM     44  H61 UNL     1      -8.607  -2.795 -11.487  1.00  0.00     0.277 HD
HETATM   45  C22 UNL     1      -8.099  -5.317 -11.717  1.00  0.00     0.055 C 
ENDBRANCH  35  38
ENDBRANCH  11  32
TORSDOF 7
ENDMDL
