MODEL 1
REMARK VINA RESULT: -11.687511987      0.000      0.000
REMARK  7 active torsions:
REMARK  status: ('A' for Active; 'I' for Inactive)
REMARK    1  A    between atoms: N1_2  and  C2_3 
REMARK    2  A    between atoms: N1_2  and  S1_10 
REMARK    3  A    between atoms: C2_3  and  C3_4 
REMARK    4  A    between atoms: S1_10  and  N2_13 
REMARK    5  A    between atoms: N2_13  and  C7_15 
REMARK    6  A    between atoms: C15_25  and  C16_26 
REMARK    7  A    between atoms: N5_30  and  C18_31 
ROOT
HETATM    1  C7  UNL     1      -8.053  -3.928 -11.806  1.00  0.00     0.044 A 
HETATM    2  C8  UNL     1      -9.341  -4.322 -12.085  1.00  0.00     0.031 A 
HETATM    3  C9  UNL     1      -9.640  -5.396 -12.930  1.00  0.00     0.014 A 
HETATM    4  C10 UNL     1      -8.634  -6.110 -13.523  1.00  0.00    -0.022 A 
HETATM    5  C11 UNL     1      -9.075  -7.141 -14.332  1.00  0.00     0.014 C 
HETATM    6  C12 UNL     1      -8.388  -7.833 -15.307  1.00  0.00     0.031 C 
HETATM    7  C13 UNL     1      -7.018  -7.835 -15.519  1.00  0.00     0.046 A 
HETATM    8  N3  UNL     1      -6.650  -8.614 -16.550  1.00  0.00    -0.364 N 
ATOM      9  H3  UNL     1      -7.366  -9.118 -17.073  1.00  0.00     0.165 HD
HETATM   10  C14 UNL     1      -5.363  -8.745 -16.910  1.00  0.00     0.100 A 
HETATM   11  C15 UNL     1      -4.341  -8.097 -16.253  1.00  0.00    -0.007 A 
HETATM   12  C24 UNL     1      -4.677  -7.283 -15.182  1.00  0.00     0.031 A 
HETATM   13  C25 UNL     1      -6.007  -7.174 -14.843  1.00  0.00     0.042 A 
HETATM   14  C26 UNL     1      -6.187  -6.335 -13.765  1.00  0.00     0.195 C 
HETATM   15  O5  UNL     1      -5.127  -6.054 -13.110  1.00  0.00    -0.287 OA
HETATM   16  C27 UNL     1      -7.338  -5.728 -13.254  1.00  0.00     0.027 A 
HETATM   17  C28 UNL     1      -7.037  -4.676 -12.427  1.00  0.00     0.046 A 
ENDROOT
BRANCH   1  18
HETATM   18  N2  UNL     1      -7.694  -2.852 -10.957  1.00  0.00    -0.268 N 
ATOM     19  H2  UNL     1      -8.310  -2.598 -10.184  1.00  0.00     0.180 HD
BRANCH  18  20
HETATM   20  S1  UNL     1      -6.265  -1.982 -11.201  1.00  0.00     0.321 S 
HETATM   21  O3  UNL     1      -5.108  -2.898 -10.821  1.00  0.00    -0.182 OA
HETATM   22  O4  UNL     1      -6.230  -0.846 -10.209  1.00  0.00    -0.182 OA
BRANCH  20  23
HETATM   23  N1  UNL     1      -6.019  -1.340 -12.747  1.00  0.00    -0.296 N 
HETATM   24  C1  UNL     1      -7.210  -1.027 -13.458  1.00  0.00     0.164 C 
BRANCH  23  25
HETATM   25  C2  UNL     1      -4.959  -0.405 -12.890  1.00  0.00     0.170 C 
BRANCH  25  26
HETATM   26  C3  UNL     1      -3.632  -0.988 -13.296  1.00  0.00     0.163 C 
HETATM   27  C4  UNL     1      -2.854   0.150 -13.965  1.00  0.00     0.201 C 
HETATM   28  O1  UNL     1      -1.791  -0.350 -14.683  1.00  0.00    -0.386 OA
HETATM   29  C5  UNL     1      -1.417  -1.607 -14.246  1.00  0.00     0.193 C 
HETATM   30  C6  UNL     1      -2.517  -2.620 -14.430  1.00  0.00     0.194 C 
HETATM   31  O2  UNL     1      -3.749  -2.080 -14.117  1.00  0.00    -0.380 OA
ENDBRANCH  25  26
ENDBRANCH  23  25
ENDBRANCH  20  23
ENDBRANCH  18  20
ENDBRANCH   1  18
BRANCH  11  32
HETATM   32  C16 UNL     1      -2.950  -8.250 -16.658  1.00  0.00     0.009 A 
HETATM   33  C17 UNL     1      -2.259  -9.440 -16.709  1.00  0.00     0.121 A 
HETATM   34  N4  UNL     1      -1.006  -9.191 -17.125  1.00  0.00    -0.309 N 
HETATM   35  N5  UNL     1      -0.864  -7.884 -17.345  1.00  0.00    -0.298 N 
ATOM     36  H4  UNL     1      -0.278  -9.893 -17.253  1.00  0.00     0.186 HD
HETATM   37  C23 UNL     1      -2.052  -7.288 -17.063  1.00  0.00     0.124 A 
BRANCH  35  38
HETATM   38  C18 UNL     1       0.355  -7.272 -17.800  1.00  0.00     0.110 C 
HETATM   39  C19 UNL     1       0.241  -5.799 -17.980  1.00  0.00     0.055 C 
HETATM   40  C20 UNL     1      -0.208  -5.335 -19.318  1.00  0.00     0.234 C 
HETATM   41  N6  UNL     1       0.235  -6.153 -20.418  1.00  0.00    -0.075 N 
HETATM   42  C21 UNL     1      -0.035  -7.559 -20.188  1.00  0.00     0.234 C 
ATOM     43  H62 UNL     1      -0.167  -5.837 -21.300  1.00  0.00     0.277 HD
ATOM     44  H61 UNL     1       1.221  -5.993 -20.625  1.00  0.00     0.277 HD
HETATM   45  C22 UNL     1       0.840  -7.988 -19.030  1.00  0.00     0.055 C 
ENDBRANCH  35  38
ENDBRANCH  11  32
TORSDOF 7
ENDMDL
