MODEL 5
REMARK VINA RESULT: -10.954706827      1.141      1.501
REMARK  7 active torsions:
REMARK  status: ('A' for Active; 'I' for Inactive)
REMARK    1  A    between atoms: N1_2  and  C2_3 
REMARK    2  A    between atoms: N1_2  and  S1_10 
REMARK    3  A    between atoms: C2_3  and  C3_4 
REMARK    4  A    between atoms: S1_10  and  N2_13 
REMARK    5  A    between atoms: N2_13  and  C7_15 
REMARK    6  A    between atoms: C15_25  and  C16_26 
REMARK    7  A    between atoms: N5_30  and  C18_31 
ROOT
HETATM    1  C7  UNL     1      -7.949  -4.249 -12.033  1.00  0.00     0.044 A 
HETATM    2  C8  UNL     1      -9.202  -4.641 -12.444  1.00  0.00     0.031 A 
HETATM    3  C9  UNL     1      -9.410  -5.668 -13.370  1.00  0.00     0.014 A 
HETATM    4  C10 UNL     1      -8.345  -6.336 -13.913  1.00  0.00    -0.022 A 
HETATM    5  C11 UNL     1      -8.698  -7.325 -14.813  1.00  0.00     0.014 C 
HETATM    6  C12 UNL     1      -7.918  -7.952 -15.761  1.00  0.00     0.031 C 
HETATM    7  C13 UNL     1      -6.535  -7.927 -15.853  1.00  0.00     0.046 A 
HETATM    8  N3  UNL     1      -6.068  -8.641 -16.890  1.00  0.00    -0.364 N 
ATOM      9  H3  UNL     1      -6.728  -9.123 -17.500  1.00  0.00     0.165 HD
HETATM   10  C14 UNL     1      -4.752  -8.738 -17.144  1.00  0.00     0.100 A 
HETATM   11  C15 UNL     1      -3.802  -8.117 -16.365  1.00  0.00    -0.007 A 
HETATM   12  C24 UNL     1      -4.241  -7.369 -15.284  1.00  0.00     0.031 A 
HETATM   13  C25 UNL     1      -5.597  -7.294 -15.056  1.00  0.00     0.042 A 
HETATM   14  C26 UNL     1      -5.882  -6.520 -13.953  1.00  0.00     0.195 C 
HETATM   15  O5  UNL     1      -4.888  -6.265 -13.193  1.00  0.00    -0.287 OA
HETATM   16  C27 UNL     1      -7.083  -5.956 -13.511  1.00  0.00     0.027 A 
HETATM   17  C28 UNL     1      -6.872  -4.949 -12.603  1.00  0.00     0.046 A 
ENDROOT
BRANCH   1  18
HETATM   18  N2  UNL     1      -7.682  -3.219 -11.097  1.00  0.00    -0.268 N 
ATOM     19  H2  UNL     1      -8.322  -3.075 -10.315  1.00  0.00     0.180 HD
BRANCH  18  20
HETATM   20  S1  UNL     1      -6.324  -2.225 -11.252  1.00  0.00     0.321 S 
HETATM   21  O3  UNL     1      -5.107  -3.060 -10.870  1.00  0.00    -0.182 OA
HETATM   22  O4  UNL     1      -6.415  -1.136 -10.211  1.00  0.00    -0.182 OA
BRANCH  20  23
HETATM   23  N1  UNL     1      -6.082  -1.495 -12.758  1.00  0.00    -0.296 N 
HETATM   24  C1  UNL     1      -7.275  -1.155 -13.453  1.00  0.00     0.164 C 
BRANCH  23  25
HETATM   25  C2  UNL     1      -5.032  -0.543 -12.846  1.00  0.00     0.170 C 
BRANCH  25  26
HETATM   26  C3  UNL     1      -3.692  -1.091 -13.260  1.00  0.00     0.163 C 
HETATM   27  C4  UNL     1      -2.945   0.067 -13.929  1.00  0.00     0.201 C 
HETATM   28  O1  UNL     1      -1.873  -0.404 -14.653  1.00  0.00    -0.386 OA
HETATM   29  C5  UNL     1      -1.467  -1.653 -14.220  1.00  0.00     0.193 C 
HETATM   30  C6  UNL     1      -2.543  -2.693 -14.403  1.00  0.00     0.194 C 
HETATM   31  O2  UNL     1      -3.786  -2.183 -14.084  1.00  0.00    -0.380 OA
ENDBRANCH  25  26
ENDBRANCH  23  25
ENDBRANCH  20  23
ENDBRANCH  18  20
ENDBRANCH   1  18
BRANCH  11  32
HETATM   32  C16 UNL     1      -2.378  -8.232 -16.655  1.00  0.00     0.009 A 
HETATM   33  C17 UNL     1      -1.515  -7.177 -16.851  1.00  0.00     0.121 A 
HETATM   34  N4  UNL     1      -0.288  -7.667 -17.094  1.00  0.00    -0.309 N 
HETATM   35  N5  UNL     1      -0.328  -8.999 -17.061  1.00  0.00    -0.298 N 
ATOM     36  H4  UNL     1       0.545  -7.106 -17.274  1.00  0.00     0.186 HD
HETATM   37  C23 UNL     1      -1.608  -9.365 -16.792  1.00  0.00     0.124 A 
BRANCH  35  38
HETATM   38  C18 UNL     1       0.814  -9.845 -17.280  1.00  0.00     0.110 C 
HETATM   39  C19 UNL     1       2.083  -9.085 -17.443  1.00  0.00     0.055 C 
HETATM   40  C20 UNL     1       2.427  -8.673 -18.829  1.00  0.00     0.234 C 
HETATM   41  N6  UNL     1       2.018  -9.602 -19.851  1.00  0.00    -0.075 N 
HETATM   42  C21 UNL     1       0.628  -9.988 -19.705  1.00  0.00     0.234 C 
ATOM     43  H62 UNL     1       2.205  -9.233 -20.783  1.00  0.00     0.277 HD
ATOM     44  H61 UNL     1       2.630 -10.418 -19.877  1.00  0.00     0.277 HD
HETATM   45  C22 UNL     1       0.528 -10.781 -18.419  1.00  0.00     0.055 C 
ENDBRANCH  35  38
ENDBRANCH  11  32
TORSDOF 7
ENDMDL
