MODEL 7
REMARK VINA RESULT: -10.869425427      1.197      1.439
REMARK  7 active torsions:
REMARK  status: ('A' for Active; 'I' for Inactive)
REMARK    1  A    between atoms: N1_2  and  C2_3 
REMARK    2  A    between atoms: N1_2  and  S1_10 
REMARK    3  A    between atoms: C2_3  and  C3_4 
REMARK    4  A    between atoms: S1_10  and  N2_13 
REMARK    5  A    between atoms: N2_13  and  C7_15 
REMARK    6  A    between atoms: C15_25  and  C16_26 
REMARK    7  A    between atoms: N5_30  and  C18_31 
ROOT
HETATM    1  C7  UNL     1      -7.514  -3.502 -11.790  1.00  0.00     0.044 A 
HETATM    2  C8  UNL     1      -8.838  -3.840 -11.948  1.00  0.00     0.031 A 
HETATM    3  C9  UNL     1      -9.254  -4.953 -12.685  1.00  0.00     0.014 A 
HETATM    4  C10 UNL     1      -8.333  -5.767 -13.288  1.00  0.00    -0.022 A 
HETATM    5  C11 UNL     1      -8.887  -6.828 -13.982  1.00  0.00     0.014 C 
HETATM    6  C12 UNL     1      -8.310  -7.628 -14.945  1.00  0.00     0.031 C 
HETATM    7  C13 UNL     1      -6.961  -7.726 -15.249  1.00  0.00     0.046 A 
HETATM    8  N3  UNL     1      -6.711  -8.599 -16.240  1.00  0.00    -0.364 N 
ATOM      9  H3  UNL     1      -7.489  -9.098 -16.671  1.00  0.00     0.165 HD
HETATM   10  C14 UNL     1      -5.463  -8.832 -16.676  1.00  0.00     0.100 A 
HETATM   11  C15 UNL     1      -4.363  -8.198 -16.143  1.00  0.00    -0.007 A 
HETATM   12  C24 UNL     1      -4.576  -7.289 -15.118  1.00  0.00     0.031 A 
HETATM   13  C25 UNL     1      -5.870  -7.077 -14.698  1.00  0.00     0.042 A 
HETATM   14  C26 UNL     1      -5.926  -6.153 -13.679  1.00  0.00     0.195 C 
HETATM   15  O5  UNL     1      -4.808  -5.886 -13.121  1.00  0.00    -0.287 OA
HETATM   16  C27 UNL     1      -7.003  -5.443 -13.139  1.00  0.00     0.027 A 
HETATM   17  C28 UNL     1      -6.587  -4.352 -12.418  1.00  0.00     0.046 A 
ENDROOT
BRANCH   1  18
HETATM   18  N2  UNL     1      -7.038  -2.389 -11.053  1.00  0.00    -0.268 N 
ATOM     19  H2  UNL     1      -7.033  -2.428 -10.034  1.00  0.00     0.180 HD
BRANCH  18  20
HETATM   20  S1  UNL     1      -6.476  -0.998 -11.833  1.00  0.00     0.321 S 
HETATM   21  O3  UNL     1      -6.920   0.198 -10.999  1.00  0.00    -0.182 OA
HETATM   22  O4  UNL     1      -7.203  -0.871 -13.150  1.00  0.00    -0.182 OA
BRANCH  20  23
HETATM   23  N1  UNL     1      -4.815  -0.913 -12.137  1.00  0.00    -0.296 N 
HETATM   24  C1  UNL     1      -4.254  -2.087 -12.710  1.00  0.00     0.164 C 
BRANCH  23  25
HETATM   25  C2  UNL     1      -4.321   0.314 -12.655  1.00  0.00     0.170 C 
BRANCH  25  26
HETATM   26  C3  UNL     1      -2.890   0.293 -13.120  1.00  0.00     0.163 C 
HETATM   27  C4  UNL     1      -2.160   1.363 -12.303  1.00  0.00     0.201 C 
HETATM   28  O1  UNL     1      -0.951   1.674 -12.886  1.00  0.00    -0.386 OA
HETATM   29  C5  UNL     1      -0.503   0.663 -13.715  1.00  0.00     0.193 C 
HETATM   30  C6  UNL     1      -1.438   0.423 -14.872  1.00  0.00     0.194 C 
HETATM   31  O2  UNL     1      -2.756   0.499 -14.470  1.00  0.00    -0.380 OA
ENDBRANCH  25  26
ENDBRANCH  23  25
ENDBRANCH  20  23
ENDBRANCH  18  20
ENDBRANCH   1  18
BRANCH  11  32
HETATM   32  C16 UNL     1      -3.015  -8.462 -16.629  1.00  0.00     0.009 A 
HETATM   33  C17 UNL     1      -2.431  -9.704 -16.731  1.00  0.00     0.121 A 
HETATM   34  N4  UNL     1      -1.187  -9.556 -17.217  1.00  0.00    -0.309 N 
HETATM   35  N5  UNL     1      -0.948  -8.262 -17.432  1.00  0.00    -0.298 N 
ATOM     36  H4  UNL     1      -0.529 -10.315 -17.394  1.00  0.00     0.186 HD
HETATM   37  C23 UNL     1      -2.063  -7.573 -17.076  1.00  0.00     0.124 A 
BRANCH  35  38
HETATM   38  C18 UNL     1       0.291  -7.749 -17.952  1.00  0.00     0.110 C 
HETATM   39  C19 UNL     1       0.287  -6.270 -18.124  1.00  0.00     0.055 C 
HETATM   40  C20 UNL     1      -0.194  -5.764 -19.435  1.00  0.00     0.234 C 
HETATM   41  N6  UNL     1       0.122  -6.609 -20.558  1.00  0.00    -0.075 N 
HETATM   42  C21 UNL     1      -0.249  -7.990 -20.316  1.00  0.00     0.234 C 
ATOM     43  H62 UNL     1      -0.300  -6.256 -21.417  1.00  0.00     0.277 HD
ATOM     44  H61 UNL     1       1.105  -6.528 -20.818  1.00  0.00     0.277 HD
HETATM   45  C22 UNL     1       0.649  -8.494 -19.207  1.00  0.00     0.055 C 
ENDBRANCH  35  38
ENDBRANCH  11  32
TORSDOF 7
ENDMDL
