MODEL 19
REMARK VINA RESULT: -8.909309672      2.455      5.957
REMARK  7 active torsions:
REMARK  status: ('A' for Active; 'I' for Inactive)
REMARK    1  A    between atoms: N1_2  and  C2_3 
REMARK    2  A    between atoms: N1_2  and  S1_10 
REMARK    3  A    between atoms: C2_3  and  C3_4 
REMARK    4  A    between atoms: S1_10  and  N2_13 
REMARK    5  A    between atoms: N2_13  and  C7_15 
REMARK    6  A    between atoms: C15_25  and  C16_26 
REMARK    7  A    between atoms: N5_30  and  C18_31 
ROOT
HETATM    1  C7  UNL     1      -6.696  -2.394 -11.788  1.00  0.00     0.044 A 
HETATM    2  C8  UNL     1      -6.657  -1.052 -11.489  1.00  0.00     0.031 A 
HETATM    3  C9  UNL     1      -5.615  -0.214 -11.898  1.00  0.00     0.014 A 
HETATM    4  C10 UNL     1      -4.571  -0.715 -12.629  1.00  0.00    -0.022 A 
HETATM    5  C11 UNL     1      -3.614   0.227 -12.963  1.00  0.00     0.014 C 
HETATM    6  C12 UNL     1      -2.318   0.030 -13.391  1.00  0.00     0.031 C 
HETATM    7  C13 UNL     1      -1.759  -1.156 -13.840  1.00  0.00     0.046 A 
HETATM    8  N3  UNL     1      -0.469  -1.026 -14.191  1.00  0.00    -0.364 N 
ATOM      9  H3  UNL     1      -0.019  -0.114 -14.105  1.00  0.00     0.165 HD
HETATM   10  C14 UNL     1       0.245  -2.066 -14.652  1.00  0.00     0.100 A 
HETATM   11  C15 UNL     1      -0.292  -3.326 -14.796  1.00  0.00    -0.007 A 
HETATM   12  C24 UNL     1      -1.621  -3.504 -14.446  1.00  0.00     0.031 A 
HETATM   13  C25 UNL     1      -2.320  -2.414 -13.978  1.00  0.00     0.042 A 
HETATM   14  C26 UNL     1      -3.622  -2.742 -13.671  1.00  0.00     0.195 C 
HETATM   15  O5  UNL     1      -4.025  -3.864 -14.131  1.00  0.00    -0.287 OA
HETATM   16  C27 UNL     1      -4.595  -2.057 -12.936  1.00  0.00     0.027 A 
HETATM   17  C28 UNL     1      -5.614  -2.885 -12.538  1.00  0.00     0.046 A 
ENDROOT
BRANCH   1  18
HETATM   18  N2  UNL     1      -7.727  -3.287 -11.402  1.00  0.00    -0.268 N 
ATOM     19  H2  UNL     1      -7.820  -3.550 -10.420  1.00  0.00     0.180 HD
BRANCH  18  20
HETATM   20  S1  UNL     1      -8.805  -3.923 -12.538  1.00  0.00     0.321 S 
HETATM   21  O3  UNL     1      -8.785  -2.997 -13.748  1.00  0.00    -0.182 OA
HETATM   22  O4  UNL     1     -10.200  -3.824 -11.970  1.00  0.00    -0.182 OA
BRANCH  20  23
HETATM   23  N1  UNL     1      -8.545  -5.523 -13.022  1.00  0.00    -0.296 N 
HETATM   24  C1  UNL     1      -8.887  -6.502 -12.049  1.00  0.00     0.164 C 
BRANCH  23  25
HETATM   25  C2  UNL     1      -8.886  -5.849 -14.362  1.00  0.00     0.170 C 
BRANCH  25  26
HETATM   26  C3  UNL     1      -7.866  -6.665 -15.110  1.00  0.00     0.163 C 
HETATM   27  C4  UNL     1      -8.629  -7.843 -15.722  1.00  0.00     0.201 C 
HETATM   28  O1  UNL     1      -7.755  -8.831 -16.119  1.00  0.00    -0.386 OA
HETATM   29  C5  UNL     1      -6.477  -8.340 -16.315  1.00  0.00     0.193 C 
HETATM   30  C6  UNL     1      -5.882  -7.785 -15.047  1.00  0.00     0.194 C 
HETATM   31  O2  UNL     1      -6.825  -7.084 -14.322  1.00  0.00    -0.380 OA
ENDBRANCH  25  26
ENDBRANCH  23  25
ENDBRANCH  20  23
ENDBRANCH  18  20
ENDBRANCH   1  18
BRANCH  11  32
HETATM   32  C16 UNL     1       0.498  -4.443 -15.298  1.00  0.00     0.009 A 
HETATM   33  C17 UNL     1       1.323  -5.242 -14.540  1.00  0.00     0.121 A 
HETATM   34  N4  UNL     1       1.883  -6.163 -15.341  1.00  0.00    -0.309 N 
HETATM   35  N5  UNL     1       1.448  -5.988 -16.589  1.00  0.00    -0.298 N 
ATOM     36  H4  UNL     1       2.539  -6.885 -15.042  1.00  0.00     0.186 HD
HETATM   37  C23 UNL     1       0.593  -4.932 -16.582  1.00  0.00     0.124 A 
BRANCH  35  38
HETATM   38  C18 UNL     1       1.848  -6.804 -17.704  1.00  0.00     0.110 C 
HETATM   39  C19 UNL     1       1.561  -6.177 -19.022  1.00  0.00     0.055 C 
HETATM   40  C20 UNL     1       0.224  -6.460 -19.606  1.00  0.00     0.234 C 
HETATM   41  N6  UNL     1      -0.293  -7.772 -19.316  1.00  0.00    -0.075 N 
HETATM   42  C21 UNL     1      -0.217  -8.081 -17.901  1.00  0.00     0.234 C 
ATOM     43  H62 UNL     1      -1.242  -7.883 -19.670  1.00  0.00     0.277 HD
ATOM     44  H61 UNL     1       0.171  -8.486 -19.877  1.00  0.00     0.277 HD
HETATM   45  C22 UNL     1       1.252  -8.176 -17.552  1.00  0.00     0.055 C 
ENDBRANCH  35  38
ENDBRANCH  11  32
TORSDOF 7
ENDMDL
