MODEL 11
REMARK VINA RESULT: -10.409868213      1.623      2.209
REMARK  7 active torsions:
REMARK  status: ('A' for Active; 'I' for Inactive)
REMARK    1  A    between atoms: N1_2  and  C2_3 
REMARK    2  A    between atoms: N1_2  and  S1_10 
REMARK    3  A    between atoms: C2_3  and  C3_4 
REMARK    4  A    between atoms: S1_10  and  N2_13 
REMARK    5  A    between atoms: N2_13  and  C7_15 
REMARK    6  A    between atoms: C15_25  and  C16_26 
REMARK    7  A    between atoms: N5_30  and  C18_31 
ROOT
HETATM    1  C7  UNL     1      -7.356  -3.567 -11.740  1.00  0.00     0.044 A 
HETATM    2  C8  UNL     1      -8.686  -3.912 -11.806  1.00  0.00     0.031 A 
HETATM    3  C9  UNL     1      -9.146  -5.025 -12.517  1.00  0.00     0.014 A 
HETATM    4  C10 UNL     1      -8.265  -5.830 -13.187  1.00  0.00    -0.022 A 
HETATM    5  C11 UNL     1      -8.860  -6.892 -13.844  1.00  0.00     0.014 C 
HETATM    6  C12 UNL     1      -8.347  -7.685 -14.849  1.00  0.00     0.031 C 
HETATM    7  C13 UNL     1      -7.023  -7.774 -15.248  1.00  0.00     0.046 A 
HETATM    8  N3  UNL     1      -6.838  -8.641 -16.258  1.00  0.00    -0.364 N 
ATOM      9  H3  UNL     1      -7.642  -9.143 -16.636  1.00  0.00     0.165 HD
HETATM   10  C14 UNL     1      -5.622  -8.864 -16.782  1.00  0.00     0.100 A 
HETATM   11  C15 UNL     1      -4.491  -8.226 -16.324  1.00  0.00    -0.007 A 
HETATM   12  C24 UNL     1      -4.637  -7.323 -15.283  1.00  0.00     0.031 A 
HETATM   13  C25 UNL     1      -5.899  -7.120 -14.772  1.00  0.00     0.042 A 
HETATM   14  C26 UNL     1      -5.889  -6.200 -13.748  1.00  0.00     0.195 C 
HETATM   15  O5  UNL     1      -4.736  -5.929 -13.268  1.00  0.00    -0.287 OA
HETATM   16  C27 UNL     1      -6.929  -5.499 -13.130  1.00  0.00     0.027 A 
HETATM   17  C28 UNL     1      -6.471  -4.408 -12.435  1.00  0.00     0.046 A 
ENDROOT
BRANCH   1  18
HETATM   18  N2  UNL     1      -6.835  -2.454 -11.033  1.00  0.00    -0.268 N 
ATOM     19  H2  UNL     1      -6.726  -2.510 -10.021  1.00  0.00     0.180 HD
BRANCH  18  20
HETATM   20  S1  UNL     1      -6.392  -1.034 -11.839  1.00  0.00     0.321 S 
HETATM   21  O3  UNL     1      -6.870   0.136 -10.987  1.00  0.00    -0.182 OA
HETATM   22  O4  UNL     1      -7.182  -0.956 -13.122  1.00  0.00    -0.182 OA
BRANCH  20  23
HETATM   23  N1  UNL     1      -4.754  -0.852 -12.215  1.00  0.00    -0.296 N 
HETATM   24  C1  UNL     1      -4.096  -2.050 -12.608  1.00  0.00     0.164 C 
BRANCH  23  25
HETATM   25  C2  UNL     1      -4.391   0.311 -12.947  1.00  0.00     0.170 C 
BRANCH  25  26
HETATM   26  C3  UNL     1      -2.929   0.436 -13.282  1.00  0.00     0.163 C 
HETATM   27  C4  UNL     1      -2.463   1.760 -12.668  1.00  0.00     0.201 C 
HETATM   28  O1  UNL     1      -1.256   2.144 -13.208  1.00  0.00    -0.386 OA
HETATM   29  C5  UNL     1      -0.572   1.074 -13.755  1.00  0.00     0.193 C 
HETATM   30  C6  UNL     1      -1.324   0.446 -14.900  1.00  0.00     0.194 C 
HETATM   31  O2  UNL     1      -2.676   0.380 -14.629  1.00  0.00    -0.380 OA
ENDBRANCH  25  26
ENDBRANCH  23  25
ENDBRANCH  20  23
ENDBRANCH  18  20
ENDBRANCH   1  18
BRANCH  11  32
HETATM   32  C16 UNL     1      -3.179  -8.480 -16.905  1.00  0.00     0.009 A 
HETATM   33  C17 UNL     1      -2.944  -9.123 -18.099  1.00  0.00     0.121 A 
HETATM   34  N4  UNL     1      -1.618  -9.172 -18.307  1.00  0.00    -0.309 N 
HETATM   35  N5  UNL     1      -0.988  -8.584 -17.289  1.00  0.00    -0.298 N 
ATOM     36  H4  UNL     1      -1.163  -9.594 -19.117  1.00  0.00     0.186 HD
HETATM   37  C23 UNL     1      -1.934  -8.151 -16.416  1.00  0.00     0.124 A 
BRANCH  35  38
HETATM   38  C18 UNL     1       0.441  -8.459 -17.191  1.00  0.00     0.110 C 
HETATM   39  C19 UNL     1       1.139  -8.679 -18.486  1.00  0.00     0.055 C 
HETATM   40  C20 UNL     1       1.525 -10.081 -18.793  1.00  0.00     0.234 C 
HETATM   41  N6  UNL     1       1.894 -10.868 -17.645  1.00  0.00    -0.075 N 
HETATM   42  C21 UNL     1       0.907 -10.773 -16.586  1.00  0.00     0.234 C 
ATOM     43  H62 UNL     1       2.070 -11.839 -17.902  1.00  0.00     0.277 HD
ATOM     44  H61 UNL     1       2.824 -10.621 -17.309  1.00  0.00     0.277 HD
HETATM   45  C22 UNL     1       0.941  -9.345 -16.085  1.00  0.00     0.055 C 
ENDBRANCH  35  38
ENDBRANCH  11  32
TORSDOF 7
ENDMDL
