MODEL 2
REMARK VINA RESULT: -11.248610689      0.846      1.076
REMARK  7 active torsions:
REMARK  status: ('A' for Active; 'I' for Inactive)
REMARK    1  A    between atoms: N1_2  and  C2_3 
REMARK    2  A    between atoms: N1_2  and  S1_10 
REMARK    3  A    between atoms: C2_3  and  C3_4 
REMARK    4  A    between atoms: S1_10  and  N2_13 
REMARK    5  A    between atoms: N2_13  and  C7_15 
REMARK    6  A    between atoms: C15_25  and  C16_26 
REMARK    7  A    between atoms: N5_30  and  C18_31 
ROOT
HETATM    1  C7  UNL     1      -7.969  -3.668 -11.967  1.00  0.00     0.044 A 
HETATM    2  C8  UNL     1      -9.272  -4.046 -12.197  1.00  0.00     0.031 A 
HETATM    3  C9  UNL     1      -9.613  -5.164 -12.964  1.00  0.00     0.014 A 
HETATM    4  C10 UNL     1      -8.637  -5.941 -13.527  1.00  0.00    -0.022 A 
HETATM    5  C11 UNL     1      -9.120  -7.011 -14.258  1.00  0.00     0.014 C 
HETATM    6  C12 UNL     1      -8.468  -7.783 -15.198  1.00  0.00     0.031 C 
HETATM    7  C13 UNL     1      -7.103  -7.834 -15.434  1.00  0.00     0.046 A 
HETATM    8  N3  UNL     1      -6.775  -8.687 -16.418  1.00  0.00    -0.364 N 
ATOM      9  H3  UNL     1      -7.513  -9.206 -16.894  1.00  0.00     0.165 HD
HETATM   10  C14 UNL     1      -5.499  -8.875 -16.792  1.00  0.00     0.100 A 
HETATM   11  C15 UNL     1      -4.449  -8.213 -16.197  1.00  0.00    -0.007 A 
HETATM   12  C24 UNL     1      -4.743  -7.323 -15.175  1.00  0.00     0.031 A 
HETATM   13  C25 UNL     1      -6.063  -7.157 -14.820  1.00  0.00     0.042 A 
HETATM   14  C26 UNL     1      -6.201  -6.246 -13.797  1.00  0.00     0.195 C 
HETATM   15  O5  UNL     1      -5.123  -5.950 -13.180  1.00  0.00    -0.287 OA
HETATM   16  C27 UNL     1      -7.327  -5.577 -13.307  1.00  0.00     0.027 A 
HETATM   17  C28 UNL     1      -6.985  -4.481 -12.555  1.00  0.00     0.046 A 
ENDROOT
BRANCH   1  18
HETATM   18  N2  UNL     1      -7.568  -2.549 -11.197  1.00  0.00    -0.268 N 
ATOM     19  H2  UNL     1      -8.254  -2.073 -10.611  1.00  0.00     0.180 HD
BRANCH  18  20
HETATM   20  S1  UNL     1      -5.973  -1.988 -11.232  1.00  0.00     0.321 S 
HETATM   21  O3  UNL     1      -5.125  -2.988 -10.454  1.00  0.00    -0.182 OA
HETATM   22  O4  UNL     1      -5.909  -0.700 -10.447  1.00  0.00    -0.182 OA
BRANCH  20  23
HETATM   23  N1  UNL     1      -5.296  -1.711 -12.757  1.00  0.00    -0.296 N 
HETATM   24  C1  UNL     1      -5.006  -0.348 -13.040  1.00  0.00     0.164 C 
BRANCH  23  25
HETATM   25  C2  UNL     1      -4.326  -2.647 -13.205  1.00  0.00     0.170 C 
BRANCH  25  26
HETATM   26  C3  UNL     1      -2.946  -2.092 -13.434  1.00  0.00     0.163 C 
HETATM   27  C4  UNL     1      -2.314  -2.958 -14.528  1.00  0.00     0.201 C 
HETATM   28  O1  UNL     1      -0.950  -2.771 -14.563  1.00  0.00    -0.386 OA
HETATM   29  C5  UNL     1      -0.579  -1.569 -13.990  1.00  0.00     0.193 C 
HETATM   30  C6  UNL     1      -0.940  -1.502 -12.528  1.00  0.00     0.194 C 
HETATM   31  O2  UNL     1      -2.179  -2.064 -12.297  1.00  0.00    -0.380 OA
ENDBRANCH  25  26
ENDBRANCH  23  25
ENDBRANCH  20  23
ENDBRANCH  18  20
ENDBRANCH   1  18
BRANCH  11  32
HETATM   32  C16 UNL     1      -3.070  -8.429 -16.615  1.00  0.00     0.009 A 
HETATM   33  C17 UNL     1      -2.426  -9.645 -16.649  1.00  0.00     0.121 A 
HETATM   34  N4  UNL     1      -1.170  -9.454 -17.086  1.00  0.00    -0.309 N 
HETATM   35  N5  UNL     1      -0.980  -8.157 -17.334  1.00  0.00    -0.298 N 
ATOM     36  H4  UNL     1      -0.471 -10.186 -17.208  1.00  0.00     0.186 HD
HETATM   37  C23 UNL     1      -2.140  -7.510 -17.050  1.00  0.00     0.124 A 
BRANCH  35  38
HETATM   38  C18 UNL     1       0.256  -7.603 -17.817  1.00  0.00     0.110 C 
HETATM   39  C19 UNL     1       0.215  -6.123 -17.969  1.00  0.00     0.055 C 
HETATM   40  C20 UNL     1      -0.248  -5.612 -19.285  1.00  0.00     0.234 C 
HETATM   41  N6  UNL     1       0.117  -6.433 -20.411  1.00  0.00    -0.075 N 
HETATM   42  C21 UNL     1      -0.220  -7.826 -20.196  1.00  0.00     0.234 C 
ATOM     43  H62 UNL     1      -0.293  -6.080 -21.275  1.00  0.00     0.277 HD
ATOM     44  H61 UNL     1       1.104  -6.321 -20.646  1.00  0.00     0.277 HD
HETATM   45  C22 UNL     1       0.664  -8.321 -19.072  1.00  0.00     0.055 C 
ENDBRANCH  35  38
ENDBRANCH  11  32
TORSDOF 7
ENDMDL
