MODEL 20
REMARK VINA RESULT: -8.785102507      4.051      9.510
REMARK  7 active torsions:
REMARK  status: ('A' for Active; 'I' for Inactive)
REMARK    1  A    between atoms: N1_2  and  C2_3 
REMARK    2  A    between atoms: N1_2  and  S1_10 
REMARK    3  A    between atoms: C2_3  and  C3_4 
REMARK    4  A    between atoms: S1_10  and  N2_13 
REMARK    5  A    between atoms: N2_13  and  C7_15 
REMARK    6  A    between atoms: C15_25  and  C16_26 
REMARK    7  A    between atoms: N5_30  and  C18_31 
ROOT
HETATM    1  C7  UNL     1       2.497  -6.499 -17.535  1.00  0.00     0.044 A 
HETATM    2  C8  UNL     1       2.685  -7.436 -18.524  1.00  0.00     0.031 A 
HETATM    3  C9  UNL     1       1.639  -8.198 -19.056  1.00  0.00     0.014 A 
HETATM    4  C10 UNL     1       0.360  -8.031 -18.598  1.00  0.00    -0.022 A 
HETATM    5  C11 UNL     1      -0.570  -8.849 -19.213  1.00  0.00     0.014 C 
HETATM    6  C12 UNL     1      -1.843  -9.178 -18.798  1.00  0.00     0.031 C 
HETATM    7  C13 UNL     1      -2.584  -8.556 -17.806  1.00  0.00     0.046 A 
HETATM    8  N3  UNL     1      -3.797  -9.108 -17.635  1.00  0.00    -0.364 N 
ATOM      9  H3  UNL     1      -4.069  -9.901 -18.215  1.00  0.00     0.165 HD
HETATM   10  C14 UNL     1      -4.661  -8.642 -16.718  1.00  0.00     0.100 A 
HETATM   11  C15 UNL     1      -4.366  -7.576 -15.899  1.00  0.00    -0.007 A 
HETATM   12  C24 UNL     1      -3.124  -6.976 -16.043  1.00  0.00     0.031 A 
HETATM   13  C25 UNL     1      -2.266  -7.481 -16.993  1.00  0.00     0.042 A 
HETATM   14  C26 UNL     1      -1.076  -6.788 -17.020  1.00  0.00     0.195 C 
HETATM   15  O5  UNL     1      -1.083  -5.668 -16.406  1.00  0.00    -0.287 OA
HETATM   16  C27 UNL     1       0.155  -7.096 -17.608  1.00  0.00     0.027 A 
HETATM   17  C28 UNL     1       1.176  -6.346 -17.081  1.00  0.00     0.046 A 
ENDROOT
BRANCH   1  18
HETATM   18  N2  UNL     1       3.518  -5.700 -16.963  1.00  0.00    -0.268 N 
ATOM     19  H2  UNL     1       4.107  -6.091 -16.228  1.00  0.00     0.180 HD
BRANCH  18  20
HETATM   20  S1  UNL     1       3.777  -4.110 -17.477  1.00  0.00     0.321 S 
HETATM   21  O3  UNL     1       4.708  -3.454 -16.465  1.00  0.00    -0.182 OA
HETATM   22  O4  UNL     1       2.470  -3.363 -17.375  1.00  0.00    -0.182 OA
BRANCH  20  23
HETATM   23  N1  UNL     1       4.381  -3.905 -19.044  1.00  0.00    -0.296 N 
HETATM   24  C1  UNL     1       5.143  -5.001 -19.536  1.00  0.00     0.164 C 
BRANCH  23  25
HETATM   25  C2  UNL     1       3.515  -3.291 -19.988  1.00  0.00     0.170 C 
BRANCH  25  26
HETATM   26  C3  UNL     1       2.670  -4.235 -20.801  1.00  0.00     0.163 C 
HETATM   27  C4  UNL     1       2.636  -3.661 -22.221  1.00  0.00     0.201 C 
HETATM   28  O1  UNL     1       1.617  -4.234 -22.949  1.00  0.00    -0.386 OA
HETATM   29  C5  UNL     1       1.230  -5.453 -22.423  1.00  0.00     0.193 C 
HETATM   30  C6  UNL     1       0.677  -5.318 -21.028  1.00  0.00     0.194 C 
HETATM   31  O2  UNL     1       1.409  -4.409 -20.290  1.00  0.00    -0.380 OA
ENDBRANCH  25  26
ENDBRANCH  23  25
ENDBRANCH  20  23
ENDBRANCH  18  20
ENDBRANCH   1  18
BRANCH  11  32
HETATM   32  C16 UNL     1      -5.315  -7.083 -14.909  1.00  0.00     0.009 A 
HETATM   33  C17 UNL     1      -5.042  -6.148 -13.937  1.00  0.00     0.121 A 
HETATM   34  N4  UNL     1      -6.156  -5.944 -13.212  1.00  0.00    -0.309 N 
HETATM   35  N5  UNL     1      -7.137  -6.714 -13.684  1.00  0.00    -0.298 N 
ATOM     36  H4  UNL     1      -6.237  -5.300 -12.426  1.00  0.00     0.186 HD
HETATM   37  C23 UNL     1      -6.638  -7.423 -14.730  1.00  0.00     0.124 A 
BRANCH  35  38
HETATM   38  C18 UNL     1      -8.468  -6.745 -13.140  1.00  0.00     0.110 C 
HETATM   39  C19 UNL     1      -9.525  -6.521 -14.163  1.00  0.00     0.055 C 
HETATM   40  C20 UNL     1      -9.916  -5.108 -14.404  1.00  0.00     0.234 C 
HETATM   41  N6  UNL     1      -9.865  -4.263 -13.238  1.00  0.00    -0.075 N 
HETATM   42  C21 UNL     1      -8.603  -4.388 -12.536  1.00  0.00     0.234 C 
ATOM     43  H62 UNL     1     -10.064  -3.292 -13.476  1.00  0.00     0.277 HD
ATOM     44  H61 UNL     1     -10.655  -4.440 -12.618  1.00  0.00     0.277 HD
HETATM   45  C22 UNL     1      -8.551  -5.794 -11.978  1.00  0.00     0.055 C 
ENDBRANCH  35  38
ENDBRANCH  11  32
TORSDOF 7
ENDMDL
