MODEL 1
REMARK VINA RESULT: -5.868029165      0.000      0.000
REMARK  3 active torsions:
REMARK  status: ('A' for Active; 'I' for Inactive)
REMARK    1  A    between atoms: O1_2  and  C2_3 
REMARK    2  A    between atoms: C5_7  and  C6_8 
REMARK    3  A    between atoms: C8_12  and  O4_13 
ROOT
HETATM    1  C2  UNL     1     -11.615 -34.044   9.688  1.00  0.00     0.103 A 
HETATM    2  C3  UNL     1     -11.567 -33.137  10.716  1.00  0.00     0.067 A 
HETATM    3  C4  UNL     1     -11.093 -31.853  10.432  1.00  0.00     0.066 A 
HETATM    4  N1  UNL     1     -11.015 -30.865  11.444  1.00  0.00    -0.101 NA
HETATM    5  C5  UNL     1     -10.690 -31.513   9.159  1.00  0.00     0.067 A 
HETATM    6  C7  UNL     1     -10.748 -32.450   8.126  1.00  0.00     0.060 A 
HETATM    7  C8  UNL     1     -11.214 -33.720   8.404  1.00  0.00     0.102 A 
ENDROOT
BRANCH   5   8
HETATM    8  C6  UNL     1     -10.207 -30.168   8.916  1.00  0.00     0.211 C 
HETATM    9  O2  UNL     1      -8.976 -29.931   8.885  1.00  0.00    -0.644 OA
HETATM   10  O3  UNL     1     -11.047 -29.081   8.705  1.00  0.00    -0.644 OA
ENDBRANCH   5   8
BRANCH   7  11
HETATM   11  O4  UNL     1     -11.288 -34.681   7.413  1.00  0.00    -0.353 OA
HETATM   12  C9  UNL     1     -12.330 -34.583   6.464  1.00  0.00     0.210 C 
ENDBRANCH   7  11
BRANCH   1  13
HETATM   13  O1  UNL     1     -12.073 -35.327   9.912  1.00  0.00    -0.353 OA
HETATM   14  C1  UNL     1     -11.613 -36.055  11.027  1.00  0.00     0.210 C 
ENDBRANCH   1  13
TORSDOF 3
ENDMDL
