MODEL 7
REMARK VINA RESULT: -5.509317714      7.213      8.944
REMARK  3 active torsions:
REMARK  status: ('A' for Active; 'I' for Inactive)
REMARK    1  A    between atoms: O1_2  and  C2_3 
REMARK    2  A    between atoms: C5_7  and  C6_8 
REMARK    3  A    between atoms: C8_12  and  O4_13 
ROOT
HETATM    1  C2  UNL     1      -5.557 -30.014   6.100  1.00  0.00     0.103 A 
HETATM    2  C3  UNL     1      -5.064 -29.149   5.156  1.00  0.00     0.067 A 
HETATM    3  C4  UNL     1      -3.677 -29.007   5.061  1.00  0.00     0.066 A 
HETATM    4  N1  UNL     1      -3.098 -28.132   4.110  1.00  0.00    -0.101 NA
HETATM    5  C5  UNL     1      -2.835 -29.716   5.890  1.00  0.00     0.067 A 
HETATM    6  C7  UNL     1      -3.356 -30.592   6.844  1.00  0.00     0.060 A 
HETATM    7  C8  UNL     1      -4.727 -30.733   6.940  1.00  0.00     0.102 A 
ENDROOT
BRANCH   5   8
HETATM    8  C6  UNL     1      -1.404 -29.534   5.752  1.00  0.00     0.211 C 
HETATM    9  O2  UNL     1      -0.775 -28.806   6.556  1.00  0.00    -0.644 OA
HETATM   10  O3  UNL     1      -0.650 -30.135   4.750  1.00  0.00    -0.644 OA
ENDBRANCH   5   8
BRANCH   7  11
HETATM   11  O4  UNL     1      -5.287 -31.589   7.871  1.00  0.00    -0.353 OA
HETATM   12  C9  UNL     1      -4.931 -31.426   9.228  1.00  0.00     0.210 C 
ENDBRANCH   7  11
BRANCH   1  13
HETATM   13  O1  UNL     1      -6.919 -30.192   6.238  1.00  0.00    -0.353 OA
HETATM   14  C1  UNL     1      -7.811 -29.464   5.426  1.00  0.00     0.210 C 
ENDBRANCH   1  13
TORSDOF 3
ENDMDL
