MODEL 3
REMARK VINA RESULT: -5.662485121      1.183      1.210
REMARK  3 active torsions:
REMARK  status: ('A' for Active; 'I' for Inactive)
REMARK    1  A    between atoms: O1_2  and  C2_3 
REMARK    2  A    between atoms: C5_7  and  C6_8 
REMARK    3  A    between atoms: C8_12  and  O4_13 
ROOT
HETATM    1  C2  UNL     1     -11.240 -34.903   9.879  1.00  0.00     0.103 A 
HETATM    2  C3  UNL     1     -10.617 -34.203  10.880  1.00  0.00     0.067 A 
HETATM    3  C4  UNL     1     -10.024 -32.980  10.552  1.00  0.00     0.066 A 
HETATM    4  N1  UNL     1      -9.364 -32.203  11.536  1.00  0.00    -0.101 NA
HETATM    5  C5  UNL     1     -10.068 -32.497   9.263  1.00  0.00     0.067 A 
HETATM    6  C7  UNL     1     -10.708 -33.224   8.258  1.00  0.00     0.060 A 
HETATM    7  C8  UNL     1     -11.293 -34.433   8.579  1.00  0.00     0.102 A 
ENDROOT
BRANCH   5   8
HETATM    8  C6  UNL     1      -9.440 -31.223   8.973  1.00  0.00     0.211 C 
HETATM    9  O2  UNL     1      -8.278 -31.180   8.502  1.00  0.00    -0.644 OA
HETATM   10  O3  UNL     1     -10.059 -29.998   9.190  1.00  0.00    -0.644 OA
ENDBRANCH   5   8
BRANCH   7  11
HETATM   11  O4  UNL     1     -11.936 -35.187   7.616  1.00  0.00    -0.353 OA
HETATM   12  C9  UNL     1     -12.498 -34.516   6.507  1.00  0.00     0.210 C 
ENDBRANCH   7  11
BRANCH   1  13
HETATM   13  O1  UNL     1     -11.840 -36.117  10.146  1.00  0.00    -0.353 OA
HETATM   14  C1  UNL     1     -11.692 -36.712  11.415  1.00  0.00     0.210 C 
ENDBRANCH   1  13
TORSDOF 3
ENDMDL
