MODEL 2
REMARK VINA RESULT: -5.828352091      2.215      4.289
REMARK  3 active torsions:
REMARK  status: ('A' for Active; 'I' for Inactive)
REMARK    1  A    between atoms: O1_2  and  C2_3 
REMARK    2  A    between atoms: C5_7  and  C6_8 
REMARK    3  A    between atoms: C8_12  and  O4_13 
ROOT
HETATM    1  C2  UNL     1      -9.731 -32.543   9.945  1.00  0.00     0.103 A 
HETATM    2  C3  UNL     1     -10.210 -33.829   9.951  1.00  0.00     0.067 A 
HETATM    3  C4  UNL     1     -10.958 -34.253   8.850  1.00  0.00     0.066 A 
HETATM    4  N1  UNL     1     -11.484 -35.568   8.789  1.00  0.00    -0.101 NA
HETATM    5  C5  UNL     1     -11.205 -33.405   7.793  1.00  0.00     0.067 A 
HETATM    6  C7  UNL     1     -10.709 -32.100   7.805  1.00  0.00     0.060 A 
HETATM    7  C8  UNL     1      -9.969 -31.678   8.892  1.00  0.00     0.102 A 
ENDROOT
BRANCH   5   8
HETATM    8  C6  UNL     1     -11.986 -33.893   6.674  1.00  0.00     0.211 C 
HETATM    9  O2  UNL     1     -11.430 -34.168   5.583  1.00  0.00    -0.644 OA
HETATM   10  O3  UNL     1     -13.361 -34.084   6.727  1.00  0.00    -0.644 OA
ENDBRANCH   5   8
BRANCH   7  11
HETATM   11  O4  UNL     1      -9.459 -30.394   8.947  1.00  0.00    -0.353 OA
HETATM   12  C9  UNL     1     -10.296 -29.325   8.558  1.00  0.00     0.210 C 
ENDBRANCH   7  11
BRANCH   1  13
HETATM   13  O1  UNL     1      -8.986 -32.071  11.007  1.00  0.00    -0.353 OA
HETATM   14  C1  UNL     1      -7.752 -32.672  11.324  1.00  0.00     0.210 C 
ENDBRANCH   1  13
TORSDOF 3
ENDMDL
