MODEL 3
REMARK VINA RESULT: -6.883851846      6.494      7.369
REMARK  6 active torsions:
REMARK  status: ('A' for Active; 'I' for Inactive)
REMARK    1  A    between atoms: C1_2  and  C2_4 
REMARK    2  A    between atoms: C2_4  and  C3_5 
REMARK    3  A    between atoms: C3_5  and  C4_6 
REMARK    4  A    between atoms: C4_6  and  C5_7 
REMARK    5  A    between atoms: C4_6  and  C6_12 
REMARK    6  A    between atoms: C5_7  and  P1_8 
ROOT
HETATM    1  C4  UNL     1     -28.344  18.157  35.788  1.00  0.00     0.100 C 
ENDROOT
BRANCH   1   2
HETATM    2  C3  UNL     1     -27.368  17.088  35.397  1.00  0.00     0.026 C 
BRANCH   2   3
HETATM    3  C2  UNL     1     -27.759  15.699  35.746  1.00  0.00     0.114 C 
BRANCH   3   4
HETATM    4  C1  UNL     1     -28.413  15.045  34.581  1.00  0.00     0.172 C 
HETATM    5  O1  UNL     1     -27.891  15.135  33.430  1.00  0.00    -0.648 OA
HETATM    6  O2  UNL     1     -29.585  14.328  34.675  1.00  0.00    -0.648 OA
ENDBRANCH   3   4
ENDBRANCH   2   3
ENDBRANCH   1   2
BRANCH   1   7
HETATM    7  C5  UNL     1     -28.495  19.206  34.705  1.00  0.00     0.161 C 
BRANCH   7   8
HETATM    8  P1  UNL     1     -29.819  18.770  33.665  1.00  0.00     0.260 P 
HETATM    9  O3  UNL     1     -30.405  19.857  32.521  1.00  0.00    -0.640 OA
HETATM   10  O4  UNL     1     -29.002  18.183  32.504  1.00  0.00    -0.640 OA
HETATM   11  O5  UNL     1     -30.669  17.401  33.946  1.00  0.00    -0.640 OA
ENDBRANCH   7   8
ENDBRANCH   1   7
BRANCH   1  12
HETATM   12  C6  UNL     1     -27.678  18.854  36.927  1.00  0.00     0.177 C 
HETATM   13  O6  UNL     1     -26.450  18.823  37.050  1.00  0.00    -0.648 OA
HETATM   14  O7  UNL     1     -28.477  19.527  37.826  1.00  0.00    -0.648 OA
ENDBRANCH   1  12
TORSDOF 6
ENDMDL
