MODEL 4
REMARK VINA RESULT: -6.842580259      5.887      7.400
REMARK  6 active torsions:
REMARK  status: ('A' for Active; 'I' for Inactive)
REMARK    1  A    between atoms: C1_2  and  C2_4 
REMARK    2  A    between atoms: C2_4  and  C3_5 
REMARK    3  A    between atoms: C3_5  and  C4_6 
REMARK    4  A    between atoms: C4_6  and  C5_7 
REMARK    5  A    between atoms: C4_6  and  C6_12 
REMARK    6  A    between atoms: C5_7  and  P1_8 
ROOT
HETATM    1  C4  UNL     1     -28.859  17.769  35.816  1.00  0.00     0.100 C 
ENDROOT
BRANCH   1   2
HETATM    2  C3  UNL     1     -28.155  16.445  35.819  1.00  0.00     0.026 C 
BRANCH   2   3
HETATM    3  C2  UNL     1     -28.911  15.311  35.231  1.00  0.00     0.114 C 
BRANCH   3   4
HETATM    4  C1  UNL     1     -28.133  14.701  34.120  1.00  0.00     0.172 C 
HETATM    5  O1  UNL     1     -27.901  15.369  33.068  1.00  0.00    -0.648 OA
HETATM    6  O2  UNL     1     -27.633  13.418  34.160  1.00  0.00    -0.648 OA
ENDBRANCH   3   4
ENDBRANCH   2   3
ENDBRANCH   1   2
BRANCH   1   7
HETATM    7  C5  UNL     1     -28.642  18.519  34.518  1.00  0.00     0.161 C 
BRANCH   7   8
HETATM    8  P1  UNL     1     -30.128  19.288  34.044  1.00  0.00     0.260 P 
HETATM    9  O3  UNL     1     -30.433  19.643  32.427  1.00  0.00    -0.640 OA
HETATM   10  O4  UNL     1     -30.960  18.021  33.792  1.00  0.00    -0.640 OA
HETATM   11  O5  UNL     1     -31.137  19.897  35.179  1.00  0.00    -0.640 OA
ENDBRANCH   7   8
ENDBRANCH   1   7
BRANCH   1  12
HETATM   12  C6  UNL     1     -28.142  18.561  36.858  1.00  0.00     0.177 C 
HETATM   13  O6  UNL     1     -28.743  19.408  37.526  1.00  0.00    -0.648 OA
HETATM   14  O7  UNL     1     -26.800  18.312  37.044  1.00  0.00    -0.648 OA
ENDBRANCH   1  12
TORSDOF 6
ENDMDL
