MODEL 1
REMARK VINA RESULT: -7.341832116      0.000      0.000
REMARK  6 active torsions:
REMARK  status: ('A' for Active; 'I' for Inactive)
REMARK    1  A    between atoms: C1_2  and  C2_4 
REMARK    2  A    between atoms: C2_4  and  C3_5 
REMARK    3  A    between atoms: C3_5  and  C4_6 
REMARK    4  A    between atoms: C4_6  and  C5_7 
REMARK    5  A    between atoms: C4_6  and  C6_12 
REMARK    6  A    between atoms: C5_7  and  P1_8 
ROOT
HETATM    1  C4  UNL     1     -34.286  20.460  37.786  1.00  0.00     0.100 C 
ENDROOT
BRANCH   1   2
HETATM    2  C3  UNL     1     -35.422  19.503  37.994  1.00  0.00     0.026 C 
BRANCH   2   3
HETATM    3  C2  UNL     1     -35.105  18.290  38.788  1.00  0.00     0.114 C 
BRANCH   3   4
HETATM    4  C1  UNL     1     -36.360  17.648  39.262  1.00  0.00     0.172 C 
HETATM    5  O1  UNL     1     -36.824  16.638  38.651  1.00  0.00    -0.648 OA
HETATM    6  O2  UNL     1     -37.073  18.092  40.353  1.00  0.00    -0.648 OA
ENDBRANCH   3   4
ENDBRANCH   2   3
ENDBRANCH   1   2
BRANCH   1   7
HETATM    7  C5  UNL     1     -33.042  19.757  37.283  1.00  0.00     0.161 C 
BRANCH   7   8
HETATM    8  P1  UNL     1     -32.416  20.615  35.906  1.00  0.00     0.260 P 
HETATM    9  O3  UNL     1     -33.453  21.200  34.715  1.00  0.00    -0.640 OA
HETATM   10  O4  UNL     1     -32.482  22.037  36.484  1.00  0.00    -0.640 OA
HETATM   11  O5  UNL     1     -30.805  20.651  35.622  1.00  0.00    -0.640 OA
ENDBRANCH   7   8
ENDBRANCH   1   7
BRANCH   1  12
HETATM   12  C6  UNL     1     -33.950  20.927  39.163  1.00  0.00     0.177 C 
HETATM   13  O6  UNL     1     -32.808  20.793  39.610  1.00  0.00    -0.648 OA
HETATM   14  O7  UNL     1     -34.955  21.506  39.908  1.00  0.00    -0.648 OA
ENDBRANCH   1  12
TORSDOF 6
ENDMDL
