MODEL 3
REMARK VINA RESULT: -6.580270968      2.426      5.591
REMARK  5 active torsions:
REMARK  status: ('A' for Active; 'I' for Inactive)
REMARK    1  A    between atoms: C1_2  and  C2_4 
REMARK    2  A    between atoms: C2_4  and  C3_5 
REMARK    3  A    between atoms: C3_5  and  C4_6 
REMARK    4  A    between atoms: C4_6  and  C5_7 
REMARK    5  A    between atoms: C5_7  and  C6_8 
ROOT
HETATM    1  C6  UNL     1     -27.699 -19.998  10.349  1.00  0.00     0.072 C 
HETATM    2  S1  UNL     1     -28.418 -20.476  11.970  1.00  0.00    -0.160 SA
HETATM    3  C7  UNL     1     -26.995 -19.996  13.026  1.00  0.00     0.101 C 
HETATM    4  C8  UNL     1     -25.943 -19.724  12.011  1.00  0.00     0.119 C 
HETATM    5  N1  UNL     1     -25.158 -18.584  12.504  1.00  0.00    -0.336 N 
ATOM      6  H1  UNL     1     -24.243 -18.603  12.955  1.00  0.00     0.164 HD
HETATM    7  C9  UNL     1     -25.959 -17.446  12.209  1.00  0.00     0.316 C 
HETATM    8  O3  UNL     1     -25.788 -16.309  12.735  1.00  0.00    -0.247 OA
HETATM    9  N2  UNL     1     -26.959 -17.823  11.243  1.00  0.00    -0.335 N 
ATOM     10  H2  UNL     1     -27.768 -17.278  10.944  1.00  0.00     0.164 HD
HETATM   11  C10 UNL     1     -26.576 -19.126  10.792  1.00  0.00     0.123 C 
ENDROOT
BRANCH   1  12
HETATM   12  C5  UNL     1     -28.709 -19.317   9.496  1.00  0.00     0.017 C 
BRANCH  12  13
HETATM   13  C4  UNL     1     -28.165 -19.222   8.092  1.00  0.00     0.002 C 
BRANCH  13  14
HETATM   14  C3  UNL     1     -28.188 -17.825   7.549  1.00  0.00     0.010 C 
BRANCH  14  15
HETATM   15  C2  UNL     1     -29.173 -16.952   8.285  1.00  0.00     0.113 C 
BRANCH  15  16
HETATM   16  C1  UNL     1     -28.599 -15.651   8.668  1.00  0.00     0.172 C 
HETATM   17  O1  UNL     1     -27.561 -15.567   9.355  1.00  0.00    -0.648 OA
HETATM   18  O2  UNL     1     -29.217 -14.493   8.261  1.00  0.00    -0.648 OA
ENDBRANCH  15  16
ENDBRANCH  14  15
ENDBRANCH  13  14
ENDBRANCH  12  13
ENDBRANCH   1  12
TORSDOF 5
ENDMDL
