MODEL 5
REMARK VINA RESULT: -6.378286614      1.189      1.461
REMARK  5 active torsions:
REMARK  status: ('A' for Active; 'I' for Inactive)
REMARK    1  A    between atoms: C1_2  and  C2_4 
REMARK    2  A    between atoms: C2_4  and  C3_5 
REMARK    3  A    between atoms: C3_5  and  C4_6 
REMARK    4  A    between atoms: C4_6  and  C5_7 
REMARK    5  A    between atoms: C5_7  and  C6_8 
ROOT
HETATM    1  C6  UNL     1     -28.147 -18.679  10.661  1.00  0.00     0.072 C 
HETATM    2  S1  UNL     1     -26.522 -18.609   9.809  1.00  0.00    -0.160 SA
HETATM    3  C7  UNL     1     -27.106 -17.926   8.209  1.00  0.00     0.101 C 
HETATM    4  C8  UNL     1     -28.582 -18.034   8.355  1.00  0.00     0.119 C 
HETATM    5  N1  UNL     1     -29.163 -16.849   7.707  1.00  0.00    -0.336 N 
ATOM      6  H1  UNL     1     -29.597 -16.791   6.786  1.00  0.00     0.164 HD
HETATM    7  C9  UNL     1     -28.986 -15.803   8.654  1.00  0.00     0.316 C 
HETATM    8  O3  UNL     1     -29.073 -14.574   8.371  1.00  0.00    -0.247 OA
HETATM    9  N2  UNL     1     -28.698 -16.387   9.939  1.00  0.00    -0.335 N 
ATOM     10  H2  UNL     1     -28.379 -15.906  10.781  1.00  0.00     0.164 HD
HETATM   11  C10 UNL     1     -28.956 -17.786   9.784  1.00  0.00     0.123 C 
ENDROOT
BRANCH   1  12
HETATM   12  C5  UNL     1     -28.034 -18.220  12.070  1.00  0.00     0.017 C 
BRANCH  12  13
HETATM   13  C4  UNL     1     -28.306 -19.393  12.979  1.00  0.00     0.002 C 
BRANCH  13  14
HETATM   14  C3  UNL     1     -27.076 -20.195  13.283  1.00  0.00     0.010 C 
BRANCH  14  15
HETATM   15  C2  UNL     1     -25.923 -19.319  13.702  1.00  0.00     0.113 C 
BRANCH  15  16
HETATM   16  C1  UNL     1     -24.615 -19.939  13.433  1.00  0.00     0.172 C 
HETATM   17  O1  UNL     1     -24.038 -19.807  12.335  1.00  0.00    -0.648 OA
HETATM   18  O2  UNL     1     -24.005 -20.684  14.413  1.00  0.00    -0.648 OA
ENDBRANCH  15  16
ENDBRANCH  14  15
ENDBRANCH  13  14
ENDBRANCH  12  13
ENDBRANCH   1  12
TORSDOF 5
ENDMDL
