MODEL 10
REMARK VINA RESULT: -6.194304581      3.673      4.669
REMARK  5 active torsions:
REMARK  status: ('A' for Active; 'I' for Inactive)
REMARK    1  A    between atoms: C1_2  and  C2_4 
REMARK    2  A    between atoms: C2_4  and  C3_5 
REMARK    3  A    between atoms: C3_5  and  C4_6 
REMARK    4  A    between atoms: C4_6  and  C5_7 
REMARK    5  A    between atoms: C5_7  and  C6_8 
ROOT
HETATM    1  C6  UNL     1     -30.196 -18.810   8.424  1.00  0.00     0.072 C 
HETATM    2  S1  UNL     1     -29.970 -19.548  10.091  1.00  0.00    -0.160 SA
HETATM    3  C7  UNL     1     -30.214 -21.305   9.622  1.00  0.00     0.101 C 
HETATM    4  C8  UNL     1     -30.710 -21.180   8.225  1.00  0.00     0.119 C 
HETATM    5  N1  UNL     1     -30.136 -22.301   7.466  1.00  0.00    -0.336 N 
ATOM      6  H1  UNL     1     -30.594 -23.170   7.194  1.00  0.00     0.164 HD
HETATM    7  C9  UNL     1     -28.798 -21.899   7.196  1.00  0.00     0.316 C 
HETATM    8  O3  UNL     1     -27.884 -22.693   6.833  1.00  0.00    -0.247 OA
HETATM    9  N2  UNL     1     -28.691 -20.478   7.410  1.00  0.00    -0.335 N 
ATOM     10  H2  UNL     1     -27.837 -19.920   7.443  1.00  0.00     0.164 HD
HETATM   11  C10 UNL     1     -30.036 -20.017   7.565  1.00  0.00     0.123 C 
ENDROOT
BRANCH   1  12
HETATM   12  C5  UNL     1     -29.196 -17.739   8.173  1.00  0.00     0.017 C 
BRANCH  12  13
HETATM   13  C4  UNL     1     -28.934 -17.014   9.470  1.00  0.00     0.002 C 
BRANCH  13  14
HETATM   14  C3  UNL     1     -27.478 -16.737   9.701  1.00  0.00     0.010 C 
BRANCH  14  15
HETATM   15  C2  UNL     1     -26.954 -17.463  10.914  1.00  0.00     0.113 C 
BRANCH  15  16
HETATM   16  C1  UNL     1     -26.132 -18.633  10.561  1.00  0.00     0.172 C 
HETATM   17  O1  UNL     1     -25.232 -19.055  11.315  1.00  0.00    -0.648 OA
HETATM   18  O2  UNL     1     -26.356 -19.283   9.372  1.00  0.00    -0.648 OA
ENDBRANCH  15  16
ENDBRANCH  14  15
ENDBRANCH  13  14
ENDBRANCH  12  13
ENDBRANCH   1  12
TORSDOF 5
ENDMDL
