MODEL 8
REMARK VINA RESULT: -6.222280175      2.367      5.805
REMARK  5 active torsions:
REMARK  status: ('A' for Active; 'I' for Inactive)
REMARK    1  A    between atoms: C1_2  and  C2_4 
REMARK    2  A    between atoms: C2_4  and  C3_5 
REMARK    3  A    between atoms: C3_5  and  C4_6 
REMARK    4  A    between atoms: C4_6  and  C5_7 
REMARK    5  A    between atoms: C5_7  and  C6_8 
ROOT
HETATM    1  C6  UNL     1     -27.061 -19.534  10.613  1.00  0.00     0.072 C 
HETATM    2  S1  UNL     1     -27.557 -20.736  11.911  1.00  0.00    -0.160 SA
HETATM    3  C7  UNL     1     -26.075 -20.576  12.980  1.00  0.00     0.101 C 
HETATM    4  C8  UNL     1     -25.164 -19.776  12.119  1.00  0.00     0.119 C 
HETATM    5  N1  UNL     1     -24.429 -18.863  13.006  1.00  0.00    -0.336 N 
ATOM      6  H1  UNL     1     -23.473 -18.959  13.347  1.00  0.00     0.164 HD
HETATM    7  C9  UNL     1     -25.351 -17.815  13.281  1.00  0.00     0.316 C 
HETATM    8  O3  UNL     1     -25.220 -16.994  14.234  1.00  0.00    -0.247 OA
HETATM    9  N2  UNL     1     -26.414 -17.868  12.310  1.00  0.00    -0.335 N 
ATOM     10  H2  UNL     1     -27.294 -17.351  12.326  1.00  0.00     0.164 HD
HETATM   11  C10 UNL     1     -25.973 -18.801  11.319  1.00  0.00     0.123 C 
ENDROOT
BRANCH   1  12
HETATM   12  C5  UNL     1     -28.210 -18.686  10.201  1.00  0.00     0.017 C 
BRANCH  12  13
HETATM   13  C4  UNL     1     -28.159 -18.503   8.704  1.00  0.00     0.002 C 
BRANCH  13  14
HETATM   14  C3  UNL     1     -27.339 -17.318   8.289  1.00  0.00     0.010 C 
BRANCH  14  15
HETATM   15  C2  UNL     1     -27.539 -16.144   9.214  1.00  0.00     0.113 C 
BRANCH  15  16
HETATM   16  C1  UNL     1     -28.722 -15.342   8.861  1.00  0.00     0.172 C 
HETATM   17  O1  UNL     1     -29.029 -15.110   7.674  1.00  0.00    -0.648 OA
HETATM   18  O2  UNL     1     -29.515 -14.831   9.859  1.00  0.00    -0.648 OA
ENDBRANCH  15  16
ENDBRANCH  14  15
ENDBRANCH  13  14
ENDBRANCH  12  13
ENDBRANCH   1  12
TORSDOF 5
ENDMDL
