MODEL 6
REMARK VINA RESULT: -6.343105268      1.035      1.288
REMARK  5 active torsions:
REMARK  status: ('A' for Active; 'I' for Inactive)
REMARK    1  A    between atoms: C1_2  and  C2_4 
REMARK    2  A    between atoms: C2_4  and  C3_5 
REMARK    3  A    between atoms: C3_5  and  C4_6 
REMARK    4  A    between atoms: C4_6  and  C5_7 
REMARK    5  A    between atoms: C5_7  and  C6_8 
ROOT
HETATM    1  C6  UNL     1     -27.818 -18.468  10.517  1.00  0.00     0.072 C 
HETATM    2  S1  UNL     1     -26.513 -18.491   9.225  1.00  0.00    -0.160 SA
HETATM    3  C7  UNL     1     -27.536 -17.893   7.824  1.00  0.00     0.101 C 
HETATM    4  C8  UNL     1     -28.906 -17.953   8.402  1.00  0.00     0.119 C 
HETATM    5  N1  UNL     1     -29.643 -16.795   7.876  1.00  0.00    -0.336 N 
ATOM      6  H1  UNL     1     -30.327 -16.782   7.120  1.00  0.00     0.164 HD
HETATM    7  C9  UNL     1     -29.188 -15.699   8.659  1.00  0.00     0.316 C 
HETATM    8  O3  UNL     1     -29.347 -14.487   8.334  1.00  0.00    -0.247 OA
HETATM    9  N2  UNL     1     -28.540 -16.211   9.840  1.00  0.00    -0.335 N 
ATOM     10  H2  UNL     1     -27.985 -15.688  10.518  1.00  0.00     0.164 HD
HETATM   11  C10 UNL     1     -28.842 -17.609   9.858  1.00  0.00     0.123 C 
ENDROOT
BRANCH   1  12
HETATM   12  C5  UNL     1     -27.292 -17.928  11.799  1.00  0.00     0.017 C 
BRANCH  12  13
HETATM   13  C4  UNL     1     -27.338 -19.023  12.836  1.00  0.00     0.002 C 
BRANCH  13  14
HETATM   14  C3  UNL     1     -26.215 -20.006  12.697  1.00  0.00     0.010 C 
BRANCH  14  15
HETATM   15  C2  UNL     1     -24.874 -19.321  12.624  1.00  0.00     0.113 C 
BRANCH  15  16
HETATM   16  C1  UNL     1     -24.497 -18.680  13.895  1.00  0.00     0.172 C 
HETATM   17  O1  UNL     1     -24.143 -17.485  13.948  1.00  0.00    -0.648 OA
HETATM   18  O2  UNL     1     -24.533 -19.410  15.058  1.00  0.00    -0.648 OA
ENDBRANCH  15  16
ENDBRANCH  14  15
ENDBRANCH  13  14
ENDBRANCH  12  13
ENDBRANCH   1  12
TORSDOF 5
ENDMDL
