MODEL 1
REMARK VINA RESULT: -7.409824258      0.000      0.000
REMARK  5 active torsions:
REMARK  status: ('A' for Active; 'I' for Inactive)
REMARK    1  A    between atoms: C1_2  and  C2_4 
REMARK    2  A    between atoms: C2_4  and  C3_5 
REMARK    3  A    between atoms: C3_5  and  C4_6 
REMARK    4  A    between atoms: C4_6  and  C5_7 
REMARK    5  A    between atoms: C5_7  and  C6_8 
ROOT
HETATM    1  C6  UNL     1     -28.010 -18.446  10.690  1.00  0.00     0.072 C 
HETATM    2  S1  UNL     1     -26.563 -18.561   9.564  1.00  0.00    -0.160 SA
HETATM    3  C7  UNL     1     -27.398 -18.006   8.027  1.00  0.00     0.101 C 
HETATM    4  C8  UNL     1     -28.827 -18.008   8.440  1.00  0.00     0.119 C 
HETATM    5  N1  UNL     1     -29.464 -16.860   7.779  1.00  0.00    -0.336 N 
ATOM      6  H1  UNL     1     -30.054 -16.866   6.947  1.00  0.00     0.164 HD
HETATM    7  C9  UNL     1     -29.074 -15.738   8.561  1.00  0.00     0.316 C 
HETATM    8  O3  UNL     1     -29.158 -14.539   8.166  1.00  0.00    -0.247 OA
HETATM    9  N2  UNL     1     -28.584 -16.208   9.832  1.00  0.00    -0.335 N 
ATOM     10  H2  UNL     1     -28.098 -15.666  10.547  1.00  0.00     0.164 HD
HETATM   11  C10 UNL     1     -28.925 -17.597   9.877  1.00  0.00     0.123 C 
ENDROOT
BRANCH   1  12
HETATM   12  C5  UNL     1     -27.624 -17.858  12.000  1.00  0.00     0.017 C 
BRANCH  12  13
HETATM   13  C4  UNL     1     -26.131 -17.639  12.006  1.00  0.00     0.002 C 
BRANCH  13  14
HETATM   14  C3  UNL     1     -25.653 -16.909  13.225  1.00  0.00     0.010 C 
BRANCH  14  15
HETATM   15  C2  UNL     1     -24.415 -17.540  13.809  1.00  0.00     0.113 C 
BRANCH  15  16
HETATM   16  C1  UNL     1     -24.552 -18.995  13.987  1.00  0.00     0.172 C 
HETATM   17  O1  UNL     1     -23.824 -19.804  13.377  1.00  0.00    -0.648 OA
HETATM   18  O2  UNL     1     -25.506 -19.484  14.846  1.00  0.00    -0.648 OA
ENDBRANCH  15  16
ENDBRANCH  14  15
ENDBRANCH  13  14
ENDBRANCH  12  13
ENDBRANCH   1  12
TORSDOF 5
ENDMDL
