MODEL 8
REMARK VINA RESULT: -5.997636559      3.359      5.611
REMARK  6 active torsions:
REMARK  status: ('A' for Active; 'I' for Inactive)
REMARK    1  A    between atoms: C4_9  and  C5_10 
REMARK    2  A    between atoms: C5_10  and  C6_11 
REMARK    3  A    between atoms: C6_11  and  C7_12 
REMARK    4  A    between atoms: C7_12  and  C8_13 
REMARK    5  A    between atoms: C8_13  and  C9_14 
REMARK    6  A    between atoms: C9_14  and  C10_15 
ROOT
HETATM    1  C1  UNL     1      17.942  27.050 -10.505  1.00  0.00     0.034 C 
HETATM    2  C2  UNL     1      16.997  27.296  -9.357  1.00  0.00     0.104 C 
HETATM    3  N1  UNL     1      15.902  28.175  -9.731  1.00  0.00    -0.337 N 
ATOM      4  H1  UNL     1      15.529  28.348 -10.664  1.00  0.00     0.164 HD
HETATM    5  C3  UNL     1      15.464  28.746  -8.483  1.00  0.00     0.316 C 
HETATM    6  O1  UNL     1      14.369  29.356  -8.263  1.00  0.00    -0.247 OA
HETATM    7  N2  UNL     1      16.465  28.525  -7.495  1.00  0.00    -0.337 N 
ATOM      8  H2  UNL     1      16.384  28.672  -6.489  1.00  0.00     0.164 HD
HETATM    9  C4  UNL     1      17.628  28.046  -8.226  1.00  0.00     0.108 C 
ENDROOT
BRANCH   9  10
HETATM   10  C5  UNL     1      18.387  29.228  -8.720  1.00  0.00     0.027 C 
BRANCH  10  11
HETATM   11  C6  UNL     1      18.618  30.234  -7.609  1.00  0.00     0.002 C 
BRANCH  11  12
HETATM   12  C7  UNL     1      19.523  31.347  -8.023  1.00  0.00     0.001 C 
BRANCH  12  13
HETATM   13  C8  UNL     1      20.781  31.315  -7.198  1.00  0.00     0.010 C 
BRANCH  13  14
HETATM   14  C9  UNL     1      21.993  30.819  -7.921  1.00  0.00     0.113 C 
BRANCH  14  15
HETATM   15  C10 UNL     1      22.119  29.360  -7.716  1.00  0.00     0.172 C 
HETATM   16  O2  UNL     1      22.659  28.941  -6.665  1.00  0.00    -0.648 OA
HETATM   17  O3  UNL     1      21.669  28.421  -8.630  1.00  0.00    -0.648 OA
ENDBRANCH  14  15
ENDBRANCH  13  14
ENDBRANCH  12  13
ENDBRANCH  11  12
ENDBRANCH  10  11
ENDBRANCH   9  10
TORSDOF 6
ENDMDL
