MODEL 7
REMARK VINA RESULT: -6.000157477      2.509      5.794
REMARK  6 active torsions:
REMARK  status: ('A' for Active; 'I' for Inactive)
REMARK    1  A    between atoms: C4_9  and  C5_10 
REMARK    2  A    between atoms: C5_10  and  C6_11 
REMARK    3  A    between atoms: C6_11  and  C7_12 
REMARK    4  A    between atoms: C7_12  and  C8_13 
REMARK    5  A    between atoms: C8_13  and  C9_14 
REMARK    6  A    between atoms: C9_14  and  C10_15 
ROOT
HETATM    1  C1  UNL     1      21.089  27.293 -12.540  1.00  0.00     0.034 C 
HETATM    2  C2  UNL     1      19.945  26.464 -12.016  1.00  0.00     0.104 C 
HETATM    3  N1  UNL     1      18.791  26.509 -12.898  1.00  0.00    -0.337 N 
ATOM      4  H1  UNL     1      18.774  26.718 -13.897  1.00  0.00     0.164 HD
HETATM    5  C3  UNL     1      17.678  26.192 -12.041  1.00  0.00     0.316 C 
HETATM    6  O1  UNL     1      16.508  25.843 -12.403  1.00  0.00    -0.247 OA
HETATM    7  N2  UNL     1      18.084  26.328 -10.684  1.00  0.00    -0.337 N 
ATOM      8  H2  UNL     1      17.575  26.027  -9.853  1.00  0.00     0.164 HD
HETATM    9  C4  UNL     1      19.380  26.987 -10.733  1.00  0.00     0.108 C 
ENDROOT
BRANCH   9  10
HETATM   10  C5  UNL     1      19.151  28.458 -10.804  1.00  0.00     0.027 C 
BRANCH  10  11
HETATM   11  C6  UNL     1      19.813  29.172  -9.643  1.00  0.00     0.002 C 
BRANCH  11  12
HETATM   12  C7  UNL     1      19.319  28.693  -8.319  1.00  0.00     0.001 C 
BRANCH  12  13
HETATM   13  C8  UNL     1      17.968  29.290  -8.032  1.00  0.00     0.010 C 
BRANCH  13  14
HETATM   14  C9  UNL     1      16.893  28.296  -7.729  1.00  0.00     0.113 C 
BRANCH  14  15
HETATM   15  C10 UNL     1      15.734  28.546  -8.613  1.00  0.00     0.172 C 
HETATM   16  O2  UNL     1      15.750  28.081  -9.777  1.00  0.00    -0.648 OA
HETATM   17  O3  UNL     1      14.621  29.271  -8.221  1.00  0.00    -0.648 OA
ENDBRANCH  14  15
ENDBRANCH  13  14
ENDBRANCH  12  13
ENDBRANCH  11  12
ENDBRANCH  10  11
ENDBRANCH   9  10
TORSDOF 6
ENDMDL
