MODEL 4
REMARK VINA RESULT: -6.465622312      2.841      6.854
REMARK  6 active torsions:
REMARK  status: ('A' for Active; 'I' for Inactive)
REMARK    1  A    between atoms: C4_9  and  C5_10 
REMARK    2  A    between atoms: C5_10  and  C6_11 
REMARK    3  A    between atoms: C6_11  and  C7_12 
REMARK    4  A    between atoms: C7_12  and  C8_13 
REMARK    5  A    between atoms: C8_13  and  C9_14 
REMARK    6  A    between atoms: C9_14  and  C10_15 
ROOT
HETATM    1  C1  UNL     1      17.241  24.848 -13.545  1.00  0.00     0.034 C 
HETATM    2  C2  UNL     1      18.672  25.218 -13.837  1.00  0.00     0.104 C 
HETATM    3  N1  UNL     1      19.573  24.091 -13.662  1.00  0.00    -0.337 N 
ATOM      4  H1  UNL     1      19.349  23.097 -13.706  1.00  0.00     0.164 HD
HETATM    5  C3  UNL     1      20.855  24.698 -13.411  1.00  0.00     0.316 C 
HETATM    6  O1  UNL     1      21.994  24.133 -13.467  1.00  0.00    -0.247 OA
HETATM    7  N2  UNL     1      20.662  26.069 -13.078  1.00  0.00    -0.337 N 
ATOM      8  H2  UNL     1      21.375  26.793 -13.000  1.00  0.00     0.164 HD
HETATM    9  C4  UNL     1      19.229  26.217 -12.873  1.00  0.00     0.108 C 
ENDROOT
BRANCH   9  10
HETATM   10  C5  UNL     1      18.919  25.840 -11.465  1.00  0.00     0.027 C 
BRANCH  10  11
HETATM   11  C6  UNL     1      18.232  26.975 -10.732  1.00  0.00     0.002 C 
BRANCH  11  12
HETATM   12  C7  UNL     1      18.738  27.147  -9.339  1.00  0.00     0.001 C 
BRANCH  12  13
HETATM   13  C8  UNL     1      17.585  27.142  -8.372  1.00  0.00     0.010 C 
BRANCH  13  14
HETATM   14  C9  UNL     1      16.966  28.481  -8.126  1.00  0.00     0.113 C 
BRANCH  14  15
HETATM   15  C10 UNL     1      15.538  28.435  -8.509  1.00  0.00     0.172 C 
HETATM   16  O2  UNL     1      15.135  27.493  -9.232  1.00  0.00    -0.648 OA
HETATM   17  O3  UNL     1      14.612  29.384  -8.109  1.00  0.00    -0.648 OA
ENDBRANCH  14  15
ENDBRANCH  13  14
ENDBRANCH  12  13
ENDBRANCH  11  12
ENDBRANCH  10  11
ENDBRANCH   9  10
TORSDOF 6
ENDMDL
