MODEL 1
REMARK VINA RESULT: -6.946759178      0.000      0.000
REMARK  6 active torsions:
REMARK  status: ('A' for Active; 'I' for Inactive)
REMARK    1  A    between atoms: C4_9  and  C5_10 
REMARK    2  A    between atoms: C5_10  and  C6_11 
REMARK    3  A    between atoms: C6_11  and  C7_12 
REMARK    4  A    between atoms: C7_12  and  C8_13 
REMARK    5  A    between atoms: C8_13  and  C9_14 
REMARK    6  A    between atoms: C9_14  and  C10_15 
ROOT
HETATM    1  C1  UNL     1      19.190  28.286  -7.629  1.00  0.00     0.034 C 
HETATM    2  C2  UNL     1      17.990  28.964  -8.238  1.00  0.00     0.104 C 
HETATM    3  N1  UNL     1      16.774  28.695  -7.491  1.00  0.00    -0.337 N 
ATOM      4  H1  UNL     1      16.687  28.425  -6.511  1.00  0.00     0.164 HD
HETATM    5  C3  UNL     1      15.717  28.893  -8.450  1.00  0.00     0.316 C 
HETATM    6  O1  UNL     1      14.477  29.040  -8.203  1.00  0.00    -0.247 OA
HETATM    7  N2  UNL     1      16.276  28.901  -9.760  1.00  0.00    -0.337 N 
ATOM      8  H2  UNL     1      15.813  29.172 -10.627  1.00  0.00     0.164 HD
HETATM    9  C4  UNL     1      17.646  28.440  -9.597  1.00  0.00     0.108 C 
ENDROOT
BRANCH   9  10
HETATM   10  C5  UNL     1      17.642  26.951  -9.616  1.00  0.00     0.027 C 
BRANCH  10  11
HETATM   11  C6  UNL     1      18.243  26.417 -10.902  1.00  0.00     0.002 C 
BRANCH  11  12
HETATM   12  C7  UNL     1      17.233  26.278 -11.992  1.00  0.00     0.001 C 
BRANCH  12  13
HETATM   13  C8  UNL     1      17.698  25.252 -12.989  1.00  0.00     0.010 C 
BRANCH  13  14
HETATM   14  C9  UNL     1      19.071  24.711 -12.742  1.00  0.00     0.113 C 
BRANCH  14  15
HETATM   15  C10 UNL     1      19.798  24.622 -14.027  1.00  0.00     0.172 C 
HETATM   16  O2  UNL     1      19.252  25.068 -15.063  1.00  0.00    -0.648 OA
HETATM   17  O3  UNL     1      21.062  24.068 -14.148  1.00  0.00    -0.648 OA
ENDBRANCH  14  15
ENDBRANCH  13  14
ENDBRANCH  12  13
ENDBRANCH  11  12
ENDBRANCH  10  11
ENDBRANCH   9  10
TORSDOF 6
ENDMDL
