MODEL 2
REMARK VINA RESULT: -7.171285066      3.657      6.777
REMARK  5 active torsions:
REMARK  status: ('A' for Active; 'I' for Inactive)
REMARK    1  A    between atoms: N2_5  and  C4_6 
REMARK    2  A    between atoms: C5_8  and  C6_9 
REMARK    3  A    between atoms: C6_9  and  O2_10 
REMARK    4  A    between atoms: C7_12  and  O3_13 
REMARK    5  A    between atoms: C8_15  and  O4_16 
ROOT
HETATM    1  N1  UNL     1       8.137  -1.697  21.927  1.00  0.00    -0.191 NA
HETATM    2  C1  UNL     1       8.135  -0.739  22.578  1.00  0.00     0.102 C 
HETATM    3  C2  UNL     1       8.123   0.465  23.368  1.00  0.00     0.077 A 
HETATM    4  C3  UNL     1       8.300   0.563  24.727  1.00  0.00     0.119 A 
HETATM    5  N2  UNL     1       8.222   1.866  25.115  1.00  0.00    -0.311 N 
HETATM    6  C9  UNL     1       7.996   2.607  24.019  1.00  0.00     0.125 A 
HETATM    7  N3  UNL     1       7.842   3.932  23.866  1.00  0.00    -0.338 N 
ATOM      8  H3  UNL     1       7.891   4.548  24.677  1.00  0.00     0.168 HD
HETATM    9  C10 UNL     1       7.621   4.449  22.640  1.00  0.00     0.183 A 
HETATM   10  N4  UNL     1       7.553   3.639  21.554  1.00  0.00    -0.340 N 
ATOM     11  H4  UNL     1       7.385   4.049  20.635  1.00  0.00     0.167 HD
HETATM   12  C11 UNL     1       7.702   2.304  21.663  1.00  0.00     0.132 A 
HETATM   13  N5  UNL     1       7.643   1.408  20.580  1.00  0.00    -0.082 NA
HETATM   14  C12 UNL     1       7.930   1.768  22.922  1.00  0.00     0.071 A 
ENDROOT
BRANCH   5  15
HETATM   15  C4  UNL     1       8.364   2.294  26.456  1.00  0.00     0.261 C 
HETATM   16  O1  UNL     1       8.014   3.645  26.656  1.00  0.00    -0.353 OA
HETATM   17  C5  UNL     1       8.213   3.743  28.034  1.00  0.00     0.179 C 
HETATM   18  C7  UNL     1       9.621   3.204  28.210  1.00  0.00     0.182 C 
HETATM   19  C8  UNL     1       9.736   2.238  27.021  1.00  0.00     0.198 C 
BRANCH  17  20
HETATM   20  C6  UNL     1       8.085   5.163  28.523  1.00  0.00     0.198 C 
BRANCH  20  21
HETATM   21  O2  UNL     1       9.136   5.402  29.394  1.00  0.00    -0.398 OA
ATOM     22  H2  UNL     1       9.231   6.344  29.477  1.00  0.00     0.209 HD
ENDBRANCH  20  21
ENDBRANCH  17  20
BRANCH  18  23
HETATM   23  O3  UNL     1       9.666   2.509  29.420  1.00  0.00    -0.390 OA
ATOM     24  H3  UNL     1      10.529   2.635  29.797  1.00  0.00     0.210 HD
ENDBRANCH  18  23
BRANCH  19  25
HETATM   25  O4  UNL     1      10.038   0.973  27.543  1.00  0.00    -0.388 OA
ATOM     26  H4  UNL     1      10.345   1.021  28.440  1.00  0.00     0.210 HD
ENDBRANCH  19  25
ENDBRANCH   5  15
TORSDOF 5
ENDMDL
