MODEL 3
REMARK VINA RESULT: -7.139451796      3.404      6.530
REMARK  5 active torsions:
REMARK  status: ('A' for Active; 'I' for Inactive)
REMARK    1  A    between atoms: N2_5  and  C4_6 
REMARK    2  A    between atoms: C5_8  and  C6_9 
REMARK    3  A    between atoms: C6_9  and  O2_10 
REMARK    4  A    between atoms: C7_12  and  O3_13 
REMARK    5  A    between atoms: C8_15  and  O4_16 
ROOT
HETATM    1  N1  UNL     1       9.659  -3.078  25.409  1.00  0.00    -0.191 NA
HETATM    2  C1  UNL     1       9.472  -1.935  25.376  1.00  0.00     0.102 C 
HETATM    3  C2  UNL     1       9.227  -0.517  25.316  1.00  0.00     0.077 A 
HETATM    4  C3  UNL     1       9.476   0.408  26.301  1.00  0.00     0.119 A 
HETATM    5  N2  UNL     1       9.112   1.649  25.878  1.00  0.00    -0.311 N 
HETATM    6  C9  UNL     1       8.630   1.533  24.632  1.00  0.00     0.125 A 
HETATM    7  N3  UNL     1       8.145   2.454  23.783  1.00  0.00    -0.338 N 
ATOM      8  H3  UNL     1       8.104   3.434  24.064  1.00  0.00     0.168 HD
HETATM    9  C10 UNL     1       7.712   2.085  22.561  1.00  0.00     0.183 A 
HETATM   10  N4  UNL     1       7.762   0.784  22.177  1.00  0.00    -0.340 N 
ATOM     11  H4  UNL     1       7.430   0.525  21.248  1.00  0.00     0.167 HD
HETATM   12  C11 UNL     1       8.241  -0.172  22.998  1.00  0.00     0.132 A 
HETATM   13  N5  UNL     1       8.321  -1.536  22.664  1.00  0.00    -0.082 NA
HETATM   14  C12 UNL     1       8.687   0.204  24.256  1.00  0.00     0.071 A 
ENDROOT
BRANCH   5  15
HETATM   15  C4  UNL     1       9.246   2.816  26.668  1.00  0.00     0.261 C 
HETATM   16  O1  UNL     1      10.029   2.626  27.825  1.00  0.00    -0.353 OA
HETATM   17  C5  UNL     1      10.007   3.921  28.345  1.00  0.00     0.179 C 
HETATM   18  C7  UNL     1       8.523   4.246  28.377  1.00  0.00     0.182 C 
HETATM   19  C8  UNL     1       7.990   3.377  27.227  1.00  0.00     0.198 C 
BRANCH  17  20
HETATM   20  C6  UNL     1      10.631   3.990  29.714  1.00  0.00     0.198 C 
BRANCH  20  21
HETATM   21  O2  UNL     1      10.083   5.080  30.371  1.00  0.00    -0.398 OA
ATOM     22  H2  UNL     1      10.411   5.074  31.262  1.00  0.00     0.209 HD
ENDBRANCH  20  21
ENDBRANCH  17  20
BRANCH  18  23
HETATM   23  O3  UNL     1       8.374   5.602  28.085  1.00  0.00    -0.390 OA
ATOM     24  H3  UNL     1       7.999   5.673  27.215  1.00  0.00     0.210 HD
ENDBRANCH  18  23
BRANCH  19  25
HETATM   25  O4  UNL     1       7.349   4.235  26.323  1.00  0.00    -0.388 OA
ATOM     26  H4  UNL     1       6.460   4.435  26.592  1.00  0.00     0.210 HD
ENDBRANCH  19  25
ENDBRANCH   5  15
TORSDOF 5
ENDMDL
