MODEL 10
REMARK VINA RESULT: -6.735140145      3.573      6.399
REMARK  5 active torsions:
REMARK  status: ('A' for Active; 'I' for Inactive)
REMARK    1  A    between atoms: N2_5  and  C4_6 
REMARK    2  A    between atoms: C5_8  and  C6_9 
REMARK    3  A    between atoms: C6_9  and  O2_10 
REMARK    4  A    between atoms: C7_12  and  O3_13 
REMARK    5  A    between atoms: C8_15  and  O4_16 
ROOT
HETATM    1  N1  UNL     1       8.130  -1.831  21.848  1.00  0.00    -0.191 NA
HETATM    2  C1  UNL     1       8.239  -0.844  22.444  1.00  0.00     0.102 C 
HETATM    3  C2  UNL     1       8.363   0.395  23.168  1.00  0.00     0.077 A 
HETATM    4  C3  UNL     1       8.793   0.556  24.463  1.00  0.00     0.119 A 
HETATM    5  N2  UNL     1       8.773   1.875  24.800  1.00  0.00    -0.311 N 
HETATM    6  C9  UNL     1       8.335   2.565  23.735  1.00  0.00     0.125 A 
HETATM    7  N3  UNL     1       8.137   3.880  23.556  1.00  0.00    -0.338 N 
ATOM      8  H3  UNL     1       8.332   4.533  24.315  1.00  0.00     0.168 HD
HETATM    9  C10 UNL     1       7.682   4.339  22.373  1.00  0.00     0.183 A 
HETATM   10  N4  UNL     1       7.419   3.480  21.356  1.00  0.00    -0.340 N 
ATOM     11  H4  UNL     1       7.075   3.847  20.469  1.00  0.00     0.167 HD
HETATM   12  C11 UNL     1       7.603   2.152  21.494  1.00  0.00     0.132 A 
HETATM   13  N5  UNL     1       7.351   1.207  20.483  1.00  0.00    -0.082 NA
HETATM   14  C12 UNL     1       8.072   1.676  22.709  1.00  0.00     0.071 A 
ENDROOT
BRANCH   5  15
HETATM   15  C4  UNL     1       9.161   2.365  26.069  1.00  0.00     0.261 C 
HETATM   16  O1  UNL     1       9.777   1.392  26.884  1.00  0.00    -0.353 OA
HETATM   17  C5  UNL     1      10.069   2.169  28.005  1.00  0.00     0.179 C 
HETATM   18  C7  UNL     1       8.732   2.811  28.328  1.00  0.00     0.182 C 
HETATM   19  C8  UNL     1       8.068   2.859  26.944  1.00  0.00     0.198 C 
BRANCH  17  20
HETATM   20  C6  UNL     1      10.588   1.336  29.149  1.00  0.00     0.198 C 
BRANCH  20  21
HETATM   21  O2  UNL     1       9.540   1.141  30.035  1.00  0.00    -0.398 OA
ATOM     22  H2  UNL     1       9.652   0.284  30.428  1.00  0.00     0.209 HD
ENDBRANCH  20  21
ENDBRANCH  17  20
BRANCH  18  23
HETATM   23  O3  UNL     1       8.978   4.100  28.805  1.00  0.00    -0.390 OA
ATOM     24  H3  UNL     1       8.141   4.502  29.003  1.00  0.00     0.210 HD
ENDBRANCH  18  23
BRANCH  19  25
HETATM   25  O4  UNL     1       7.751   4.199  26.683  1.00  0.00    -0.388 OA
ATOM     26  H4  UNL     1       7.683   4.711  27.479  1.00  0.00     0.210 HD
ENDBRANCH  19  25
ENDBRANCH   5  15
TORSDOF 5
ENDMDL
