MODEL 8
REMARK VINA RESULT: -6.358109481      2.930      6.629
REMARK  6 active torsions:
REMARK  status: ('A' for Active; 'I' for Inactive)
REMARK    1  A    between atoms: N1_1  and  S1_4 
REMARK    2  A    between atoms: S1_4  and  C1_7 
REMARK    3  A    between atoms: C3_9  and  C4_10 
REMARK    4  A    between atoms: C5_13  and  N2_14 
REMARK    5  A    between atoms: N2_14  and  C6_16 
REMARK    6  A    between atoms: C6_16  and  C7_17 
ROOT
HETATM    1  C1  UNL     1     -47.377  45.361  10.442  1.00  0.00     0.102 A 
HETATM    2  C2  UNL     1     -47.712  44.141  10.953  1.00  0.00     0.047 A 
HETATM    3  C3  UNL     1     -48.206  43.931  12.251  1.00  0.00     0.068 A 
HETATM    4  C5  UNL     1     -48.355  45.040  13.048  1.00  0.00     0.047 A 
HETATM    5  C11 UNL     1     -48.019  46.315  12.555  1.00  0.00     0.055 A 
HETATM    6  C12 UNL     1     -47.541  46.464  11.279  1.00  0.00     0.059 A 
HETATM    7 CL1  UNL     1     -47.134  48.061  10.703  1.00  0.00    -0.083 Cl
ENDROOT
BRANCH   4   8
HETATM    8  N2  UNL     1     -48.858  44.911  14.353  1.00  0.00    -0.383 N 
ATOM      9  H2  UNL     1     -48.932  43.991  14.787  1.00  0.00     0.160 HD
BRANCH   8  10
HETATM   10  C6  UNL     1     -49.274  46.106  15.083  1.00  0.00     0.184 C 
BRANCH  10  11
HETATM   11  C7  UNL     1     -49.397  45.740  16.519  1.00  0.00     0.070 A 
HETATM   12  C8  UNL     1     -48.571  46.326  17.485  1.00  0.00     0.036 A 
HETATM   13  C9  UNL     1     -48.952  45.768  18.681  1.00  0.00     0.027 A 
HETATM   14  C10 UNL     1     -49.968  44.889  18.388  1.00  0.00     0.142 A 
HETATM   15  O5  UNL     1     -50.212  44.892  17.102  1.00  0.00    -0.325 OA
ENDBRANCH  10  11
ENDBRANCH   8  10
ENDBRANCH   4   8
BRANCH   3  16
HETATM   16  C4  UNL     1     -48.501  42.587  12.630  1.00  0.00     0.211 C 
HETATM   17  O3  UNL     1     -47.784  41.629  12.160  1.00  0.00    -0.644 OA
HETATM   18  O4  UNL     1     -49.501  42.162  13.474  1.00  0.00    -0.644 OA
ENDBRANCH   3  16
BRANCH   1  19
HETATM   19  S1  UNL     1     -46.765  45.570   8.817  1.00  0.00     0.258 S 
HETATM   20  O1  UNL     1     -47.438  46.793   8.233  1.00  0.00    -0.201 OA
HETATM   21  O2  UNL     1     -45.266  45.734   8.827  1.00  0.00    -0.201 OA
BRANCH  19  22
HETATM   22  N1  UNL     1     -47.177  44.230   7.811  1.00  0.00    -0.324 N 
ATOM     23  H12 UNL     1     -47.558  43.340   8.132  1.00  0.00     0.169 HD
ATOM     24  H11 UNL     1     -46.968  44.499   6.849  1.00  0.00     0.169 HD
ENDBRANCH  19  22
ENDBRANCH   1  19
TORSDOF 6
ENDMDL
