MODEL 7
REMARK VINA RESULT: -6.366534969      3.995      6.049
REMARK  6 active torsions:
REMARK  status: ('A' for Active; 'I' for Inactive)
REMARK    1  A    between atoms: N1_1  and  S1_4 
REMARK    2  A    between atoms: S1_4  and  C1_7 
REMARK    3  A    between atoms: C3_9  and  C4_10 
REMARK    4  A    between atoms: C5_13  and  N2_14 
REMARK    5  A    between atoms: N2_14  and  C6_16 
REMARK    6  A    between atoms: C6_16  and  C7_17 
ROOT
HETATM    1  C1  UNL     1     -47.807  45.604  11.957  1.00  0.00     0.102 A 
HETATM    2  C2  UNL     1     -48.481  46.226  12.966  1.00  0.00     0.047 A 
HETATM    3  C3  UNL     1     -48.530  47.618  13.151  1.00  0.00     0.068 A 
HETATM    4  C5  UNL     1     -47.845  48.391  12.244  1.00  0.00     0.047 A 
HETATM    5  C11 UNL     1     -47.137  47.784  11.190  1.00  0.00     0.055 A 
HETATM    6  C12 UNL     1     -47.123  46.419  11.056  1.00  0.00     0.059 A 
HETATM    7 CL1  UNL     1     -46.234  45.702   9.736  1.00  0.00    -0.083 Cl
ENDROOT
BRANCH   4   8
HETATM    8  N2  UNL     1     -47.860  49.791  12.354  1.00  0.00    -0.383 N 
ATOM      9  H2  UNL     1     -48.743  50.300  12.326  1.00  0.00     0.160 HD
BRANCH   8  10
HETATM   10  C6  UNL     1     -46.599  50.512  12.508  1.00  0.00     0.184 C 
BRANCH  10  11
HETATM   11  C7  UNL     1     -46.671  51.737  11.668  1.00  0.00     0.070 A 
HETATM   12  C8  UNL     1     -45.527  52.501  11.409  1.00  0.00     0.036 A 
HETATM   13  C9  UNL     1     -45.952  53.539  10.616  1.00  0.00     0.027 A 
HETATM   14  C10 UNL     1     -47.303  53.358  10.437  1.00  0.00     0.142 A 
HETATM   15  O5  UNL     1     -47.703  52.284  11.070  1.00  0.00    -0.325 OA
ENDBRANCH  10  11
ENDBRANCH   8  10
ENDBRANCH   4   8
BRANCH   3  16
HETATM   16  C4  UNL     1     -49.277  48.106  14.265  1.00  0.00     0.211 C 
HETATM   17  O3  UNL     1     -50.435  47.606  14.512  1.00  0.00    -0.644 OA
HETATM   18  O4  UNL     1     -48.902  49.089  15.150  1.00  0.00    -0.644 OA
ENDBRANCH   3  16
BRANCH   1  19
HETATM   19  S1  UNL     1     -47.777  43.866  11.771  1.00  0.00     0.258 S 
HETATM   20  O1  UNL     1     -48.333  43.546  10.400  1.00  0.00    -0.201 OA
HETATM   21  O2  UNL     1     -46.373  43.335  11.919  1.00  0.00    -0.201 OA
BRANCH  19  22
HETATM   22  N1  UNL     1     -48.795  43.090  12.928  1.00  0.00    -0.324 N 
ATOM     23  H12 UNL     1     -48.665  42.148  13.298  1.00  0.00     0.169 HD
ATOM     24  H11 UNL     1     -49.539  43.746  13.164  1.00  0.00     0.169 HD
ENDBRANCH  19  22
ENDBRANCH   1  19
TORSDOF 6
ENDMDL
