MODEL 3
REMARK VINA RESULT: -7.166907771      1.378      1.688
REMARK  6 active torsions:
REMARK  status: ('A' for Active; 'I' for Inactive)
REMARK    1  A    between atoms: N1_1  and  S1_4 
REMARK    2  A    between atoms: S1_4  and  C1_7 
REMARK    3  A    between atoms: C3_9  and  C4_10 
REMARK    4  A    between atoms: C5_13  and  N2_14 
REMARK    5  A    between atoms: N2_14  and  C6_16 
REMARK    6  A    between atoms: C6_16  and  C7_17 
ROOT
HETATM    1  C1  UNL     1     -48.746  47.647  12.824  1.00  0.00     0.102 A 
HETATM    2  C2  UNL     1     -49.044  46.319  12.925  1.00  0.00     0.047 A 
HETATM    3  C3  UNL     1     -48.409  45.304  12.190  1.00  0.00     0.068 A 
HETATM    4  C5  UNL     1     -47.425  45.692  11.313  1.00  0.00     0.047 A 
HETATM    5  C11 UNL     1     -47.093  47.053  11.181  1.00  0.00     0.055 A 
HETATM    6  C12 UNL     1     -47.743  48.004  11.924  1.00  0.00     0.059 A 
HETATM    7 CL1  UNL     1     -47.303  49.682  11.734  1.00  0.00    -0.083 Cl
ENDROOT
BRANCH   4   8
HETATM    8  N2  UNL     1     -46.735  44.733  10.553  1.00  0.00    -0.383 N 
ATOM      9  H2  UNL     1     -46.803  43.743  10.790  1.00  0.00     0.160 HD
BRANCH   8  10
HETATM   10  C6  UNL     1     -45.919  45.165   9.422  1.00  0.00     0.184 C 
BRANCH  10  11
HETATM   11  C7  UNL     1     -46.759  45.076   8.197  1.00  0.00     0.070 A 
HETATM   12  C8  UNL     1     -47.229  46.231   7.562  1.00  0.00     0.036 A 
HETATM   13  C9  UNL     1     -47.956  45.786   6.484  1.00  0.00     0.027 A 
HETATM   14  C10 UNL     1     -47.893  44.413   6.519  1.00  0.00     0.142 A 
HETATM   15  O5  UNL     1     -47.177  44.019   7.542  1.00  0.00    -0.325 OA
ENDBRANCH  10  11
ENDBRANCH   8  10
ENDBRANCH   4   8
BRANCH   3  16
HETATM   16  C4  UNL     1     -48.846  43.963  12.411  1.00  0.00     0.211 C 
HETATM   17  O3  UNL     1     -49.993  43.758  12.954  1.00  0.00    -0.644 OA
HETATM   18  O4  UNL     1     -48.169  42.807  12.102  1.00  0.00    -0.644 OA
ENDBRANCH   3  16
BRANCH   1  19
HETATM   19  S1  UNL     1     -49.567  48.872  13.763  1.00  0.00     0.258 S 
HETATM   20  O1  UNL     1     -48.522  49.575  14.603  1.00  0.00    -0.201 OA
HETATM   21  O2  UNL     1     -50.278  49.851  12.862  1.00  0.00    -0.201 OA
BRANCH  19  22
HETATM   22  N1  UNL     1     -50.711  48.175  14.849  1.00  0.00    -0.324 N 
ATOM     23  H12 UNL     1     -51.603  47.756  14.585  1.00  0.00     0.169 HD
ATOM     24  H11 UNL     1     -50.328  48.263  15.790  1.00  0.00     0.169 HD
ENDBRANCH  19  22
ENDBRANCH   1  19
TORSDOF 6
ENDMDL
