MODEL 1
REMARK VINA RESULT: -7.748017237      0.000      0.000
REMARK  6 active torsions:
REMARK  status: ('A' for Active; 'I' for Inactive)
REMARK    1  A    between atoms: N1_1  and  S1_4 
REMARK    2  A    between atoms: S1_4  and  C1_7 
REMARK    3  A    between atoms: C3_9  and  C4_10 
REMARK    4  A    between atoms: C5_13  and  N2_14 
REMARK    5  A    between atoms: N2_14  and  C6_16 
REMARK    6  A    between atoms: C6_16  and  C7_17 
ROOT
HETATM    1  C1  UNL     1     -49.226  46.262  13.721  1.00  0.00     0.102 A 
HETATM    2  C2  UNL     1     -49.161  44.902  13.640  1.00  0.00     0.047 A 
HETATM    3  C3  UNL     1     -48.448  44.198  12.655  1.00  0.00     0.068 A 
HETATM    4  C5  UNL     1     -47.778  44.944  11.717  1.00  0.00     0.047 A 
HETATM    5  C11 UNL     1     -47.823  46.350  11.769  1.00  0.00     0.055 A 
HETATM    6  C12 UNL     1     -48.534  46.988  12.752  1.00  0.00     0.059 A 
HETATM    7 CL1  UNL     1     -48.567  48.733  12.784  1.00  0.00    -0.083 Cl
ENDROOT
BRANCH   4   8
HETATM    8  N2  UNL     1     -47.031  44.311  10.710  1.00  0.00    -0.383 N 
ATOM      9  H2  UNL     1     -47.040  43.294  10.625  1.00  0.00     0.160 HD
BRANCH   8  10
HETATM   10  C6  UNL     1     -46.240  45.120   9.787  1.00  0.00     0.184 C 
BRANCH  10  11
HETATM   11  C7  UNL     1     -46.904  45.071   8.457  1.00  0.00     0.070 A 
HETATM   12  C8  UNL     1     -47.290  46.245   7.800  1.00  0.00     0.036 A 
HETATM   13  C9  UNL     1     -47.861  45.834   6.620  1.00  0.00     0.027 A 
HETATM   14  C10 UNL     1     -47.795  44.461   6.620  1.00  0.00     0.142 A 
HETATM   15  O5  UNL     1     -47.224  44.035   7.718  1.00  0.00    -0.325 OA
ENDBRANCH  10  11
ENDBRANCH   8  10
ENDBRANCH   4   8
BRANCH   3  16
HETATM   16  C4  UNL     1     -48.489  42.771  12.710  1.00  0.00     0.211 C 
HETATM   17  O3  UNL     1     -49.404  42.196  13.406  1.00  0.00    -0.644 OA
HETATM   18  O4  UNL     1     -47.638  41.891  12.086  1.00  0.00    -0.644 OA
ENDBRANCH   3  16
BRANCH   1  19
HETATM   19  S1  UNL     1     -50.128  47.092  14.968  1.00  0.00     0.258 S 
HETATM   20  O1  UNL     1     -50.798  46.038  15.821  1.00  0.00    -0.201 OA
HETATM   21  O2  UNL     1     -49.217  47.958  15.802  1.00  0.00    -0.201 OA
BRANCH  19  22
HETATM   22  N1  UNL     1     -51.377  48.075  14.296  1.00  0.00    -0.324 N 
ATOM     23  H12 UNL     1     -52.365  47.826  14.241  1.00  0.00     0.169 HD
ATOM     24  H11 UNL     1     -50.940  48.937  13.970  1.00  0.00     0.169 HD
ENDBRANCH  19  22
ENDBRANCH   1  19
TORSDOF 6
ENDMDL
