MODEL 2
REMARK VINA RESULT: -7.569140250      0.861      1.024
REMARK  6 active torsions:
REMARK  status: ('A' for Active; 'I' for Inactive)
REMARK    1  A    between atoms: N1_1  and  S1_4 
REMARK    2  A    between atoms: S1_4  and  C1_7 
REMARK    3  A    between atoms: C3_9  and  C4_10 
REMARK    4  A    between atoms: C5_13  and  N2_14 
REMARK    5  A    between atoms: N2_14  and  C6_16 
REMARK    6  A    between atoms: C6_16  and  C7_17 
ROOT
HETATM    1  C1  UNL     1     -49.060  46.553  13.554  1.00  0.00     0.102 A 
HETATM    2  C2  UNL     1     -49.062  45.190  13.535  1.00  0.00     0.047 A 
HETATM    3  C3  UNL     1     -48.364  44.407  12.601  1.00  0.00     0.068 A 
HETATM    4  C5  UNL     1     -47.634  45.076  11.648  1.00  0.00     0.047 A 
HETATM    5  C11 UNL     1     -47.610  46.483  11.637  1.00  0.00     0.055 A 
HETATM    6  C12 UNL     1     -48.310  47.199  12.573  1.00  0.00     0.059 A 
HETATM    7 CL1  UNL     1     -48.255  48.944  12.527  1.00  0.00    -0.083 Cl
ENDROOT
BRANCH   4   8
HETATM    8  N2  UNL     1     -46.897  44.362  10.689  1.00  0.00    -0.383 N 
ATOM      9  H2  UNL     1     -46.922  43.342  10.676  1.00  0.00     0.160 HD
BRANCH   8  10
HETATM   10  C6  UNL     1     -46.094  45.091   9.712  1.00  0.00     0.184 C 
BRANCH  10  11
HETATM   11  C7  UNL     1     -46.828  45.076   8.419  1.00  0.00     0.070 A 
HETATM   12  C8  UNL     1     -47.255  46.266   7.819  1.00  0.00     0.036 A 
HETATM   13  C9  UNL     1     -47.887  45.886   6.660  1.00  0.00     0.027 A 
HETATM   14  C10 UNL     1     -47.814  44.514   6.615  1.00  0.00     0.142 A 
HETATM   15  O5  UNL     1     -47.183  44.060   7.668  1.00  0.00    -0.325 OA
ENDBRANCH  10  11
ENDBRANCH   8  10
ENDBRANCH   4   8
BRANCH   3  16
HETATM   16  C4  UNL     1     -48.478  42.988  12.717  1.00  0.00     0.211 C 
HETATM   17  O3  UNL     1     -49.388  42.492  13.478  1.00  0.00    -0.644 OA
HETATM   18  O4  UNL     1     -47.706  42.038  12.092  1.00  0.00    -0.644 OA
ENDBRANCH   3  16
BRANCH   1  19
HETATM   19  S1  UNL     1     -49.948  47.483  14.740  1.00  0.00     0.258 S 
HETATM   20  O1  UNL     1     -48.949  48.342  15.484  1.00  0.00    -0.201 OA
HETATM   21  O2  UNL     1     -50.999  48.336  14.074  1.00  0.00    -0.201 OA
BRANCH  19  22
HETATM   22  N1  UNL     1     -50.709  46.460  15.903  1.00  0.00    -0.324 N 
ATOM     23  H12 UNL     1     -51.406  45.743  15.699  1.00  0.00     0.169 HD
ATOM     24  H11 UNL     1     -50.332  46.709  16.817  1.00  0.00     0.169 HD
ENDBRANCH  19  22
ENDBRANCH   1  19
TORSDOF 6
ENDMDL
