MODEL 9
REMARK VINA RESULT: -6.288727023      3.713      6.041
REMARK  6 active torsions:
REMARK  status: ('A' for Active; 'I' for Inactive)
REMARK    1  A    between atoms: N1_1  and  S1_4 
REMARK    2  A    between atoms: S1_4  and  C1_7 
REMARK    3  A    between atoms: C3_9  and  C4_10 
REMARK    4  A    between atoms: C5_13  and  N2_14 
REMARK    5  A    between atoms: N2_14  and  C6_16 
REMARK    6  A    between atoms: C6_16  and  C7_17 
ROOT
HETATM    1  C1  UNL     1     -47.925  45.583  12.075  1.00  0.00     0.102 A 
HETATM    2  C2  UNL     1     -48.680  46.087  13.093  1.00  0.00     0.047 A 
HETATM    3  C3  UNL     1     -48.821  47.455  13.377  1.00  0.00     0.068 A 
HETATM    4  C5  UNL     1     -48.145  48.333  12.564  1.00  0.00     0.047 A 
HETATM    5  C11 UNL     1     -47.356  47.849  11.504  1.00  0.00     0.055 A 
HETATM    6  C12 UNL     1     -47.253  46.502  11.271  1.00  0.00     0.059 A 
HETATM    7 CL1  UNL     1     -46.264  45.939   9.947  1.00  0.00    -0.083 Cl
ENDROOT
BRANCH   4   8
HETATM    8  N2  UNL     1     -48.250  49.718  12.775  1.00  0.00    -0.383 N 
ATOM      9  H2  UNL     1     -49.073  50.226  12.453  1.00  0.00     0.160 HD
BRANCH   8  10
HETATM   10  C6  UNL     1     -47.169  50.423  13.459  1.00  0.00     0.184 C 
BRANCH  10  11
HETATM   11  C7  UNL     1     -46.591  51.403  12.502  1.00  0.00     0.070 A 
HETATM   12  C8  UNL     1     -45.304  51.227  11.979  1.00  0.00     0.036 A 
HETATM   13  C9  UNL     1     -45.097  52.299  11.145  1.00  0.00     0.027 A 
HETATM   14  C10 UNL     1     -46.243  53.056  11.203  1.00  0.00     0.142 A 
HETATM   15  O5  UNL     1     -47.111  52.504  12.013  1.00  0.00    -0.325 OA
ENDBRANCH  10  11
ENDBRANCH   8  10
ENDBRANCH   4   8
BRANCH   3  16
HETATM   16  C4  UNL     1     -49.646  47.814  14.486  1.00  0.00     0.211 C 
HETATM   17  O3  UNL     1     -49.116  48.404  15.497  1.00  0.00    -0.644 OA
HETATM   18  O4  UNL     1     -50.997  47.601  14.619  1.00  0.00    -0.644 OA
ENDBRANCH   3  16
BRANCH   1  19
HETATM   19  S1  UNL     1     -47.782  43.868  11.764  1.00  0.00     0.258 S 
HETATM   20  O1  UNL     1     -48.303  43.615  10.366  1.00  0.00    -0.201 OA
HETATM   21  O2  UNL     1     -46.348  43.418  11.892  1.00  0.00    -0.201 OA
BRANCH  19  22
HETATM   22  N1  UNL     1     -48.758  42.946  12.848  1.00  0.00    -0.324 N 
ATOM     23  H12 UNL     1     -48.436  42.509  13.712  1.00  0.00     0.169 HD
ATOM     24  H11 UNL     1     -49.701  42.925  12.461  1.00  0.00     0.169 HD
ENDBRANCH  19  22
ENDBRANCH   1  19
TORSDOF 6
ENDMDL
