MODEL 7
REMARK VINA RESULT: -6.035531015      1.514      2.047
REMARK  4 active torsions:
REMARK  status: ('A' for Active; 'I' for Inactive)
REMARK    1  A    between atoms: C1_2  and  C2_4 
REMARK    2  A    between atoms: C7_9  and  N1_10 
REMARK    3  A    between atoms: N1_10  and  C8_12 
REMARK    4  A    between atoms: C8_12  and  C9_13 
ROOT
HETATM    1  C2  UNL     1      21.925 -19.403  31.982  1.00  0.00     0.067 A 
HETATM    2  C3  UNL     1      20.778 -19.471  32.799  1.00  0.00     0.021 A 
HETATM    3  C4  UNL     1      19.854 -18.468  32.830  1.00  0.00     0.001 A 
HETATM    4  C5  UNL     1      20.043 -17.355  32.042  1.00  0.00     0.002 A 
HETATM    5  C6  UNL     1      21.161 -17.288  31.246  1.00  0.00     0.030 A 
HETATM    6  C7  UNL     1      22.127 -18.302  31.194  1.00  0.00     0.045 A 
ENDROOT
BRANCH   6   7
HETATM    7  N1  UNL     1      23.252 -18.157  30.348  1.00  0.00    -0.383 N 
ATOM      8  H1  UNL     1      24.039 -18.803  30.416  1.00  0.00     0.160 HD
BRANCH   7   9
HETATM    9  C8  UNL     1      23.272 -17.051  29.359  1.00  0.00     0.184 C 
BRANCH   9  10
HETATM   10  C9  UNL     1      23.021 -17.559  28.003  1.00  0.00     0.070 A 
HETATM   11  C10 UNL     1      24.001 -18.142  27.206  1.00  0.00     0.036 A 
HETATM   12  C11 UNL     1      23.403 -18.495  26.010  1.00  0.00     0.027 A 
HETATM   13  C12 UNL     1      22.080 -18.107  26.139  1.00  0.00     0.142 A 
HETATM   14  O3  UNL     1      21.923 -17.571  27.316  1.00  0.00    -0.325 OA
ENDBRANCH   9  10
ENDBRANCH   7   9
ENDBRANCH   6   7
BRANCH   1  15
HETATM   15  C1  UNL     1      22.842 -20.520  32.025  1.00  0.00     0.211 C 
HETATM   16  O1  UNL     1      22.401 -21.679  31.705  1.00  0.00    -0.644 OA
HETATM   17  O2  UNL     1      24.165 -20.479  32.380  1.00  0.00    -0.644 OA
ENDBRANCH   1  15
TORSDOF 4
ENDMDL
