MODEL 8
REMARK VINA RESULT: -5.998909552      2.522      5.054
REMARK  4 active torsions:
REMARK  status: ('A' for Active; 'I' for Inactive)
REMARK    1  A    between atoms: C1_2  and  C2_4 
REMARK    2  A    between atoms: C7_9  and  N1_10 
REMARK    3  A    between atoms: N1_10  and  C8_12 
REMARK    4  A    between atoms: C8_12  and  C9_13 
ROOT
HETATM    1  C2  UNL     1      24.046 -19.090  30.734  1.00  0.00     0.067 A 
HETATM    2  C3  UNL     1      24.623 -18.825  29.476  1.00  0.00     0.021 A 
HETATM    3  C4  UNL     1      24.079 -17.923  28.608  1.00  0.00     0.001 A 
HETATM    4  C5  UNL     1      22.933 -17.251  28.969  1.00  0.00     0.002 A 
HETATM    5  C6  UNL     1      22.371 -17.509  30.195  1.00  0.00     0.030 A 
HETATM    6  C7  UNL     1      22.907 -18.429  31.106  1.00  0.00     0.045 A 
ENDROOT
BRANCH   6   7
HETATM    7  N1  UNL     1      22.266 -18.638  32.351  1.00  0.00    -0.383 N 
ATOM      8  H1  UNL     1      22.797 -18.968  33.157  1.00  0.00     0.160 HD
BRANCH   7   9
HETATM    9  C8  UNL     1      20.811 -18.371  32.466  1.00  0.00     0.184 C 
BRANCH   9  10
HETATM   10  C9  UNL     1      20.059 -19.627  32.604  1.00  0.00     0.070 A 
HETATM   11  C10 UNL     1      20.660 -20.864  32.820  1.00  0.00     0.036 A 
HETATM   12  C11 UNL     1      19.649 -21.804  32.896  1.00  0.00     0.027 A 
HETATM   13  C12 UNL     1      18.476 -21.089  32.723  1.00  0.00     0.142 A 
HETATM   14  O3  UNL     1      18.781 -19.834  32.559  1.00  0.00    -0.325 OA
ENDBRANCH   9  10
ENDBRANCH   7   9
ENDBRANCH   6   7
BRANCH   1  15
HETATM   15  C1  UNL     1      24.703 -20.064  31.577  1.00  0.00     0.211 C 
HETATM   16  O1  UNL     1      25.942 -20.310  31.369  1.00  0.00    -0.644 OA
HETATM   17  O2  UNL     1      24.133 -20.775  32.602  1.00  0.00    -0.644 OA
ENDBRANCH   1  15
TORSDOF 4
ENDMDL
