MODEL 3
REMARK VINA RESULT: -6.335539216      1.158      1.635
REMARK  4 active torsions:
REMARK  status: ('A' for Active; 'I' for Inactive)
REMARK    1  A    between atoms: C1_2  and  C2_4 
REMARK    2  A    between atoms: C7_9  and  N1_10 
REMARK    3  A    between atoms: N1_10  and  C8_12 
REMARK    4  A    between atoms: C8_12  and  C9_13 
ROOT
HETATM    1  C2  UNL     1      22.272 -19.357  31.678  1.00  0.00     0.067 A 
HETATM    2  C3  UNL     1      21.113 -19.084  32.433  1.00  0.00     0.021 A 
HETATM    3  C4  UNL     1      20.381 -17.948  32.246  1.00  0.00     0.001 A 
HETATM    4  C5  UNL     1      20.783 -17.040  31.293  1.00  0.00     0.002 A 
HETATM    5  C6  UNL     1      21.912 -17.305  30.557  1.00  0.00     0.030 A 
HETATM    6  C7  UNL     1      22.683 -18.463  30.727  1.00  0.00     0.045 A 
ENDROOT
BRANCH   6   7
HETATM    7  N1  UNL     1      23.834 -18.663  29.928  1.00  0.00    -0.383 N 
ATOM      8  H1  UNL     1      24.400 -19.504  30.037  1.00  0.00     0.160 HD
BRANCH   7   9
HETATM    9  C8  UNL     1      24.206 -17.631  28.928  1.00  0.00     0.184 C 
BRANCH   9  10
HETATM   10  C9  UNL     1      23.791 -18.038  27.579  1.00  0.00     0.070 A 
HETATM   11  C10 UNL     1      22.578 -17.671  27.002  1.00  0.00     0.036 A 
HETATM   12  C11 UNL     1      22.536 -18.233  25.740  1.00  0.00     0.027 A 
HETATM   13  C12 UNL     1      23.732 -18.919  25.609  1.00  0.00     0.142 A 
HETATM   14  O3  UNL     1      24.414 -18.768  26.708  1.00  0.00    -0.325 OA
ENDBRANCH   9  10
ENDBRANCH   7   9
ENDBRANCH   6   7
BRANCH   1  15
HETATM   15  C1  UNL     1      22.974 -20.590  31.956  1.00  0.00     0.211 C 
HETATM   16  O1  UNL     1      22.340 -21.695  31.817  1.00  0.00    -0.644 OA
HETATM   17  O2  UNL     1      24.277 -20.715  32.364  1.00  0.00    -0.644 OA
ENDBRANCH   1  15
TORSDOF 4
ENDMDL
