MODEL 5
REMARK VINA RESULT: -6.054819849      2.429      5.318
REMARK  4 active torsions:
REMARK  status: ('A' for Active; 'I' for Inactive)
REMARK    1  A    between atoms: C1_2  and  C2_4 
REMARK    2  A    between atoms: C7_9  and  N1_10 
REMARK    3  A    between atoms: N1_10  and  C8_12 
REMARK    4  A    between atoms: C8_12  and  C9_13 
ROOT
HETATM    1  C2  UNL     1      24.354 -19.323  31.157  1.00  0.00     0.067 A 
HETATM    2  C3  UNL     1      24.591 -18.610  29.964  1.00  0.00     0.021 A 
HETATM    3  C4  UNL     1      23.676 -17.735  29.452  1.00  0.00     0.001 A 
HETATM    4  C5  UNL     1      22.487 -17.541  30.118  1.00  0.00     0.002 A 
HETATM    5  C6  UNL     1      22.257 -18.236  31.281  1.00  0.00     0.030 A 
HETATM    6  C7  UNL     1      23.177 -19.140  31.829  1.00  0.00     0.045 A 
ENDROOT
BRANCH   6   7
HETATM    7  N1  UNL     1      22.863 -19.817  33.032  1.00  0.00    -0.383 N 
ATOM      8  H1  UNL     1      23.500 -20.517  33.413  1.00  0.00     0.160 HD
BRANCH   7   9
HETATM    9  C8  UNL     1      21.594 -19.495  33.731  1.00  0.00     0.184 C 
BRANCH   9  10
HETATM   10  C9  UNL     1      20.655 -20.622  33.652  1.00  0.00     0.070 A 
HETATM   11  C10 UNL     1      19.431 -20.560  32.992  1.00  0.00     0.036 A 
HETATM   12  C11 UNL     1      18.827 -21.796  33.128  1.00  0.00     0.027 A 
HETATM   13  C12 UNL     1      19.718 -22.555  33.868  1.00  0.00     0.142 A 
HETATM   14  O3  UNL     1      20.756 -21.818  34.141  1.00  0.00    -0.325 OA
ENDBRANCH   9  10
ENDBRANCH   7   9
ENDBRANCH   6   7
BRANCH   1  15
HETATM   15  C1  UNL     1      25.390 -20.224  31.611  1.00  0.00     0.211 C 
HETATM   16  O1  UNL     1      26.611 -19.862  31.481  1.00  0.00    -0.644 OA
HETATM   17  O2  UNL     1      25.207 -21.459  32.180  1.00  0.00    -0.644 OA
ENDBRANCH   1  15
TORSDOF 4
ENDMDL
