MODEL 6
REMARK VINA RESULT: -6.037793868      2.500      6.217
REMARK  4 active torsions:
REMARK  status: ('A' for Active; 'I' for Inactive)
REMARK    1  A    between atoms: C1_2  and  C2_4 
REMARK    2  A    between atoms: C7_9  and  N1_10 
REMARK    3  A    between atoms: N1_10  and  C8_12 
REMARK    4  A    between atoms: C8_12  and  C9_13 
ROOT
HETATM    1  C2  UNL     1      24.350 -19.413  31.190  1.00  0.00     0.067 A 
HETATM    2  C3  UNL     1      24.590 -18.712  29.990  1.00  0.00     0.021 A 
HETATM    3  C4  UNL     1      23.681 -17.836  29.472  1.00  0.00     0.001 A 
HETATM    4  C5  UNL     1      22.493 -17.629  30.137  1.00  0.00     0.002 A 
HETATM    5  C6  UNL     1      22.259 -18.312  31.305  1.00  0.00     0.030 A 
HETATM    6  C7  UNL     1      23.173 -19.217  31.860  1.00  0.00     0.045 A 
ENDROOT
BRANCH   6   7
HETATM    7  N1  UNL     1      22.856 -19.882  33.069  1.00  0.00    -0.383 N 
ATOM      8  H1  UNL     1      23.398 -20.691  33.373  1.00  0.00     0.160 HD
BRANCH   7   9
HETATM    9  C8  UNL     1      21.723 -19.386  33.889  1.00  0.00     0.184 C 
BRANCH   9  10
HETATM   10  C9  UNL     1      21.883 -19.783  35.295  1.00  0.00     0.070 A 
HETATM   11  C10 UNL     1      21.748 -18.902  36.364  1.00  0.00     0.036 A 
HETATM   12  C11 UNL     1      21.966 -19.625  37.522  1.00  0.00     0.027 A 
HETATM   13  C12 UNL     1      22.223 -20.918  37.099  1.00  0.00     0.142 A 
HETATM   14  O3  UNL     1      22.161 -20.944  35.798  1.00  0.00    -0.325 OA
ENDBRANCH   9  10
ENDBRANCH   7   9
ENDBRANCH   6   7
BRANCH   1  15
HETATM   15  C1  UNL     1      25.379 -20.317  31.651  1.00  0.00     0.211 C 
HETATM   16  O1  UNL     1      26.603 -19.978  31.487  1.00  0.00    -0.644 OA
HETATM   17  O2  UNL     1      25.189 -21.531  32.260  1.00  0.00    -0.644 OA
ENDBRANCH   1  15
TORSDOF 4
ENDMDL
