MODEL 1
REMARK VINA RESULT: -7.420161335      0.000      0.000
REMARK  4 active torsions:
REMARK  status: ('A' for Active; 'I' for Inactive)
REMARK    1  A    between atoms: C1_2  and  C2_4 
REMARK    2  A    between atoms: C7_9  and  N1_10 
REMARK    3  A    between atoms: N1_10  and  C8_12 
REMARK    4  A    between atoms: C8_12  and  C9_13 
ROOT
HETATM    1  C2  UNL     1      23.923 -19.764  31.869  1.00  0.00     0.067 A 
HETATM    2  C3  UNL     1      23.038 -19.929  32.955  1.00  0.00     0.021 A 
HETATM    3  C4  UNL     1      21.861 -19.243  33.037  1.00  0.00     0.001 A 
HETATM    4  C5  UNL     1      21.524 -18.364  32.032  1.00  0.00     0.002 A 
HETATM    5  C6  UNL     1      22.386 -18.203  30.975  1.00  0.00     0.030 A 
HETATM    6  C7  UNL     1      23.601 -18.894  30.864  1.00  0.00     0.045 A 
ENDROOT
BRANCH   6   7
HETATM    7  N1  UNL     1      24.434 -18.671  29.741  1.00  0.00    -0.383 N 
ATOM      8  H1  UNL     1      25.212 -19.300  29.541  1.00  0.00     0.160 HD
BRANCH   7   9
HETATM    9  C8  UNL     1      24.160 -17.510  28.859  1.00  0.00     0.184 C 
BRANCH   9  10
HETATM   10  C9  UNL     1      23.716 -17.957  27.531  1.00  0.00     0.070 A 
HETATM   11  C10 UNL     1      22.471 -17.647  26.991  1.00  0.00     0.036 A 
HETATM   12  C11 UNL     1      22.408 -18.232  25.740  1.00  0.00     0.027 A 
HETATM   13  C12 UNL     1      23.625 -18.874  25.579  1.00  0.00     0.142 A 
HETATM   14  O3  UNL     1      24.338 -18.677  26.651  1.00  0.00    -0.325 OA
ENDBRANCH   9  10
ENDBRANCH   7   9
ENDBRANCH   6   7
BRANCH   1  15
HETATM   15  C1  UNL     1      25.143 -20.539  31.880  1.00  0.00     0.211 C 
HETATM   16  O1  UNL     1      26.219 -19.984  31.462  1.00  0.00    -0.644 OA
HETATM   17  O2  UNL     1      25.284 -21.838  32.297  1.00  0.00    -0.644 OA
ENDBRANCH   1  15
TORSDOF 4
ENDMDL
