MODEL 1
REMARK VINA RESULT: -9.543236473      0.000      0.000
REMARK  1 active torsions:
REMARK  status: ('A' for Active; 'I' for Inactive)
REMARK    1  A    between atoms: C11_16  and  C12_17 
ROOT
HETATM    1  N1  UNL     1     -23.097  19.317 -19.989  1.00  0.00    -0.063 NA
HETATM    2  C1  UNL     1     -24.285  19.205 -20.765  1.00  0.00     0.192 A 
HETATM    3  N2  UNL     1     -24.425  19.926 -21.884  1.00  0.00    -0.340 N 
ATOM      4  H2  UNL     1     -23.673  20.553 -22.170  1.00  0.00     0.167 HD
HETATM    5  C2  UNL     1     -25.551  19.843 -22.650  1.00  0.00     0.100 A 
HETATM    6  C3  UNL     1     -26.570  18.995 -22.265  1.00  0.00    -0.014 A 
HETATM    7  C4  UNL     1     -26.374  18.277 -21.105  1.00  0.00     0.053 A 
HETATM    8  N3  UNL     1     -25.263  18.376 -20.373  1.00  0.00    -0.329 N 
ATOM      9  H3  UNL     1     -25.158  17.824 -19.521  1.00  0.00     0.168 HD
HETATM   10  C5  UNL     1     -27.429  17.369 -20.670  1.00  0.00    -0.002 A 
HETATM   11  C6  UNL     1     -27.243  16.648 -19.506  1.00  0.00     0.014 A 
HETATM   12  C7  UNL     1     -28.240  15.791 -19.088  1.00  0.00     0.001 A 
HETATM   13  C8  UNL     1     -29.409  15.655 -19.823  1.00  0.00     0.001 A 
HETATM   14  C9  UNL     1     -29.553  16.395 -20.978  1.00  0.00     0.009 A 
HETATM   15  C10 UNL     1     -28.570  17.259 -21.419  1.00  0.00    -0.037 A 
HETATM   16  C11 UNL     1     -28.825  17.996 -22.669  1.00  0.00     0.057 A 
HETATM   17  C18 UNL     1     -27.764  18.930 -23.102  1.00  0.00     0.056 A 
ENDROOT
BRANCH  16  18
HETATM   18  C12 UNL     1     -29.027  16.984 -23.750  1.00  0.00    -0.049 A 
HETATM   19  C13 UNL     1     -30.294  16.454 -23.863  1.00  0.00     0.008 A 
HETATM   20  C14 UNL     1     -30.581  15.504 -24.835  1.00  0.00     0.001 A 
HETATM   21  C15 UNL     1     -29.538  15.130 -25.662  1.00  0.00     0.000 A 
HETATM   22  C16 UNL     1     -28.267  15.657 -25.553  1.00  0.00     0.001 A 
HETATM   23  C17 UNL     1     -28.001  16.601 -24.582  1.00  0.00     0.008 A 
ENDBRANCH  16  18
TORSDOF 1
ENDMDL
