MODEL 11
REMARK VINA RESULT: -8.930579877      3.002      5.471
REMARK  1 active torsions:
REMARK  status: ('A' for Active; 'I' for Inactive)
REMARK    1  A    between atoms: C11_16  and  C12_17 
ROOT
HETATM    1  N1  UNL     1     -32.536  15.429 -23.741  1.00  0.00    -0.063 NA
HETATM    2  C1  UNL     1     -31.174  15.835 -23.665  1.00  0.00     0.192 A 
HETATM    3  N2  UNL     1     -30.434  15.910 -24.779  1.00  0.00    -0.340 N 
ATOM      4  H2  UNL     1     -30.858  15.673 -25.675  1.00  0.00     0.167 HD
HETATM    5  C2  UNL     1     -29.126  16.296 -24.740  1.00  0.00     0.100 A 
HETATM    6  C3  UNL     1     -28.551  16.616 -23.527  1.00  0.00    -0.014 A 
HETATM    7  C4  UNL     1     -29.356  16.521 -22.413  1.00  0.00     0.053 A 
HETATM    8  N3  UNL     1     -30.634  16.142 -22.477  1.00  0.00    -0.329 N 
ATOM      9  H3  UNL     1     -31.196  16.086 -21.628  1.00  0.00     0.168 HD
HETATM   10  C5  UNL     1     -28.782  16.856 -21.116  1.00  0.00    -0.002 A 
HETATM   11  C6  UNL     1     -29.582  16.759 -19.994  1.00  0.00     0.014 A 
HETATM   12  C7  UNL     1     -29.042  17.071 -18.763  1.00  0.00     0.001 A 
HETATM   13  C8  UNL     1     -27.719  17.474 -18.653  1.00  0.00     0.001 A 
HETATM   14  C9  UNL     1     -26.956  17.556 -19.800  1.00  0.00     0.009 A 
HETATM   15  C10 UNL     1     -27.473  17.250 -21.043  1.00  0.00    -0.037 A 
HETATM   16  C11 UNL     1     -26.572  17.377 -22.203  1.00  0.00     0.057 A 
HETATM   17  C18 UNL     1     -27.148  17.021 -23.517  1.00  0.00     0.056 A 
ENDROOT
BRANCH  16  18
HETATM   18  C12 UNL     1     -26.118  18.800 -22.261  1.00  0.00    -0.049 A 
HETATM   19  C13 UNL     1     -24.814  19.042 -21.885  1.00  0.00     0.008 A 
HETATM   20  C14 UNL     1     -24.300  20.332 -21.901  1.00  0.00     0.001 A 
HETATM   21  C15 UNL     1     -25.159  21.336 -22.309  1.00  0.00     0.000 A 
HETATM   22  C16 UNL     1     -26.465  21.099 -22.687  1.00  0.00     0.001 A 
HETATM   23  C17 UNL     1     -26.959  19.811 -22.665  1.00  0.00     0.008 A 
ENDBRANCH  16  18
TORSDOF 1
ENDMDL
