MODEL 15
REMARK VINA RESULT: -8.775095237      2.990      5.365
REMARK  1 active torsions:
REMARK  status: ('A' for Active; 'I' for Inactive)
REMARK    1  A    between atoms: C11_16  and  C12_17 
ROOT
HETATM    1  N1  UNL     1     -32.496  15.435 -23.749  1.00  0.00    -0.063 NA
HETATM    2  C1  UNL     1     -31.132  15.835 -23.671  1.00  0.00     0.192 A 
HETATM    3  N2  UNL     1     -30.389  15.899 -24.783  1.00  0.00    -0.340 N 
ATOM      4  H2  UNL     1     -30.812  15.659 -25.680  1.00  0.00     0.167 HD
HETATM    5  C2  UNL     1     -29.079  16.279 -24.744  1.00  0.00     0.100 A 
HETATM    6  C3  UNL     1     -28.506  16.605 -23.532  1.00  0.00    -0.014 A 
HETATM    7  C4  UNL     1     -29.315  16.521 -22.420  1.00  0.00     0.053 A 
HETATM    8  N3  UNL     1     -30.594  16.148 -22.484  1.00  0.00    -0.329 N 
ATOM      9  H3  UNL     1     -31.159  16.101 -21.636  1.00  0.00     0.168 HD
HETATM   10  C5  UNL     1     -28.742  16.862 -21.123  1.00  0.00    -0.002 A 
HETATM   11  C6  UNL     1     -29.545  16.777 -20.002  1.00  0.00     0.014 A 
HETATM   12  C7  UNL     1     -29.007  17.094 -18.772  1.00  0.00     0.001 A 
HETATM   13  C8  UNL     1     -27.683  17.492 -18.662  1.00  0.00     0.001 A 
HETATM   14  C9  UNL     1     -26.917  17.562 -19.806  1.00  0.00     0.009 A 
HETATM   15  C10 UNL     1     -27.431  17.251 -21.049  1.00  0.00    -0.037 A 
HETATM   16  C11 UNL     1     -26.526  17.365 -22.207  1.00  0.00     0.057 A 
HETATM   17  C18 UNL     1     -27.101  17.003 -23.521  1.00  0.00     0.056 A 
ENDROOT
BRANCH  16  18
HETATM   18  C12 UNL     1     -26.066  18.785 -22.274  1.00  0.00    -0.049 A 
HETATM   19  C13 UNL     1     -26.975  19.701 -22.759  1.00  0.00     0.008 A 
HETATM   20  C14 UNL     1     -26.639  21.045 -22.862  1.00  0.00     0.001 A 
HETATM   21  C15 UNL     1     -25.366  21.399 -22.458  1.00  0.00     0.000 A 
HETATM   22  C16 UNL     1     -24.452  20.486 -21.971  1.00  0.00     0.001 A 
HETATM   23  C17 UNL     1     -24.802  19.155 -21.875  1.00  0.00     0.008 A 
ENDBRANCH  16  18
TORSDOF 1
ENDMDL
