MODEL 7
REMARK VINA RESULT: -9.016255245      3.703      4.869
REMARK  1 active torsions:
REMARK  status: ('A' for Active; 'I' for Inactive)
REMARK    1  A    between atoms: C11_16  and  C12_17 
ROOT
HETATM    1  N1  UNL     1     -32.111  21.433 -16.632  1.00  0.00    -0.063 NA
HETATM    2  C1  UNL     1     -31.958  20.615 -17.788  1.00  0.00     0.192 A 
HETATM    3  N2  UNL     1     -32.653  20.890 -18.899  1.00  0.00    -0.340 N 
ATOM      4  H2  UNL     1     -33.288  21.688 -18.905  1.00  0.00     0.167 HD
HETATM    5  C2  UNL     1     -32.531  20.126 -20.023  1.00  0.00     0.100 A 
HETATM    6  C3  UNL     1     -31.671  19.046 -20.016  1.00  0.00    -0.014 A 
HETATM    7  C4  UNL     1     -30.982  18.808 -18.847  1.00  0.00     0.053 A 
HETATM    8  N3  UNL     1     -31.118  19.571 -17.760  1.00  0.00    -0.329 N 
ATOM      9  H3  UNL     1     -30.588  19.360 -16.915  1.00  0.00     0.168 HD
HETATM   10  C5  UNL     1     -30.063  17.677 -18.806  1.00  0.00    -0.002 A 
HETATM   11  C6  UNL     1     -29.371  17.429 -17.636  1.00  0.00     0.014 A 
HETATM   12  C7  UNL     1     -28.503  16.358 -17.591  1.00  0.00     0.001 A 
HETATM   13  C8  UNL     1     -28.328  15.543 -18.700  1.00  0.00     0.001 A 
HETATM   14  C9  UNL     1     -29.040  15.827 -19.847  1.00  0.00     0.009 A 
HETATM   15  C10 UNL     1     -29.914  16.893 -19.919  1.00  0.00    -0.037 A 
HETATM   16  C11 UNL     1     -30.619  17.109 -21.195  1.00  0.00     0.057 A 
HETATM   17  C18 UNL     1     -31.564  18.245 -21.232  1.00  0.00     0.056 A 
ENDROOT
BRANCH  16  18
HETATM   18  C12 UNL     1     -29.580  17.330 -22.246  1.00  0.00    -0.049 A 
HETATM   19  C13 UNL     1     -29.693  16.567 -23.388  1.00  0.00     0.008 A 
HETATM   20  C14 UNL     1     -28.773  16.697 -24.421  1.00  0.00     0.001 A 
HETATM   21  C15 UNL     1     -27.761  17.619 -24.236  1.00  0.00     0.000 A 
HETATM   22  C16 UNL     1     -27.643  18.386 -23.095  1.00  0.00     0.001 A 
HETATM   23  C17 UNL     1     -28.566  18.244 -22.079  1.00  0.00     0.008 A 
ENDBRANCH  16  18
TORSDOF 1
ENDMDL
