MODEL 2
REMARK VINA RESULT: -9.523554275      0.194      1.071
REMARK  1 active torsions:
REMARK  status: ('A' for Active; 'I' for Inactive)
REMARK    1  A    between atoms: C11_16  and  C12_17 
ROOT
HETATM    1  N1  UNL     1     -23.225  19.215 -20.024  1.00  0.00    -0.063 NA
HETATM    2  C1  UNL     1     -24.435  19.109 -20.768  1.00  0.00     0.192 A 
HETATM    3  N2  UNL     1     -24.608  19.845 -21.873  1.00  0.00    -0.340 N 
ATOM      4  H2  UNL     1     -23.866  20.478 -22.171  1.00  0.00     0.167 HD
HETATM    5  C2  UNL     1     -25.755  19.767 -22.608  1.00  0.00     0.100 A 
HETATM    6  C3  UNL     1     -26.760  18.911 -22.205  1.00  0.00    -0.014 A 
HETATM    7  C4  UNL     1     -26.529  18.178 -21.061  1.00  0.00     0.053 A 
HETATM    8  N3  UNL     1     -25.398  18.271 -20.359  1.00  0.00    -0.329 N 
ATOM      9  H3  UNL     1     -25.268  17.709 -19.518  1.00  0.00     0.168 HD
HETATM   10  C5  UNL     1     -27.568  17.260 -20.609  1.00  0.00    -0.002 A 
HETATM   11  C6  UNL     1     -27.347  16.525 -19.460  1.00  0.00     0.014 A 
HETATM   12  C7  UNL     1     -28.329  15.658 -19.025  1.00  0.00     0.001 A 
HETATM   13  C8  UNL     1     -29.518  15.528 -19.729  1.00  0.00     0.001 A 
HETATM   14  C9  UNL     1     -29.697  16.282 -20.869  1.00  0.00     0.009 A 
HETATM   15  C10 UNL     1     -28.730  17.156 -21.326  1.00  0.00    -0.037 A 
HETATM   16  C11 UNL     1     -29.023  17.909 -22.559  1.00  0.00     0.057 A 
HETATM   17  C18 UNL     1     -27.977  18.852 -23.009  1.00  0.00     0.056 A 
ENDROOT
BRANCH  16  18
HETATM   18  C12 UNL     1     -29.251  16.911 -23.647  1.00  0.00    -0.049 A 
HETATM   19  C13 UNL     1     -28.176  16.641 -24.466  1.00  0.00     0.008 A 
HETATM   20  C14 UNL     1     -28.290  15.729 -25.508  1.00  0.00     0.001 A 
HETATM   21  C15 UNL     1     -29.522  15.124 -25.669  1.00  0.00     0.000 A 
HETATM   22  C16 UNL     1     -30.602  15.391 -24.853  1.00  0.00     0.001 A 
HETATM   23  C17 UNL     1     -30.471  16.299 -23.822  1.00  0.00     0.008 A 
ENDBRANCH  16  18
TORSDOF 1
ENDMDL
