MODEL 4
REMARK VINA RESULT: -6.494315580      3.612      6.220
REMARK  2 active torsions:
REMARK  status: ('A' for Active; 'I' for Inactive)
REMARK    1  A    between atoms: O1_2  and  C2_3 
REMARK    2  A    between atoms: C4_5  and  C5_6 
ROOT
HETATM    1  C2  UNL     1      16.003  -2.280  50.642  1.00  0.00     0.090 A 
HETATM    2  C3  UNL     1      14.982  -1.759  51.385  1.00  0.00     0.054 A 
HETATM    3  C4  UNL     1      14.378  -2.493  52.419  1.00  0.00     0.015 A 
HETATM    4  C10 UNL     1      14.873  -3.740  52.622  1.00  0.00     0.048 A 
HETATM    5 CL1  UNL     1      14.191  -4.787  53.836  1.00  0.00    -0.083 Cl
HETATM    6  C11 UNL     1      15.929  -4.277  51.856  1.00  0.00     0.051 A 
HETATM    7  C12 UNL     1      16.506  -3.550  50.854  1.00  0.00     0.069 A 
HETATM    8 CL2  UNL     1      17.822  -4.183  49.877  1.00  0.00    -0.081 Cl
ENDROOT
BRANCH   3   9
HETATM    9  C5  UNL     1      13.278  -1.878  53.146  1.00  0.00     0.048 A 
HETATM   10  C6  UNL     1      11.949  -1.962  52.867  1.00  0.00     0.055 A 
HETATM   11  C7  UNL     1      10.958  -1.366  53.649  1.00  0.00     0.010 A 
HETATM   12  C8  UNL     1       9.519  -1.489  53.295  1.00  0.00     0.068 C 
HETATM   13  N1  UNL     1      11.363  -0.681  54.728  1.00  0.00    -0.334 N 
HETATM   14  C9  UNL     1      12.668  -0.569  55.050  1.00  0.00     0.193 A 
ATOM     15  H1  UNL     1      10.665  -0.232  55.323  1.00  0.00     0.168 HD
HETATM   16  N2  UNL     1      12.972   0.183  56.219  1.00  0.00    -0.063 NA
HETATM   17  N3  UNL     1      13.562  -1.148  54.279  1.00  0.00    -0.330 N 
ATOM     18  H3  UNL     1      14.543  -1.050  54.540  1.00  0.00     0.168 HD
ENDBRANCH   3   9
BRANCH   1  19
HETATM   19  O1  UNL     1      16.588  -1.538  49.623  1.00  0.00    -0.354 OA
HETATM   20  C1  UNL     1      17.152  -0.292  49.937  1.00  0.00     0.210 C 
ENDBRANCH   1  19
TORSDOF 2
ENDMDL
