MODEL 14
REMARK VINA RESULT: -6.178975374      1.702      1.974
REMARK  2 active torsions:
REMARK  status: ('A' for Active; 'I' for Inactive)
REMARK    1  A    between atoms: O1_2  and  C2_3 
REMARK    2  A    between atoms: C4_5  and  C5_6 
ROOT
HETATM    1  C2  UNL     1      11.822  -2.330  53.769  1.00  0.00     0.090 A 
HETATM    2  C3  UNL     1      13.060  -2.684  53.312  1.00  0.00     0.054 A 
HETATM    3  C4  UNL     1      13.506  -2.306  52.035  1.00  0.00     0.015 A 
HETATM    4  C10 UNL     1      12.631  -1.577  51.298  1.00  0.00     0.048 A 
HETATM    5 CL1  UNL     1      13.024  -1.078  49.675  1.00  0.00    -0.083 Cl
HETATM    6  C11 UNL     1      11.353  -1.210  51.771  1.00  0.00     0.051 A 
HETATM    7  C12 UNL     1      10.934  -1.585  53.016  1.00  0.00     0.069 A 
HETATM    8 CL2  UNL     1       9.351  -1.150  53.641  1.00  0.00    -0.081 Cl
ENDROOT
BRANCH   3   9
HETATM    9  C5  UNL     1      14.828  -2.745  51.610  1.00  0.00     0.048 A 
HETATM   10  C6  UNL     1      15.444  -3.921  51.904  1.00  0.00     0.055 A 
HETATM   11  C7  UNL     1      16.704  -4.273  51.416  1.00  0.00     0.010 A 
HETATM   12  C8  UNL     1      17.333  -5.574  51.770  1.00  0.00     0.068 C 
HETATM   13  N1  UNL     1      17.318  -3.387  50.618  1.00  0.00    -0.334 N 
HETATM   14  C9  UNL     1      16.749  -2.208  50.296  1.00  0.00     0.193 A 
ATOM     15  H1  UNL     1      18.241  -3.612  50.244  1.00  0.00     0.168 HD
HETATM   16  N2  UNL     1      17.500  -1.352  49.441  1.00  0.00    -0.063 NA
HETATM   17  N3  UNL     1      15.561  -1.925  50.783  1.00  0.00    -0.330 N 
ATOM     18  H3  UNL     1      15.150  -1.027  50.527  1.00  0.00     0.168 HD
ENDBRANCH   3   9
BRANCH   1  19
HETATM   19  O1  UNL     1      11.399  -2.714  55.036  1.00  0.00    -0.354 OA
HETATM   20  C1  UNL     1      12.244  -2.472  56.129  1.00  0.00     0.210 C 
ENDBRANCH   1  19
TORSDOF 2
ENDMDL
