MODEL 2
REMARK VINA RESULT: -7.146794321      3.682      4.818
REMARK  2 active torsions:
REMARK  status: ('A' for Active; 'I' for Inactive)
REMARK    1  A    between atoms: O1_2  and  C2_3 
REMARK    2  A    between atoms: C4_5  and  C5_6 
ROOT
HETATM    1  C2  UNL     1      17.641  -2.855  54.106  1.00  0.00     0.090 A 
HETATM    2  C3  UNL     1      17.023  -2.028  53.212  1.00  0.00     0.054 A 
HETATM    3  C4  UNL     1      16.890  -2.380  51.858  1.00  0.00     0.015 A 
HETATM    4  C10 UNL     1      17.413  -3.582  51.509  1.00  0.00     0.048 A 
HETATM    5 CL1  UNL     1      17.368  -4.133  49.856  1.00  0.00    -0.083 Cl
HETATM    6  C11 UNL     1      18.050  -4.437  52.434  1.00  0.00     0.051 A 
HETATM    7  C12 UNL     1      18.171  -4.080  53.747  1.00  0.00     0.069 A 
HETATM    8 CL2  UNL     1      18.956  -5.115  54.930  1.00  0.00    -0.081 Cl
ENDROOT
BRANCH   3   9
HETATM    9  C5  UNL     1      16.244  -1.433  50.962  1.00  0.00     0.048 A 
HETATM   10  C6  UNL     1      15.009  -1.534  50.399  1.00  0.00     0.055 A 
HETATM   11  C7  UNL     1      14.454  -0.551  49.578  1.00  0.00     0.010 A 
HETATM   12  C8  UNL     1      13.099  -0.714  48.987  1.00  0.00     0.068 C 
HETATM   13  N1  UNL     1      15.197   0.542  49.347  1.00  0.00    -0.334 N 
HETATM   14  C9  UNL     1      16.426   0.691  49.883  1.00  0.00     0.193 A 
ATOM     15  H1  UNL     1      14.822   1.281  48.752  1.00  0.00     0.168 HD
HETATM   16  N2  UNL     1      17.116   1.895  49.565  1.00  0.00    -0.063 NA
HETATM   17  N3  UNL     1      16.903  -0.266  50.649  1.00  0.00    -0.330 N 
ATOM     18  H3  UNL     1      17.834  -0.133  51.042  1.00  0.00     0.168 HD
ENDBRANCH   3   9
BRANCH   1  19
HETATM   19  O1  UNL     1      17.763  -2.488  55.441  1.00  0.00    -0.354 OA
HETATM   20  C1  UNL     1      16.858  -1.553  55.967  1.00  0.00     0.210 C 
ENDBRANCH   1  19
TORSDOF 2
ENDMDL
