MODEL 1
REMARK VINA RESULT: -7.458042316      0.000      0.000
REMARK  2 active torsions:
REMARK  status: ('A' for Active; 'I' for Inactive)
REMARK    1  A    between atoms: O1_2  and  C2_3 
REMARK    2  A    between atoms: C4_5  and  C5_6 
ROOT
HETATM    1  C2  UNL     1      12.575  -1.429  53.629  1.00  0.00     0.090 A 
HETATM    2  C3  UNL     1      13.756  -1.331  52.949  1.00  0.00     0.054 A 
HETATM    3  C4  UNL     1      13.788  -1.155  51.556  1.00  0.00     0.015 A 
HETATM    4  C10 UNL     1      12.579  -1.093  50.943  1.00  0.00     0.048 A 
HETATM    5 CL1  UNL     1      12.460  -0.927  49.212  1.00  0.00    -0.083 Cl
HETATM    6  C11 UNL     1      11.359  -1.192  51.645  1.00  0.00     0.051 A 
HETATM    7  C12 UNL     1      11.345  -1.362  53.001  1.00  0.00     0.069 A 
HETATM    8 CL2  UNL     1       9.849  -1.491  53.912  1.00  0.00    -0.081 Cl
ENDROOT
BRANCH   3   9
HETATM    9  C5  UNL     1      15.086  -1.087  50.901  1.00  0.00     0.048 A 
HETATM   10  C6  UNL     1      15.894  -2.124  50.552  1.00  0.00     0.055 A 
HETATM   11  C7  UNL     1      17.112  -1.963  49.889  1.00  0.00     0.010 A 
HETATM   12  C8  UNL     1      17.957  -3.134  49.532  1.00  0.00     0.068 C 
HETATM   13  N1  UNL     1      17.482  -0.709  49.590  1.00  0.00    -0.334 N 
HETATM   14  C9  UNL     1      16.716   0.353  49.913  1.00  0.00     0.193 A 
ATOM     15  H1  UNL     1      18.366  -0.554  49.105  1.00  0.00     0.168 HD
HETATM   16  N2  UNL     1      17.217   1.634  49.542  1.00  0.00    -0.063 NA
HETATM   17  N3  UNL     1      15.578   0.146  50.539  1.00  0.00    -0.330 N 
ATOM     18  H3  UNL     1      15.016   0.964  50.774  1.00  0.00     0.168 HD
ENDBRANCH   3   9
BRANCH   1  19
HETATM   19  O1  UNL     1      12.564  -1.603  55.008  1.00  0.00    -0.354 OA
HETATM   20  C1  UNL     1      12.911  -0.517  55.825  1.00  0.00     0.210 C 
ENDBRANCH   1  19
TORSDOF 2
ENDMDL
