MODEL 5
REMARK VINA RESULT: -6.402646303      3.765      5.040
REMARK  2 active torsions:
REMARK  status: ('A' for Active; 'I' for Inactive)
REMARK    1  A    between atoms: O1_2  and  C2_3 
REMARK    2  A    between atoms: C4_5  and  C5_6 
ROOT
HETATM    1  C2  UNL     1      17.666  -2.945  54.064  1.00  0.00     0.090 A 
HETATM    2  C3  UNL     1      17.003  -2.098  53.222  1.00  0.00     0.054 A 
HETATM    3  C4  UNL     1      16.811  -2.413  51.867  1.00  0.00     0.015 A 
HETATM    4  C10 UNL     1      17.326  -3.600  51.460  1.00  0.00     0.048 A 
HETATM    5 CL1  UNL     1      17.211  -4.103  49.795  1.00  0.00    -0.083 Cl
HETATM    6  C11 UNL     1      18.010  -4.476  52.330  1.00  0.00     0.051 A 
HETATM    7  C12 UNL     1      18.187  -4.155  53.646  1.00  0.00     0.069 A 
HETATM    8 CL2  UNL     1      19.033  -5.217  54.762  1.00  0.00    -0.081 Cl
ENDROOT
BRANCH   3   9
HETATM    9  C5  UNL     1      16.118  -1.445  51.028  1.00  0.00     0.048 A 
HETATM   10  C6  UNL     1      16.634  -0.323  50.457  1.00  0.00     0.055 A 
HETATM   11  C7  UNL     1      15.898   0.529  49.631  1.00  0.00     0.010 A 
HETATM   12  C8  UNL     1      16.512   1.744  49.034  1.00  0.00     0.068 C 
HETATM   13  N1  UNL     1      14.617   0.201  49.404  1.00  0.00    -0.334 N 
HETATM   14  C9  UNL     1      14.059  -0.901  49.945  1.00  0.00     0.193 A 
ATOM     15  H1  UNL     1      14.050   0.801  48.805  1.00  0.00     0.168 HD
HETATM   16  N2  UNL     1      12.692  -1.142  49.629  1.00  0.00    -0.063 NA
HETATM   17  N3  UNL     1      14.796  -1.670  50.717  1.00  0.00    -0.330 N 
ATOM     18  H3  UNL     1      14.354  -2.498  51.116  1.00  0.00     0.168 HD
ENDBRANCH   3   9
BRANCH   1  19
HETATM   19  O1  UNL     1      17.846  -2.616  55.402  1.00  0.00    -0.354 OA
HETATM   20  C1  UNL     1      16.893  -1.798  56.027  1.00  0.00     0.210 C 
ENDBRANCH   1  19
TORSDOF 2
ENDMDL
