MODEL 7
REMARK VINA RESULT: -7.408933304      3.395      6.252
REMARK  2 active torsions:
REMARK  status: ('A' for Active; 'I' for Inactive)
REMARK    1  A    between atoms: O1_2  and  C2_3 
REMARK    2  A    between atoms: C4_5  and  C5_6 
ROOT
HETATM    1  C5  UNL     1      13.328  -1.952  53.284  1.00  0.00     0.061 A 
HETATM    2  N1  UNL     1      12.043  -1.940  52.867  1.00  0.00    -0.345 N 
ATOM      3  H1  UNL     1      11.838  -2.270  51.923  1.00  0.00     0.167 HD
HETATM    4  C6  UNL     1      11.025  -1.517  53.628  1.00  0.00     0.079 A 
HETATM    5  C7  UNL     1       9.610  -1.526  53.110  1.00  0.00     0.089 C 
HETATM    6  N2  UNL     1      11.295  -1.084  54.867  1.00  0.00    -0.332 N 
ATOM      7  H2  UNL     1      10.527  -0.761  55.454  1.00  0.00     0.168 HD
HETATM    8  C8  UNL     1      12.552  -1.062  55.363  1.00  0.00     0.120 A 
HETATM    9  N3  UNL     1      13.108  -0.685  56.513  1.00  0.00    -0.350 N 
ATOM     10  H3  UNL     1      12.586  -0.312  57.306  1.00  0.00     0.166 HD
HETATM   11  C9  UNL     1      14.435  -0.855  56.500  1.00  0.00     0.113 A 
HETATM   12  C10 UNL     1      14.771  -1.381  55.250  1.00  0.00     0.076 A 
HETATM   13  C11 UNL     1      16.120  -1.689  54.818  1.00  0.00     0.102 C 
HETATM   14  N4  UNL     1      17.219  -1.912  54.484  1.00  0.00    -0.191 NA
HETATM   15  C12 UNL     1      13.612  -1.510  54.550  1.00  0.00     0.058 A 
ENDROOT
BRANCH   1  16
HETATM   16  C4  UNL     1      14.382  -2.418  52.410  1.00  0.00     0.016 A 
HETATM   17  C3  UNL     1      15.054  -1.608  51.520  1.00  0.00     0.054 A 
HETATM   18  C2  UNL     1      16.078  -2.164  50.787  1.00  0.00     0.090 A 
HETATM   19  C15 UNL     1      16.435  -3.516  50.933  1.00  0.00     0.069 A 
HETATM   20  C14 UNL     1      15.750  -4.286  51.820  1.00  0.00     0.051 A 
HETATM   21 CL2  UNL     1      17.764  -4.170  49.956  1.00  0.00    -0.081 Cl
HETATM   22  C13 UNL     1      14.730  -3.763  52.563  1.00  0.00     0.048 A 
HETATM   23 CL1  UNL     1      13.903  -4.824  53.677  1.00  0.00    -0.083 Cl
BRANCH  18  24
HETATM   24  O1  UNL     1      16.793  -1.430  49.884  1.00  0.00    -0.354 OA
HETATM   25  C1  UNL     1      17.045  -0.077  49.990  1.00  0.00     0.210 C 
ENDBRANCH  18  24
ENDBRANCH   1  16
TORSDOF 2
ENDMDL
