MODEL 8
REMARK VINA RESULT: -7.336615836      3.573      6.399
REMARK  2 active torsions:
REMARK  status: ('A' for Active; 'I' for Inactive)
REMARK    1  A    between atoms: O1_2  and  C2_3 
REMARK    2  A    between atoms: C4_5  and  C5_6 
ROOT
HETATM    1  C5  UNL     1      14.131  -1.764  53.965  1.00  0.00     0.061 A 
HETATM    2  N1  UNL     1      12.796  -1.595  53.835  1.00  0.00    -0.345 N 
ATOM      3  H1  UNL     1      12.360  -1.855  52.951  1.00  0.00     0.167 HD
HETATM    4  C6  UNL     1      12.018  -1.103  54.809  1.00  0.00     0.079 A 
HETATM    5  C7  UNL     1      10.533  -0.937  54.608  1.00  0.00     0.089 C 
HETATM    6  N2  UNL     1      12.591  -0.762  55.970  1.00  0.00    -0.332 N 
ATOM      7  H2  UNL     1      12.007  -0.388  56.717  1.00  0.00     0.168 HD
HETATM    8  C8  UNL     1      13.919  -0.898  56.184  1.00  0.00     0.120 A 
HETATM    9  N3  UNL     1      14.745  -0.638  57.196  1.00  0.00    -0.350 N 
ATOM     10  H3  UNL     1      14.449  -0.251  58.092  1.00  0.00     0.166 HD
HETATM   11  C9  UNL     1      16.010  -0.947  56.893  1.00  0.00     0.113 A 
HETATM   12  C10 UNL     1      16.012  -1.445  55.588  1.00  0.00     0.076 A 
HETATM   13  C11 UNL     1      17.196  -1.874  54.868  1.00  0.00     0.102 C 
HETATM   14  N4  UNL     1      18.166  -2.195  54.299  1.00  0.00    -0.191 NA
HETATM   15  C12 UNL     1      14.725  -1.416  55.151  1.00  0.00     0.058 A 
ENDROOT
BRANCH   1  16
HETATM   16  C4  UNL     1      14.915  -2.296  52.874  1.00  0.00     0.016 A 
HETATM   17  C3  UNL     1      15.507  -1.517  51.904  1.00  0.00     0.054 A 
HETATM   18  C2  UNL     1      16.278  -2.145  50.952  1.00  0.00     0.090 A 
HETATM   19  C15 UNL     1      16.462  -3.539  50.959  1.00  0.00     0.069 A 
HETATM   20  C14 UNL     1      15.862  -4.278  51.931  1.00  0.00     0.051 A 
HETATM   21 CL2  UNL     1      17.467  -4.285  49.701  1.00  0.00    -0.081 Cl
HETATM   22  C13 UNL     1      15.092  -3.683  52.890  1.00  0.00     0.048 A 
HETATM   23 CL1  UNL     1      14.358  -4.707  54.099  1.00  0.00    -0.083 Cl
BRANCH  18  24
HETATM   24  O1  UNL     1      16.899  -1.445  49.956  1.00  0.00    -0.354 OA
HETATM   25  C1  UNL     1      17.127  -0.083  49.974  1.00  0.00     0.210 C 
ENDBRANCH  18  24
ENDBRANCH   1  16
TORSDOF 2
ENDMDL
