MODEL 1
REMARK VINA RESULT: -8.622829917      0.000      0.000
REMARK  2 active torsions:
REMARK  status: ('A' for Active; 'I' for Inactive)
REMARK    1  A    between atoms: O1_2  and  C2_3 
REMARK    2  A    between atoms: C4_5  and  C5_6 
ROOT
HETATM    1  C5  UNL     1      15.158  -1.451  50.749  1.00  0.00     0.061 A 
HETATM    2  N1  UNL     1      15.825  -2.617  50.609  1.00  0.00    -0.345 N 
ATOM      3  H1  UNL     1      15.448  -3.448  51.065  1.00  0.00     0.167 HD
HETATM    4  C6  UNL     1      16.957  -2.739  49.901  1.00  0.00     0.079 A 
HETATM    5  C7  UNL     1      17.658  -4.067  49.778  1.00  0.00     0.089 C 
HETATM    6  N2  UNL     1      17.451  -1.648  49.301  1.00  0.00    -0.332 N 
ATOM      7  H2  UNL     1      18.311  -1.730  48.759  1.00  0.00     0.168 HD
HETATM    8  C8  UNL     1      16.848  -0.441  49.390  1.00  0.00     0.120 A 
HETATM    9  N3  UNL     1      17.106   0.781  48.930  1.00  0.00    -0.350 N 
ATOM     10  H3  UNL     1      17.911   1.016  48.348  1.00  0.00     0.166 HD
HETATM   11  C9  UNL     1      16.181   1.663  49.323  1.00  0.00     0.113 A 
HETATM   12  C10 UNL     1      15.250   0.967  50.097  1.00  0.00     0.076 A 
HETATM   13  C11 UNL     1      14.095   1.564  50.739  1.00  0.00     0.102 C 
HETATM   14  N4  UNL     1      13.181   2.072  51.263  1.00  0.00    -0.191 NA
HETATM   15  C12 UNL     1      15.660  -0.329  50.138  1.00  0.00     0.058 A 
ENDROOT
BRANCH   1  16
HETATM   16  C4  UNL     1      13.944  -1.386  51.530  1.00  0.00     0.016 A 
HETATM   17  C3  UNL     1      13.922  -1.279  52.904  1.00  0.00     0.054 A 
HETATM   18  C2  UNL     1      12.697  -1.167  53.523  1.00  0.00     0.090 A 
HETATM   19  C15 UNL     1      11.500  -1.161  52.787  1.00  0.00     0.069 A 
HETATM   20  C14 UNL     1      11.559  -1.269  51.432  1.00  0.00     0.051 A 
HETATM   21 CL2  UNL     1       9.955  -1.015  53.648  1.00  0.00    -0.081 Cl
HETATM   22  C13 UNL     1      12.759  -1.381  50.789  1.00  0.00     0.048 A 
HETATM   23 CL1  UNL     1      12.743  -1.516  49.048  1.00  0.00    -0.083 Cl
BRANCH  18  24
HETATM   24  O1  UNL     1      12.587  -1.057  54.881  1.00  0.00    -0.354 OA
HETATM   25  C1  UNL     1      13.627  -1.234  55.773  1.00  0.00     0.210 C 
ENDBRANCH  18  24
ENDBRANCH   1  16
TORSDOF 2
ENDMDL
