MODEL 9
REMARK VINA RESULT: -7.076379840      3.493      6.187
REMARK  2 active torsions:
REMARK  status: ('A' for Active; 'I' for Inactive)
REMARK    1  A    between atoms: O1_2  and  C2_3 
REMARK    2  A    between atoms: C4_5  and  C5_6 
ROOT
HETATM    1  C5  UNL     1      13.244  -2.064  53.509  1.00  0.00     0.061 A 
HETATM    2  N1  UNL     1      11.976  -2.062  53.041  1.00  0.00    -0.345 N 
ATOM      3  H1  UNL     1      11.798  -2.476  52.126  1.00  0.00     0.167 HD
HETATM    4  C6  UNL     1      10.942  -1.543  53.717  1.00  0.00     0.079 A 
HETATM    5  C7  UNL     1       9.548  -1.570  53.145  1.00  0.00     0.089 C 
HETATM    6  N2  UNL     1      11.177  -0.999  54.918  1.00  0.00    -0.332 N 
ATOM      7  H2  UNL     1      10.396  -0.602  55.440  1.00  0.00     0.168 HD
HETATM    8  C8  UNL     1      12.414  -0.958  55.461  1.00  0.00     0.120 A 
HETATM    9  N3  UNL     1      12.936  -0.485  56.590  1.00  0.00    -0.350 N 
ATOM     10  H3  UNL     1      12.394  -0.025  57.322  1.00  0.00     0.166 HD
HETATM   11  C9  UNL     1      14.256  -0.685  56.647  1.00  0.00     0.113 A 
HETATM   12  C10 UNL     1      14.626  -1.338  55.468  1.00  0.00     0.076 A 
HETATM   13  C11 UNL     1      15.982  -1.718  55.123  1.00  0.00     0.102 C 
HETATM   14  N4  UNL     1      17.086  -1.997  54.856  1.00  0.00    -0.191 NA
HETATM   15  C12 UNL     1      13.492  -1.507  54.738  1.00  0.00     0.058 A 
ENDROOT
BRANCH   1  16
HETATM   16  C4  UNL     1      14.317  -2.636  52.728  1.00  0.00     0.016 A 
HETATM   17  C3  UNL     1      14.790  -3.919  52.897  1.00  0.00     0.054 A 
HETATM   18  C2  UNL     1      15.778  -4.361  52.046  1.00  0.00     0.090 A 
HETATM   19  C15 UNL     1      16.296  -3.537  51.032  1.00  0.00     0.069 A 
HETATM   20  C14 UNL     1      15.807  -2.276  50.893  1.00  0.00     0.051 A 
HETATM   21 CL2  UNL     1      17.570  -4.170  49.971  1.00  0.00    -0.081 Cl
HETATM   22  C13 UNL     1      14.826  -1.809  51.722  1.00  0.00     0.048 A 
HETATM   23 CL1  UNL     1      14.257  -0.176  51.474  1.00  0.00    -0.083 Cl
BRANCH  18  24
HETATM   24  O1  UNL     1      16.300  -5.619  52.147  1.00  0.00    -0.354 OA
HETATM   25  C1  UNL     1      15.697  -6.673  52.805  1.00  0.00     0.210 C 
ENDBRANCH  18  24
ENDBRANCH   1  16
TORSDOF 2
ENDMDL
