MODEL 6
REMARK VINA RESULT: -7.322693861      3.574      6.368
REMARK  2 active torsions:
REMARK  status: ('A' for Active; 'I' for Inactive)
REMARK    1  A    between atoms: O1_2  and  C2_3 
REMARK    2  A    between atoms: C4_5  and  C5_6 
ROOT
HETATM    1  C5  UNL     1      13.386  -1.955  53.279  1.00  0.00     0.061 A 
HETATM    2  N1  UNL     1      12.097  -1.944  52.838  1.00  0.00    -0.345 N 
ATOM      3  H1  UNL     1      11.904  -2.301  51.902  1.00  0.00     0.167 HD
HETATM    4  C6  UNL     1      11.067  -1.491  53.567  1.00  0.00     0.079 A 
HETATM    5  C7  UNL     1       9.665  -1.501  53.031  1.00  0.00     0.089 C 
HETATM    6  N2  UNL     1      11.351  -1.028  54.791  1.00  0.00    -0.332 N 
ATOM      7  H2  UNL     1      10.579  -0.679  55.358  1.00  0.00     0.168 HD
HETATM    8  C8  UNL     1      12.584  -0.992  55.325  1.00  0.00     0.121 A 
HETATM    9  N3  UNL     1      13.076  -0.560  56.519  1.00  0.00    -0.344 N 
ATOM     10  H3  UNL     1      12.526  -0.163  57.281  1.00  0.00     0.167 HD
HETATM   11  C9  UNL     1      14.400  -0.744  56.529  1.00  0.00     0.028 A 
HETATM   12  C10 UNL     1      15.369  -0.419  57.631  1.00  0.00     0.070 C 
HETATM   13  C11 UNL     1      14.756  -1.312  55.298  1.00  0.00     0.083 A 
HETATM   14  C12 UNL     1      16.105  -1.633  54.928  1.00  0.00     0.102 C 
HETATM   15  N4  UNL     1      17.219  -1.876  54.644  1.00  0.00    -0.191 NA
HETATM   16  C13 UNL     1      13.627  -1.470  54.540  1.00  0.00     0.058 A 
ENDROOT
BRANCH   1  17
HETATM   17  C4  UNL     1      14.454  -2.470  52.410  1.00  0.00     0.016 A 
HETATM   18  C3  UNL     1      14.953  -3.743  52.595  1.00  0.00     0.054 A 
HETATM   19  C2  UNL     1      15.936  -4.303  51.788  1.00  0.00     0.090 A 
HETATM   20  C16 UNL     1      16.413  -3.516  50.761  1.00  0.00     0.069 A 
HETATM   21  C15 UNL     1      15.918  -2.247  50.573  1.00  0.00     0.051 A 
HETATM   22 CL2  UNL     1      17.656  -4.207  49.730  1.00  0.00    -0.081 Cl
HETATM   23  C14 UNL     1      14.945  -1.698  51.375  1.00  0.00     0.048 A 
HETATM   24 CL1  UNL     1      14.317  -0.084  51.132  1.00  0.00    -0.083 Cl
BRANCH  19  25
HETATM   25  O1  UNL     1      16.430  -5.595  51.993  1.00  0.00    -0.354 OA
HETATM   26  C1  UNL     1      17.115  -5.884  53.189  1.00  0.00     0.210 C 
ENDBRANCH  19  25
ENDBRANCH   1  17
TORSDOF 2
ENDMDL
