MODEL 1
REMARK VINA RESULT: -9.302839846      0.000      0.000
REMARK  2 active torsions:
REMARK  status: ('A' for Active; 'I' for Inactive)
REMARK    1  A    between atoms: O1_2  and  C2_3 
REMARK    2  A    between atoms: C4_5  and  C5_6 
ROOT
HETATM    1  C5  UNL     1      14.974  -1.404  50.635  1.00  0.00     0.061 A 
HETATM    2  N1  UNL     1      15.641  -2.590  50.562  1.00  0.00    -0.345 N 
ATOM      3  H1  UNL     1      15.243  -3.397  51.043  1.00  0.00     0.167 HD
HETATM    4  C6  UNL     1      16.792  -2.754  49.895  1.00  0.00     0.079 A 
HETATM    5  C7  UNL     1      17.486  -4.084  49.848  1.00  0.00     0.089 C 
HETATM    6  N2  UNL     1      17.290  -1.676  49.276  1.00  0.00    -0.332 N 
ATOM      7  H2  UNL     1      18.166  -1.785  48.764  1.00  0.00     0.168 HD
HETATM    8  C8  UNL     1      16.718  -0.461  49.283  1.00  0.00     0.121 A 
HETATM    9  N3  UNL     1      17.059   0.740  48.739  1.00  0.00    -0.344 N 
ATOM     10  H3  UNL     1      17.889   0.923  48.174  1.00  0.00     0.167 HD
HETATM   11  C9  UNL     1      16.129   1.641  49.069  1.00  0.00     0.028 A 
HETATM   12  C10 UNL     1      16.080   3.096  48.698  1.00  0.00     0.070 C 
HETATM   13  C11 UNL     1      15.165   0.986  49.848  1.00  0.00     0.083 A 
HETATM   14  C12 UNL     1      14.016   1.637  50.410  1.00  0.00     0.102 C 
HETATM   15  N4  UNL     1      13.090   2.196  50.869  1.00  0.00    -0.191 NA
HETATM   16  C13 UNL     1      15.525  -0.328  49.986  1.00  0.00     0.058 A 
ENDROOT
BRANCH   1  17
HETATM   17  C4  UNL     1      13.717  -1.314  51.393  1.00  0.00     0.016 A 
HETATM   18  C3  UNL     1      13.735  -1.233  52.770  1.00  0.00     0.054 A 
HETATM   19  C2  UNL     1      12.587  -1.111  53.542  1.00  0.00     0.090 A 
HETATM   20  C16 UNL     1      11.387  -1.071  52.863  1.00  0.00     0.069 A 
HETATM   21  C15 UNL     1      11.365  -1.151  51.490  1.00  0.00     0.051 A 
HETATM   22 CL2  UNL     1       9.925  -0.916  53.823  1.00  0.00    -0.081 Cl
HETATM   23  C14 UNL     1      12.505  -1.272  50.730  1.00  0.00     0.048 A 
HETATM   24 CL1  UNL     1      12.474  -1.372  48.985  1.00  0.00    -0.083 Cl
BRANCH  19  25
HETATM   25  O1  UNL     1      12.625  -1.032  54.938  1.00  0.00    -0.354 OA
HETATM   26  C1  UNL     1      13.862  -1.168  55.597  1.00  0.00     0.210 C 
ENDBRANCH  19  25
ENDBRANCH   1  17
TORSDOF 2
ENDMDL
