MODEL 5
REMARK VINA RESULT: -7.360009174      3.446      6.417
REMARK  2 active torsions:
REMARK  status: ('A' for Active; 'I' for Inactive)
REMARK    1  A    between atoms: O1_2  and  C2_3 
REMARK    2  A    between atoms: C4_5  and  C5_6 
ROOT
HETATM    1  C5  UNL     1      14.675  -1.606  54.444  1.00  0.00     0.061 A 
HETATM    2  N1  UNL     1      15.369  -1.357  55.590  1.00  0.00    -0.345 N 
ATOM      3  H1  UNL     1      16.375  -1.529  55.590  1.00  0.00     0.167 HD
HETATM    4  C6  UNL     1      14.804  -0.900  56.716  1.00  0.00     0.079 A 
HETATM    5  C7  UNL     1      15.618  -0.644  57.950  1.00  0.00     0.089 C 
HETATM    6  N2  UNL     1      13.483  -0.685  56.684  1.00  0.00    -0.332 N 
ATOM      7  H2  UNL     1      13.038  -0.337  57.533  1.00  0.00     0.168 HD
HETATM    8  C8  UNL     1      12.702  -0.897  55.612  1.00  0.00     0.121 A 
HETATM    9  N3  UNL     1      11.367  -0.756  55.381  1.00  0.00    -0.344 N 
ATOM     10  H3  UNL     1      10.678  -0.424  56.057  1.00  0.00     0.167 HD
HETATM   11  C9  UNL     1      11.108  -1.125  54.124  1.00  0.00     0.028 A 
HETATM   12  C10 UNL     1       9.779  -1.139  53.421  1.00  0.00     0.070 C 
HETATM   13  C11 UNL     1      12.321  -1.512  53.538  1.00  0.00     0.083 A 
HETATM   14  C12 UNL     1      12.440  -1.996  52.192  1.00  0.00     0.102 C 
HETATM   15  N4  UNL     1      12.509  -2.400  51.091  1.00  0.00    -0.191 NA
HETATM   16  C13 UNL     1      13.323  -1.372  54.462  1.00  0.00     0.058 A 
ENDROOT
BRANCH   1  17
HETATM   17  C4  UNL     1      15.376  -2.110  53.255  1.00  0.00     0.016 A 
HETATM   18  C3  UNL     1      15.951  -1.233  52.358  1.00  0.00     0.054 A 
HETATM   19  C2  UNL     1      16.657  -1.643  51.234  1.00  0.00     0.090 A 
HETATM   20  C16 UNL     1      16.770  -3.003  51.039  1.00  0.00     0.069 A 
HETATM   21  C15 UNL     1      16.199  -3.881  51.930  1.00  0.00     0.051 A 
HETATM   22 CL2  UNL     1      17.660  -3.541  49.623  1.00  0.00    -0.081 Cl
HETATM   23  C14 UNL     1      15.500  -3.469  53.041  1.00  0.00     0.048 A 
HETATM   24 CL1  UNL     1      14.777  -4.589  54.173  1.00  0.00    -0.083 Cl
BRANCH  19  25
HETATM   25  O1  UNL     1      17.231  -0.738  50.336  1.00  0.00    -0.354 OA
HETATM   26  C1  UNL     1      16.411   0.224  49.716  1.00  0.00     0.210 C 
ENDBRANCH  19  25
ENDBRANCH   1  17
TORSDOF 2
ENDMDL
