MODEL 3
REMARK VINA RESULT: -7.641414952      3.453      6.506
REMARK  2 active torsions:
REMARK  status: ('A' for Active; 'I' for Inactive)
REMARK    1  A    between atoms: O1_2  and  C2_3 
REMARK    2  A    between atoms: C4_5  and  C5_6 
ROOT
HETATM    1  C5  UNL     1      13.407  -1.968  53.291  1.00  0.00     0.061 A 
HETATM    2  N1  UNL     1      12.115  -1.924  52.863  1.00  0.00    -0.345 N 
ATOM      3  H1  UNL     1      11.904  -2.277  51.929  1.00  0.00     0.167 HD
HETATM    4  C6  UNL     1      11.104  -1.442  53.600  1.00  0.00     0.079 A 
HETATM    5  C7  UNL     1       9.698  -1.416  53.077  1.00  0.00     0.089 C 
HETATM    6  N2  UNL     1      11.412  -0.985  54.820  1.00  0.00    -0.332 N 
ATOM      7  H2  UNL     1      10.654  -0.614  55.393  1.00  0.00     0.168 HD
HETATM    8  C8  UNL     1      12.650  -0.979  55.342  1.00  0.00     0.121 A 
HETATM    9  N3  UNL     1      13.165  -0.558  56.531  1.00  0.00    -0.344 N 
ATOM     10  H3  UNL     1      12.633  -0.144  57.296  1.00  0.00     0.167 HD
HETATM   11  C9  UNL     1      14.483  -0.776  56.529  1.00  0.00     0.028 A 
HETATM   12  C10 UNL     1      15.471  -0.475  57.621  1.00  0.00     0.070 C 
HETATM   13  C11 UNL     1      14.813  -1.356  55.296  1.00  0.00     0.083 A 
HETATM   14  C12 UNL     1      16.150  -1.714  54.914  1.00  0.00     0.102 C 
HETATM   15  N4  UNL     1      17.254  -1.987  54.620  1.00  0.00    -0.191 NA
HETATM   16  C13 UNL     1      13.673  -1.487  54.548  1.00  0.00     0.058 A 
ENDROOT
BRANCH   1  17
HETATM   17  C4  UNL     1      14.453  -2.513  52.414  1.00  0.00     0.016 A 
HETATM   18  C3  UNL     1      15.093  -1.701  51.501  1.00  0.00     0.054 A 
HETATM   19  C2  UNL     1      16.113  -2.144  50.668  1.00  0.00     0.090 A 
HETATM   20  C16 UNL     1      16.478  -3.468  50.789  1.00  0.00     0.069 A 
HETATM   21  C15 UNL     1      15.843  -4.281  51.699  1.00  0.00     0.051 A 
HETATM   22 CL2  UNL     1      17.766  -4.046  49.744  1.00  0.00    -0.081 Cl
HETATM   23  C14 UNL     1      14.833  -3.837  52.521  1.00  0.00     0.048 A 
HETATM   24 CL1  UNL     1      14.029  -4.874  53.677  1.00  0.00    -0.083 Cl
BRANCH  19  25
HETATM   25  O1  UNL     1      16.749  -1.305  49.747  1.00  0.00    -0.354 OA
HETATM   26  C1  UNL     1      16.611   0.090  49.884  1.00  0.00     0.210 C 
ENDBRANCH  19  25
ENDBRANCH   1  17
TORSDOF 2
ENDMDL
