MODEL 8
REMARK VINA RESULT: -8.138686992      1.157      1.279
REMARK  5 active torsions:
REMARK  status: ('A' for Active; 'I' for Inactive)
REMARK    1  A    between atoms: C2_5  and  N3_6 
REMARK    2  A    between atoms: N4_9  and  C5_10 
REMARK    3  A    between atoms: C5_10  and  C6_11 
REMARK    4  A    between atoms: C6_11  and  O1_12 
REMARK    5  A    between atoms: O1_12  and  C7_13 
ROOT
HETATM    1  N3  UNL     1      -0.574   1.576 -17.530  1.00  0.00    -0.213 N 
HETATM    2  C3  UNL     1       0.490   2.143 -18.332  1.00  0.00     0.171 C 
HETATM    3  C4  UNL     1       1.817   2.105 -17.645  1.00  0.00     0.293 C 
HETATM    4  N4  UNL     1       1.773   2.372 -16.245  1.00  0.00     0.093 N 
HETATM    5  C13 UNL     1       0.792   1.591 -15.528  1.00  0.00     0.293 C 
HETATM    6  C14 UNL     1      -0.589   1.795 -16.118  1.00  0.00     0.171 C 
ENDROOT
BRANCH   4   7
HETATM    7  C5  UNL     1       1.550   3.760 -15.913  1.00  0.00     0.299 C 
BRANCH   7   8
HETATM    8  C6  UNL     1       1.902   3.977 -14.458  1.00  0.00     0.206 C 
BRANCH   8   9
HETATM    9  O1  UNL     1       1.397   5.214 -14.022  1.00  0.00    -0.349 OA
BRANCH   9  10
HETATM   10  C7  UNL     1       1.808   6.425 -14.565  1.00  0.00     0.068 A 
HETATM   11  C8  UNL     1       3.149   6.733 -14.689  1.00  0.00     0.038 A 
HETATM   12  C9  UNL     1       3.573   7.935 -15.227  1.00  0.00     0.022 A 
HETATM   13  C10 UNL     1       2.660   8.878 -15.662  1.00  0.00     0.011 A 
HETATM   14 BR1  UNL     1       3.263  10.537 -16.405  1.00  0.00    -0.051 Br
HETATM   15  C11 UNL     1       1.322   8.573 -15.538  1.00  0.00     0.022 A 
HETATM   16  C12 UNL     1       0.892   7.362 -14.996  1.00  0.00     0.038 A 
ENDBRANCH   9  10
ENDBRANCH   8   9
ENDBRANCH   7   8
ENDBRANCH   4   7
BRANCH   1  17
HETATM   17  C2  UNL     1      -1.597   0.808 -18.153  1.00  0.00     0.697 A 
HETATM   18  N2  UNL     1      -1.934   0.760 -19.454  1.00  0.00    -0.161 N 
HETATM   19  C1  UNL     1      -2.961  -0.094 -19.644  1.00  0.00     0.222 A 
ATOM     20  H2  UNL     1      -1.477   1.295 -20.194  1.00  0.00     0.187 HD
HETATM   21  N1  UNL     1      -3.627  -0.446 -20.846  1.00  0.00    -0.061 NA
HETATM   22  N6  UNL     1      -3.249  -0.572 -18.423  1.00  0.00    -0.259 N 
HETATM   23  N5  UNL     1      -2.440  -0.041 -17.527  1.00  0.00    -0.130 N 
ATOM     24  H6  UNL     1      -3.986  -1.247 -18.219  1.00  0.00     0.190 HD
ATOM     25  H5  UNL     1      -2.450  -0.238 -16.526  1.00  0.00     0.205 HD
ENDBRANCH   1  17
TORSDOF 5
ENDMDL
