MODEL 3
REMARK VINA RESULT: -8.747245907      0.940      1.319
REMARK  5 active torsions:
REMARK  status: ('A' for Active; 'I' for Inactive)
REMARK    1  A    between atoms: C2_5  and  N3_6 
REMARK    2  A    between atoms: N4_9  and  C5_10 
REMARK    3  A    between atoms: C5_10  and  C6_11 
REMARK    4  A    between atoms: C6_11  and  O1_12 
REMARK    5  A    between atoms: O1_12  and  C7_13 
ROOT
HETATM    1  N3  UNL     1       0.146   0.809 -17.323  1.00  0.00    -0.213 N 
HETATM    2  C3  UNL     1       1.205  -0.179 -17.298  1.00  0.00     0.171 C 
HETATM    3  C4  UNL     1       2.027  -0.117 -16.051  1.00  0.00     0.293 C 
HETATM    4  N4  UNL     1       2.282   1.200 -15.568  1.00  0.00     0.093 N 
HETATM    5  C13 UNL     1       1.101   2.025 -15.456  1.00  0.00     0.293 C 
HETATM    6  C14 UNL     1       0.382   2.113 -16.788  1.00  0.00     0.171 C 
ENDROOT
BRANCH   4   7
HETATM    7  C5  UNL     1       3.254   1.937 -16.342  1.00  0.00     0.299 C 
BRANCH   7   8
HETATM    8  C6  UNL     1       3.501   3.271 -15.673  1.00  0.00     0.206 C 
BRANCH   8   9
HETATM    9  O1  UNL     1       3.426   4.304 -16.622  1.00  0.00    -0.349 OA
BRANCH   9  10
HETATM   10  C7  UNL     1       3.223   5.634 -16.270  1.00  0.00     0.068 A 
HETATM   11  C8  UNL     1       3.079   6.007 -14.948  1.00  0.00     0.038 A 
HETATM   12  C9  UNL     1       2.877   7.326 -14.582  1.00  0.00     0.022 A 
HETATM   13  C10 UNL     1       2.810   8.323 -15.537  1.00  0.00     0.011 A 
HETATM   14 BR1  UNL     1       2.529  10.145 -15.015  1.00  0.00    -0.051 Br
HETATM   15  C11 UNL     1       2.952   7.953 -16.856  1.00  0.00     0.022 A 
HETATM   16  C12 UNL     1       3.156   6.624 -17.228  1.00  0.00     0.038 A 
ENDBRANCH   9  10
ENDBRANCH   8   9
ENDBRANCH   7   8
ENDBRANCH   4   7
BRANCH   1  17
HETATM   17  C2  UNL     1      -1.120   0.475 -17.881  1.00  0.00     0.697 A 
HETATM   18  N2  UNL     1      -1.482   0.443 -19.176  1.00  0.00    -0.161 N 
HETATM   19  C1  UNL     1      -2.775   0.075 -19.293  1.00  0.00     0.222 A 
ATOM     20  H2  UNL     1      -0.866   0.665 -19.958  1.00  0.00     0.187 HD
HETATM   21  N1  UNL     1      -3.560  -0.086 -20.464  1.00  0.00    -0.061 NA
HETATM   22  N6  UNL     1      -3.201  -0.118 -18.036  1.00  0.00    -0.259 N 
HETATM   23  N5  UNL     1      -2.220   0.117 -17.185  1.00  0.00    -0.130 N 
ATOM     24  H6  UNL     1      -4.145  -0.404 -17.775  1.00  0.00     0.190 HD
ATOM     25  H5  UNL     1      -2.282   0.042 -16.170  1.00  0.00     0.205 HD
ENDBRANCH   1  17
TORSDOF 5
ENDMDL
