MODEL 1
REMARK VINA RESULT: -8.857298845      0.000      0.000
REMARK  5 active torsions:
REMARK  status: ('A' for Active; 'I' for Inactive)
REMARK    1  A    between atoms: C2_5  and  N3_6 
REMARK    2  A    between atoms: N4_9  and  C5_10 
REMARK    3  A    between atoms: C5_10  and  C6_11 
REMARK    4  A    between atoms: C6_11  and  O1_12 
REMARK    5  A    between atoms: O1_12  and  C7_13 
ROOT
HETATM    1  N3  UNL     1      -0.066   1.141 -17.195  1.00  0.00    -0.213 N 
HETATM    2  C3  UNL     1       0.552   2.359 -17.677  1.00  0.00     0.171 C 
HETATM    3  C4  UNL     1       2.045   2.300 -17.658  1.00  0.00     0.293 C 
HETATM    4  N4  UNL     1       2.602   1.627 -16.530  1.00  0.00     0.093 N 
HETATM    5  C13 UNL     1       2.024   0.328 -16.276  1.00  0.00     0.293 C 
HETATM    6  C14 UNL     1       0.523   0.435 -16.101  1.00  0.00     0.171 C 
ENDROOT
BRANCH   4   7
HETATM    7  C5  UNL     1       2.535   2.380 -15.300  1.00  0.00     0.299 C 
BRANCH   7   8
HETATM    8  C6  UNL     1       3.193   3.726 -15.515  1.00  0.00     0.206 C 
BRANCH   8   9
HETATM    9  O1  UNL     1       2.268   4.756 -15.271  1.00  0.00    -0.349 OA
BRANCH   9  10
HETATM   10  C7  UNL     1       2.534   6.088 -15.566  1.00  0.00     0.068 A 
HETATM   11  C8  UNL     1       2.616   7.037 -14.565  1.00  0.00     0.038 A 
HETATM   12  C9  UNL     1       2.879   8.367 -14.844  1.00  0.00     0.022 A 
HETATM   13  C10 UNL     1       3.070   8.794 -16.144  1.00  0.00     0.011 A 
HETATM   14 BR1  UNL     1       3.434  10.638 -16.514  1.00  0.00    -0.051 Br
HETATM   15  C11 UNL     1       2.988   7.849 -17.144  1.00  0.00     0.022 A 
HETATM   16  C12 UNL     1       2.722   6.508 -16.866  1.00  0.00     0.038 A 
ENDBRANCH   9  10
ENDBRANCH   8   9
ENDBRANCH   7   8
ENDBRANCH   4   7
BRANCH   1  17
HETATM   17  C2  UNL     1      -1.253   0.657 -17.813  1.00  0.00     0.697 A 
HETATM   18  N2  UNL     1      -1.543   0.580 -19.124  1.00  0.00    -0.161 N 
HETATM   19  C1  UNL     1      -2.776   0.061 -19.303  1.00  0.00     0.222 A 
ATOM     20  H2  UNL     1      -0.919   0.873 -19.876  1.00  0.00     0.187 HD
HETATM   21  N1  UNL     1      -3.476  -0.195 -20.511  1.00  0.00    -0.061 NA
HETATM   22  N6  UNL     1      -3.239  -0.179 -18.067  1.00  0.00    -0.259 N 
HETATM   23  N5  UNL     1      -2.337   0.173 -17.170  1.00  0.00    -0.130 N 
ATOM     24  H6  UNL     1      -4.154  -0.575 -17.851  1.00  0.00     0.190 HD
ATOM     25  H5  UNL     1      -2.441   0.092 -16.159  1.00  0.00     0.205 HD
ENDBRANCH   1  17
TORSDOF 5
ENDMDL
