MODEL 6
REMARK VINA RESULT: -8.282485855      4.050      5.637
REMARK  5 active torsions:
REMARK  status: ('A' for Active; 'I' for Inactive)
REMARK    1  A    between atoms: C2_5  and  N3_6 
REMARK    2  A    between atoms: N4_9  and  C5_10 
REMARK    3  A    between atoms: C5_10  and  C6_11 
REMARK    4  A    between atoms: C6_11  and  O1_12 
REMARK    5  A    between atoms: O1_12  and  C7_13 
ROOT
HETATM    1  N3  UNL     1       0.038   1.549 -17.360  1.00  0.00    -0.213 N 
HETATM    2  C3  UNL     1       0.159   1.796 -15.938  1.00  0.00     0.171 C 
HETATM    3  C4  UNL     1       0.823   3.099 -15.630  1.00  0.00     0.293 C 
HETATM    4  N4  UNL     1       1.903   3.439 -16.498  1.00  0.00     0.093 N 
HETATM    5  C13 UNL     1       1.583   3.336 -17.903  1.00  0.00     0.293 C 
HETATM    6  C14 UNL     1       1.095   1.941 -18.238  1.00  0.00     0.171 C 
ENDROOT
BRANCH   4   7
HETATM    7  C5  UNL     1       3.109   2.677 -16.269  1.00  0.00     0.299 C 
BRANCH   7   8
HETATM    8  C6  UNL     1       3.315   2.526 -14.778  1.00  0.00     0.206 C 
BRANCH   8   9
HETATM    9  O1  UNL     1       3.302   1.165 -14.427  1.00  0.00    -0.349 OA
BRANCH   9  10
HETATM   10  C7  UNL     1       3.884   0.181 -15.218  1.00  0.00     0.068 A 
HETATM   11  C8  UNL     1       5.208  -0.174 -15.054  1.00  0.00     0.038 A 
HETATM   12  C9  UNL     1       5.801  -1.153 -15.833  1.00  0.00     0.022 A 
HETATM   13  C10 UNL     1       5.081  -1.811 -16.812  1.00  0.00     0.011 A 
HETATM   14 BR1  UNL     1       5.915  -3.162 -17.883  1.00  0.00    -0.051 Br
HETATM   15  C11 UNL     1       3.760  -1.457 -16.978  1.00  0.00     0.022 A 
HETATM   16  C12 UNL     1       3.160  -0.471 -16.194  1.00  0.00     0.038 A 
ENDBRANCH   9  10
ENDBRANCH   8   9
ENDBRANCH   7   8
ENDBRANCH   4   7
BRANCH   1  17
HETATM   17  C2  UNL     1      -1.131   0.918 -17.871  1.00  0.00     0.697 A 
HETATM   18  N2  UNL     1      -1.506   0.764 -19.153  1.00  0.00    -0.161 N 
HETATM   19  C1  UNL     1      -2.684   0.108 -19.223  1.00  0.00     0.222 A 
ATOM     20  H2  UNL     1      -0.976   1.096 -19.959  1.00  0.00     0.187 HD
HETATM   21  N1  UNL     1      -3.438  -0.264 -20.366  1.00  0.00    -0.061 NA
HETATM   22  N6  UNL     1      -3.025  -0.137 -17.949  1.00  0.00    -0.259 N 
HETATM   23  N5  UNL     1      -2.104   0.341 -17.134  1.00  0.00    -0.130 N 
ATOM     24  H6  UNL     1      -3.872  -0.622 -17.653  1.00  0.00     0.190 HD
ATOM     25  H5  UNL     1      -2.124   0.285 -16.116  1.00  0.00     0.205 HD
ENDBRANCH   1  17
TORSDOF 5
ENDMDL
