MODEL 4
REMARK VINA RESULT: -8.457362491      1.165      1.629
REMARK  5 active torsions:
REMARK  status: ('A' for Active; 'I' for Inactive)
REMARK    1  A    between atoms: C2_5  and  N3_6 
REMARK    2  A    between atoms: N4_9  and  C5_10 
REMARK    3  A    between atoms: C5_10  and  C6_11 
REMARK    4  A    between atoms: C6_11  and  O1_12 
REMARK    5  A    between atoms: O1_12  and  C7_13 
ROOT
HETATM    1  N3  UNL     1      -0.756   0.968 -17.230  1.00  0.00    -0.213 N 
HETATM    2  C3  UNL     1      -0.902   0.978 -15.789  1.00  0.00     0.171 C 
HETATM    3  C4  UNL     1      -0.306   2.193 -15.154  1.00  0.00     0.293 C 
HETATM    4  N4  UNL     1       0.916   2.636 -15.741  1.00  0.00     0.093 N 
HETATM    5  C13 UNL     1       0.863   2.771 -17.178  1.00  0.00     0.293 C 
HETATM    6  C14 UNL     1       0.446   1.464 -17.823  1.00  0.00     0.171 C 
ENDROOT
BRANCH   4   7
HETATM    7  C5  UNL     1       2.058   1.811 -15.423  1.00  0.00     0.299 C 
BRANCH   7   8
HETATM    8  C6  UNL     1       3.105   2.667 -14.744  1.00  0.00     0.206 C 
BRANCH   8   9
HETATM    9  O1  UNL     1       3.739   3.490 -15.690  1.00  0.00    -0.349 OA
BRANCH   9  10
HETATM   10  C7  UNL     1       3.524   4.862 -15.755  1.00  0.00     0.068 A 
HETATM   11  C8  UNL     1       3.378   5.616 -14.607  1.00  0.00     0.038 A 
HETATM   12  C9  UNL     1       3.164   6.982 -14.656  1.00  0.00     0.022 A 
HETATM   13  C10 UNL     1       3.087   7.644 -15.867  1.00  0.00     0.011 A 
HETATM   14 BR1  UNL     1       2.789   9.536 -15.919  1.00  0.00    -0.051 Br
HETATM   15  C11 UNL     1       3.231   6.893 -17.014  1.00  0.00     0.022 A 
HETATM   16  C12 UNL     1       3.448   5.516 -16.967  1.00  0.00     0.038 A 
ENDBRANCH   9  10
ENDBRANCH   8   9
ENDBRANCH   7   8
ENDBRANCH   4   7
BRANCH   1  17
HETATM   17  C2  UNL     1      -1.809   0.463 -18.044  1.00  0.00     0.697 A 
HETATM   18  N2  UNL     1      -1.919   0.494 -19.384  1.00  0.00    -0.161 N 
HETATM   19  C1  UNL     1      -3.071  -0.092 -19.774  1.00  0.00     0.222 A 
ATOM     20  H2  UNL     1      -1.230   0.903 -20.016  1.00  0.00     0.187 HD
HETATM   21  N1  UNL     1      -3.585  -0.277 -21.084  1.00  0.00    -0.061 NA
HETATM   22  N6  UNL     1      -3.668  -0.483 -18.638  1.00  0.00    -0.259 N 
HETATM   23  N5  UNL     1      -2.922  -0.158 -17.600  1.00  0.00    -0.130 N 
ATOM     24  H6  UNL     1      -4.567  -0.963 -18.585  1.00  0.00     0.190 HD
ATOM     25  H5  UNL     1      -3.149  -0.344 -16.623  1.00  0.00     0.205 HD
ENDBRANCH   1  17
TORSDOF 5
ENDMDL
