MODEL 5
REMARK VINA RESULT: -8.286487994      4.040      5.657
REMARK  5 active torsions:
REMARK  status: ('A' for Active; 'I' for Inactive)
REMARK    1  A    between atoms: C2_5  and  N3_6 
REMARK    2  A    between atoms: N4_9  and  C5_10 
REMARK    3  A    between atoms: C5_10  and  C6_11 
REMARK    4  A    between atoms: C6_11  and  O1_12 
REMARK    5  A    between atoms: O1_12  and  C7_13 
ROOT
HETATM    1  N3  UNL     1       0.030   1.561 -17.375  1.00  0.00    -0.213 N 
HETATM    2  C3  UNL     1       0.135   1.845 -15.958  1.00  0.00     0.171 C 
HETATM    3  C4  UNL     1       0.803   3.152 -15.676  1.00  0.00     0.293 C 
HETATM    4  N4  UNL     1       1.895   3.464 -16.539  1.00  0.00     0.093 N 
HETATM    5  C13 UNL     1       1.592   3.325 -17.945  1.00  0.00     0.293 C 
HETATM    6  C14 UNL     1       1.100   1.925 -18.250  1.00  0.00     0.171 C 
ENDROOT
BRANCH   4   7
HETATM    7  C5  UNL     1       3.093   2.703 -16.276  1.00  0.00     0.299 C 
BRANCH   7   8
HETATM    8  C6  UNL     1       3.257   2.550 -14.779  1.00  0.00     0.206 C 
BRANCH   8   9
HETATM    9  O1  UNL     1       3.247   1.189 -14.432  1.00  0.00    -0.349 OA
BRANCH   9  10
HETATM   10  C7  UNL     1       3.848   0.210 -15.215  1.00  0.00     0.068 A 
HETATM   11  C8  UNL     1       3.135  -0.458 -16.191  1.00  0.00     0.038 A 
HETATM   12  C9  UNL     1       3.720  -1.434 -16.979  1.00  0.00     0.022 A 
HETATM   13  C10 UNL     1       5.048  -1.777 -16.812  1.00  0.00     0.011 A 
HETATM   14 BR1  UNL     1       5.843  -3.131 -17.910  1.00  0.00    -0.051 Br
HETATM   15  C11 UNL     1       5.761  -1.112 -15.838  1.00  0.00     0.022 A 
HETATM   16  C12 UNL     1       5.174  -0.127 -15.043  1.00  0.00     0.038 A 
ENDBRANCH   9  10
ENDBRANCH   8   9
ENDBRANCH   7   8
ENDBRANCH   4   7
BRANCH   1  17
HETATM   17  C2  UNL     1      -1.136   0.923 -17.883  1.00  0.00     0.697 A 
HETATM   18  N2  UNL     1      -1.515   0.771 -19.165  1.00  0.00    -0.161 N 
HETATM   19  C1  UNL     1      -2.687   0.106 -19.232  1.00  0.00     0.222 A 
ATOM     20  H2  UNL     1      -0.991   1.111 -19.971  1.00  0.00     0.187 HD
HETATM   21  N1  UNL     1      -3.444  -0.268 -20.373  1.00  0.00    -0.061 NA
HETATM   22  N6  UNL     1      -3.021  -0.148 -17.957  1.00  0.00    -0.259 N 
HETATM   23  N5  UNL     1      -2.100   0.335 -17.145  1.00  0.00    -0.130 N 
ATOM     24  H6  UNL     1      -3.863  -0.641 -17.660  1.00  0.00     0.190 HD
ATOM     25  H5  UNL     1      -2.115   0.275 -16.127  1.00  0.00     0.205 HD
ENDBRANCH   1  17
TORSDOF 5
ENDMDL
