MODEL 2
REMARK VINA RESULT: -8.838568319      0.025      1.007
REMARK  5 active torsions:
REMARK  status: ('A' for Active; 'I' for Inactive)
REMARK    1  A    between atoms: C2_5  and  N3_6 
REMARK    2  A    between atoms: N4_9  and  C5_10 
REMARK    3  A    between atoms: C5_10  and  C6_11 
REMARK    4  A    between atoms: C6_11  and  O1_12 
REMARK    5  A    between atoms: O1_12  and  C7_13 
ROOT
HETATM    1  N3  UNL     1      -0.050   1.145 -17.191  1.00  0.00    -0.213 N 
HETATM    2  C3  UNL     1       0.552   2.376 -17.660  1.00  0.00     0.171 C 
HETATM    3  C4  UNL     1       2.047   2.329 -17.656  1.00  0.00     0.293 C 
HETATM    4  N4  UNL     1       2.620   1.643 -16.545  1.00  0.00     0.093 N 
HETATM    5  C13 UNL     1       2.056   0.334 -16.307  1.00  0.00     0.293 C 
HETATM    6  C14 UNL     1       0.556   0.426 -16.115  1.00  0.00     0.171 C 
ENDROOT
BRANCH   4   7
HETATM    7  C5  UNL     1       2.560   2.375 -15.302  1.00  0.00     0.299 C 
BRANCH   7   8
HETATM    8  C6  UNL     1       3.207   3.729 -15.500  1.00  0.00     0.206 C 
BRANCH   8   9
HETATM    9  O1  UNL     1       2.266   4.748 -15.280  1.00  0.00    -0.349 OA
BRANCH   9  10
HETATM   10  C7  UNL     1       2.531   6.085 -15.549  1.00  0.00     0.068 A 
HETATM   11  C8  UNL     1       2.724   6.527 -16.844  1.00  0.00     0.038 A 
HETATM   12  C9  UNL     1       2.989   7.855 -17.128  1.00  0.00     0.022 A 
HETATM   13  C10 UNL     1       3.070   8.793 -16.116  1.00  0.00     0.011 A 
HETATM   14 BR1  UNL     1       3.436  10.628 -16.524  1.00  0.00    -0.051 Br
HETATM   15  C11 UNL     1       2.877   8.354 -14.824  1.00  0.00     0.022 A 
HETATM   16  C12 UNL     1       2.611   7.016 -14.535  1.00  0.00     0.038 A 
ENDBRANCH   9  10
ENDBRANCH   8   9
ENDBRANCH   7   8
ENDBRANCH   4   7
BRANCH   1  17
HETATM   17  C2  UNL     1      -1.240   0.661 -17.805  1.00  0.00     0.697 A 
HETATM   18  N2  UNL     1      -1.533   0.582 -19.115  1.00  0.00    -0.161 N 
HETATM   19  C1  UNL     1      -2.766   0.063 -19.290  1.00  0.00     0.222 A 
ATOM     20  H2  UNL     1      -0.910   0.872 -19.870  1.00  0.00     0.187 HD
HETATM   21  N1  UNL     1      -3.470  -0.194 -20.496  1.00  0.00    -0.061 NA
HETATM   22  N6  UNL     1      -3.226  -0.173 -18.052  1.00  0.00    -0.259 N 
HETATM   23  N5  UNL     1      -2.322   0.179 -17.159  1.00  0.00    -0.130 N 
ATOM     24  H6  UNL     1      -4.142  -0.568 -17.834  1.00  0.00     0.190 HD
ATOM     25  H5  UNL     1      -2.424   0.101 -16.147  1.00  0.00     0.205 HD
ENDBRANCH   1  17
TORSDOF 5
ENDMDL
