MODEL 7
REMARK VINA RESULT: -8.147809575      4.211      6.055
REMARK  5 active torsions:
REMARK  status: ('A' for Active; 'I' for Inactive)
REMARK    1  A    between atoms: C2_5  and  N3_6 
REMARK    2  A    between atoms: N4_9  and  C5_10 
REMARK    3  A    between atoms: C5_10  and  C6_11 
REMARK    4  A    between atoms: C6_11  and  O1_12 
REMARK    5  A    between atoms: O1_12  and  C7_13 
ROOT
HETATM    1  N3  UNL     1       0.021   1.176 -17.302  1.00  0.00    -0.213 N 
HETATM    2  C3  UNL     1       0.392   0.762 -15.965  1.00  0.00     0.171 C 
HETATM    3  C4  UNL     1       1.029   1.859 -15.174  1.00  0.00     0.293 C 
HETATM    4  N4  UNL     1       1.907   2.701 -15.920  1.00  0.00     0.093 N 
HETATM    5  C13 UNL     1       1.336   3.206 -17.147  1.00  0.00     0.293 C 
HETATM    6  C14 UNL     1       0.871   2.065 -18.030  1.00  0.00     0.171 C 
ENDROOT
BRANCH   4   7
HETATM    7  C5  UNL     1       3.174   2.092 -16.248  1.00  0.00     0.299 C 
BRANCH   7   8
HETATM    8  C6  UNL     1       3.857   1.664 -14.968  1.00  0.00     0.206 C 
BRANCH   8   9
HETATM    9  O1  UNL     1       3.888   0.262 -14.886  1.00  0.00    -0.349 OA
BRANCH   9  10
HETATM   10  C7  UNL     1       4.904  -0.501 -15.450  1.00  0.00     0.068 A 
HETATM   11  C8  UNL     1       6.179  -0.494 -14.919  1.00  0.00     0.038 A 
HETATM   12  C9  UNL     1       7.201  -1.248 -15.469  1.00  0.00     0.022 A 
HETATM   13  C10 UNL     1       6.977  -2.039 -16.580  1.00  0.00     0.011 A 
HETATM   14 BR1  UNL     1       8.402  -3.077 -17.331  1.00  0.00    -0.051 Br
HETATM   15  C11 UNL     1       5.707  -2.047 -17.112  1.00  0.00     0.022 A 
HETATM   16  C12 UNL     1       4.675  -1.288 -16.559  1.00  0.00     0.038 A 
ENDBRANCH   9  10
ENDBRANCH   8   9
ENDBRANCH   7   8
ENDBRANCH   4   7
BRANCH   1  17
HETATM   17  C2  UNL     1      -1.186   0.693 -17.882  1.00  0.00     0.697 A 
HETATM   18  N2  UNL     1      -1.511   0.600 -19.184  1.00  0.00    -0.161 N 
HETATM   19  C1  UNL     1      -2.752   0.089 -19.324  1.00  0.00     0.222 A 
ATOM     20  H2  UNL     1      -0.904   0.877 -19.957  1.00  0.00     0.187 HD
HETATM   21  N1  UNL     1      -3.485  -0.177 -20.509  1.00  0.00    -0.061 NA
HETATM   22  N6  UNL     1      -3.184  -0.130 -18.072  1.00  0.00    -0.259 N 
HETATM   23  N5  UNL     1      -2.256   0.227 -17.205  1.00  0.00    -0.130 N 
ATOM     24  H6  UNL     1      -4.097  -0.515 -17.828  1.00  0.00     0.190 HD
ATOM     25  H5  UNL     1      -2.335   0.161 -16.190  1.00  0.00     0.205 HD
ENDBRANCH   1  17
TORSDOF 5
ENDMDL
