MODEL 5
REMARK VINA RESULT: -6.893747423      6.857      8.172
REMARK  1 active torsions:
REMARK  status: ('A' for Active; 'I' for Inactive)
REMARK    1  A    between atoms: N4_7  and  C4_8 
ROOT
HETATM    1  N1  UNL     1      34.207  -0.735   5.375  1.00  0.00    -0.067 NA
HETATM    2  C1  UNL     1      33.485  -1.706   6.146  1.00  0.00     0.199 C 
HETATM    3  N2  UNL     1      33.110  -1.447   7.485  1.00  0.00    -0.067 NA
HETATM    4  N3  UNL     1      33.201  -2.808   5.563  1.00  0.00    -0.355 N 
HETATM    5  C2  UNL     1      33.531  -3.168   4.225  1.00  0.00     0.145 C 
HETATM    6  C3  UNL     1      34.321  -4.457   4.169  1.00  0.00     0.143 C 
HETATM    7  N4  UNL     1      33.836  -5.475   5.083  1.00  0.00    -0.378 N 
HETATM    8  C10 UNL     1      33.365  -5.048   6.369  1.00  0.00     0.143 C 
HETATM    9  C11 UNL     1      32.461  -3.828   6.321  1.00  0.00     0.145 C 
ENDROOT
BRANCH   7  10
HETATM   10  C4  UNL     1      33.848  -6.846   4.729  1.00  0.00     0.030 A 
HETATM   11  C5  UNL     1      33.728  -7.333   3.464  1.00  0.00     0.031 A 
HETATM   12  C6  UNL     1      33.735  -8.714   3.195  1.00  0.00     0.026 A 
HETATM   13  C7  UNL     1      33.869  -9.597   4.244  1.00  0.00     0.034 A 
HETATM   14 CL1  UNL     1      33.883 -11.326   3.949  1.00  0.00    -0.084 Cl
HETATM   15  C8  UNL     1      33.995  -9.137   5.545  1.00  0.00     0.026 A 
HETATM   16  C9  UNL     1      33.982  -7.782   5.763  1.00  0.00     0.031 A 
ENDBRANCH   7  10
TORSDOF 1
ENDMDL
