MODEL 4
REMARK VINA RESULT: -6.951590161      6.916      8.194
REMARK  1 active torsions:
REMARK  status: ('A' for Active; 'I' for Inactive)
REMARK    1  A    between atoms: N4_7  and  C4_8 
ROOT
HETATM    1  N1  UNL     1      34.212  -0.840   5.293  1.00  0.00    -0.067 NA
HETATM    2  C1  UNL     1      33.518  -1.773   6.134  1.00  0.00     0.199 C 
HETATM    3  N2  UNL     1      33.187  -1.450   7.471  1.00  0.00    -0.067 NA
HETATM    4  N3  UNL     1      33.218  -2.902   5.615  1.00  0.00    -0.355 N 
HETATM    5  C2  UNL     1      33.504  -3.327   4.286  1.00  0.00     0.145 C 
HETATM    6  C3  UNL     1      34.295  -4.616   4.266  1.00  0.00     0.143 C 
HETATM    7  N4  UNL     1      33.843  -5.589   5.244  1.00  0.00    -0.378 N 
HETATM    8  C10 UNL     1      33.415  -5.100   6.522  1.00  0.00     0.143 C 
HETATM    9  C11 UNL     1      32.507  -3.885   6.446  1.00  0.00     0.145 C 
ENDROOT
BRANCH   7  10
HETATM   10  C4  UNL     1      33.848  -6.975   4.956  1.00  0.00     0.030 A 
HETATM   11  C5  UNL     1      33.997  -7.969   5.875  1.00  0.00     0.031 A 
HETATM   12  C6  UNL     1      34.006  -9.326   5.507  1.00  0.00     0.026 A 
HETATM   13  C7  UNL     1      33.858  -9.659   4.178  1.00  0.00     0.034 A 
HETATM   14 CL1  UNL     1      33.863 -11.340   3.680  1.00  0.00    -0.084 Cl
HETATM   15  C8  UNL     1      33.704  -8.674   3.216  1.00  0.00     0.026 A 
HETATM   16  C9  UNL     1      33.701  -7.361   3.618  1.00  0.00     0.031 A 
ENDBRANCH   7  10
TORSDOF 1
ENDMDL
