MODEL 3
REMARK VINA RESULT: -6.960826206      1.559      1.967
REMARK  1 active torsions:
REMARK  status: ('A' for Active; 'I' for Inactive)
REMARK    1  A    between atoms: N4_7  and  C4_8 
ROOT
HETATM    1  N1  UNL     1      36.985   3.205  11.149  1.00  0.00    -0.067 NA
HETATM    2  C1  UNL     1      37.791   3.269   9.964  1.00  0.00     0.199 C 
HETATM    3  N2  UNL     1      38.540   4.427   9.648  1.00  0.00    -0.067 NA
HETATM    4  N3  UNL     1      37.797   2.232   9.215  1.00  0.00    -0.355 N 
HETATM    5  C2  UNL     1      37.083   1.021   9.440  1.00  0.00     0.145 C 
HETATM    6  C3  UNL     1      36.185   0.674   8.273  1.00  0.00     0.143 C 
HETATM    7  N4  UNL     1      36.798   0.911   6.979  1.00  0.00    -0.378 N 
HETATM    8  C10 UNL     1      37.640   2.063   6.841  1.00  0.00     0.143 C 
HETATM    9  C11 UNL     1      38.611   2.260   7.991  1.00  0.00     0.145 C 
ENDROOT
BRANCH   7  10
HETATM   10  C4  UNL     1      36.556   0.048   5.882  1.00  0.00     0.030 A 
HETATM   11  C5  UNL     1      37.464  -0.279   4.923  1.00  0.00     0.031 A 
HETATM   12  C6  UNL     1      37.141  -1.134   3.854  1.00  0.00     0.026 A 
HETATM   13  C7  UNL     1      35.868  -1.655   3.777  1.00  0.00     0.034 A 
HETATM   14 CL1  UNL     1      35.426  -2.724   2.460  1.00  0.00    -0.084 Cl
HETATM   15  C8  UNL     1      34.917  -1.344   4.736  1.00  0.00     0.026 A 
HETATM   16  C9  UNL     1      35.275  -0.505   5.763  1.00  0.00     0.031 A 
ENDBRANCH   7  10
TORSDOF 1
ENDMDL
