MODEL 7
REMARK VINA RESULT: -6.706931823      7.531      8.982
REMARK  1 active torsions:
REMARK  status: ('A' for Active; 'I' for Inactive)
REMARK    1  A    between atoms: N4_7  and  C4_8 
ROOT
HETATM    1  N1  UNL     1      32.542  -1.434   6.394  1.00  0.00    -0.067 NA
HETATM    2  C1  UNL     1      32.141  -2.030   5.152  1.00  0.00     0.199 C 
HETATM    3  N2  UNL     1      31.116  -1.458   4.362  1.00  0.00    -0.067 NA
HETATM    4  N3  UNL     1      32.755  -3.095   4.801  1.00  0.00    -0.355 N 
HETATM    5  C2  UNL     1      33.795  -3.750   5.519  1.00  0.00     0.145 C 
HETATM    6  C3  UNL     1      33.455  -5.195   5.809  1.00  0.00     0.143 C 
HETATM    7  N4  UNL     1      32.819  -5.875   4.695  1.00  0.00    -0.378 N 
HETATM    8  C10 UNL     1      31.890  -5.127   3.899  1.00  0.00     0.143 C 
HETATM    9  C11 UNL     1      32.371  -3.735   3.533  1.00  0.00     0.145 C 
ENDROOT
BRANCH   7  10
HETATM   10  C4  UNL     1      33.087  -7.238   4.418  1.00  0.00     0.030 A 
HETATM   11  C5  UNL     1      32.706  -7.901   3.291  1.00  0.00     0.031 A 
HETATM   12  C6  UNL     1      32.999  -9.263   3.096  1.00  0.00     0.026 A 
HETATM   13  C7  UNL     1      33.691  -9.944   4.073  1.00  0.00     0.034 A 
HETATM   14 CL1  UNL     1      34.075 -11.642   3.866  1.00  0.00    -0.084 Cl
HETATM   15  C8  UNL     1      34.095  -9.301   5.233  1.00  0.00     0.026 A 
HETATM   16  C9  UNL     1      33.788  -7.971   5.383  1.00  0.00     0.031 A 
ENDBRANCH   7  10
TORSDOF 1
ENDMDL
