MODEL 6
REMARK VINA RESULT: -6.759833537      7.504      8.900
REMARK  1 active torsions:
REMARK  status: ('A' for Active; 'I' for Inactive)
REMARK    1  A    between atoms: N4_7  and  C4_8 
ROOT
HETATM    1  N1  UNL     1      32.531  -1.346   6.306  1.00  0.00    -0.067 NA
HETATM    2  C1  UNL     1      32.155  -2.027   5.100  1.00  0.00     0.199 C 
HETATM    3  N2  UNL     1      31.126  -1.528   4.266  1.00  0.00    -0.067 NA
HETATM    4  N3  UNL     1      32.793  -3.100   4.822  1.00  0.00    -0.355 N 
HETATM    5  C2  UNL     1      33.839  -3.686   5.590  1.00  0.00     0.145 C 
HETATM    6  C3  UNL     1      33.525  -5.117   5.967  1.00  0.00     0.143 C 
HETATM    7  N4  UNL     1      32.915  -5.879   4.893  1.00  0.00    -0.378 N 
HETATM    8  C10 UNL     1      31.979  -5.202   4.043  1.00  0.00     0.143 C 
HETATM    9  C11 UNL     1      32.436  -3.826   3.594  1.00  0.00     0.145 C 
ENDROOT
BRANCH   7  10
HETATM   10  C4  UNL     1      33.213  -7.250   4.705  1.00  0.00     0.030 A 
HETATM   11  C5  UNL     1      33.885  -8.038   5.589  1.00  0.00     0.031 A 
HETATM   12  C6  UNL     1      34.156  -9.392   5.320  1.00  0.00     0.026 A 
HETATM   13  C7  UNL     1      33.727  -9.936   4.129  1.00  0.00     0.034 A 
HETATM   14 CL1  UNL     1      34.046 -11.619   3.758  1.00  0.00    -0.084 Cl
HETATM   15  C8  UNL     1      33.040  -9.163   3.206  1.00  0.00     0.026 A 
HETATM   16  C9  UNL     1      32.797  -7.846   3.507  1.00  0.00     0.031 A 
ENDBRANCH   7  10
TORSDOF 1
ENDMDL
