MODEL 8
REMARK VINA RESULT: -6.653750246      6.452      8.026
REMARK  1 active torsions:
REMARK  status: ('A' for Active; 'I' for Inactive)
REMARK    1  A    between atoms: N4_7  and  C4_8 
ROOT
HETATM    1  N1  UNL     1      35.919  -0.775   4.833  1.00  0.00    -0.067 NA
HETATM    2  C1  UNL     1      34.677  -1.391   5.202  1.00  0.00     0.199 C 
HETATM    3  N2  UNL     1      33.788  -0.763   6.107  1.00  0.00    -0.067 NA
HETATM    4  N3  UNL     1      34.417  -2.526   4.675  1.00  0.00    -0.355 N 
HETATM    5  C2  UNL     1      35.239  -3.241   3.757  1.00  0.00     0.145 C 
HETATM    6  C3  UNL     1      35.563  -4.631   4.259  1.00  0.00     0.143 C 
HETATM    7  N4  UNL     1      34.435  -5.301   4.879  1.00  0.00    -0.378 N 
HETATM    8  C10 UNL     1      33.540  -4.508   5.671  1.00  0.00     0.143 C 
HETATM    9  C11 UNL     1      33.153  -3.188   5.029  1.00  0.00     0.145 C 
ENDROOT
BRANCH   7  10
HETATM   10  C4  UNL     1      34.236  -6.695   4.729  1.00  0.00     0.030 A 
HETATM   11  C5  UNL     1      34.211  -7.601   5.745  1.00  0.00     0.031 A 
HETATM   12  C6  UNL     1      34.023  -8.975   5.512  1.00  0.00     0.026 A 
HETATM   13  C7  UNL     1      33.858  -9.416   4.217  1.00  0.00     0.034 A 
HETATM   14 CL1  UNL     1      33.620 -11.121   3.885  1.00  0.00    -0.084 Cl
HETATM   15  C8  UNL     1      33.877  -8.522   3.158  1.00  0.00     0.026 A 
HETATM   16  C9  UNL     1      34.064  -7.190   3.430  1.00  0.00     0.031 A 
ENDBRANCH   7  10
TORSDOF 1
ENDMDL
