MODEL 1
REMARK VINA RESULT: -7.135540277      0.000      0.000
REMARK  1 active torsions:
REMARK  status: ('A' for Active; 'I' for Inactive)
REMARK    1  A    between atoms: N4_7  and  C4_8 
ROOT
HETATM    1  N1  UNL     1      34.911   2.291  10.933  1.00  0.00    -0.067 NA
HETATM    2  C1  UNL     1      36.303   2.276  10.588  1.00  0.00     0.199 C 
HETATM    3  N2  UNL     1      37.212   3.190  11.173  1.00  0.00    -0.067 NA
HETATM    4  N3  UNL     1      36.676   1.402   9.733  1.00  0.00    -0.355 N 
HETATM    5  C2  UNL     1      35.846   0.441   9.088  1.00  0.00     0.145 C 
HETATM    6  C3  UNL     1      35.933   0.546   7.581  1.00  0.00     0.143 C 
HETATM    7  N4  UNL     1      37.281   0.768   7.092  1.00  0.00    -0.378 N 
HETATM    8  C10 UNL     1      38.138   1.622   7.861  1.00  0.00     0.143 C 
HETATM    9  C11 UNL     1      38.096   1.356   9.356  1.00  0.00     0.145 C 
ENDROOT
BRANCH   7  10
HETATM   10  C4  UNL     1      37.730   0.180   5.885  1.00  0.00     0.030 A 
HETATM   11  C5  UNL     1      39.023   0.144   5.460  1.00  0.00     0.031 A 
HETATM   12  C6  UNL     1      39.387  -0.447   4.237  1.00  0.00     0.026 A 
HETATM   13  C7  UNL     1      38.407  -1.006   3.447  1.00  0.00     0.034 A 
HETATM   14 CL1  UNL     1      38.821  -1.753   1.916  1.00  0.00    -0.084 Cl
HETATM   15  C8  UNL     1      37.080  -0.989   3.848  1.00  0.00     0.026 A 
HETATM   16  C9  UNL     1      36.768  -0.401   5.049  1.00  0.00     0.031 A 
ENDBRANCH   7  10
TORSDOF 1
ENDMDL
