MODEL 2
REMARK VINA RESULT: -7.133590031      0.283      1.217
REMARK  1 active torsions:
REMARK  status: ('A' for Active; 'I' for Inactive)
REMARK    1  A    between atoms: N4_7  and  C4_8 
ROOT
HETATM    1  N1  UNL     1      34.912   2.247  10.918  1.00  0.00    -0.067 NA
HETATM    2  C1  UNL     1      36.305   2.239  10.578  1.00  0.00     0.199 C 
HETATM    3  N2  UNL     1      37.212   3.142  11.182  1.00  0.00    -0.067 NA
HETATM    4  N3  UNL     1      36.681   1.379   9.709  1.00  0.00    -0.355 N 
HETATM    5  C2  UNL     1      35.854   0.430   9.044  1.00  0.00     0.145 C 
HETATM    6  C3  UNL     1      35.946   0.561   7.540  1.00  0.00     0.143 C 
HETATM    7  N4  UNL     1      37.296   0.793   7.059  1.00  0.00    -0.378 N 
HETATM    8  C10 UNL     1      38.150   1.634   7.846  1.00  0.00     0.143 C 
HETATM    9  C11 UNL     1      38.103   1.341   9.335  1.00  0.00     0.145 C 
ENDROOT
BRANCH   7  10
HETATM   10  C4  UNL     1      37.749   0.227   5.843  1.00  0.00     0.030 A 
HETATM   11  C5  UNL     1      36.958  -0.374   4.911  1.00  0.00     0.031 A 
HETATM   12  C6  UNL     1      37.488  -0.927   3.732  1.00  0.00     0.026 A 
HETATM   13  C7  UNL     1      38.847  -0.856   3.513  1.00  0.00     0.034 A 
HETATM   14 CL1  UNL     1      39.545  -1.533   2.054  1.00  0.00    -0.084 Cl
HETATM   15  C8  UNL     1      39.682  -0.252   4.439  1.00  0.00     0.026 A 
HETATM   16  C9  UNL     1      39.124   0.275   5.577  1.00  0.00     0.031 A 
ENDBRANCH   7  10
TORSDOF 1
ENDMDL
