MODEL 5
REMARK VINA RESULT: -9.270452016      4.230     10.837
REMARK  8 active torsions:
REMARK  status: ('A' for Active; 'I' for Inactive)
REMARK    1  A    between atoms: C5_5  and  C6_6 
REMARK       I    between atoms: C6_6  and  N1_8 
REMARK    2  A    between atoms: N1_8  and  C7_10 
REMARK    3  A    between atoms: C7_10  and  C8_11 
REMARK    4  A    between atoms: C8_11  and  O2_12 
REMARK    5  A    between atoms: C10_15  and  N2_16 
REMARK    6  A    between atoms: C12_20  and  O3_21 
REMARK    7  A    between atoms: O3_21  and  C13_22 
REMARK    8  A    between atoms: C13_22  and  C14_23 
ROOT
HETATM    1  N2  UNL     1      34.530  37.168  23.456  1.00  0.00    -0.273 N 
HETATM    2  C11 UNL     1      34.971  35.924  23.246  1.00  0.00     0.194 A 
HETATM    3  N3  UNL     1      35.391  35.559  22.031  1.00  0.00    -0.331 N 
ATOM      4  H3  UNL     1      35.722  34.603  21.900  1.00  0.00     0.168 HD
HETATM    5  C12 UNL     1      35.399  36.388  20.972  1.00  0.00     0.171 A 
HETATM    6  C20 UNL     1      34.948  37.684  21.147  1.00  0.00     0.153 A 
HETATM    7 CL1  UNL     1      34.929  38.827  19.808  1.00  0.00    -0.074 Cl
HETATM    8  C21 UNL     1      34.521  38.041  22.409  1.00  0.00     0.279 A 
HETATM    9  O4  UNL     1      34.102  39.228  22.596  1.00  0.00    -0.266 OA
ENDROOT
BRANCH   1  10
HETATM   10  C10 UNL     1      34.069  37.633  24.713  1.00  0.00     0.050 A 
HETATM   11  C2  UNL     1      32.752  37.480  25.068  1.00  0.00    -0.035 A 
HETATM   12  C1  UNL     1      31.849  36.815  24.079  1.00  0.00     0.050 C 
HETATM   13  C3  UNL     1      32.264  37.922  26.289  1.00  0.00     0.010 A 
HETATM   14  C4  UNL     1      33.159  38.538  27.170  1.00  0.00     0.017 A 
HETATM   15  C5  UNL     1      34.481  38.704  26.845  1.00  0.00     0.034 A 
HETATM   16  C9  UNL     1      34.923  38.238  25.594  1.00  0.00     0.047 A 
BRANCH  15  17
HETATM   17  C6  UNL     1      35.419  39.339  27.751  1.00  0.00     0.251 C 
HETATM   18  O1  UNL     1      36.186  40.264  27.352  1.00  0.00    -0.268 OA
HETATM   19  N1  UNL     1      35.535  38.970  29.108  1.00  0.00    -0.355 N 
ATOM     20  H1  UNL     1      34.939  38.228  29.474  1.00  0.00     0.162 HD
BRANCH  19  21
HETATM   21  C7  UNL     1      36.484  39.621  29.996  1.00  0.00     0.148 C 
BRANCH  21  22
HETATM   22  C8  UNL     1      35.911  40.800  30.719  1.00  0.00     0.183 C 
BRANCH  22  23
HETATM   23  O2  UNL     1      35.911  41.956  29.955  1.00  0.00    -0.399 OA
ATOM     24  H2  UNL     1      36.605  41.975  29.308  1.00  0.00     0.209 HD
ENDBRANCH  22  23
ENDBRANCH  21  22
ENDBRANCH  19  21
ENDBRANCH  15  17
ENDBRANCH   1  10
BRANCH   5  25
HETATM   25  O3  UNL     1      35.847  35.959  19.733  1.00  0.00    -0.330 OA
BRANCH  25  26
HETATM   26  C13 UNL     1      37.156  36.067  19.291  1.00  0.00     0.219 C 
BRANCH  26  27
HETATM   27  C14 UNL     1      37.180  36.422  17.851  1.00  0.00     0.005 A 
HETATM   28  C15 UNL     1      36.190  36.163  16.960  1.00  0.00     0.015 A 
HETATM   29  C16 UNL     1      36.319  36.576  15.637  1.00  0.00     0.043 A 
HETATM   30  C17 UNL     1      37.435  37.246  15.210  1.00  0.00     0.119 A 
HETATM   31  F1  UNL     1      37.535  37.635  13.921  1.00  0.00    -0.206 F 
HETATM   32  C18 UNL     1      38.440  37.513  16.107  1.00  0.00     0.085 A 
HETATM   33  C19 UNL     1      38.305  37.101  17.413  1.00  0.00     0.127 A 
HETATM   34  F2  UNL     1      39.308  37.365  18.312  1.00  0.00    -0.205 F 
ENDBRANCH  26  27
ENDBRANCH  25  26
ENDBRANCH   5  25
TORSDOF 8
ENDMDL
