MODEL 1
REMARK VINA RESULT: -10.406878398      0.000      0.000
REMARK  8 active torsions:
REMARK  status: ('A' for Active; 'I' for Inactive)
REMARK    1  A    between atoms: C5_5  and  C6_6 
REMARK       I    between atoms: C6_6  and  N1_8 
REMARK    2  A    between atoms: N1_8  and  C7_10 
REMARK    3  A    between atoms: C7_10  and  C8_11 
REMARK    4  A    between atoms: C8_11  and  O2_12 
REMARK    5  A    between atoms: C10_15  and  N2_16 
REMARK    6  A    between atoms: C12_20  and  O3_21 
REMARK    7  A    between atoms: O3_21  and  C13_22 
REMARK    8  A    between atoms: C13_22  and  C14_23 
ROOT
HETATM    1  N2  UNL     1      35.498  37.210  19.399  1.00  0.00    -0.273 N 
HETATM    2  C11 UNL     1      35.245  38.496  19.657  1.00  0.00     0.194 A 
HETATM    3  N3  UNL     1      35.014  38.894  20.911  1.00  0.00    -0.331 N 
ATOM      4  H3  UNL     1      34.824  39.883  21.078  1.00  0.00     0.168 HD
HETATM    5  C12 UNL     1      35.019  38.059  21.965  1.00  0.00     0.171 A 
HETATM    6  C20 UNL     1      35.276  36.718  21.740  1.00  0.00     0.153 A 
HETATM    7 CL1  UNL     1      35.300  35.564  23.069  1.00  0.00    -0.074 Cl
HETATM    8  C21 UNL     1      35.513  36.328  20.439  1.00  0.00     0.279 A 
HETATM    9  O4  UNL     1      35.751  35.100  20.206  1.00  0.00    -0.266 OA
ENDROOT
BRANCH   1  10
HETATM   10  C10 UNL     1      35.754  36.708  18.099  1.00  0.00     0.050 A 
HETATM   11  C2  UNL     1      37.035  36.677  17.607  1.00  0.00    -0.035 A 
HETATM   12  C1  UNL     1      38.121  37.192  18.495  1.00  0.00     0.050 C 
HETATM   13  C3  UNL     1      37.324  36.193  16.340  1.00  0.00     0.010 A 
HETATM   14  C4  UNL     1      36.264  35.727  15.557  1.00  0.00     0.017 A 
HETATM   15  C5  UNL     1      34.973  35.743  16.019  1.00  0.00     0.034 A 
HETATM   16  C9  UNL     1      34.735  36.245  17.312  1.00  0.00     0.047 A 
BRANCH  15  17
HETATM   17  C6  UNL     1      33.864  35.261  15.218  1.00  0.00     0.251 C 
HETATM   18  O1  UNL     1      32.749  35.858  15.221  1.00  0.00    -0.268 OA
HETATM   19  N1  UNL     1      33.960  34.115  14.400  1.00  0.00    -0.355 N 
ATOM     20  H1  UNL     1      34.839  33.600  14.366  1.00  0.00     0.162 HD
BRANCH  19  21
HETATM   21  C7  UNL     1      32.835  33.650  13.606  1.00  0.00     0.148 C 
BRANCH  21  22
HETATM   22  C8  UNL     1      33.139  33.547  12.144  1.00  0.00     0.183 C 
BRANCH  22  23
HETATM   23  O2  UNL     1      32.038  33.185  11.385  1.00  0.00    -0.399 OA
ATOM     24  H2  UNL     1      32.262  32.643  10.638  1.00  0.00     0.209 HD
ENDBRANCH  22  23
ENDBRANCH  21  22
ENDBRANCH  19  21
ENDBRANCH  15  17
ENDBRANCH   1  10
BRANCH   5  25
HETATM   25  O3  UNL     1      34.776  38.524  23.247  1.00  0.00    -0.330 OA
BRANCH  25  26
HETATM   26  C13 UNL     1      33.588  39.108  23.658  1.00  0.00     0.219 C 
BRANCH  26  27
HETATM   27  C14 UNL     1      33.113  38.469  24.910  1.00  0.00     0.005 A 
HETATM   28  C15 UNL     1      33.393  38.897  26.167  1.00  0.00     0.015 A 
HETATM   29  C16 UNL     1      32.860  38.227  27.265  1.00  0.00     0.043 A 
HETATM   30  C17 UNL     1      32.051  37.134  27.103  1.00  0.00     0.119 A 
HETATM   31  F1  UNL     1      31.547  36.502  28.185  1.00  0.00    -0.206 F 
HETATM   32  C18 UNL     1      31.762  36.696  25.833  1.00  0.00     0.085 A 
HETATM   33  C19 UNL     1      32.293  37.365  24.753  1.00  0.00     0.127 A 
HETATM   34  F2  UNL     1      32.007  36.929  23.483  1.00  0.00    -0.205 F 
ENDBRANCH  26  27
ENDBRANCH  25  26
ENDBRANCH   5  25
TORSDOF 8
ENDMDL
