MODEL 11
REMARK VINA RESULT: -9.109353637      4.318     10.762
REMARK  8 active torsions:
REMARK  status: ('A' for Active; 'I' for Inactive)
REMARK    1  A    between atoms: C5_5  and  C6_6 
REMARK       I    between atoms: C6_6  and  N1_8 
REMARK    2  A    between atoms: N1_8  and  C7_10 
REMARK    3  A    between atoms: C7_10  and  C8_11 
REMARK    4  A    between atoms: C8_11  and  O2_12 
REMARK    5  A    between atoms: C10_15  and  N2_16 
REMARK    6  A    between atoms: C12_20  and  O3_21 
REMARK    7  A    between atoms: O3_21  and  C13_22 
REMARK    8  A    between atoms: C13_22  and  C14_23 
ROOT
HETATM    1  N2  UNL     1      34.797  38.348  23.571  1.00  0.00    -0.273 N 
HETATM    2  C11 UNL     1      35.309  37.231  23.047  1.00  0.00     0.194 A 
HETATM    3  N3  UNL     1      35.684  37.204  21.765  1.00  0.00    -0.331 N 
ATOM      4  H3  UNL     1      36.072  36.337  21.392  1.00  0.00     0.168 HD
HETATM    5  C12 UNL     1      35.576  38.261  20.940  1.00  0.00     0.171 A 
HETATM    6  C20 UNL     1      35.048  39.437  21.444  1.00  0.00     0.153 A 
HETATM    7 CL1  UNL     1      34.876  40.863  20.427  1.00  0.00    -0.074 Cl
HETATM    8  C21 UNL     1      34.669  39.444  22.770  1.00  0.00     0.279 A 
HETATM    9  O4  UNL     1      34.181  40.514  23.257  1.00  0.00    -0.266 OA
ENDROOT
BRANCH   1  10
HETATM   10  C10 UNL     1      34.376  38.459  24.919  1.00  0.00     0.050 A 
HETATM   11  C2  UNL     1      33.109  38.076  25.285  1.00  0.00    -0.035 A 
HETATM   12  C1  UNL     1      32.217  37.550  24.208  1.00  0.00     0.050 C 
HETATM   13  C3  UNL     1      32.663  38.168  26.595  1.00  0.00     0.010 A 
HETATM   14  C4  UNL     1      33.546  38.670  27.557  1.00  0.00     0.017 A 
HETATM   15  C5  UNL     1      34.818  39.060  27.224  1.00  0.00     0.034 A 
HETATM   16  C9  UNL     1      35.220  38.945  25.881  1.00  0.00     0.047 A 
BRANCH  15  17
HETATM   17  C6  UNL     1      35.744  39.580  28.212  1.00  0.00     0.251 C 
HETATM   18  O1  UNL     1      36.520  40.541  27.936  1.00  0.00    -0.268 OA
HETATM   19  N1  UNL     1      35.835  39.054  29.518  1.00  0.00    -0.355 N 
ATOM     20  H1  UNL     1      35.231  38.278  29.786  1.00  0.00     0.162 HD
BRANCH  19  21
HETATM   21  C7  UNL     1      36.772  39.591  30.491  1.00  0.00     0.148 C 
BRANCH  21  22
HETATM   22  C8  UNL     1      37.587  38.540  31.177  1.00  0.00     0.183 C 
BRANCH  22  23
HETATM   23  O2  UNL     1      37.000  37.286  31.138  1.00  0.00    -0.399 OA
ATOM     24  H2  UNL     1      36.455  37.106  31.895  1.00  0.00     0.209 HD
ENDBRANCH  22  23
ENDBRANCH  21  22
ENDBRANCH  19  21
ENDBRANCH  15  17
ENDBRANCH   1  10
BRANCH   5  25
HETATM   25  O3  UNL     1      35.982  38.180  19.619  1.00  0.00    -0.330 OA
BRANCH  25  26
HETATM   26  C13 UNL     1      36.759  37.158  19.096  1.00  0.00     0.219 C 
BRANCH  26  27
HETATM   27  C14 UNL     1      36.049  36.502  17.971  1.00  0.00     0.005 A 
HETATM   28  C15 UNL     1      34.728  36.192  17.949  1.00  0.00     0.015 A 
HETATM   29  C16 UNL     1      34.171  35.602  16.818  1.00  0.00     0.043 A 
HETATM   30  C17 UNL     1      34.935  35.325  15.715  1.00  0.00     0.119 A 
HETATM   31  F1  UNL     1      34.369  34.752  14.630  1.00  0.00    -0.206 F 
HETATM   32  C18 UNL     1      36.273  35.638  15.731  1.00  0.00     0.085 A 
HETATM   33  C19 UNL     1      36.815  36.220  16.853  1.00  0.00     0.127 A 
HETATM   34  F2  UNL     1      38.152  36.533  16.872  1.00  0.00    -0.205 F 
ENDBRANCH  26  27
ENDBRANCH  25  26
ENDBRANCH   5  25
TORSDOF 8
ENDMDL
