MODEL 8
REMARK VINA RESULT: -9.178713858      4.376     11.111
REMARK  8 active torsions:
REMARK  status: ('A' for Active; 'I' for Inactive)
REMARK    1  A    between atoms: C5_5  and  C6_6 
REMARK       I    between atoms: C6_6  and  N1_8 
REMARK    2  A    between atoms: N1_8  and  C7_10 
REMARK    3  A    between atoms: C7_10  and  C8_11 
REMARK    4  A    between atoms: C8_11  and  O2_12 
REMARK    5  A    between atoms: C10_15  and  N2_16 
REMARK    6  A    between atoms: C12_20  and  O3_21 
REMARK    7  A    between atoms: O3_21  and  C13_22 
REMARK    8  A    between atoms: C13_22  and  C14_23 
ROOT
HETATM    1  N2  UNL     1      34.918  38.162  24.020  1.00  0.00    -0.273 N 
HETATM    2  C11 UNL     1      35.346  36.982  23.561  1.00  0.00     0.194 A 
HETATM    3  N3  UNL     1      35.748  36.865  22.292  1.00  0.00    -0.331 N 
ATOM      4  H3  UNL     1      36.070  35.952  21.969  1.00  0.00     0.168 HD
HETATM    5  C12 UNL     1      35.751  37.888  21.419  1.00  0.00     0.171 A 
HETATM    6  C20 UNL     1      35.315  39.126  21.856  1.00  0.00     0.153 A 
HETATM    7 CL1  UNL     1      35.290  40.513  20.772  1.00  0.00    -0.074 Cl
HETATM    8  C21 UNL     1      34.905  39.227  23.169  1.00  0.00     0.279 A 
HETATM    9  O4  UNL     1      34.499  40.355  23.594  1.00  0.00    -0.266 OA
ENDROOT
BRANCH   1  10
HETATM   10  C10 UNL     1      34.476  38.369  25.350  1.00  0.00     0.050 A 
HETATM   11  C2  UNL     1      33.179  38.090  25.701  1.00  0.00    -0.035 A 
HETATM   12  C1  UNL     1      32.277  37.569  24.629  1.00  0.00     0.050 C 
HETATM   13  C3  UNL     1      32.710  38.279  26.993  1.00  0.00     0.010 A 
HETATM   14  C4  UNL     1      33.603  38.771  27.951  1.00  0.00     0.017 A 
HETATM   15  C5  UNL     1      34.905  39.059  27.632  1.00  0.00     0.034 A 
HETATM   16  C9  UNL     1      35.329  38.849  26.307  1.00  0.00     0.047 A 
BRANCH  15  17
HETATM   17  C6  UNL     1      35.841  39.568  28.616  1.00  0.00     0.251 C 
HETATM   18  O1  UNL     1      36.506  40.623  28.400  1.00  0.00    -0.268 OA
HETATM   19  N1  UNL     1      36.065  38.927  29.854  1.00  0.00    -0.355 N 
ATOM     20  H1  UNL     1      35.553  38.073  30.072  1.00  0.00     0.162 HD
BRANCH  19  21
HETATM   21  C7  UNL     1      37.010  39.456  30.824  1.00  0.00     0.148 C 
BRANCH  21  22
HETATM   22  C8  UNL     1      37.960  38.427  31.352  1.00  0.00     0.183 C 
BRANCH  22  23
HETATM   23  O2  UNL     1      37.393  37.168  31.458  1.00  0.00    -0.399 OA
ATOM     24  H2  UNL     1      36.963  36.885  30.660  1.00  0.00     0.209 HD
ENDBRANCH  22  23
ENDBRANCH  21  22
ENDBRANCH  19  21
ENDBRANCH  15  17
ENDBRANCH   1  10
BRANCH   5  25
HETATM   25  O3  UNL     1      36.181  37.713  20.115  1.00  0.00    -0.330 OA
BRANCH  25  26
HETATM   26  C13 UNL     1      36.630  36.511  19.589  1.00  0.00     0.219 C 
BRANCH  26  27
HETATM   27  C14 UNL     1      36.938  36.668  18.147  1.00  0.00     0.005 A 
HETATM   28  C15 UNL     1      36.065  36.461  17.129  1.00  0.00     0.015 A 
HETATM   29  C16 UNL     1      36.468  36.673  15.814  1.00  0.00     0.043 A 
HETATM   30  C17 UNL     1      37.739  37.090  15.520  1.00  0.00     0.119 A 
HETATM   31  F1  UNL     1      38.104  37.287  14.235  1.00  0.00    -0.206 F 
HETATM   32  C18 UNL     1      38.628  37.303  16.547  1.00  0.00     0.085 A 
HETATM   33  C19 UNL     1      38.221  37.091  17.844  1.00  0.00     0.127 A 
HETATM   34  F2  UNL     1      39.107  37.302  18.872  1.00  0.00    -0.205 F 
ENDBRANCH  26  27
ENDBRANCH  25  26
ENDBRANCH   5  25
TORSDOF 8
ENDMDL
