MODEL 9
REMARK VINA RESULT: -9.144595426      4.335     10.960
REMARK  8 active torsions:
REMARK  status: ('A' for Active; 'I' for Inactive)
REMARK    1  A    between atoms: C5_5  and  C6_6 
REMARK       I    between atoms: C6_6  and  N1_8 
REMARK    2  A    between atoms: N1_8  and  C7_10 
REMARK    3  A    between atoms: C7_10  and  C8_11 
REMARK    4  A    between atoms: C8_11  and  O2_12 
REMARK    5  A    between atoms: C10_15  and  N2_16 
REMARK    6  A    between atoms: C12_20  and  O3_21 
REMARK    7  A    between atoms: O3_21  and  C13_22 
REMARK    8  A    between atoms: C13_22  and  C14_23 
ROOT
HETATM    1  N2  UNL     1      34.278  37.491  23.697  1.00  0.00    -0.273 N 
HETATM    2  C11 UNL     1      35.040  36.448  23.356  1.00  0.00     0.194 A 
HETATM    3  N3  UNL     1      35.697  36.452  22.193  1.00  0.00    -0.331 N 
ATOM      4  H3  UNL     1      36.271  35.642  21.959  1.00  0.00     0.168 HD
HETATM    5  C12 UNL     1      35.639  37.468  21.314  1.00  0.00     0.171 A 
HETATM    6  C20 UNL     1      34.859  38.566  21.629  1.00  0.00     0.153 A 
HETATM    7 CL1  UNL     1      34.733  39.935  20.530  1.00  0.00    -0.074 Cl
HETATM    8  C21 UNL     1      34.191  38.544  22.835  1.00  0.00     0.279 A 
HETATM    9  O4  UNL     1      33.467  39.542  23.148  1.00  0.00    -0.266 OA
ENDROOT
BRANCH   1  10
HETATM   10  C10 UNL     1      33.552  37.565  24.912  1.00  0.00     0.050 A 
HETATM   11  C2  UNL     1      32.275  37.066  24.988  1.00  0.00    -0.035 A 
HETATM   12  C1  UNL     1      31.704  36.457  23.748  1.00  0.00     0.050 C 
HETATM   13  C3  UNL     1      31.534  37.120  26.159  1.00  0.00     0.010 A 
HETATM   14  C4  UNL     1      32.124  37.705  27.284  1.00  0.00     0.017 A 
HETATM   15  C5  UNL     1      33.398  38.212  27.241  1.00  0.00     0.034 A 
HETATM   16  C9  UNL     1      34.105  38.131  26.028  1.00  0.00     0.047 A 
BRANCH  15  17
HETATM   17  C6  UNL     1      34.021  38.818  28.401  1.00  0.00     0.251 C 
HETATM   18  O1  UNL     1      35.243  39.148  28.387  1.00  0.00    -0.268 OA
HETATM   19  N1  UNL     1      33.316  39.073  29.597  1.00  0.00    -0.355 N 
ATOM     20  H1  UNL     1      32.329  38.824  29.656  1.00  0.00     0.162 HD
BRANCH  19  21
HETATM   21  C7  UNL     1      33.963  39.682  30.747  1.00  0.00     0.148 C 
BRANCH  21  22
HETATM   22  C8  UNL     1      33.012  40.383  31.665  1.00  0.00     0.183 C 
BRANCH  22  23
HETATM   23  O2  UNL     1      31.942  40.960  30.999  1.00  0.00    -0.399 OA
ATOM     24  H2  UNL     1      31.169  40.408  30.987  1.00  0.00     0.209 HD
ENDBRANCH  22  23
ENDBRANCH  21  22
ENDBRANCH  19  21
ENDBRANCH  15  17
ENDBRANCH   1  10
BRANCH   5  25
HETATM   25  O3  UNL     1      36.341  37.422  20.121  1.00  0.00    -0.330 OA
BRANCH  25  26
HETATM   26  C13 UNL     1      36.800  36.258  19.523  1.00  0.00     0.219 C 
BRANCH  26  27
HETATM   27  C14 UNL     1      37.037  36.488  18.077  1.00  0.00     0.005 A 
HETATM   28  C15 UNL     1      36.151  36.228  17.083  1.00  0.00     0.015 A 
HETATM   29  C16 UNL     1      36.483  36.517  15.762  1.00  0.00     0.043 A 
HETATM   30  C17 UNL     1      37.696  37.064  15.440  1.00  0.00     0.119 A 
HETATM   31  F1  UNL     1      37.993  37.334  14.151  1.00  0.00    -0.206 F 
HETATM   32  C18 UNL     1      38.598  37.330  16.442  1.00  0.00     0.085 A 
HETATM   33  C19 UNL     1      38.262  37.042  17.745  1.00  0.00     0.127 A 
HETATM   34  F2  UNL     1      39.161  37.306  18.748  1.00  0.00    -0.205 F 
ENDBRANCH  26  27
ENDBRANCH  25  26
ENDBRANCH   5  25
TORSDOF 8
ENDMDL
