MODEL 3
REMARK VINA RESULT: -10.070567969      2.120      2.543
REMARK  8 active torsions:
REMARK  status: ('A' for Active; 'I' for Inactive)
REMARK    1  A    between atoms: C5_5  and  C6_6 
REMARK       I    between atoms: C6_6  and  N1_8 
REMARK    2  A    between atoms: N1_8  and  C7_10 
REMARK    3  A    between atoms: C7_10  and  C8_11 
REMARK    4  A    between atoms: C8_11  and  O2_12 
REMARK    5  A    between atoms: C10_15  and  N2_16 
REMARK    6  A    between atoms: C12_20  and  O3_21 
REMARK    7  A    between atoms: O3_21  and  C13_22 
REMARK    8  A    between atoms: C13_22  and  C14_23 
ROOT
HETATM    1  N2  UNL     1      35.459  36.765  19.550  1.00  0.00    -0.273 N 
HETATM    2  C11 UNL     1      35.630  35.901  20.554  1.00  0.00     0.194 A 
HETATM    3  N3  UNL     1      35.372  36.275  21.810  1.00  0.00    -0.331 N 
ATOM      4  H3  UNL     1      35.511  35.593  22.557  1.00  0.00     0.168 HD
HETATM    5  C12 UNL     1      34.939  37.504  22.142  1.00  0.00     0.171 A 
HETATM    6  C20 UNL     1      34.751  38.430  21.131  1.00  0.00     0.153 A 
HETATM    7 CL1  UNL     1      34.185  40.058  21.486  1.00  0.00    -0.074 Cl
HETATM    8  C21 UNL     1      35.021  38.023  19.841  1.00  0.00     0.279 A 
HETATM    9  O4  UNL     1      34.856  38.857  18.894  1.00  0.00    -0.266 OA
ENDROOT
BRANCH   1  10
HETATM   10  C10 UNL     1      35.709  36.447  18.192  1.00  0.00     0.050 A 
HETATM   11  C2  UNL     1      36.977  36.557  17.676  1.00  0.00    -0.035 A 
HETATM   12  C1  UNL     1      38.054  37.023  18.601  1.00  0.00     0.050 C 
HETATM   13  C3  UNL     1      37.260  36.254  16.353  1.00  0.00     0.010 A 
HETATM   14  C4  UNL     1      36.208  35.824  15.537  1.00  0.00     0.017 A 
HETATM   15  C5  UNL     1      34.931  35.703  16.023  1.00  0.00     0.034 A 
HETATM   16  C9  UNL     1      34.699  36.024  17.372  1.00  0.00     0.047 A 
BRANCH  15  17
HETATM   17  C6  UNL     1      33.832  35.257  15.188  1.00  0.00     0.251 C 
HETATM   18  O1  UNL     1      32.746  35.905  15.138  1.00  0.00    -0.268 OA
HETATM   19  N1  UNL     1      33.905  34.092  14.395  1.00  0.00    -0.355 N 
ATOM     20  H1  UNL     1      34.760  33.537  14.403  1.00  0.00     0.162 HD
BRANCH  19  21
HETATM   21  C7  UNL     1      32.789  33.665  13.566  1.00  0.00     0.148 C 
BRANCH  21  22
HETATM   22  C8  UNL     1      33.120  33.598  12.108  1.00  0.00     0.183 C 
BRANCH  22  23
HETATM   23  O2  UNL     1      32.031  33.266  11.319  1.00  0.00    -0.399 OA
ATOM     24  H2  UNL     1      31.609  34.022  10.929  1.00  0.00     0.209 HD
ENDBRANCH  22  23
ENDBRANCH  21  22
ENDBRANCH  19  21
ENDBRANCH  15  17
ENDBRANCH   1  10
BRANCH   5  25
HETATM   25  O3  UNL     1      34.684  37.840  23.461  1.00  0.00    -0.330 OA
BRANCH  25  26
HETATM   26  C13 UNL     1      35.098  37.097  24.556  1.00  0.00     0.219 C 
BRANCH  26  27
HETATM   27  C14 UNL     1      35.354  37.991  25.711  1.00  0.00     0.005 A 
HETATM   28  C15 UNL     1      35.896  39.233  25.640  1.00  0.00     0.015 A 
HETATM   29  C16 UNL     1      36.059  39.988  26.798  1.00  0.00     0.043 A 
HETATM   30  C17 UNL     1      35.679  39.501  28.021  1.00  0.00     0.119 A 
HETATM   31  F1  UNL     1      35.848  40.254  29.128  1.00  0.00    -0.206 F 
HETATM   32  C18 UNL     1      35.129  38.244  28.099  1.00  0.00     0.085 A 
HETATM   33  C19 UNL     1      34.971  37.505  26.950  1.00  0.00     0.127 A 
HETATM   34  F2  UNL     1      34.422  36.248  27.025  1.00  0.00    -0.205 F 
ENDBRANCH  26  27
ENDBRANCH  25  26
ENDBRANCH   5  25
TORSDOF 8
ENDMDL
