MODEL 6
REMARK VINA RESULT: -9.227548395      4.385     11.110
REMARK  8 active torsions:
REMARK  status: ('A' for Active; 'I' for Inactive)
REMARK    1  A    between atoms: C5_5  and  C6_6 
REMARK       I    between atoms: C6_6  and  N1_8 
REMARK    2  A    between atoms: N1_8  and  C7_10 
REMARK    3  A    between atoms: C7_10  and  C8_11 
REMARK    4  A    between atoms: C8_11  and  O2_12 
REMARK    5  A    between atoms: C10_15  and  N2_16 
REMARK    6  A    between atoms: C12_20  and  O3_21 
REMARK    7  A    between atoms: O3_21  and  C13_22 
REMARK    8  A    between atoms: C13_22  and  C14_23 
ROOT
HETATM    1  N2  UNL     1      34.849  38.082  24.042  1.00  0.00    -0.273 N 
HETATM    2  C11 UNL     1      35.295  36.909  23.585  1.00  0.00     0.194 A 
HETATM    3  N3  UNL     1      35.741  36.805  22.330  1.00  0.00    -0.331 N 
ATOM      4  H3  UNL     1      36.076  35.897  22.008  1.00  0.00     0.168 HD
HETATM    5  C12 UNL     1      35.772  37.837  21.468  1.00  0.00     0.171 A 
HETATM    6  C20 UNL     1      35.317  39.070  21.902  1.00  0.00     0.153 A 
HETATM    7 CL1  UNL     1      35.326  40.468  20.833  1.00  0.00    -0.074 Cl
HETATM    8  C21 UNL     1      34.862  39.156  23.201  1.00  0.00     0.279 A 
HETATM    9  O4  UNL     1      34.438  40.279  23.624  1.00  0.00    -0.266 OA
ENDROOT
BRANCH   1  10
HETATM   10  C10 UNL     1      34.361  38.275  25.358  1.00  0.00     0.050 A 
HETATM   11  C2  UNL     1      33.047  38.010  25.656  1.00  0.00    -0.035 A 
HETATM   12  C1  UNL     1      32.179  37.520  24.543  1.00  0.00     0.050 C 
HETATM   13  C3  UNL     1      32.534  38.185  26.933  1.00  0.00     0.010 A 
HETATM   14  C4  UNL     1      33.397  38.648  27.931  1.00  0.00     0.017 A 
HETATM   15  C5  UNL     1      34.715  38.921  27.665  1.00  0.00     0.034 A 
HETATM   16  C9  UNL     1      35.184  38.726  26.354  1.00  0.00     0.047 A 
BRANCH  15  17
HETATM   17  C6  UNL     1      35.621  39.400  28.691  1.00  0.00     0.251 C 
HETATM   18  O1  UNL     1      36.042  38.628  29.601  1.00  0.00    -0.268 OA
HETATM   19  N1  UNL     1      36.079  40.734  28.738  1.00  0.00    -0.355 N 
ATOM     20  H1  UNL     1      35.766  41.394  28.027  1.00  0.00     0.162 HD
BRANCH  19  21
HETATM   21  C7  UNL     1      36.987  41.191  29.778  1.00  0.00     0.148 C 
BRANCH  21  22
HETATM   22  C8  UNL     1      36.989  42.677  29.957  1.00  0.00     0.183 C 
BRANCH  22  23
HETATM   23  O2  UNL     1      35.715  43.212  30.060  1.00  0.00    -0.399 OA
ATOM     24  H2  UNL     1      35.351  43.141  30.934  1.00  0.00     0.209 HD
ENDBRANCH  22  23
ENDBRANCH  21  22
ENDBRANCH  19  21
ENDBRANCH  15  17
ENDBRANCH   1  10
BRANCH   5  25
HETATM   25  O3  UNL     1      36.247  37.677  20.177  1.00  0.00    -0.330 OA
BRANCH  25  26
HETATM   26  C13 UNL     1      36.704  36.479  19.651  1.00  0.00     0.219 C 
BRANCH  26  27
HETATM   27  C14 UNL     1      36.974  36.629  18.200  1.00  0.00     0.005 A 
HETATM   28  C15 UNL     1      36.083  36.386  17.206  1.00  0.00     0.015 A 
HETATM   29  C16 UNL     1      36.449  36.594  15.879  1.00  0.00     0.043 A 
HETATM   30  C17 UNL     1      37.701  37.044  15.551  1.00  0.00     0.119 A 
HETATM   31  F1  UNL     1      38.030  37.237  14.256  1.00  0.00    -0.206 F 
HETATM   32  C18 UNL     1      38.607  37.292  16.554  1.00  0.00     0.085 A 
HETATM   33  C19 UNL     1      38.237  37.084  17.863  1.00  0.00     0.127 A 
HETATM   34  F2  UNL     1      39.140  37.331  18.867  1.00  0.00    -0.205 F 
ENDBRANCH  26  27
ENDBRANCH  25  26
ENDBRANCH   5  25
TORSDOF 8
ENDMDL
