MODEL 2
REMARK VINA RESULT: -10.181429322      1.775      1.975
REMARK  8 active torsions:
REMARK  status: ('A' for Active; 'I' for Inactive)
REMARK    1  A    between atoms: C5_5  and  C6_6 
REMARK       I    between atoms: C6_6  and  N1_8 
REMARK    2  A    between atoms: N1_8  and  C7_10 
REMARK    3  A    between atoms: C7_10  and  C8_11 
REMARK    4  A    between atoms: C8_11  and  O2_12 
REMARK    5  A    between atoms: C10_15  and  N2_16 
REMARK    6  A    between atoms: C12_20  and  O3_21 
REMARK    7  A    between atoms: O3_21  and  C13_22 
REMARK    8  A    between atoms: C13_22  and  C14_23 
ROOT
HETATM    1  N2  UNL     1      35.435  37.004  19.459  1.00  0.00    -0.273 N 
HETATM    2  C11 UNL     1      35.162  38.267  19.799  1.00  0.00     0.194 A 
HETATM    3  N3  UNL     1      34.933  38.581  21.077  1.00  0.00    -0.331 N 
ATOM      4  H3  UNL     1      34.727  39.553  21.307  1.00  0.00     0.168 HD
HETATM    5  C12 UNL     1      34.960  37.681  22.076  1.00  0.00     0.171 A 
HETATM    6  C20 UNL     1      35.239  36.361  21.765  1.00  0.00     0.153 A 
HETATM    7 CL1  UNL     1      35.293  35.127  23.018  1.00  0.00    -0.074 Cl
HETATM    8  C21 UNL     1      35.473  36.059  20.440  1.00  0.00     0.279 A 
HETATM    9  O4  UNL     1      35.731  34.852  20.129  1.00  0.00    -0.266 OA
ENDROOT
BRANCH   1  10
HETATM   10  C10 UNL     1      35.690  36.590  18.128  1.00  0.00     0.050 A 
HETATM   11  C2  UNL     1      36.968  36.617  17.626  1.00  0.00    -0.035 A 
HETATM   12  C1  UNL     1      38.051  37.097  18.537  1.00  0.00     0.050 C 
HETATM   13  C3  UNL     1      37.256  36.218  16.329  1.00  0.00     0.010 A 
HETATM   14  C4  UNL     1      36.199  35.780  15.525  1.00  0.00     0.017 A 
HETATM   15  C5  UNL     1      34.912  35.741  15.997  1.00  0.00     0.034 A 
HETATM   16  C9  UNL     1      34.675  36.156  17.320  1.00  0.00     0.047 A 
BRANCH  15  17
HETATM   17  C6  UNL     1      33.807  35.287  15.175  1.00  0.00     0.251 C 
HETATM   18  O1  UNL     1      32.723  35.938  15.121  1.00  0.00    -0.268 OA
HETATM   19  N1  UNL     1      33.871  34.110  14.399  1.00  0.00    -0.355 N 
ATOM     20  H1  UNL     1      34.723  33.551  14.411  1.00  0.00     0.162 HD
BRANCH  19  21
HETATM   21  C7  UNL     1      32.749  33.675  13.582  1.00  0.00     0.148 C 
BRANCH  21  22
HETATM   22  C8  UNL     1      33.071  33.590  12.123  1.00  0.00     0.183 C 
BRANCH  22  23
HETATM   23  O2  UNL     1      31.977  33.246  11.345  1.00  0.00    -0.399 OA
ATOM     24  H2  UNL     1      31.182  33.700  11.600  1.00  0.00     0.209 HD
ENDBRANCH  22  23
ENDBRANCH  21  22
ENDBRANCH  19  21
ENDBRANCH  15  17
ENDBRANCH   1  10
BRANCH   5  25
HETATM   25  O3  UNL     1      34.718  38.060  23.385  1.00  0.00    -0.330 OA
BRANCH  25  26
HETATM   26  C13 UNL     1      35.679  38.561  24.249  1.00  0.00     0.219 C 
BRANCH  26  27
HETATM   27  C14 UNL     1      35.380  38.144  25.641  1.00  0.00     0.005 A 
HETATM   28  C15 UNL     1      35.017  36.895  26.028  1.00  0.00     0.015 A 
HETATM   29  C16 UNL     1      34.793  36.622  27.374  1.00  0.00     0.043 A 
HETATM   30  C17 UNL     1      34.933  37.595  28.328  1.00  0.00     0.119 A 
HETATM   31  F1  UNL     1      34.709  37.303  29.627  1.00  0.00    -0.206 F 
HETATM   32  C18 UNL     1      35.301  38.862  27.943  1.00  0.00     0.085 A 
HETATM   33  C19 UNL     1      35.521  39.124  26.610  1.00  0.00     0.127 A 
HETATM   34  F2  UNL     1      35.888  40.388  26.222  1.00  0.00    -0.205 F 
ENDBRANCH  26  27
ENDBRANCH  25  26
ENDBRANCH   5  25
TORSDOF 8
ENDMDL
