MODEL 4
REMARK VINA RESULT: -7.347913069      3.503      6.820
REMARK  2 active torsions:
REMARK  status: ('A' for Active; 'I' for Inactive)
REMARK    1  A    between atoms: N1_2  and  C2_4 
REMARK    2  A    between atoms: C6_12  and  N4_13 
ROOT
HETATM    1  C2  UNL     1      14.398  15.930  15.210  1.00  0.00     0.681 A 
HETATM    2  N2  UNL     1      15.325  16.431  16.055  1.00  0.00    -0.191 N 
ATOM      3  H2  UNL     1      16.140  16.905  15.665  1.00  0.00     0.184 HD
HETATM    4  C3  UNL     1      15.213  16.330  17.389  1.00  0.00     0.067 A 
HETATM    5  C4  UNL     1      16.192  16.863  18.190  1.00  0.00     0.063 A 
HETATM    6  C5  UNL     1      16.122  16.783  19.584  1.00  0.00     0.078 A 
HETATM    7  N3  UNL     1      16.894  17.192  20.604  1.00  0.00    -0.190 N 
ATOM      8  H3  UNL     1      17.776  17.694  20.498  1.00  0.00     0.184 HD
HETATM    9  C6  UNL     1      16.348  16.849  21.781  1.00  0.00     0.678 A 
HETATM   10  N5  UNL     1      15.206  16.211  21.486  1.00  0.00    -0.190 N 
ATOM     11  H5  UNL     1      14.560  15.825  22.175  1.00  0.00     0.184 HD
HETATM   12  C8  UNL     1      15.034  16.150  20.149  1.00  0.00     0.077 A 
HETATM   13  C9  UNL     1      14.036  15.607  19.346  1.00  0.00     0.052 A 
HETATM   14  C10 UNL     1      14.129  15.699  17.964  1.00  0.00     0.062 A 
HETATM   15  C11 UNL     1      13.183  15.187  17.107  1.00  0.00     0.272 A 
HETATM   16  O1  UNL     1      12.174  14.601  17.609  1.00  0.00    -0.267 OA
HETATM   17  N6  UNL     1      13.338  15.313  15.774  1.00  0.00    -0.155 N 
ATOM     18  H6  UNL     1      12.620  14.923  15.164  1.00  0.00     0.187 HD
ENDROOT
BRANCH   1  19
HETATM   19  N1  UNL     1      14.536  16.048  13.801  1.00  0.00    -0.230 N 
HETATM   20  C1  UNL     1      15.837  16.143  13.193  1.00  0.00     0.165 C 
ATOM     21  H1  UNL     1      13.702  16.065  13.213  1.00  0.00     0.177 HD
ENDBRANCH   1  19
BRANCH   9  22
HETATM   22  N4  UNL     1      16.878  17.113  23.096  1.00  0.00    -0.230 N 
HETATM   23  C7  UNL     1      18.294  17.151  23.300  1.00  0.00     0.165 C 
ATOM     24  H4  UNL     1      16.245  17.272  23.880  1.00  0.00     0.177 HD
ENDBRANCH   9  22
TORSDOF 2
ENDMDL
