MODEL 9
REMARK VINA RESULT: -7.074379760      1.316      1.462
REMARK  2 active torsions:
REMARK  status: ('A' for Active; 'I' for Inactive)
REMARK    1  A    between atoms: N1_2  and  C2_4 
REMARK    2  A    between atoms: C6_12  and  N4_13 
ROOT
HETATM    1  C2  UNL     1      16.050  16.489  22.720  1.00  0.00     0.681 A 
HETATM    2  N2  UNL     1      15.490  16.447  21.492  1.00  0.00    -0.191 N 
ATOM      3  H2  UNL     1      14.518  16.148  21.405  1.00  0.00     0.184 HD
HETATM    4  C3  UNL     1      16.164  16.783  20.380  1.00  0.00     0.067 A 
HETATM    5  C4  UNL     1      15.533  16.717  19.163  1.00  0.00     0.063 A 
HETATM    6  C5  UNL     1      16.192  17.057  17.978  1.00  0.00     0.078 A 
HETATM    7  N3  UNL     1      15.858  17.095  16.677  1.00  0.00    -0.190 N 
ATOM      8  H3  UNL     1      14.942  16.844  16.307  1.00  0.00     0.184 HD
HETATM    9  C6  UNL     1      16.896  17.507  15.932  1.00  0.00     0.678 A 
HETATM   10  N5  UNL     1      17.901  17.730  16.791  1.00  0.00    -0.190 N 
ATOM     11  H5  UNL     1      18.832  18.055  16.527  1.00  0.00     0.184 HD
HETATM   12  C8  UNL     1      17.507  17.465  18.054  1.00  0.00     0.077 A 
HETATM   13  C9  UNL     1      18.156  17.536  19.283  1.00  0.00     0.052 A 
HETATM   14  C10 UNL     1      17.480  17.193  20.446  1.00  0.00     0.062 A 
HETATM   15  C11 UNL     1      18.054  17.237  21.694  1.00  0.00     0.272 A 
HETATM   16  O1  UNL     1      19.265  17.611  21.784  1.00  0.00    -0.267 OA
HETATM   17  N6  UNL     1      17.338  16.890  22.782  1.00  0.00    -0.155 N 
ATOM     18  H6  UNL     1      17.790  16.933  23.695  1.00  0.00     0.187 HD
ENDROOT
BRANCH   1  19
HETATM   19  N1  UNL     1      15.319  16.128  23.882  1.00  0.00    -0.230 N 
HETATM   20  C1  UNL     1      14.107  15.358  23.783  1.00  0.00     0.165 C 
ATOM     21  H1  UNL     1      15.657  16.418  24.801  1.00  0.00     0.177 HD
ENDBRANCH   1  19
BRANCH   9  22
HETATM   22  N4  UNL     1      16.926  17.674  14.500  1.00  0.00    -0.230 N 
HETATM   23  C7  UNL     1      16.229  16.751  13.658  1.00  0.00     0.165 C 
ATOM     24  H4  UNL     1      17.445  18.450  14.087  1.00  0.00     0.177 HD
ENDBRANCH   9  22
TORSDOF 2
ENDMDL
