MODEL 1
REMARK VINA RESULT: -8.869305033      0.000      0.000
REMARK  2 active torsions:
REMARK  status: ('A' for Active; 'I' for Inactive)
REMARK    1  A    between atoms: N1_2  and  C2_4 
REMARK    2  A    between atoms: C6_12  and  N4_13 
ROOT
HETATM    1  C2  UNL     1      15.653  16.567  23.118  1.00  0.00     0.681 A 
HETATM    2  N2  UNL     1      15.493  16.582  21.777  1.00  0.00    -0.191 N 
ATOM      3  H2  UNL     1      14.582  16.340  21.388  1.00  0.00     0.184 HD
HETATM    4  C3  UNL     1      16.490  16.903  20.936  1.00  0.00     0.067 A 
HETATM    5  C4  UNL     1      16.257  16.898  19.583  1.00  0.00     0.063 A 
HETATM    6  C5  UNL     1      17.262  17.224  18.667  1.00  0.00     0.078 A 
HETATM    7  N3  UNL     1      17.343  17.307  17.329  1.00  0.00    -0.190 N 
ATOM      8  H3  UNL     1      16.573  17.116  16.688  1.00  0.00     0.184 HD
HETATM    9  C6  UNL     1      18.577  17.676  16.949  1.00  0.00     0.678 A 
HETATM   10  N5  UNL     1      19.282  17.825  18.080  1.00  0.00    -0.190 N 
ATOM     11  H5  UNL     1      20.262  18.102  18.123  1.00  0.00     0.184 HD
HETATM   12  C8  UNL     1      18.509  17.556  19.154  1.00  0.00     0.077 A 
HETATM   13  C9  UNL     1      18.754  17.565  20.523  1.00  0.00     0.052 A 
HETATM   14  C10 UNL     1      17.740  17.237  21.413  1.00  0.00     0.062 A 
HETATM   15  C11 UNL     1      17.908  17.223  22.778  1.00  0.00     0.272 A 
HETATM   16  O1  UNL     1      19.049  17.526  23.244  1.00  0.00    -0.267 OA
HETATM   17  N6  UNL     1      16.879  16.894  23.583  1.00  0.00    -0.155 N 
ATOM     18  H6  UNL     1      17.032  16.892  24.591  1.00  0.00     0.187 HD
ENDROOT
BRANCH   1  19
HETATM   19  N1  UNL     1      14.586  16.224  23.989  1.00  0.00    -0.230 N 
HETATM   20  C1  UNL     1      13.219  16.483  23.620  1.00  0.00     0.165 C 
ATOM     21  H1  UNL     1      14.791  15.788  24.889  1.00  0.00     0.177 HD
ENDBRANCH   1  19
BRANCH   9  22
HETATM   22  N4  UNL     1      19.051  17.871  15.601  1.00  0.00    -0.230 N 
HETATM   23  C7  UNL     1      18.168  18.393  14.602  1.00  0.00     0.165 C 
ATOM     24  H4  UNL     1      20.014  17.637  15.359  1.00  0.00     0.177 HD
ENDBRANCH   9  22
TORSDOF 2
ENDMDL
