MODEL 2
REMARK VINA RESULT: -7.762909541      3.463      4.772
REMARK  2 active torsions:
REMARK  status: ('A' for Active; 'I' for Inactive)
REMARK    1  A    between atoms: N1_2  and  C2_4 
REMARK    2  A    between atoms: C6_12  and  N4_13 
ROOT
HETATM    1  C2  UNL     1      16.129  16.610  22.927  1.00  0.00     0.681 A 
HETATM    2  N2  UNL     1      16.181  16.582  21.578  1.00  0.00    -0.191 N 
ATOM      3  H2  UNL     1      17.093  16.583  21.121  1.00  0.00     0.184 HD
HETATM    4  C3  UNL     1      15.076  16.553  20.815  1.00  0.00     0.067 A 
HETATM    5  C4  UNL     1      15.202  16.526  19.448  1.00  0.00     0.063 A 
HETATM    6  C5  UNL     1      14.083  16.495  18.611  1.00  0.00     0.078 A 
HETATM    7  N3  UNL     1      13.884  16.464  17.283  1.00  0.00    -0.190 N 
ATOM      8  H3  UNL     1      14.628  16.459  16.586  1.00  0.00     0.184 HD
HETATM    9  C6  UNL     1      12.572  16.442  16.998  1.00  0.00     0.678 A 
HETATM   10  N5  UNL     1      11.938  16.460  18.180  1.00  0.00    -0.190 N 
ATOM     11  H5  UNL     1      10.925  16.451  18.297  1.00  0.00     0.184 HD
HETATM   12  C8  UNL     1      12.831  16.493  19.192  1.00  0.00     0.077 A 
HETATM   13  C9  UNL     1      12.693  16.520  20.576  1.00  0.00     0.052 A 
HETATM   14  C10 UNL     1      13.820  16.551  21.386  1.00  0.00     0.062 A 
HETATM   15  C11 UNL     1      13.763  16.579  22.759  1.00  0.00     0.272 A 
HETATM   16  O1  UNL     1      12.620  16.578  23.311  1.00  0.00    -0.267 OA
HETATM   17  N6  UNL     1      14.899  16.608  23.484  1.00  0.00    -0.155 N 
ATOM     18  H6  UNL     1      14.825  16.629  24.501  1.00  0.00     0.187 HD
ENDROOT
BRANCH   1  19
HETATM   19  N1  UNL     1      17.310  16.641  23.715  1.00  0.00    -0.230 N 
HETATM   20  C1  UNL     1      18.528  17.207  23.198  1.00  0.00     0.165 C 
ATOM     21  H1  UNL     1      17.295  16.258  24.661  1.00  0.00     0.177 HD
ENDBRANCH   1  19
BRANCH   9  22
HETATM   22  N4  UNL     1      11.967  16.408  15.690  1.00  0.00    -0.230 N 
HETATM   23  C7  UNL     1      11.935  15.183  14.950  1.00  0.00     0.165 C 
ATOM     24  H4  UNL     1      11.561  17.255  15.293  1.00  0.00     0.177 HD
ENDBRANCH   9  22
TORSDOF 2
ENDMDL
