MODEL 16
REMARK VINA RESULT: -6.814245535      1.291      1.702
REMARK  2 active torsions:
REMARK  status: ('A' for Active; 'I' for Inactive)
REMARK    1  A    between atoms: N1_2  and  C2_4 
REMARK    2  A    between atoms: C6_12  and  N4_13 
ROOT
HETATM    1  C2  UNL     1      16.125  16.676  21.758  1.00  0.00     0.681 A 
HETATM    2  N2  UNL     1      15.723  16.702  20.469  1.00  0.00    -0.191 N 
ATOM      3  H2  UNL     1      14.756  16.459  20.251  1.00  0.00     0.184 HD
HETATM    4  C3  UNL     1      16.548  17.035  19.463  1.00  0.00     0.067 A 
HETATM    5  C4  UNL     1      16.072  17.041  18.176  1.00  0.00     0.063 A 
HETATM    6  C5  UNL     1      16.891  17.380  17.094  1.00  0.00     0.078 A 
HETATM    7  N3  UNL     1      16.726  17.476  15.765  1.00  0.00    -0.190 N 
ATOM      8  H3  UNL     1      15.852  17.286  15.275  1.00  0.00     0.184 HD
HETATM    9  C6  UNL     1      17.869  17.854  15.170  1.00  0.00     0.678 A 
HETATM   10  N5  UNL     1      18.767  17.997  16.155  1.00  0.00    -0.190 N 
ATOM     11  H5  UNL     1      19.738  18.278  16.020  1.00  0.00     0.184 HD
HETATM   12  C8  UNL     1      18.205  17.715  17.349  1.00  0.00     0.077 A 
HETATM   13  C9  UNL     1      18.696  17.713  18.650  1.00  0.00     0.052 A 
HETATM   14  C10 UNL     1      17.863  17.371  19.707  1.00  0.00     0.062 A 
HETATM   15  C11 UNL     1      18.277  17.347  21.018  1.00  0.00     0.272 A 
HETATM   16  O1  UNL     1      19.484  17.652  21.271  1.00  0.00    -0.267 OA
HETATM   17  N6  UNL     1      17.414  17.005  21.995  1.00  0.00    -0.155 N 
ATOM     18  H6  UNL     1      17.749  16.996  22.958  1.00  0.00     0.187 HD
ENDROOT
BRANCH   1  19
HETATM   19  N1  UNL     1      15.237  16.320  22.807  1.00  0.00    -0.230 N 
HETATM   20  C1  UNL     1      13.825  16.180  22.563  1.00  0.00     0.165 C 
ATOM     21  H1  UNL     1      15.603  16.161  23.746  1.00  0.00     0.177 HD
ENDBRANCH   1  19
BRANCH   9  22
HETATM   22  N4  UNL     1      18.087  18.063  13.760  1.00  0.00    -0.230 N 
HETATM   23  C7  UNL     1      19.320  18.629  13.304  1.00  0.00     0.165 C 
ATOM     24  H4  UNL     1      17.363  17.809  13.088  1.00  0.00     0.177 HD
ENDBRANCH   9  22
TORSDOF 2
ENDMDL
