MODEL 3
REMARK VINA RESULT: -7.560332655      1.161      6.142
REMARK  2 active torsions:
REMARK  status: ('A' for Active; 'I' for Inactive)
REMARK    1  A    between atoms: N1_2  and  C2_4 
REMARK    2  A    between atoms: C6_12  and  N4_13 
ROOT
HETATM    1  C2  UNL     1      18.508  17.728  17.290  1.00  0.00     0.681 A 
HETATM    2  N2  UNL     1      17.334  17.267  17.773  1.00  0.00    -0.191 N 
ATOM      3  H2  UNL     1      16.596  17.016  17.115  1.00  0.00     0.184 HD
HETATM    4  C3  UNL     1      17.101  17.126  19.088  1.00  0.00     0.067 A 
HETATM    5  C4  UNL     1      15.884  16.651  19.510  1.00  0.00     0.063 A 
HETATM    6  C5  UNL     1      15.594  16.487  20.868  1.00  0.00     0.078 A 
HETATM    7  N3  UNL     1      14.533  16.059  21.572  1.00  0.00    -0.190 N 
ATOM      8  H3  UNL     1      13.654  15.746  21.162  1.00  0.00     0.184 HD
HETATM    9  C6  UNL     1      14.788  16.101  22.890  1.00  0.00     0.678 A 
HETATM   10  N5  UNL     1      16.040  16.568  23.008  1.00  0.00    -0.190 N 
ATOM     11  H5  UNL     1      16.525  16.714  23.893  1.00  0.00     0.184 HD
HETATM   12  C8  UNL     1      16.566  16.816  21.790  1.00  0.00     0.077 A 
HETATM   13  C9  UNL     1      17.802  17.298  21.372  1.00  0.00     0.052 A 
HETATM   14  C10 UNL     1      18.067  17.452  20.018  1.00  0.00     0.062 A 
HETATM   15  C11 UNL     1      19.264  17.922  19.531  1.00  0.00     0.272 A 
HETATM   16  O1  UNL     1      20.171  18.230  20.365  1.00  0.00    -0.267 OA
HETATM   17  N6  UNL     1      19.452  18.047  18.203  1.00  0.00    -0.155 N 
ATOM     18  H6  UNL     1      20.350  18.398  17.870  1.00  0.00     0.187 HD
ENDROOT
BRANCH   1  19
HETATM   19  N1  UNL     1      18.733  17.870  15.896  1.00  0.00    -0.230 N 
HETATM   20  C1  UNL     1      17.632  18.041  14.984  1.00  0.00     0.165 C 
ATOM     21  H1  UNL     1      19.687  17.851  15.535  1.00  0.00     0.177 HD
ENDBRANCH   1  19
BRANCH   9  22
HETATM   22  N4  UNL     1      13.899  15.723  23.960  1.00  0.00    -0.230 N 
HETATM   23  C7  UNL     1      13.671  14.339  24.244  1.00  0.00     0.165 C 
ATOM     24  H4  UNL     1      13.434  16.442  24.515  1.00  0.00     0.177 HD
ENDBRANCH   9  22
TORSDOF 2
ENDMDL
