MODEL 1
REMARK VINA RESULT: -7.596445092      0.000      0.000
REMARK  10 active torsions:
REMARK  status: ('A' for Active; 'I' for Inactive)
REMARK    1  A    between atoms: N1_2  and  C1_4 
REMARK    2  A    between atoms: N2_11  and  C8_12 
REMARK    3  A    between atoms: C10_14  and  O3_15 
REMARK    4  A    between atoms: C11_17  and  C12_18 
REMARK    5  A    between atoms: C12_18  and  O4_19 
REMARK    6  A    between atoms: O4_19  and  P1_20 
REMARK    7  A    between atoms: P1_20  and  O7_23 
REMARK    8  A    between atoms: O7_23  and  P2_24 
REMARK    9  A    between atoms: P2_24  and  O10_27 
REMARK   10  A    between atoms: O10_27  and  P3_28 
ROOT
HETATM    1  C8  UNL     1      -7.215  47.988  19.333  1.00  0.00     0.230 C 
HETATM    2  C9  UNL     1      -6.056  47.112  18.900  1.00  0.00     0.088 C 
HETATM    3  C10 UNL     1      -5.565  47.925  17.704  1.00  0.00     0.153 C 
HETATM    4  C11 UNL     1      -6.100  49.288  17.997  1.00  0.00     0.177 C 
HETATM    5  O14 UNL     1      -6.627  49.250  19.292  1.00  0.00    -0.356 OA
ENDROOT
BRANCH   4   6
HETATM    6  C12 UNL     1      -4.991  50.343  17.984  1.00  0.00     0.216 C 
BRANCH   6   7
HETATM    7  O4  UNL     1      -5.618  51.586  17.996  1.00  0.00    -0.287 OA
BRANCH   7   8
HETATM    8  P1  UNL     1      -6.074  52.010  16.422  1.00  0.00     0.417 P 
HETATM    9  O5  UNL     1      -6.071  53.488  16.209  1.00  0.00    -0.624 OA
HETATM   10  O6  UNL     1      -4.956  51.334  15.345  1.00  0.00    -0.624 OA
BRANCH   8  11
HETATM   11  O7  UNL     1      -7.619  51.345  16.167  1.00  0.00    -0.180 OA
BRANCH  11  12
HETATM   12  P2  UNL     1      -7.753  50.724  14.603  1.00  0.00     0.428 P 
HETATM   13  O8  UNL     1      -6.823  49.542  14.488  1.00  0.00    -0.624 OA
HETATM   14  O9  UNL     1      -7.300  51.950  13.500  1.00  0.00    -0.624 OA
BRANCH  12  15
HETATM   15  O10 UNL     1      -9.352  50.301  14.249  1.00  0.00    -0.173 OA
BRANCH  15  16
HETATM   16  P3  UNL     1     -10.069  49.428  15.498  1.00  0.00     0.431 P 
HETATM   17  O11 UNL     1     -10.720  50.320  16.516  1.00  0.00    -0.616 OA
HETATM   18  O12 UNL     1     -11.298  48.475  14.783  1.00  0.00    -0.616 OA
HETATM   19  O13 UNL     1      -8.964  48.356  16.215  1.00  0.00    -0.616 OA
ENDBRANCH  15  16
ENDBRANCH  12  15
ENDBRANCH  11  12
ENDBRANCH   8  11
ENDBRANCH   7   8
ENDBRANCH   6   7
ENDBRANCH   4   6
BRANCH   3  20
HETATM   20  O3  UNL     1      -6.132  47.344  16.573  1.00  0.00    -0.393 OA
ATOM     21  H3  UNL     1      -5.437  47.275  15.929  1.00  0.00     0.210 HD
ENDBRANCH   3  20
BRANCH   1  22
HETATM   22  N2  UNL     1      -7.741  47.640  20.615  1.00  0.00    -0.329 N 
HETATM   23  C4  UNL     1      -8.828  48.208  21.167  1.00  0.00     0.046 A 
HETATM   24  C3  UNL     1      -9.706  49.197  20.747  1.00  0.00     0.033 A 
HETATM   25  C5  UNL     1      -9.039  47.621  22.411  1.00  0.00    -0.005 A 
HETATM   26  C2  UNL     1     -10.779  49.608  21.538  1.00  0.00     0.038 A 
HETATM   27  C1  UNL     1     -10.953  49.001  22.764  1.00  0.00     0.103 A 
HETATM   28  C13 UNL     1     -10.095  48.019  23.200  1.00  0.00     0.049 A 
HETATM   29  C6  UNL     1      -8.045  46.687  22.584  1.00  0.00     0.031 A 
HETATM   30  C7  UNL     1      -7.256  46.722  21.453  1.00  0.00     0.095 A 
BRANCH  27  31
HETATM   31  N1  UNL     1     -12.027  49.388  23.593  1.00  0.00    -0.116 N 
HETATM   32  O1  UNL     1     -12.895  50.158  23.124  1.00  0.00    -0.532 OA
HETATM   33  O2  UNL     1     -12.093  48.917  24.881  1.00  0.00    -0.532 OA
ENDBRANCH  27  31
ENDBRANCH   1  22
TORSDOF 10
ENDMDL
