MODEL 2
REMARK VINA RESULT: -7.595169059      0.915      1.353
REMARK  10 active torsions:
REMARK  status: ('A' for Active; 'I' for Inactive)
REMARK    1  A    between atoms: N1_2  and  C1_4 
REMARK    2  A    between atoms: N2_11  and  C8_12 
REMARK    3  A    between atoms: C10_14  and  O3_15 
REMARK    4  A    between atoms: C11_17  and  C12_18 
REMARK    5  A    between atoms: C12_18  and  O4_19 
REMARK    6  A    between atoms: O4_19  and  P1_20 
REMARK    7  A    between atoms: P1_20  and  O7_23 
REMARK    8  A    between atoms: O7_23  and  P2_24 
REMARK    9  A    between atoms: P2_24  and  O10_27 
REMARK   10  A    between atoms: O10_27  and  P3_28 
ROOT
HETATM    1  C8  UNL     1      -7.198  47.744  19.627  1.00  0.00     0.230 C 
HETATM    2  C9  UNL     1      -5.916  46.950  19.473  1.00  0.00     0.088 C 
HETATM    3  C10 UNL     1      -5.355  47.626  18.223  1.00  0.00     0.153 C 
HETATM    4  C11 UNL     1      -6.049  48.948  18.231  1.00  0.00     0.177 C 
HETATM    5  O14 UNL     1      -6.731  49.045  19.447  1.00  0.00    -0.356 OA
ENDROOT
BRANCH   4   6
HETATM    6  C12 UNL     1      -5.052  50.108  18.170  1.00  0.00     0.216 C 
BRANCH   6   7
HETATM    7  O4  UNL     1      -5.769  51.235  17.779  1.00  0.00    -0.287 OA
BRANCH   7   8
HETATM    8  P1  UNL     1      -5.384  51.629  16.178  1.00  0.00     0.417 P 
HETATM    9  O5  UNL     1      -4.097  52.379  16.073  1.00  0.00    -0.624 OA
HETATM   10  O6  UNL     1      -5.213  50.190  15.304  1.00  0.00    -0.624 OA
BRANCH   8  11
HETATM   11  O7  UNL     1      -6.688  52.538  15.573  1.00  0.00    -0.180 OA
BRANCH  11  12
HETATM   12  P2  UNL     1      -7.983  51.532  15.170  1.00  0.00     0.428 P 
HETATM   13  O8  UNL     1      -7.584  50.717  13.965  1.00  0.00    -0.624 OA
HETATM   14  O9  UNL     1      -9.333  52.518  14.805  1.00  0.00    -0.624 OA
BRANCH  12  15
HETATM   15  O10 UNL     1      -8.422  50.550  16.476  1.00  0.00    -0.173 OA
BRANCH  15  16
HETATM   16  P3  UNL     1      -8.937  49.026  15.978  1.00  0.00     0.431 P 
HETATM   17  O11 UNL     1      -7.797  48.156  15.531  1.00  0.00    -0.616 OA
HETATM   18  O12 UNL     1      -9.651  48.281  17.344  1.00  0.00    -0.616 OA
HETATM   19  O13 UNL     1     -10.144  49.140  14.788  1.00  0.00    -0.616 OA
ENDBRANCH  15  16
ENDBRANCH  12  15
ENDBRANCH  11  12
ENDBRANCH   8  11
ENDBRANCH   7   8
ENDBRANCH   6   7
ENDBRANCH   4   6
BRANCH   3  20
HETATM   20  O3  UNL     1      -5.715  46.821  17.146  1.00  0.00    -0.393 OA
ATOM     21  H3  UNL     1      -4.908  46.590  16.702  1.00  0.00     0.210 HD
ENDBRANCH   3  20
BRANCH   1  22
HETATM   22  N2  UNL     1      -7.848  47.535  20.881  1.00  0.00    -0.329 N 
HETATM   23  C4  UNL     1      -8.946  48.199  21.285  1.00  0.00     0.046 A 
HETATM   24  C3  UNL     1      -9.731  49.187  20.708  1.00  0.00     0.033 A 
HETATM   25  C5  UNL     1      -9.293  47.733  22.551  1.00  0.00    -0.005 A 
HETATM   26  C2  UNL     1     -10.844  49.715  21.364  1.00  0.00     0.038 A 
HETATM   27  C1  UNL     1     -11.153  49.226  22.616  1.00  0.00     0.103 A 
HETATM   28  C13 UNL     1     -10.389  48.248  23.206  1.00  0.00     0.049 A 
HETATM   29  C6  UNL     1      -8.369  46.773  22.888  1.00  0.00     0.031 A 
HETATM   30  C7  UNL     1      -7.486  46.672  21.833  1.00  0.00     0.095 A 
BRANCH  27  31
HETATM   31  N1  UNL     1     -12.271  49.734  23.311  1.00  0.00    -0.116 N 
HETATM   32  O1  UNL     1     -13.004  50.569  22.734  1.00  0.00    -0.532 OA
HETATM   33  O2  UNL     1     -12.524  49.306  24.591  1.00  0.00    -0.532 OA
ENDBRANCH  27  31
ENDBRANCH   1  22
TORSDOF 10
ENDMDL
