MODEL 3
REMARK VINA RESULT: -7.537582753      1.030      1.414
REMARK  10 active torsions:
REMARK  status: ('A' for Active; 'I' for Inactive)
REMARK    1  A    between atoms: N1_2  and  C1_4 
REMARK    2  A    between atoms: N2_11  and  C8_12 
REMARK    3  A    between atoms: C10_14  and  O3_15 
REMARK    4  A    between atoms: C11_17  and  C12_18 
REMARK    5  A    between atoms: C12_18  and  O4_19 
REMARK    6  A    between atoms: O4_19  and  P1_20 
REMARK    7  A    between atoms: P1_20  and  O7_23 
REMARK    8  A    between atoms: O7_23  and  P2_24 
REMARK    9  A    between atoms: P2_24  and  O10_27 
REMARK   10  A    between atoms: O10_27  and  P3_28 
ROOT
HETATM    1  C8  UNL     1      -7.210  47.257  19.601  1.00  0.00     0.230 C 
HETATM    2  C9  UNL     1      -5.909  46.482  19.674  1.00  0.00     0.088 C 
HETATM    3  C10 UNL     1      -5.304  46.890  18.331  1.00  0.00     0.153 C 
HETATM    4  C11 UNL     1      -6.020  48.165  18.028  1.00  0.00     0.177 C 
HETATM    5  O14 UNL     1      -6.757  48.501  19.167  1.00  0.00    -0.356 OA
ENDROOT
BRANCH   4   6
HETATM    6  C12 UNL     1      -5.041  49.311  17.760  1.00  0.00     0.216 C 
BRANCH   6   7
HETATM    7  O4  UNL     1      -5.186  49.660  16.420  1.00  0.00    -0.287 OA
BRANCH   7   8
HETATM    8  P1  UNL     1      -5.754  51.250  16.303  1.00  0.00     0.417 P 
HETATM    9  O5  UNL     1      -6.689  51.601  17.412  1.00  0.00    -0.624 OA
HETATM   10  O6  UNL     1      -4.426  52.296  16.399  1.00  0.00    -0.624 OA
BRANCH   8  11
HETATM   11  O7  UNL     1      -6.507  51.387  14.784  1.00  0.00    -0.180 OA
BRANCH  11  12
HETATM   12  P2  UNL     1      -7.837  50.353  14.678  1.00  0.00     0.428 P 
HETATM   13  O8  UNL     1      -7.329  48.934  14.730  1.00  0.00    -0.624 OA
HETATM   14  O9  UNL     1      -8.630  50.651  13.193  1.00  0.00    -0.624 OA
BRANCH  12  15
HETATM   15  O10 UNL     1      -8.952  50.666  15.911  1.00  0.00    -0.173 OA
BRANCH  15  16
HETATM   16  P3  UNL     1      -9.961  49.350  16.204  1.00  0.00     0.431 P 
HETATM   17  O11 UNL     1      -9.249  48.234  16.915  1.00  0.00    -0.616 OA
HETATM   18  O12 UNL     1     -11.206  49.909  17.236  1.00  0.00    -0.616 OA
HETATM   19  O13 UNL     1     -10.704  48.812  14.775  1.00  0.00    -0.616 OA
ENDBRANCH  15  16
ENDBRANCH  12  15
ENDBRANCH  11  12
ENDBRANCH   8  11
ENDBRANCH   7   8
ENDBRANCH   6   7
ENDBRANCH   4   6
BRANCH   3  20
HETATM   20  O3  UNL     1      -5.602  45.865  17.438  1.00  0.00    -0.393 OA
ATOM     21  H3  UNL     1      -5.217  46.114  16.606  1.00  0.00     0.210 HD
ENDBRANCH   3  20
BRANCH   1  22
HETATM   22  N2  UNL     1      -7.912  47.303  20.845  1.00  0.00    -0.329 N 
HETATM   23  C4  UNL     1      -8.975  48.092  21.085  1.00  0.00     0.046 A 
HETATM   24  C3  UNL     1      -9.672  49.015  20.319  1.00  0.00     0.033 A 
HETATM   25  C5  UNL     1      -9.392  47.869  22.395  1.00  0.00    -0.005 A 
HETATM   26  C2  UNL     1     -10.766  49.714  20.829  1.00  0.00     0.038 A 
HETATM   27  C1  UNL     1     -11.147  49.463  22.131  1.00  0.00     0.103 A 
HETATM   28  C13 UNL     1     -10.471  48.553  22.908  1.00  0.00     0.049 A 
HETATM   29  C6  UNL     1      -8.546  46.925  22.927  1.00  0.00     0.031 A 
HETATM   30  C7  UNL     1      -7.639  46.593  21.941  1.00  0.00     0.095 A 
BRANCH  27  31
HETATM   31  N1  UNL     1     -12.250  50.149  22.684  1.00  0.00    -0.116 N 
HETATM   32  O1  UNL     1     -12.841  50.996  21.977  1.00  0.00    -0.532 OA
HETATM   33  O2  UNL     1     -12.642  49.875  23.971  1.00  0.00    -0.532 OA
ENDBRANCH  27  31
ENDBRANCH   1  22
TORSDOF 10
ENDMDL
