MODEL 2
REMARK VINA RESULT: -7.210509828      3.269      4.330
REMARK  1 active torsions:
REMARK  status: ('A' for Active; 'I' for Inactive)
REMARK    1  A    between atoms: C6_7  and  C7_8 
ROOT
HETATM    1  N1  UNL     1      73.409  50.559  14.385  1.00  0.00    -0.083 NA
HETATM    2  C1  UNL     1      72.397  50.433  13.398  1.00  0.00     0.116 A 
HETATM    3  C2  UNL     1      71.329  51.311  13.316  1.00  0.00     0.046 A 
HETATM    4  C3  UNL     1      70.355  51.179  12.357  1.00  0.00     0.017 A 
HETATM    5  C4  UNL     1      70.420  50.160  11.446  1.00  0.00    -0.009 A 
HETATM    6  C5  UNL     1      69.460  50.002  10.474  1.00  0.00     0.026 A 
HETATM    7  C6  UNL     1      69.510  48.985   9.551  1.00  0.00    -0.025 A 
HETATM    8  C11 UNL     1      70.565  48.106   9.622  1.00  0.00     0.014 A 
HETATM    9  C12 UNL     1      71.530  48.261  10.597  1.00  0.00     0.031 A 
HETATM   10  C13 UNL     1      71.475  49.290  11.526  1.00  0.00     0.043 A 
HETATM   11  N2  UNL     1      72.417  49.441  12.476  1.00  0.00    -0.344 N 
ATOM     12  H2  UNL     1      73.188  48.772  12.503  1.00  0.00     0.167 HD
ENDROOT
BRANCH   7  13
HETATM   13  C7  UNL     1      68.461  48.824   8.496  1.00  0.00    -0.019 A 
HETATM   14  C8  UNL     1      68.756  48.432   7.231  1.00  0.00     0.020 A 
HETATM   15  C9  UNL     1      67.714  48.318   6.354  1.00  0.00     0.050 A 
HETATM   16  S1  UNL     1      66.363  48.752   7.297  1.00  0.00    -0.113 SA
HETATM   17  C10 UNL     1      67.144  49.067   8.774  1.00  0.00     0.061 A 
ENDBRANCH   7  13
TORSDOF 1
ENDMDL
