MODEL 1
REMARK VINA RESULT: -7.566280810      0.000      0.000
REMARK  1 active torsions:
REMARK  status: ('A' for Active; 'I' for Inactive)
REMARK    1  A    between atoms: C6_7  and  C7_8 
ROOT
HETATM    1  N1  UNL     1      73.181  47.289  11.504  1.00  0.00    -0.083 NA
HETATM    2  C1  UNL     1      72.410  48.480  11.520  1.00  0.00     0.116 A 
HETATM    3  C2  UNL     1      72.323  49.290  12.639  1.00  0.00     0.046 A 
HETATM    4  C3  UNL     1      71.574  50.441  12.645  1.00  0.00     0.017 A 
HETATM    5  C4  UNL     1      70.885  50.818  11.524  1.00  0.00    -0.009 A 
HETATM    6  C5  UNL     1      70.126  51.965  11.498  1.00  0.00     0.026 A 
HETATM    7  C6  UNL     1      69.429  52.359  10.382  1.00  0.00    -0.025 A 
HETATM    8  C11 UNL     1      69.506  51.563   9.263  1.00  0.00     0.014 A 
HETATM    9  C12 UNL     1      70.266  50.410   9.286  1.00  0.00     0.031 A 
HETATM   10  C13 UNL     1      70.969  50.018  10.416  1.00  0.00     0.043 A 
HETATM   11  N2  UNL     1      71.710  48.894  10.436  1.00  0.00    -0.344 N 
ATOM     12  H2  UNL     1      71.747  48.324   9.591  1.00  0.00     0.167 HD
ENDROOT
BRANCH   7  13
HETATM   13  C7  UNL     1      68.607  53.610  10.364  1.00  0.00    -0.019 A 
HETATM   14  C8  UNL     1      68.892  54.656   9.548  1.00  0.00     0.020 A 
HETATM   15  C9  UNL     1      68.070  55.746   9.619  1.00  0.00     0.050 A 
HETATM   16  S1  UNL     1      66.933  55.297  10.805  1.00  0.00    -0.113 SA
HETATM   17  C10 UNL     1      67.521  53.746  11.183  1.00  0.00     0.061 A 
ENDBRANCH   7  13
TORSDOF 1
ENDMDL
