MODEL 5
REMARK VINA RESULT: -7.001794164      3.839      5.508
REMARK  1 active torsions:
REMARK  status: ('A' for Active; 'I' for Inactive)
REMARK    1  A    between atoms: C6_7  and  C7_8 
ROOT
HETATM    1  N1  UNL     1      65.532  48.294   7.188  1.00  0.00    -0.083 NA
HETATM    2  C1  UNL     1      66.390  48.797   8.201  1.00  0.00     0.116 A 
HETATM    3  C2  UNL     1      65.989  49.782   9.088  1.00  0.00     0.046 A 
HETATM    4  C3  UNL     1      66.827  50.263  10.064  1.00  0.00     0.017 A 
HETATM    5  C4  UNL     1      68.098  49.768  10.184  1.00  0.00    -0.009 A 
HETATM    6  C5  UNL     1      68.959  50.228  11.152  1.00  0.00     0.026 A 
HETATM    7  C6  UNL     1      70.238  49.742  11.287  1.00  0.00    -0.025 A 
HETATM    8  C11 UNL     1      70.648  48.764  10.413  1.00  0.00     0.014 A 
HETATM    9  C12 UNL     1      69.785  48.300   9.440  1.00  0.00     0.031 A 
HETATM   10  C13 UNL     1      68.496  48.794   9.308  1.00  0.00     0.043 A 
HETATM   11  N2  UNL     1      67.655  48.340   8.359  1.00  0.00    -0.344 N 
ATOM     12  H2  UNL     1      67.988  47.614   7.725  1.00  0.00     0.167 HD
ENDROOT
BRANCH   7  13
HETATM   13  C7  UNL     1      71.167  50.249  12.345  1.00  0.00    -0.019 A 
HETATM   14  C8  UNL     1      70.973  51.434  12.977  1.00  0.00     0.020 A 
HETATM   15  C9  UNL     1      71.889  51.793  13.927  1.00  0.00     0.050 A 
HETATM   16  S1  UNL     1      72.985  50.489  13.921  1.00  0.00    -0.113 SA
HETATM   17  C10 UNL     1      72.264  49.523  12.721  1.00  0.00     0.061 A 
ENDBRANCH   7  13
TORSDOF 1
ENDMDL
