MODEL 3
REMARK VINA RESULT: -7.124979378      0.842      1.813
REMARK  1 active torsions:
REMARK  status: ('A' for Active; 'I' for Inactive)
REMARK    1  A    between atoms: C6_7  and  C7_8 
ROOT
HETATM    1  N1  UNL     1      73.121  47.157  10.942  1.00  0.00    -0.083 NA
HETATM    2  C1  UNL     1      72.329  48.296  10.641  1.00  0.00     0.116 A 
HETATM    3  C2  UNL     1      72.000  48.647   9.342  1.00  0.00     0.046 A 
HETATM    4  C3  UNL     1      71.234  49.751   9.061  1.00  0.00     0.017 A 
HETATM    5  C4  UNL     1      70.769  50.542  10.077  1.00  0.00    -0.009 A 
HETATM    6  C5  UNL     1      69.999  51.653   9.828  1.00  0.00     0.026 A 
HETATM    7  C6  UNL     1      69.523  52.458  10.836  1.00  0.00    -0.025 A 
HETATM    8  C11 UNL     1      69.843  52.121  12.130  1.00  0.00     0.014 A 
HETATM    9  C12 UNL     1      70.616  51.005  12.383  1.00  0.00     0.031 A 
HETATM   10  C13 UNL     1      71.093  50.197  11.363  1.00  0.00     0.043 A 
HETATM   11  N2  UNL     1      71.847  49.109  11.611  1.00  0.00    -0.344 N 
ATOM     12  H2  UNL     1      72.067  48.885  12.582  1.00  0.00     0.167 HD
ENDROOT
BRANCH   7  13
HETATM   13  C7  UNL     1      68.685  53.665  10.553  1.00  0.00    -0.019 A 
HETATM   14  C8  UNL     1      69.027  54.585   9.618  1.00  0.00     0.020 A 
HETATM   15  C9  UNL     1      68.182  55.647   9.447  1.00  0.00     0.050 A 
HETATM   16  S1  UNL     1      66.945  55.343  10.578  1.00  0.00    -0.113 SA
HETATM   17  C10 UNL     1      67.523  53.886  11.239  1.00  0.00     0.061 A 
ENDBRANCH   7  13
TORSDOF 1
ENDMDL
