MODEL 13
REMARK VINA RESULT: -6.694777237      3.565      5.432
REMARK  1 active torsions:
REMARK  status: ('A' for Active; 'I' for Inactive)
REMARK    1  A    between atoms: C6_7  and  C7_8 
ROOT
HETATM    1  N1  UNL     1      66.216  48.949   6.430  1.00  0.00    -0.083 NA
HETATM    2  C1  UNL     1      67.141  49.006   7.505  1.00  0.00     0.116 A 
HETATM    3  C2  UNL     1      67.719  47.869   8.044  1.00  0.00     0.046 A 
HETATM    4  C3  UNL     1      68.613  47.934   9.085  1.00  0.00     0.017 A 
HETATM    5  C4  UNL     1      68.958  49.146   9.620  1.00  0.00    -0.009 A 
HETATM    6  C5  UNL     1      69.850  49.245  10.661  1.00  0.00     0.026 A 
HETATM    7  C6  UNL     1      70.208  50.452  11.210  1.00  0.00    -0.025 A 
HETATM    8  C11 UNL     1      69.641  51.589  10.684  1.00  0.00     0.014 A 
HETATM    9  C12 UNL     1      68.744  51.494   9.638  1.00  0.00     0.031 A 
HETATM   10  C13 UNL     1      68.387  50.272   9.088  1.00  0.00     0.043 A 
HETATM   11  N2  UNL     1      67.512  50.180   8.068  1.00  0.00    -0.344 N 
ATOM     12  H2  UNL     1      67.108  51.041   7.699  1.00  0.00     0.167 HD
ENDROOT
BRANCH   7  13
HETATM   13  C7  UNL     1      71.182  50.548  12.342  1.00  0.00    -0.019 A 
HETATM   14  C8  UNL     1      71.159  51.568  13.237  1.00  0.00     0.020 A 
HETATM   15  C9  UNL     1      72.098  51.549  14.230  1.00  0.00     0.050 A 
HETATM   16  S1  UNL     1      72.980  50.129  13.903  1.00  0.00    -0.113 SA
HETATM   17  C10 UNL     1      72.145  49.594  12.521  1.00  0.00     0.061 A 
ENDBRANCH   7  13
TORSDOF 1
ENDMDL
