MODEL 16
REMARK VINA RESULT: -6.526132168      3.873      5.662
REMARK  1 active torsions:
REMARK  status: ('A' for Active; 'I' for Inactive)
REMARK    1  A    between atoms: C6_7  and  C7_8 
ROOT
HETATM    1  N1  UNL     1      64.748  48.144   7.202  1.00  0.00    -0.083 NA
HETATM    2  C1  UNL     1      65.898  48.397   7.994  1.00  0.00     0.116 A 
HETATM    3  C2  UNL     1      67.038  47.615   7.916  1.00  0.00     0.046 A 
HETATM    4  C3  UNL     1      68.146  47.868   8.687  1.00  0.00     0.017 A 
HETATM    5  C4  UNL     1      68.146  48.918   9.565  1.00  0.00    -0.009 A 
HETATM    6  C5  UNL     1      69.240  49.197  10.351  1.00  0.00     0.026 A 
HETATM    7  C6  UNL     1      69.258  50.247  11.237  1.00  0.00    -0.025 A 
HETATM    8  C11 UNL     1      68.132  51.031  11.326  1.00  0.00     0.014 A 
HETATM    9  C12 UNL     1      67.032  50.753  10.539  1.00  0.00     0.031 A 
HETATM   10  C13 UNL     1      67.020  49.692   9.645  1.00  0.00     0.043 A 
HETATM   11  N2  UNL     1      65.946  49.422   8.878  1.00  0.00    -0.344 N 
ATOM     12  H2  UNL     1      65.126  50.022   8.966  1.00  0.00     0.167 HD
ENDROOT
BRANCH   7  13
HETATM   13  C7  UNL     1      70.455  50.543  12.087  1.00  0.00    -0.019 A 
HETATM   14  C8  UNL     1      71.568  49.767  12.071  1.00  0.00     0.020 A 
HETATM   15  C9  UNL     1      72.598  50.137  12.889  1.00  0.00     0.050 A 
HETATM   16  S1  UNL     1      72.004  51.539  13.652  1.00  0.00    -0.113 SA
HETATM   17  C10 UNL     1      70.470  51.625  12.922  1.00  0.00     0.061 A 
ENDBRANCH   7  13
TORSDOF 1
ENDMDL
