MODEL 4
REMARK VINA RESULT: -7.303036355      2.823      4.881
REMARK  4 active torsions:
REMARK  status: ('A' for Active; 'I' for Inactive)
REMARK    1  A    between atoms: N1_1  and  C1_5 
REMARK    2  A    between atoms: C1_5  and  C2_6 
REMARK    3  A    between atoms: C1_5  and  C7_17 
REMARK    4  A    between atoms: C2_6  and  N2_7 
ROOT
HETATM    1  N2  UNL     1     -20.933   0.428 -18.832  1.00  0.00    -0.305 N 
HETATM    2  C3  UNL     1     -20.766  -0.895 -18.876  1.00  0.00     0.125 A 
HETATM    3  C4  UNL     1     -19.618  -1.455 -19.375  1.00  0.00     0.117 A 
HETATM    4 CL1  UNL     1     -19.463  -3.210 -19.404  1.00  0.00    -0.077 Cl
HETATM    5  C5  UNL     1     -18.628  -0.627 -19.836  1.00  0.00     0.272 A 
HETATM    6  O1  UNL     1     -17.571  -1.135 -20.294  1.00  0.00    -0.266 OA
HETATM    7  N3  UNL     1     -18.817   0.704 -19.781  1.00  0.00    -0.274 N 
ATOM      8  H3  UNL     1     -18.083   1.325 -20.121  1.00  0.00     0.173 HD
HETATM    9  C6  UNL     1     -19.951   1.234 -19.288  1.00  0.00     0.329 A 
HETATM   10  O2  UNL     1     -20.065   2.508 -19.266  1.00  0.00    -0.246 OA
ENDROOT
BRANCH   1  11
HETATM   11  C2  UNL     1     -22.131   1.048 -18.315  1.00  0.00     0.177 C 
BRANCH  11  12
HETATM   12  C1  UNL     1     -23.388   0.612 -18.996  1.00  0.00     0.301 C 
BRANCH  12  13
HETATM   13  N1  UNL     1     -23.280  -0.619 -19.716  1.00  0.00    -0.064 N 
ATOM     14  H13 UNL     1     -24.146  -0.814 -20.218  1.00  0.00     0.275 HD
ATOM     15  H12 UNL     1     -22.639  -0.514 -20.504  1.00  0.00     0.275 HD
ATOM     16  H11 UNL     1     -23.012  -1.422 -19.147  1.00  0.00     0.275 HD
ENDBRANCH  12  13
BRANCH  12  17
HETATM   17  C7  UNL     1     -23.761   1.680 -19.964  1.00  0.00     0.206 C 
HETATM   18  O3  UNL     1     -23.051   2.733 -20.094  1.00  0.00    -0.646 OA
HETATM   19  O4  UNL     1     -24.884   1.572 -20.758  1.00  0.00    -0.646 OA
ENDBRANCH  12  17
ENDBRANCH  11  12
ENDBRANCH   1  11
TORSDOF 4
ENDMDL
