MODEL 7
REMARK VINA RESULT: -6.892636188      2.879      4.818
REMARK  4 active torsions:
REMARK  status: ('A' for Active; 'I' for Inactive)
REMARK    1  A    between atoms: N1_1  and  C1_5 
REMARK    2  A    between atoms: C1_5  and  C2_6 
REMARK    3  A    between atoms: C1_5  and  C7_17 
REMARK    4  A    between atoms: C2_6  and  N2_7 
ROOT
HETATM    1  N2  UNL     1     -20.652   1.003 -19.138  1.00  0.00    -0.305 N 
HETATM    2  C3  UNL     1     -20.865  -0.313 -19.201  1.00  0.00     0.125 A 
HETATM    3  C4  UNL     1     -19.855  -1.186 -19.514  1.00  0.00     0.117 A 
HETATM    4 CL1  UNL     1     -20.204  -2.912 -19.581  1.00  0.00    -0.077 Cl
HETATM    5  C5  UNL     1     -18.605  -0.684 -19.765  1.00  0.00     0.272 A 
HETATM    6  O1  UNL     1     -17.672  -1.481 -20.052  1.00  0.00    -0.266 OA
HETATM    7  N3  UNL     1     -18.412   0.645 -19.695  1.00  0.00    -0.274 N 
ATOM      8  H3  UNL     1     -17.484   1.025 -19.879  1.00  0.00     0.173 HD
HETATM    9  C6  UNL     1     -19.417   1.486 -19.387  1.00  0.00     0.329 A 
HETATM   10  O2  UNL     1     -19.165   2.739 -19.337  1.00  0.00    -0.246 OA
ENDROOT
BRANCH   1  11
HETATM   11  C2  UNL     1     -21.695   1.949 -18.813  1.00  0.00     0.177 C 
BRANCH  11  12
HETATM   12  C1  UNL     1     -22.835   1.361 -18.044  1.00  0.00     0.301 C 
BRANCH  12  13
HETATM   13  N1  UNL     1     -22.469   0.306 -17.150  1.00  0.00    -0.064 N 
ATOM     14  H13 UNL     1     -21.757   0.627 -16.495  1.00  0.00     0.275 HD
ATOM     15  H12 UNL     1     -23.232   0.112 -16.500  1.00  0.00     0.275 HD
ATOM     16  H11 UNL     1     -22.167  -0.554 -17.608  1.00  0.00     0.275 HD
ENDBRANCH  12  13
BRANCH  12  17
HETATM   17  C7  UNL     1     -23.800   0.810 -19.035  1.00  0.00     0.206 C 
HETATM   18  O3  UNL     1     -24.432  -0.276 -18.811  1.00  0.00    -0.646 OA
HETATM   19  O4  UNL     1     -24.048   1.452 -20.231  1.00  0.00    -0.646 OA
ENDBRANCH  12  17
ENDBRANCH  11  12
ENDBRANCH   1  11
TORSDOF 4
ENDMDL
