MODEL 1
REMARK VINA RESULT: -8.864207942      0.000      0.000
REMARK  4 active torsions:
REMARK  status: ('A' for Active; 'I' for Inactive)
REMARK    1  A    between atoms: N1_1  and  C1_5 
REMARK    2  A    between atoms: C1_5  and  C2_6 
REMARK    3  A    between atoms: C1_5  and  C7_17 
REMARK    4  A    between atoms: C2_6  and  N2_7 
ROOT
HETATM    1  N2  UNL     1     -19.835  -1.139 -19.420  1.00  0.00    -0.305 N 
HETATM    2  C3  UNL     1     -20.835  -0.406 -18.926  1.00  0.00     0.125 A 
HETATM    3  C4  UNL     1     -20.736   0.957 -18.816  1.00  0.00     0.117 A 
HETATM    4 CL1  UNL     1     -22.095   1.864 -18.155  1.00  0.00    -0.077 Cl
HETATM    5  C5  UNL     1     -19.580   1.569 -19.225  1.00  0.00     0.272 A 
HETATM    6  O1  UNL     1     -19.483   2.821 -19.127  1.00  0.00    -0.266 OA
HETATM    7  N3  UNL     1     -18.585   0.811 -19.720  1.00  0.00    -0.274 N 
ATOM      8  H3  UNL     1     -17.722   1.260 -20.027  1.00  0.00     0.173 HD
HETATM    9  C6  UNL     1     -18.701  -0.526 -19.820  1.00  0.00     0.329 A 
HETATM   10  O2  UNL     1     -17.716  -1.186 -20.300  1.00  0.00    -0.246 OA
ENDROOT
BRANCH   1  11
HETATM   11  C2  UNL     1     -19.908  -2.576 -19.548  1.00  0.00     0.177 C 
BRANCH  11  12
HETATM   12  C1  UNL     1     -20.131  -3.055 -20.947  1.00  0.00     0.301 C 
BRANCH  12  13
HETATM   13  N1  UNL     1     -21.472  -2.907 -21.421  1.00  0.00    -0.064 N 
ATOM     14  H13 UNL     1     -21.927  -2.121 -20.957  1.00  0.00     0.275 HD
ATOM     15  H12 UNL     1     -21.473  -2.569 -22.383  1.00  0.00     0.275 HD
ATOM     16  H11 UNL     1     -22.046  -3.746 -21.339  1.00  0.00     0.275 HD
ENDBRANCH  12  13
BRANCH  12  17
HETATM   17  C7  UNL     1     -19.789  -4.503 -20.979  1.00  0.00     0.206 C 
HETATM   18  O3  UNL     1     -18.586  -4.903 -20.829  1.00  0.00    -0.646 OA
HETATM   19  O4  UNL     1     -20.757  -5.467 -21.171  1.00  0.00    -0.646 OA
ENDBRANCH  12  17
ENDBRANCH  11  12
ENDBRANCH   1  11
TORSDOF 4
ENDMDL
