MODEL 5
REMARK VINA RESULT: -7.192658359      1.186      1.352
REMARK  4 active torsions:
REMARK  status: ('A' for Active; 'I' for Inactive)
REMARK    1  A    between atoms: N1_1  and  C1_5 
REMARK    2  A    between atoms: C1_5  and  C2_6 
REMARK    3  A    between atoms: C1_5  and  C7_17 
REMARK    4  A    between atoms: C2_6  and  N2_7 
ROOT
HETATM    1  N2  UNL     1     -20.366  -0.576 -19.231  1.00  0.00    -0.305 N 
HETATM    2  C3  UNL     1     -21.615  -0.171 -18.999  1.00  0.00     0.125 A 
HETATM    3  C4  UNL     1     -21.940   1.160 -18.957  1.00  0.00     0.117 A 
HETATM    4 CL1  UNL     1     -23.611   1.627 -18.646  1.00  0.00    -0.077 Cl
HETATM    5  C5  UNL     1     -20.949   2.086 -19.158  1.00  0.00     0.272 A 
HETATM    6  O1  UNL     1     -21.240   3.311 -19.121  1.00  0.00    -0.266 OA
HETATM    7  N3  UNL     1     -19.696   1.656 -19.390  1.00  0.00    -0.274 N 
ATOM      8  H3  UNL     1     -18.955   2.339 -19.542  1.00  0.00     0.173 HD
HETATM    9  C6  UNL     1     -19.398   0.344 -19.427  1.00  0.00     0.329 A 
HETATM   10  O2  UNL     1     -18.186   0.004 -19.653  1.00  0.00    -0.246 OA
ENDROOT
BRANCH   1  11
HETATM   11  C2  UNL     1     -19.992  -1.971 -19.280  1.00  0.00     0.177 C 
BRANCH  11  12
HETATM   12  C1  UNL     1     -20.027  -2.565 -20.652  1.00  0.00     0.301 C 
BRANCH  12  13
HETATM   13  N1  UNL     1     -21.339  -2.724 -21.199  1.00  0.00    -0.064 N 
ATOM     14  H13 UNL     1     -21.918  -1.916 -20.971  1.00  0.00     0.275 HD
ATOM     15  H12 UNL     1     -21.312  -2.640 -22.215  1.00  0.00     0.275 HD
ATOM     16  H11 UNL     1     -21.811  -3.586 -20.927  1.00  0.00     0.275 HD
ENDBRANCH  12  13
BRANCH  12  17
HETATM   17  C7  UNL     1     -19.397  -3.911 -20.567  1.00  0.00     0.206 C 
HETATM   18  O3  UNL     1     -19.403  -4.708 -21.564  1.00  0.00    -0.646 OA
HETATM   19  O4  UNL     1     -18.785  -4.349 -19.411  1.00  0.00    -0.646 OA
ENDBRANCH  12  17
ENDBRANCH  11  12
ENDBRANCH   1  11
TORSDOF 4
ENDMDL
