MODEL 8
REMARK VINA RESULT: -5.787642952      2.588      5.659
REMARK  4 active torsions:
REMARK  status: ('A' for Active; 'I' for Inactive)
REMARK    1  A    between atoms: N1_1  and  C1_5 
REMARK    2  A    between atoms: C1_5  and  C2_6 
REMARK    3  A    between atoms: C1_5  and  C7_17 
REMARK    4  A    between atoms: C2_6  and  N2_7 
ROOT
HETATM    1  N2  UNL     1      17.663 -21.230 -28.129  1.00  0.00    -0.305 N 
HETATM    2  C3  UNL     1      18.390 -21.400 -27.024  1.00  0.00     0.125 A 
HETATM    3  C4  UNL     1      19.463 -20.593 -26.743  1.00  0.00     0.117 A 
HETATM    4 CL1  UNL     1      20.381 -20.871 -25.265  1.00  0.00    -0.077 Cl
HETATM    5  C5  UNL     1      19.784 -19.594 -27.624  1.00  0.00     0.272 A 
HETATM    6  O1  UNL     1      20.768 -18.849 -27.372  1.00  0.00    -0.266 OA
HETATM    7  N3  UNL     1      19.037 -19.441 -28.732  1.00  0.00    -0.274 N 
ATOM      8  H3  UNL     1      19.270 -18.699 -29.392  1.00  0.00     0.173 HD
HETATM    9  C6  UNL     1      17.988 -20.244 -28.990  1.00  0.00     0.329 A 
HETATM   10  O2  UNL     1      17.320 -20.042 -30.063  1.00  0.00    -0.246 OA
ENDROOT
BRANCH   1  11
HETATM   11  C2  UNL     1      16.529 -22.064 -28.454  1.00  0.00     0.177 C 
BRANCH  11  12
HETATM   12  C1  UNL     1      15.653 -22.387 -27.286  1.00  0.00     0.301 C 
BRANCH  12  13
HETATM   13  N1  UNL     1      14.634 -23.355 -27.554  1.00  0.00    -0.064 N 
ATOM     14  H13 UNL     1      14.187 -23.160 -28.449  1.00  0.00     0.275 HD
ATOM     15  H12 UNL     1      15.053 -24.262 -27.760  1.00  0.00     0.275 HD
ATOM     16  H11 UNL     1      13.932 -23.447 -26.820  1.00  0.00     0.275 HD
ENDBRANCH  12  13
BRANCH  12  17
HETATM   17  C7  UNL     1      14.986 -21.122 -26.870  1.00  0.00     0.206 C 
HETATM   18  O3  UNL     1      14.266 -20.454 -27.685  1.00  0.00    -0.646 OA
HETATM   19  O4  UNL     1      15.122 -20.624 -25.590  1.00  0.00    -0.646 OA
ENDBRANCH  12  17
ENDBRANCH  11  12
ENDBRANCH   1  11
TORSDOF 4
ENDMDL
