MODEL 1
REMARK VINA RESULT: -9.041668015      0.000      0.000
REMARK  4 active torsions:
REMARK  status: ('A' for Active; 'I' for Inactive)
REMARK    1  A    between atoms: N1_1  and  C1_5 
REMARK    2  A    between atoms: C1_5  and  C2_6 
REMARK    3  A    between atoms: C1_5  and  C7_17 
REMARK    4  A    between atoms: C2_6  and  N2_7 
ROOT
HETATM    1  N2  UNL     1      18.576 -20.963 -26.588  1.00  0.00    -0.305 N 
HETATM    2  C3  UNL     1      17.912 -21.048 -27.742  1.00  0.00     0.125 A 
HETATM    3  C4  UNL     1      16.546 -21.173 -27.774  1.00  0.00     0.117 A 
HETATM    4 CL1  UNL     1      15.731 -21.280 -29.332  1.00  0.00    -0.077 Cl
HETATM    5  C5  UNL     1      15.861 -21.209 -26.588  1.00  0.00     0.272 A 
HETATM    6  O1  UNL     1      14.606 -21.322 -26.610  1.00  0.00    -0.266 OA
HETATM    7  N3  UNL     1      16.550 -21.121 -25.436  1.00  0.00    -0.274 N 
ATOM      8  H3  UNL     1      16.046 -21.146 -24.550  1.00  0.00     0.173 HD
HETATM    9  C6  UNL     1      17.890 -21.000 -25.426  1.00  0.00     0.329 A 
HETATM   10  O2  UNL     1      18.484 -20.921 -24.295  1.00  0.00    -0.246 OA
ENDROOT
BRANCH   1  11
HETATM   11  C2  UNL     1      20.013 -20.833 -26.521  1.00  0.00     0.177 C 
BRANCH  11  12
HETATM   12  C1  UNL     1      20.489 -19.437 -26.274  1.00  0.00     0.301 C 
BRANCH  12  13
HETATM   13  N1  UNL     1      20.329 -18.548 -27.382  1.00  0.00    -0.064 N 
ATOM     14  H13 UNL     1      20.937 -18.826 -28.152  1.00  0.00     0.275 HD
ATOM     15  H12 UNL     1      19.417 -18.687 -27.820  1.00  0.00     0.275 HD
ATOM     16  H11 UNL     1      20.468 -17.562 -27.160  1.00  0.00     0.275 HD
ENDBRANCH  12  13
BRANCH  12  17
HETATM   17  C7  UNL     1      21.942 -19.515 -25.954  1.00  0.00     0.206 C 
HETATM   18  O3  UNL     1      22.362 -20.172 -24.944  1.00  0.00    -0.646 OA
HETATM   19  O4  UNL     1      22.886 -18.882 -26.736  1.00  0.00    -0.646 OA
ENDBRANCH  12  17
ENDBRANCH  11  12
ENDBRANCH   1  11
TORSDOF 4
ENDMDL
