MODEL 17
REMARK VINA RESULT: -4.998137405      1.176      1.176
REMARK  4 active torsions:
REMARK  status: ('A' for Active; 'I' for Inactive)
REMARK    1  A    between atoms: N1_1  and  C1_5 
REMARK    2  A    between atoms: C1_5  and  C2_6 
REMARK    3  A    between atoms: C1_5  and  C7_17 
REMARK    4  A    between atoms: C2_6  and  N2_7 
ROOT
HETATM    1  N2  UNL     1      18.120 -21.117 -26.485  1.00  0.00    -0.305 N 
HETATM    2  C3  UNL     1      18.043 -20.852 -27.790  1.00  0.00     0.125 A 
HETATM    3  C4  UNL     1      16.873 -21.017 -28.486  1.00  0.00     0.117 A 
HETATM    4 CL1  UNL     1      16.841 -20.648 -30.209  1.00  0.00    -0.077 Cl
HETATM    5  C5  UNL     1      15.766 -21.466 -27.815  1.00  0.00     0.272 A 
HETATM    6  O1  UNL     1      14.688 -21.619 -28.448  1.00  0.00    -0.266 OA
HETATM    7  N3  UNL     1      15.866 -21.727 -26.499  1.00  0.00    -0.274 N 
ATOM      8  H3  UNL     1      15.045 -22.060 -25.994  1.00  0.00     0.173 HD
HETATM    9  C6  UNL     1      17.023 -21.558 -25.834  1.00  0.00     0.329 A 
HETATM   10  O2  UNL     1      17.048 -21.825 -24.583  1.00  0.00    -0.246 OA
ENDROOT
BRANCH   1  11
HETATM   11  C2  UNL     1      19.338 -20.955 -25.724  1.00  0.00     0.177 C 
BRANCH  11  12
HETATM   12  C1  UNL     1      20.147 -19.760 -26.115  1.00  0.00     0.301 C 
BRANCH  12  13
HETATM   13  N1  UNL     1      20.186 -19.500 -27.521  1.00  0.00    -0.064 N 
ATOM     14  H13 UNL     1      19.841 -18.561 -27.718  1.00  0.00     0.275 HD
ATOM     15  H12 UNL     1      21.151 -19.403 -27.837  1.00  0.00     0.275 HD
ATOM     16  H11 UNL     1      19.693 -20.185 -28.093  1.00  0.00     0.275 HD
ENDBRANCH  12  13
BRANCH  12  17
HETATM   17  C7  UNL     1      21.542 -20.000 -25.653  1.00  0.00     0.206 C 
HETATM   18  O3  UNL     1      21.983 -21.182 -25.465  1.00  0.00    -0.646 OA
HETATM   19  O4  UNL     1      22.410 -18.955 -25.412  1.00  0.00    -0.646 OA
ENDBRANCH  12  17
ENDBRANCH  11  12
ENDBRANCH   1  11
TORSDOF 4
ENDMDL
