MODEL 7
REMARK VINA RESULT: -5.907869225      1.539      1.826
REMARK  4 active torsions:
REMARK  status: ('A' for Active; 'I' for Inactive)
REMARK    1  A    between atoms: N1_1  and  C1_5 
REMARK    2  A    between atoms: C1_5  and  C2_6 
REMARK    3  A    between atoms: C1_5  and  C7_17 
REMARK    4  A    between atoms: C2_6  and  N2_7 
ROOT
HETATM    1  N2  UNL     1      17.704 -20.952 -25.595  1.00  0.00    -0.305 N 
HETATM    2  C3  UNL     1      16.941 -20.662 -26.650  1.00  0.00     0.125 A 
HETATM    3  C4  UNL     1      15.731 -21.276 -26.849  1.00  0.00     0.117 A 
HETATM    4 CL1  UNL     1      14.772 -20.845 -28.263  1.00  0.00    -0.077 Cl
HETATM    5  C5  UNL     1      15.308 -22.208 -25.937  1.00  0.00     0.272 A 
HETATM    6  O1  UNL     1      14.197 -22.775 -26.113  1.00  0.00    -0.266 OA
HETATM    7  N3  UNL     1      16.093 -22.485 -24.880  1.00  0.00    -0.274 N 
ATOM      8  H3  UNL     1      15.783 -23.176 -24.198  1.00  0.00     0.173 HD
HETATM    9  C6  UNL     1      17.277 -21.871 -24.703  1.00  0.00     0.329 A 
HETATM   10  O2  UNL     1      17.974 -22.182 -23.676  1.00  0.00    -0.246 OA
ENDROOT
BRANCH   1  11
HETATM   11  C2  UNL     1      18.983 -20.324 -25.359  1.00  0.00     0.177 C 
BRANCH  11  12
HETATM   12  C1  UNL     1      20.095 -20.866 -26.199  1.00  0.00     0.301 C 
BRANCH  12  13
HETATM   13  N1  UNL     1      20.546 -22.170 -25.820  1.00  0.00    -0.064 N 
ATOM     14  H13 UNL     1      20.998 -22.137 -24.907  1.00  0.00     0.275 HD
ATOM     15  H12 UNL     1      19.751 -22.771 -25.602  1.00  0.00     0.275 HD
ATOM     16  H11 UNL     1      21.156 -22.622 -26.502  1.00  0.00     0.275 HD
ENDBRANCH  12  13
BRANCH  12  17
HETATM   17  C7  UNL     1      21.243 -19.927 -26.073  1.00  0.00     0.206 C 
HETATM   18  O3  UNL     1      21.298 -18.853 -26.759  1.00  0.00    -0.646 OA
HETATM   19  O4  UNL     1      22.291 -20.183 -25.211  1.00  0.00    -0.646 OA
ENDBRANCH  12  17
ENDBRANCH  11  12
ENDBRANCH   1  11
TORSDOF 4
ENDMDL
