MODEL 16
REMARK VINA RESULT: -5.036025648      0.893      1.130
REMARK  4 active torsions:
REMARK  status: ('A' for Active; 'I' for Inactive)
REMARK    1  A    between atoms: N1_1  and  C1_5 
REMARK    2  A    between atoms: C1_5  and  C2_6 
REMARK    3  A    between atoms: C1_5  and  C7_17 
REMARK    4  A    between atoms: C2_6  and  N2_7 
ROOT
HETATM    1  N2  UNL     1      18.730 -21.163 -26.472  1.00  0.00    -0.305 N 
HETATM    2  C3  UNL     1      18.106 -21.085 -27.648  1.00  0.00     0.125 A 
HETATM    3  C4  UNL     1      16.738 -21.130 -27.736  1.00  0.00     0.117 A 
HETATM    4 CL1  UNL     1      15.977 -21.022 -29.321  1.00  0.00    -0.077 Cl
HETATM    5  C5  UNL     1      16.008 -21.259 -26.583  1.00  0.00     0.272 A 
HETATM    6  O1  UNL     1      14.751 -21.301 -26.657  1.00  0.00    -0.266 OA
HETATM    7  N3  UNL     1      16.658 -21.336 -25.408  1.00  0.00    -0.274 N 
ATOM      8  H3  UNL     1      16.121 -21.431 -24.547  1.00  0.00     0.173 HD
HETATM    9  C6  UNL     1      18.002 -21.290 -25.343  1.00  0.00     0.329 A 
HETATM   10  O2  UNL     1      18.556 -21.368 -24.193  1.00  0.00    -0.246 OA
ENDROOT
BRANCH   1  11
HETATM   11  C2  UNL     1      20.169 -21.120 -26.346  1.00  0.00     0.177 C 
BRANCH  11  12
HETATM   12  C1  UNL     1      20.684 -19.906 -25.641  1.00  0.00     0.301 C 
BRANCH  12  13
HETATM   13  N1  UNL     1      19.670 -19.004 -25.189  1.00  0.00    -0.064 N 
ATOM     14  H13 UNL     1      20.085 -18.254 -24.637  1.00  0.00     0.275 HD
ATOM     15  H12 UNL     1      19.302 -18.464 -25.973  1.00  0.00     0.275 HD
ATOM     16  H11 UNL     1      18.909 -19.445 -24.673  1.00  0.00     0.275 HD
ENDBRANCH  12  13
BRANCH  12  17
HETATM   17  C7  UNL     1      21.558 -19.174 -26.599  1.00  0.00     0.206 C 
HETATM   18  O3  UNL     1      21.063 -18.428 -27.508  1.00  0.00    -0.646 OA
HETATM   19  O4  UNL     1      22.933 -19.274 -26.540  1.00  0.00    -0.646 OA
ENDBRANCH  12  17
ENDBRANCH  11  12
ENDBRANCH   1  11
TORSDOF 4
ENDMDL
