MODEL 2
REMARK VINA RESULT: -8.258814456      4.205      8.658
REMARK  5 active torsions:
REMARK  status: ('A' for Active; 'I' for Inactive)
REMARK    1  A    between atoms: C9_12  and  C10_13 
REMARK    2  A    between atoms: C10_13  and  C11_14 
REMARK    3  A    between atoms: C11_14  and  C12_15 
REMARK       I    between atoms: C12_15  and  N3_17 
REMARK    4  A    between atoms: N3_17  and  C13_19 
REMARK    5  A    between atoms: C13_19  and  C14_20 
ROOT
HETATM    1  C10 UNL     1      71.152  50.440   9.304  1.00  0.00     0.051 C 
ENDROOT
BRANCH   1   2
HETATM    2  C9  UNL     1      71.356  49.712   8.042  1.00  0.00    -0.016 A 
HETATM    3  C1  UNL     1      70.269  49.517   7.215  1.00  0.00     0.123 A 
HETATM    4  N1  UNL     1      68.973  50.013   7.571  1.00  0.00    -0.082 NA
HETATM    5  N2  UNL     1      70.474  48.845   6.063  1.00  0.00    -0.344 N 
HETATM    6  C2  UNL     1      71.674  48.366   5.693  1.00  0.00     0.043 A 
ATOM      7  H2  UNL     1      69.679  48.692   5.442  1.00  0.00     0.167 HD
HETATM    8  C3  UNL     1      71.858  47.677   4.502  1.00  0.00     0.030 A 
HETATM    9  C7  UNL     1      72.782  48.542   6.494  1.00  0.00    -0.009 A 
HETATM   10  C4  UNL     1      73.090  47.186   4.127  1.00  0.00     0.002 A 
HETATM   11  C5  UNL     1      74.197  47.362   4.930  1.00  0.00     0.001 A 
HETATM   12  C6  UNL     1      74.019  48.048   6.117  1.00  0.00     0.014 A 
HETATM   13  C8  UNL     1      72.595  49.226   7.678  1.00  0.00     0.024 A 
ENDBRANCH   1   2
BRANCH   1  14
HETATM   14  C11 UNL     1      71.033  49.538  10.494  1.00  0.00     0.107 C 
BRANCH  14  15
HETATM   15  C12 UNL     1      69.632  49.652  11.025  1.00  0.00     0.217 C 
HETATM   16  O1  UNL     1      68.973  48.609  11.169  1.00  0.00    -0.274 OA
HETATM   17  N3  UNL     1      69.065  50.894  11.355  1.00  0.00    -0.361 N 
ATOM     18  H3  UNL     1      69.667  51.706  11.223  1.00  0.00     0.162 HD
BRANCH  17  19
HETATM   19  C13 UNL     1      67.767  51.161  11.847  1.00  0.00     0.127 C 
BRANCH  19  20
HETATM   20  C14 UNL     1      67.184  52.506  11.739  1.00  0.00     0.003 C 
HETATM   21  C15 UNL     1      65.702  52.662  11.682  1.00  0.00     0.006 C 
HETATM   22  C16 UNL     1      65.438  54.134  12.025  1.00  0.00     0.000 C 
HETATM   23  C17 UNL     1      66.287  55.095  11.306  1.00  0.00     0.000 C 
HETATM   24  C18 UNL     1      67.266  54.581  10.337  1.00  0.00     0.000 C 
HETATM   25  C19 UNL     1      67.681  53.174  10.453  1.00  0.00     0.006 C 
ENDBRANCH  19  20
ENDBRANCH  17  19
ENDBRANCH  14  15
ENDBRANCH   1  14
TORSDOF 5
ENDMDL
