MODEL 1
REMARK VINA RESULT: -8.781722031      0.000      0.000
REMARK  5 active torsions:
REMARK  status: ('A' for Active; 'I' for Inactive)
REMARK    1  A    between atoms: C9_12  and  C10_13 
REMARK    2  A    between atoms: C10_13  and  C11_14 
REMARK    3  A    between atoms: C11_14  and  C12_15 
REMARK       I    between atoms: C12_15  and  N3_17 
REMARK    4  A    between atoms: N3_17  and  C13_19 
REMARK    5  A    between atoms: C13_19  and  C14_20 
ROOT
HETATM    1  C10 UNL     1      65.931  54.868  11.922  1.00  0.00     0.051 C 
ENDROOT
BRANCH   1   2
HETATM    2  C9  UNL     1      64.897  53.821  11.922  1.00  0.00    -0.016 A 
HETATM    3  C1  UNL     1      63.710  54.072  11.266  1.00  0.00     0.123 A 
HETATM    4  N1  UNL     1      63.486  55.318  10.597  1.00  0.00    -0.082 NA
HETATM    5  N2  UNL     1      62.772  53.101  11.279  1.00  0.00    -0.344 N 
HETATM    6  C2  UNL     1      62.945  51.919  11.894  1.00  0.00     0.043 A 
ATOM      7  H2  UNL     1      61.889  53.273  10.799  1.00  0.00     0.167 HD
HETATM    8  C3  UNL     1      61.964  50.937  11.893  1.00  0.00     0.030 A 
HETATM    9  C7  UNL     1      64.118  51.634  12.560  1.00  0.00    -0.009 A 
HETATM   10  C4  UNL     1      62.144  49.726  12.526  1.00  0.00     0.002 A 
HETATM   11  C5  UNL     1      63.317  49.443  13.191  1.00  0.00     0.001 A 
HETATM   12  C6  UNL     1      64.297  50.417  13.195  1.00  0.00     0.014 A 
HETATM   13  C8  UNL     1      65.090  52.612  12.560  1.00  0.00     0.024 A 
ENDBRANCH   1   2
BRANCH   1  14
HETATM   14  C11 UNL     1      66.509  55.127  10.564  1.00  0.00     0.107 C 
BRANCH  14  15
HETATM   15  C12 UNL     1      67.779  54.333  10.442  1.00  0.00     0.217 C 
HETATM   16  O1  UNL     1      68.842  54.951  10.261  1.00  0.00    -0.274 OA
HETATM   17  N3  UNL     1      67.786  52.932  10.528  1.00  0.00    -0.361 N 
ATOM     18  H3  UNL     1      66.880  52.492  10.689  1.00  0.00     0.162 HD
BRANCH  17  19
HETATM   19  C13 UNL     1      68.888  52.052  10.419  1.00  0.00     0.127 C 
BRANCH  19  20
HETATM   20  C14 UNL     1      68.713  50.603  10.581  1.00  0.00     0.003 C 
HETATM   21  C15 UNL     1      67.911  50.083  11.726  1.00  0.00     0.006 C 
HETATM   22  C16 UNL     1      67.560  48.638  11.349  1.00  0.00     0.000 C 
HETATM   23  C17 UNL     1      68.688  47.842  10.847  1.00  0.00     0.000 C 
HETATM   24  C18 UNL     1      70.015  48.471  10.772  1.00  0.00     0.000 C 
HETATM   25  C19 UNL     1      70.084  49.941  10.752  1.00  0.00     0.006 C 
ENDBRANCH  19  20
ENDBRANCH  17  19
ENDBRANCH  14  15
ENDBRANCH   1  14
TORSDOF 5
ENDMDL
