MODEL 4
REMARK VINA RESULT: -8.164219181      1.604      2.262
REMARK  5 active torsions:
REMARK  status: ('A' for Active; 'I' for Inactive)
REMARK    1  A    between atoms: C9_12  and  C10_13 
REMARK    2  A    between atoms: C10_13  and  C11_14 
REMARK    3  A    between atoms: C11_14  and  C12_15 
REMARK       I    between atoms: C12_15  and  N3_17 
REMARK    4  A    between atoms: N3_17  and  C13_19 
REMARK    5  A    between atoms: C13_19  and  C14_20 
ROOT
HETATM    1  C10 UNL     1      66.267  54.355  11.724  1.00  0.00     0.051 C 
ENDROOT
BRANCH   1   2
HETATM    2  C9  UNL     1      65.025  53.567  11.749  1.00  0.00    -0.016 A 
HETATM    3  C1  UNL     1      63.894  54.108  11.175  1.00  0.00     0.123 A 
HETATM    4  N1  UNL     1      63.923  55.404  10.565  1.00  0.00    -0.082 NA
HETATM    5  N2  UNL     1      62.763  53.372  11.210  1.00  0.00    -0.344 N 
HETATM    6  C2  UNL     1      62.695  52.153  11.771  1.00  0.00     0.043 A 
ATOM      7  H2  UNL     1      61.918  53.760  10.790  1.00  0.00     0.167 HD
HETATM    8  C3  UNL     1      61.519  51.417  11.793  1.00  0.00     0.030 A 
HETATM    9  C7  UNL     1      63.805  51.581  12.354  1.00  0.00    -0.009 A 
HETATM   10  C4  UNL     1      61.453  50.167  12.371  1.00  0.00     0.002 A 
HETATM   11  C5  UNL     1      62.563  49.597  12.955  1.00  0.00     0.001 A 
HETATM   12  C6  UNL     1      63.738  50.326  12.934  1.00  0.00     0.014 A 
HETATM   13  C8  UNL     1      64.972  52.316  12.330  1.00  0.00     0.024 A 
ENDBRANCH   1   2
BRANCH   1  14
HETATM   14  C11 UNL     1      67.146  54.035  10.553  1.00  0.00     0.107 C 
BRANCH  14  15
HETATM   15  C12 UNL     1      67.921  52.790  10.881  1.00  0.00     0.217 C 
HETATM   16  O1  UNL     1      68.275  52.613  12.059  1.00  0.00    -0.274 OA
HETATM   17  N3  UNL     1      68.243  51.840   9.899  1.00  0.00    -0.361 N 
ATOM     18  H3  UNL     1      67.910  52.044   8.957  1.00  0.00     0.162 HD
BRANCH  17  19
HETATM   19  C13 UNL     1      68.972  50.637  10.049  1.00  0.00     0.127 C 
BRANCH  19  20
HETATM   20  C14 UNL     1      70.344  50.520   9.537  1.00  0.00     0.003 C 
HETATM   21  C15 UNL     1      70.566  50.207   8.096  1.00  0.00     0.006 C 
HETATM   22  C16 UNL     1      72.023  50.598   7.818  1.00  0.00     0.000 C 
HETATM   23  C17 UNL     1      72.991  50.113   8.813  1.00  0.00     0.000 C 
HETATM   24  C18 UNL     1      72.498  49.304   9.937  1.00  0.00     0.000 C 
HETATM   25  C19 UNL     1      71.070  49.395  10.282  1.00  0.00     0.006 C 
ENDBRANCH  19  20
ENDBRANCH  17  19
ENDBRANCH  14  15
ENDBRANCH   1  14
TORSDOF 5
ENDMDL
