MODEL 1
REMARK VINA RESULT: -12.329141413      0.000      0.000
REMARK  12 active torsions:
REMARK  status: ('A' for Active; 'I' for Inactive)
REMARK    1  A    between atoms: N5_13  and  C6_14 
REMARK    2  A    between atoms: C7_16  and  C8_17 
REMARK    3  A    between atoms: C8_17  and  N6_18 
REMARK    4  A    between atoms: N6_18  and  S1_20 
REMARK    5  A    between atoms: S1_20  and  N7_23 
REMARK       I    between atoms: N7_23  and  C9_25 
REMARK    6  A    between atoms: C9_25  and  C10_27 
REMARK    7  A    between atoms: C10_27  and  C11_28 
REMARK    8  A    between atoms: C11_28  and  C12_29 
REMARK    9  A    between atoms: C12_29  and  C13_30 
REMARK   10  A    between atoms: C13_30  and  C14_31 
REMARK   11  A    between atoms: C19_42  and  O6_43 
REMARK   12  A    between atoms: C20_45  and  O7_46 
ROOT
HETATM    1  N6  UNL     1      -4.187  -3.522   6.885  1.00  0.00    -0.300 N 
ATOM      2  H6  UNL     1      -4.021  -3.297   7.865  1.00  0.00     0.173 HD
ENDROOT
BRANCH   1   3
HETATM    3  C8  UNL     1      -4.528  -2.540   5.876  1.00  0.00     0.168 C 
BRANCH   3   4
HETATM    4  C7  UNL     1      -5.203  -1.334   6.454  1.00  0.00     0.174 C 
HETATM    5  O1  UNL     1      -5.704  -1.614   7.756  1.00  0.00    -0.354 OA
HETATM    6  C6  UNL     1      -6.215  -0.347   8.070  1.00  0.00     0.262 C 
HETATM    7  C20 UNL     1      -5.106   0.624   7.763  1.00  0.00     0.198 C 
HETATM    8  C19 UNL     1      -4.230  -0.218   6.824  1.00  0.00     0.181 C 
BRANCH   6   9
HETATM    9  N5  UNL     1      -6.710  -0.291   9.412  1.00  0.00    -0.297 N 
HETATM   10  C3  UNL     1      -5.993  -0.416  10.550  1.00  0.00     0.142 A 
HETATM   11  N3  UNL     1      -4.695  -0.614  10.800  1.00  0.00    -0.336 N 
HETATM   12  C4  UNL     1      -6.855  -0.306  11.649  1.00  0.00     0.119 A 
HETATM   13  C2  UNL     1      -4.198  -0.707  12.042  1.00  0.00     0.183 A 
ATOM     14  H3  UNL     1      -4.054  -0.697  10.012  1.00  0.00     0.168 HD
HETATM   15  N2  UNL     1      -5.053  -0.597  13.095  1.00  0.00    -0.339 N 
HETATM   16  C1  UNL     1      -6.373  -0.399  12.936  1.00  0.00     0.148 A 
ATOM     17  H2  UNL     1      -4.678  -0.668  14.041  1.00  0.00     0.167 HD
HETATM   18  N1  UNL     1      -7.224  -0.291  14.067  1.00  0.00    -0.080 NA
HETATM   19  N4  UNL     1      -8.058  -0.119  11.123  1.00  0.00    -0.346 N 
HETATM   20  C5  UNL     1      -7.988  -0.106   9.770  1.00  0.00     0.188 A 
ATOM     21  H4  UNL     1      -8.916   0.000  11.662  1.00  0.00     0.167 HD
ENDBRANCH   6   9
BRANCH   7  22
HETATM   22  O7  UNL     1      -5.625   1.726   7.096  1.00  0.00    -0.388 OA
ATOM     23  H7  UNL     1      -5.714   2.452   7.704  1.00  0.00     0.210 HD
ENDBRANCH   7  22
BRANCH   8  24
HETATM   24  O6  UNL     1      -3.786   0.499   5.741  1.00  0.00    -0.390 OA
ATOM     25  H6  UNL     1      -3.587   1.405   5.945  1.00  0.00     0.210 HD
ENDBRANCH   8  24
ENDBRANCH   3   4
ENDBRANCH   1   3
BRANCH   1  26
HETATM   26  S1  UNL     1      -4.095  -5.108   6.237  1.00  0.00     0.321 S 
HETATM   27  O2  UNL     1      -5.459  -5.388   5.612  1.00  0.00    -0.182 OA
HETATM   28  O3  UNL     1      -3.093  -5.195   5.130  1.00  0.00    -0.182 OA
BRANCH  26  29
HETATM   29  N7  UNL     1      -3.856  -6.328   7.412  1.00  0.00    -0.237 N 
HETATM   30  C9  UNL     1      -4.584  -6.452   8.618  1.00  0.00     0.232 C 
HETATM   31  O4  UNL     1      -5.485  -5.636   8.904  1.00  0.00    -0.273 OA
ATOM     32  H7  UNL     1      -3.131  -7.021   7.228  1.00  0.00     0.183 HD
BRANCH  30  33
HETATM   33  C10 UNL     1      -4.241  -7.597   9.549  1.00  0.00     0.104 C 
BRANCH  33  34
HETATM   34  C11 UNL     1      -3.836  -7.040  10.856  1.00  0.00     0.009 C 
BRANCH  34  35
HETATM   35  C12 UNL     1      -4.061  -7.815  12.079  1.00  0.00     0.002 C 
BRANCH  35  36
HETATM   36  C13 UNL     1      -3.655  -9.214  12.222  1.00  0.00     0.017 C 
BRANCH  36  37
HETATM   37  C14 UNL     1      -3.482  -9.811  13.544  1.00  0.00     0.072 C 
HETATM   38  S2  UNL     1      -3.502  -8.530  14.877  1.00  0.00    -0.160 SA
HETATM   39  C15 UNL     1      -2.679  -9.597  16.107  1.00  0.00     0.101 C 
HETATM   40  C16 UNL     1      -2.007 -10.624  15.312  1.00  0.00     0.119 C 
HETATM   41  N8  UNL     1      -0.545 -10.523  15.450  1.00  0.00    -0.336 N 
HETATM   42  C18 UNL     1      -2.290 -10.583  13.865  1.00  0.00     0.123 C 
HETATM   43  C17 UNL     1      -0.128  -9.720  14.354  1.00  0.00     0.316 C 
ATOM     44  H8  UNL     1       0.040 -10.938  16.175  1.00  0.00     0.164 HD
HETATM   45  O5  UNL     1       0.907  -9.018  14.363  1.00  0.00    -0.247 OA
HETATM   46  N9  UNL     1      -1.111  -9.904  13.321  1.00  0.00    -0.335 N 
ATOM     47  H9  UNL     1      -1.003  -9.606  12.352  1.00  0.00     0.164 HD
ENDBRANCH  36  37
ENDBRANCH  35  36
ENDBRANCH  34  35
ENDBRANCH  33  34
ENDBRANCH  30  33
ENDBRANCH  26  29
ENDBRANCH   1  26
TORSDOF 12
ENDMDL
