MODEL 7
REMARK VINA RESULT: -11.491995346      3.780      5.143
REMARK  12 active torsions:
REMARK  status: ('A' for Active; 'I' for Inactive)
REMARK    1  A    between atoms: N5_13  and  C6_14 
REMARK    2  A    between atoms: C7_16  and  C8_17 
REMARK    3  A    between atoms: C8_17  and  N6_18 
REMARK    4  A    between atoms: N6_18  and  S1_20 
REMARK    5  A    between atoms: S1_20  and  N7_23 
REMARK       I    between atoms: N7_23  and  C9_25 
REMARK    6  A    between atoms: C9_25  and  C10_27 
REMARK    7  A    between atoms: C10_27  and  C11_28 
REMARK    8  A    between atoms: C11_28  and  C12_29 
REMARK    9  A    between atoms: C12_29  and  C13_30 
REMARK   10  A    between atoms: C13_30  and  C14_31 
REMARK   11  A    between atoms: C19_42  and  O6_43 
REMARK   12  A    between atoms: C20_45  and  O7_46 
ROOT
HETATM    1  N6  UNL     1      -4.575  -3.463   5.615  1.00  0.00    -0.300 N 
ATOM      2  H6  UNL     1      -4.742  -4.171   4.900  1.00  0.00     0.173 HD
ENDROOT
BRANCH   1   3
HETATM    3  C8  UNL     1      -5.232  -2.172   5.643  1.00  0.00     0.168 C 
BRANCH   3   4
HETATM    4  C7  UNL     1      -6.408  -2.106   4.717  1.00  0.00     0.174 C 
HETATM    5  O1  UNL     1      -7.136  -0.899   4.914  1.00  0.00    -0.354 OA
HETATM    6  C6  UNL     1      -8.111  -1.068   3.921  1.00  0.00     0.262 C 
HETATM    7  C20 UNL     1      -7.353  -1.423   2.669  1.00  0.00     0.198 C 
HETATM    8  C19 UNL     1      -6.015  -1.894   3.258  1.00  0.00     0.181 C 
BRANCH   6   9
HETATM    9  N5  UNL     1      -8.957   0.080   3.806  1.00  0.00    -0.297 N 
HETATM   10  C3  UNL     1     -10.062   0.354   4.533  1.00  0.00     0.142 A 
HETATM   11  N3  UNL     1     -10.691  -0.286   5.523  1.00  0.00    -0.336 N 
HETATM   12  C4  UNL     1     -10.603   1.573   4.103  1.00  0.00     0.119 A 
HETATM   13  C2  UNL     1     -11.800   0.187   6.110  1.00  0.00     0.183 A 
ATOM     14  H3  UNL     1     -10.311  -1.176   5.847  1.00  0.00     0.168 HD
HETATM   15  N2  UNL     1     -12.309   1.373   5.677  1.00  0.00    -0.339 N 
HETATM   16  C1  UNL     1     -11.741   2.084   4.687  1.00  0.00     0.148 A 
ATOM     17  H2  UNL     1     -13.152   1.736   6.121  1.00  0.00     0.167 HD
HETATM   18  N1  UNL     1     -12.311   3.316   4.271  1.00  0.00    -0.080 NA
HETATM   19  N4  UNL     1      -9.797   1.982   3.133  1.00  0.00    -0.346 N 
HETATM   20  C5  UNL     1      -8.795   1.090   2.940  1.00  0.00     0.188 A 
ATOM     21  H4  UNL     1      -9.915   2.847   2.606  1.00  0.00     0.167 HD
ENDBRANCH   6   9
BRANCH   7  22
HETATM   22  O7  UNL     1      -7.998  -2.466   2.016  1.00  0.00    -0.388 OA
ATOM     23  H7  UNL     1      -8.107  -2.247   1.097  1.00  0.00     0.210 HD
ENDBRANCH   7  22
BRANCH   8  24
HETATM   24  O6  UNL     1      -5.547  -3.032   2.649  1.00  0.00    -0.390 OA
ATOM     25  H6  UNL     1      -5.042  -2.858   1.864  1.00  0.00     0.210 HD
ENDBRANCH   8  24
ENDBRANCH   3   4
ENDBRANCH   1   3
BRANCH   1  26
HETATM   26  S1  UNL     1      -3.485  -3.661   6.925  1.00  0.00     0.321 S 
HETATM   27  O2  UNL     1      -2.277  -4.403   6.359  1.00  0.00    -0.182 OA
HETATM   28  O3  UNL     1      -2.981  -2.346   7.427  1.00  0.00    -0.182 OA
BRANCH  26  29
HETATM   29  N7  UNL     1      -4.088  -4.640   8.191  1.00  0.00    -0.237 N 
HETATM   30  C9  UNL     1      -4.326  -6.032   8.103  1.00  0.00     0.232 C 
HETATM   31  O4  UNL     1      -4.099  -6.651   7.043  1.00  0.00    -0.273 OA
ATOM     32  H7  UNL     1      -4.292  -4.184   9.081  1.00  0.00     0.183 HD
BRANCH  30  33
HETATM   33  C10 UNL     1      -4.864  -6.746   9.327  1.00  0.00     0.104 C 
BRANCH  33  34
HETATM   34  C11 UNL     1      -3.730  -7.330  10.071  1.00  0.00     0.009 C 
BRANCH  34  35
HETATM   35  C12 UNL     1      -3.985  -8.273  11.164  1.00  0.00     0.002 C 
BRANCH  35  36
HETATM   36  C13 UNL     1      -3.719  -7.955  12.568  1.00  0.00     0.017 C 
BRANCH  36  37
HETATM   37  C14 UNL     1      -3.671  -9.010  13.577  1.00  0.00     0.072 C 
HETATM   38  S2  UNL     1      -3.535  -8.314  15.285  1.00  0.00    -0.160 SA
HETATM   39  C15 UNL     1      -2.911  -9.864  16.017  1.00  0.00     0.101 C 
HETATM   40  C16 UNL     1      -2.378 -10.618  14.883  1.00  0.00     0.119 C 
HETATM   41  N8  UNL     1      -0.921 -10.791  15.004  1.00  0.00    -0.336 N 
HETATM   42  C18 UNL     1      -2.615 -10.013  13.559  1.00  0.00     0.123 C 
HETATM   43  C17 UNL     1      -0.362  -9.715  14.262  1.00  0.00     0.316 C 
ATOM     44  H8  UNL     1      -0.422 -11.522  15.510  1.00  0.00     0.164 HD
HETATM   45  O5  UNL     1       0.765  -9.225  14.494  1.00  0.00    -0.247 OA
HETATM   46  N9  UNL     1      -1.335  -9.364  13.263  1.00  0.00    -0.335 N 
ATOM     47  H9  UNL     1      -1.159  -8.754  12.466  1.00  0.00     0.164 HD
ENDBRANCH  36  37
ENDBRANCH  35  36
ENDBRANCH  34  35
ENDBRANCH  33  34
ENDBRANCH  30  33
ENDBRANCH  26  29
ENDBRANCH   1  26
TORSDOF 12
ENDMDL
