MODEL 5
REMARK VINA RESULT: -11.526850089      2.812      4.878
REMARK  12 active torsions:
REMARK  status: ('A' for Active; 'I' for Inactive)
REMARK    1  A    between atoms: N5_13  and  C6_14 
REMARK    2  A    between atoms: C7_16  and  C8_17 
REMARK    3  A    between atoms: C8_17  and  N6_18 
REMARK    4  A    between atoms: N6_18  and  S1_20 
REMARK    5  A    between atoms: S1_20  and  N7_23 
REMARK       I    between atoms: N7_23  and  C9_25 
REMARK    6  A    between atoms: C9_25  and  C10_27 
REMARK    7  A    between atoms: C10_27  and  C11_28 
REMARK    8  A    between atoms: C11_28  and  C12_29 
REMARK    9  A    between atoms: C12_29  and  C13_30 
REMARK   10  A    between atoms: C13_30  and  C14_31 
REMARK   11  A    between atoms: C19_42  and  O6_43 
REMARK   12  A    between atoms: C20_45  and  O7_46 
ROOT
HETATM    1  N6  UNL     1      -3.058  -2.278   8.332  1.00  0.00    -0.300 N 
ATOM      2  H6  UNL     1      -3.322  -2.078   9.297  1.00  0.00     0.173 HD
ENDROOT
BRANCH   1   3
HETATM    3  C8  UNL     1      -2.343  -1.350   7.481  1.00  0.00     0.168 C 
BRANCH   3   4
HETATM    4  C7  UNL     1      -3.225  -0.262   6.949  1.00  0.00     0.174 C 
HETATM    5  O1  UNL     1      -3.775  -0.630   5.690  1.00  0.00    -0.354 OA
HETATM    6  C6  UNL     1      -4.570   0.501   5.460  1.00  0.00     0.262 C 
HETATM    7  C20 UNL     1      -5.365   0.699   6.723  1.00  0.00     0.198 C 
HETATM    8  C19 UNL     1      -4.529  -0.109   7.727  1.00  0.00     0.181 C 
BRANCH   6   9
HETATM    9  N5  UNL     1      -5.355   0.366   4.270  1.00  0.00    -0.297 N 
HETATM   10  C3  UNL     1      -6.050  -0.722   3.872  1.00  0.00     0.142 A 
HETATM   11  N3  UNL     1      -6.236  -1.935   4.399  1.00  0.00    -0.336 N 
HETATM   12  C4  UNL     1      -6.676  -0.443   2.650  1.00  0.00     0.119 A 
HETATM   13  C2  UNL     1      -6.987  -2.878   3.812  1.00  0.00     0.183 A 
ATOM     14  H3  UNL     1      -5.787  -2.155   5.288  1.00  0.00     0.168 HD
HETATM   15  N2  UNL     1      -7.587  -2.587   2.625  1.00  0.00    -0.339 N 
HETATM   16  C1  UNL     1      -7.453  -1.391   2.023  1.00  0.00     0.148 A 
ATOM     17  H2  UNL     1      -8.158  -3.302   2.175  1.00  0.00     0.167 HD
HETATM   18  N1  UNL     1      -8.098  -1.136   0.784  1.00  0.00    -0.080 NA
HETATM   19  N4  UNL     1      -6.329   0.804   2.365  1.00  0.00    -0.346 N 
HETATM   20  C5  UNL     1      -5.530   1.309   3.335  1.00  0.00     0.188 A 
ATOM     21  H4  UNL     1      -6.624   1.313   1.531  1.00  0.00     0.167 HD
ENDBRANCH   6   9
BRANCH   7  22
HETATM   22  O7  UNL     1      -5.374   2.046   7.060  1.00  0.00    -0.388 OA
ATOM     23  H7  UNL     1      -6.196   2.262   7.486  1.00  0.00     0.210 HD
ENDBRANCH   7  22
BRANCH   8  24
HETATM   24  O6  UNL     1      -4.376   0.544   8.924  1.00  0.00    -0.390 OA
ATOM     25  H6  UNL     1      -4.614   1.462   8.886  1.00  0.00     0.210 HD
ENDBRANCH   8  24
ENDBRANCH   3   4
ENDBRANCH   1   3
BRANCH   1  26
HETATM   26  S1  UNL     1      -3.410  -3.752   7.528  1.00  0.00     0.321 S 
HETATM   27  O2  UNL     1      -4.636  -3.477   6.661  1.00  0.00    -0.182 OA
HETATM   28  O3  UNL     1      -2.309  -4.148   6.597  1.00  0.00    -0.182 OA
BRANCH  26  29
HETATM   29  N7  UNL     1      -3.851  -5.029   8.576  1.00  0.00    -0.237 N 
HETATM   30  C9  UNL     1      -4.189  -6.340   8.166  1.00  0.00     0.232 C 
HETATM   31  O4  UNL     1      -4.184  -6.650   6.956  1.00  0.00    -0.273 OA
ATOM     32  H7  UNL     1      -3.873  -4.831   9.576  1.00  0.00     0.183 HD
BRANCH  30  33
HETATM   33  C10 UNL     1      -4.558  -7.353   9.231  1.00  0.00     0.104 C 
BRANCH  33  34
HETATM   34  C11 UNL     1      -3.833  -7.019  10.473  1.00  0.00     0.009 C 
BRANCH  34  35
HETATM   35  C12 UNL     1      -4.067  -7.806  11.688  1.00  0.00     0.002 C 
BRANCH  35  36
HETATM   36  C13 UNL     1      -3.456  -9.116  11.918  1.00  0.00     0.017 C 
BRANCH  36  37
HETATM   37  C14 UNL     1      -3.422  -9.700  13.256  1.00  0.00     0.072 C 
HETATM   38  S2  UNL     1      -3.556  -8.403  14.568  1.00  0.00    -0.160 SA
HETATM   39  C15 UNL     1      -2.871  -9.466  15.884  1.00  0.00     0.101 C 
HETATM   40  C16 UNL     1      -2.138 -10.510  15.169  1.00  0.00     0.119 C 
HETATM   41  N8  UNL     1      -0.695 -10.424  15.449  1.00  0.00    -0.336 N 
HETATM   42  C18 UNL     1      -2.277 -10.482  13.701  1.00  0.00     0.123 C 
HETATM   43  C17 UNL     1      -0.162  -9.639  14.391  1.00  0.00     0.316 C 
ATOM     44  H8  UNL     1      -0.189 -10.837  16.232  1.00  0.00     0.164 HD
HETATM   45  O5  UNL     1       0.875  -8.949  14.494  1.00  0.00    -0.247 OA
HETATM   46  N9  UNL     1      -1.041  -9.823  13.269  1.00  0.00    -0.335 N 
ATOM     47  H9  UNL     1      -0.835  -9.538  12.312  1.00  0.00     0.164 HD
ENDBRANCH  36  37
ENDBRANCH  35  36
ENDBRANCH  34  35
ENDBRANCH  33  34
ENDBRANCH  30  33
ENDBRANCH  26  29
ENDBRANCH   1  26
TORSDOF 12
ENDMDL
