MODEL 8
REMARK VINA RESULT: -11.379511352      4.061      6.032
REMARK  12 active torsions:
REMARK  status: ('A' for Active; 'I' for Inactive)
REMARK    1  A    between atoms: N5_13  and  C6_14 
REMARK    2  A    between atoms: C7_16  and  C8_17 
REMARK    3  A    between atoms: C8_17  and  N6_18 
REMARK    4  A    between atoms: N6_18  and  S1_20 
REMARK    5  A    between atoms: S1_20  and  N7_23 
REMARK       I    between atoms: N7_23  and  C9_25 
REMARK    6  A    between atoms: C9_25  and  C10_27 
REMARK    7  A    between atoms: C10_27  and  C11_28 
REMARK    8  A    between atoms: C11_28  and  C12_29 
REMARK    9  A    between atoms: C12_29  and  C13_30 
REMARK   10  A    between atoms: C13_30  and  C14_31 
REMARK   11  A    between atoms: C19_42  and  O6_43 
REMARK   12  A    between atoms: C20_45  and  O7_46 
ROOT
HETATM    1  N6  UNL     1      -4.492  -3.196   5.831  1.00  0.00    -0.300 N 
ATOM      2  H6  UNL     1      -4.612  -3.659   4.930  1.00  0.00     0.173 HD
ENDROOT
BRANCH   1   3
HETATM    3  C8  UNL     1      -5.276  -2.058   6.265  1.00  0.00     0.168 C 
BRANCH   3   4
HETATM    4  C7  UNL     1      -6.415  -1.758   5.339  1.00  0.00     0.174 C 
HETATM    5  O1  UNL     1      -6.129  -0.613   4.544  1.00  0.00    -0.354 OA
HETATM    6  C6  UNL     1      -7.292  -0.594   3.762  1.00  0.00     0.262 C 
HETATM    7  C20 UNL     1      -7.445  -1.995   3.232  1.00  0.00     0.198 C 
HETATM    8  C19 UNL     1      -6.562  -2.780   4.215  1.00  0.00     0.181 C 
BRANCH   6   9
HETATM    9  N5  UNL     1      -7.242   0.426   2.759  1.00  0.00    -0.297 N 
HETATM   10  C3  UNL     1      -6.219   0.693   1.919  1.00  0.00     0.142 A 
HETATM   11  N3  UNL     1      -5.011   0.149   1.741  1.00  0.00    -0.336 N 
HETATM   12  C4  UNL     1      -6.570   1.773   1.098  1.00  0.00     0.119 A 
HETATM   13  C2  UNL     1      -4.140   0.590   0.822  1.00  0.00     0.183 A 
ATOM     14  H3  UNL     1      -4.740  -0.637   2.331  1.00  0.00     0.168 HD
HETATM   15  N2  UNL     1      -4.502   1.640   0.034  1.00  0.00    -0.339 N 
HETATM   16  C1  UNL     1      -5.696   2.248   0.145  1.00  0.00     0.148 A 
ATOM     17  H2  UNL     1      -3.842   1.978  -0.666  1.00  0.00     0.167 HD
HETATM   18  N1  UNL     1      -6.026   3.340  -0.700  1.00  0.00    -0.080 NA
HETATM   19  N4  UNL     1      -7.793   2.110   1.481  1.00  0.00    -0.346 N 
HETATM   20  C5  UNL     1      -8.216   1.305   2.486  1.00  0.00     0.188 A 
ATOM     21  H4  UNL     1      -8.341   2.870   1.076  1.00  0.00     0.167 HD
ENDBRANCH   6   9
BRANCH   7  22
HETATM   22  O7  UNL     1      -8.772  -2.390   3.339  1.00  0.00    -0.388 OA
ATOM     23  H7  UNL     1      -8.837  -3.328   3.200  1.00  0.00     0.210 HD
ENDBRANCH   7  22
BRANCH   8  24
HETATM   24  O6  UNL     1      -7.146  -3.954   4.619  1.00  0.00    -0.390 OA
ATOM     25  H6  UNL     1      -7.916  -3.825   5.160  1.00  0.00     0.210 HD
ENDBRANCH   8  24
ENDBRANCH   3   4
ENDBRANCH   1   3
BRANCH   1  26
HETATM   26  S1  UNL     1      -3.341  -3.675   7.009  1.00  0.00     0.321 S 
HETATM   27  O2  UNL     1      -2.299  -4.508   6.266  1.00  0.00    -0.182 OA
HETATM   28  O3  UNL     1      -2.617  -2.500   7.582  1.00  0.00    -0.182 OA
BRANCH  26  29
HETATM   29  N7  UNL     1      -3.974  -4.693   8.229  1.00  0.00    -0.237 N 
HETATM   30  C9  UNL     1      -4.313  -6.056   8.059  1.00  0.00     0.232 C 
HETATM   31  O4  UNL     1      -4.162  -6.617   6.954  1.00  0.00    -0.273 OA
ATOM     32  H7  UNL     1      -4.119  -4.285   9.152  1.00  0.00     0.183 HD
BRANCH  30  33
HETATM   33  C10 UNL     1      -4.865  -6.812   9.251  1.00  0.00     0.104 C 
BRANCH  33  34
HETATM   34  C11 UNL     1      -3.811  -6.907  10.281  1.00  0.00     0.009 C 
BRANCH  34  35
HETATM   35  C12 UNL     1      -4.051  -7.684  11.501  1.00  0.00     0.002 C 
BRANCH  35  36
HETATM   36  C13 UNL     1      -3.406  -8.971  11.764  1.00  0.00     0.017 C 
BRANCH  36  37
HETATM   37  C14 UNL     1      -3.446  -9.568  13.097  1.00  0.00     0.072 C 
HETATM   38  S2  UNL     1      -3.577  -8.279  14.417  1.00  0.00    -0.160 SA
HETATM   39  C15 UNL     1      -2.987  -9.381  15.745  1.00  0.00     0.101 C 
HETATM   40  C16 UNL     1      -2.270 -10.448  15.047  1.00  0.00     0.119 C 
HETATM   41  N8  UNL     1      -0.837 -10.424  15.382  1.00  0.00    -0.336 N 
HETATM   42  C18 UNL     1      -2.352 -10.401  13.576  1.00  0.00     0.123 C 
HETATM   43  C17 UNL     1      -0.232  -9.652  14.354  1.00  0.00     0.316 C 
ATOM     44  H8  UNL     1      -0.378 -10.866  16.179  1.00  0.00     0.164 HD
HETATM   45  O5  UNL     1       0.828  -9.007  14.503  1.00  0.00    -0.247 OA
HETATM   46  N9  UNL     1      -1.075  -9.790  13.197  1.00  0.00    -0.335 N 
ATOM     47  H9  UNL     1      -0.821  -9.505  12.252  1.00  0.00     0.164 HD
ENDBRANCH  36  37
ENDBRANCH  35  36
ENDBRANCH  34  35
ENDBRANCH  33  34
ENDBRANCH  30  33
ENDBRANCH  26  29
ENDBRANCH   1  26
TORSDOF 12
ENDMDL
