MODEL 3
REMARK VINA RESULT: -12.102154117      1.520      2.095
REMARK  12 active torsions:
REMARK  status: ('A' for Active; 'I' for Inactive)
REMARK    1  A    between atoms: N5_13  and  C6_14 
REMARK    2  A    between atoms: C7_16  and  C8_17 
REMARK    3  A    between atoms: C8_17  and  N6_18 
REMARK    4  A    between atoms: N6_18  and  S1_20 
REMARK    5  A    between atoms: S1_20  and  N7_23 
REMARK       I    between atoms: N7_23  and  C9_25 
REMARK    6  A    between atoms: C9_25  and  C10_27 
REMARK    7  A    between atoms: C10_27  and  C11_28 
REMARK    8  A    between atoms: C11_28  and  C12_29 
REMARK    9  A    between atoms: C12_29  and  C13_30 
REMARK   10  A    between atoms: C13_30  and  C14_31 
REMARK   11  A    between atoms: C19_42  and  O6_43 
REMARK   12  A    between atoms: C20_45  and  O7_46 
ROOT
HETATM    1  N6  UNL     1      -4.147  -2.458   6.496  1.00  0.00    -0.300 N 
ATOM      2  H6  UNL     1      -5.090  -2.085   6.389  1.00  0.00     0.173 HD
ENDROOT
BRANCH   1   3
HETATM    3  C8  UNL     1      -2.960  -1.634   6.613  1.00  0.00     0.168 C 
BRANCH   3   4
HETATM    4  C7  UNL     1      -3.129  -0.522   7.602  1.00  0.00     0.174 C 
HETATM    5  O1  UNL     1      -3.797  -0.984   8.770  1.00  0.00    -0.354 OA
HETATM    6  C6  UNL     1      -3.773   0.201   9.518  1.00  0.00     0.262 C 
HETATM    7  C20 UNL     1      -2.345   0.678   9.473  1.00  0.00     0.198 C 
HETATM    8  C19 UNL     1      -1.818  -0.088   8.250  1.00  0.00     0.181 C 
BRANCH   6   9
HETATM    9  N5  UNL     1      -4.301   0.010  10.835  1.00  0.00    -0.297 N 
HETATM   10  C3  UNL     1      -5.581  -0.265  11.167  1.00  0.00     0.142 A 
HETATM   11  N3  UNL     1      -6.697  -0.442  10.453  1.00  0.00    -0.336 N 
HETATM   12  C4  UNL     1      -5.681  -0.371  12.560  1.00  0.00     0.119 A 
HETATM   13  C2  UNL     1      -7.885  -0.713  11.011  1.00  0.00     0.183 A 
ATOM     14  H3  UNL     1      -6.642  -0.367   9.437  1.00  0.00     0.168 HD
HETATM   15  N2  UNL     1      -7.960  -0.812  12.367  1.00  0.00    -0.339 N 
HETATM   16  C1  UNL     1      -6.888  -0.648  13.162  1.00  0.00     0.148 A 
ATOM     17  H2  UNL     1      -8.862  -1.018  12.795  1.00  0.00     0.167 HD
HETATM   18  N1  UNL     1      -7.017  -0.760  14.572  1.00  0.00    -0.080 NA
HETATM   19  N4  UNL     1      -4.452  -0.155  13.008  1.00  0.00    -0.346 N 
HETATM   20  C5  UNL     1      -3.604   0.077  11.977  1.00  0.00     0.188 A 
ATOM     21  H4  UNL     1      -4.182  -0.162  13.992  1.00  0.00     0.167 HD
ENDBRANCH   6   9
BRANCH   7  22
HETATM   22  O7  UNL     1      -2.321   2.048   9.244  1.00  0.00    -0.388 OA
ATOM     23  H7  UNL     1      -2.282   2.508  10.075  1.00  0.00     0.210 HD
ENDBRANCH   7  22
BRANCH   8  24
HETATM   24  O6  UNL     1      -1.041   0.698   7.436  1.00  0.00    -0.390 OA
ATOM     25  H6  UNL     1      -0.142   0.400   7.371  1.00  0.00     0.210 HD
ENDBRANCH   8  24
ENDBRANCH   3   4
ENDBRANCH   1   3
BRANCH   1  26
HETATM   26  S1  UNL     1      -3.780  -4.132   6.559  1.00  0.00     0.321 S 
HETATM   27  O2  UNL     1      -4.505  -4.768   5.375  1.00  0.00    -0.182 OA
HETATM   28  O3  UNL     1      -2.321  -4.385   6.352  1.00  0.00    -0.182 OA
BRANCH  26  29
HETATM   29  N7  UNL     1      -4.373  -4.923   7.954  1.00  0.00    -0.237 N 
HETATM   30  C9  UNL     1      -4.298  -6.315   8.196  1.00  0.00     0.232 C 
HETATM   31  O4  UNL     1      -3.770  -7.079   7.361  1.00  0.00    -0.273 OA
ATOM     32  H7  UNL     1      -4.816  -4.346   8.670  1.00  0.00     0.183 HD
BRANCH  30  33
HETATM   33  C10 UNL     1      -4.877  -6.851   9.490  1.00  0.00     0.104 C 
BRANCH  33  34
HETATM   34  C11 UNL     1      -3.777  -7.042  10.457  1.00  0.00     0.009 C 
BRANCH  34  35
HETATM   35  C12 UNL     1      -4.010  -7.812  11.683  1.00  0.00     0.002 C 
BRANCH  35  36
HETATM   36  C13 UNL     1      -3.423  -9.133  11.917  1.00  0.00     0.017 C 
BRANCH  36  37
HETATM   37  C14 UNL     1      -3.395  -9.711  13.258  1.00  0.00     0.072 C 
HETATM   38  S2  UNL     1      -3.539  -8.409  14.563  1.00  0.00    -0.160 SA
HETATM   39  C15 UNL     1      -2.859  -9.464  15.887  1.00  0.00     0.101 C 
HETATM   40  C16 UNL     1      -2.119 -10.509  15.180  1.00  0.00     0.119 C 
HETATM   41  N8  UNL     1      -0.678 -10.418  15.468  1.00  0.00    -0.336 N 
HETATM   42  C18 UNL     1      -2.250 -10.488  13.712  1.00  0.00     0.123 C 
HETATM   43  C17 UNL     1      -0.141  -9.636  14.410  1.00  0.00     0.316 C 
ATOM     44  H8  UNL     1      -0.175 -10.827  16.255  1.00  0.00     0.164 HD
HETATM   45  O5  UNL     1       0.894  -8.943  14.515  1.00  0.00    -0.247 OA
HETATM   46  N9  UNL     1      -1.014  -9.828  13.283  1.00  0.00    -0.335 N 
ATOM     47  H9  UNL     1      -0.803  -9.546  12.326  1.00  0.00     0.164 HD
ENDBRANCH  36  37
ENDBRANCH  35  36
ENDBRANCH  34  35
ENDBRANCH  33  34
ENDBRANCH  30  33
ENDBRANCH  26  29
ENDBRANCH   1  26
TORSDOF 12
ENDMDL
