MODEL 4
REMARK VINA RESULT: -6.813883724      1.927      5.839
REMARK  5 active torsions:
REMARK  status: ('A' for Active; 'I' for Inactive)
REMARK    1  A    between atoms: C1_2  and  C2_4 
REMARK    2  A    between atoms: C6_8  and  O3_9 
REMARK    3  A    between atoms: O3_9  and  C7_10 
REMARK    4  A    between atoms: C7_10  and  C12_15 
REMARK    5  A    between atoms: C8_11  and  C9_12 
ROOT
HETATM    1  C2  UNL     1      -0.058  -5.417  24.816  1.00  0.00     0.089 A 
HETATM    2  C3  UNL     1       1.119  -6.019  24.968  1.00  0.00     0.022 A 
HETATM    3  C4  UNL     1       1.709  -6.153  26.290  1.00  0.00     0.000 A 
HETATM    4  C5  UNL     1       1.123  -5.700  27.379  1.00  0.00     0.013 A 
HETATM    5  C6  UNL     1      -0.190  -5.014  27.374  1.00  0.00     0.227 A 
HETATM    6  C13 UNL     1      -0.725  -4.887  25.996  1.00  0.00     0.199 A 
HETATM    7  O6  UNL     1      -1.816  -4.297  25.786  1.00  0.00    -0.289 OA
ENDROOT
BRANCH   5   8
HETATM    8  O3  UNL     1      -1.093  -5.777  28.185  1.00  0.00    -0.328 OA
BRANCH   8   9
HETATM    9  C7  UNL     1      -1.089  -5.748  29.563  1.00  0.00     0.143 C 
HETATM   10  C8  UNL     1      -1.662  -4.740  30.187  1.00  0.00     0.029 C 
BRANCH  10  11
HETATM   11  C9  UNL     1      -2.328  -3.614  29.549  1.00  0.00     0.056 A 
HETATM   12  C10 UNL     1      -1.989  -2.221  30.015  1.00  0.00    -0.017 A 
HETATM   13  C11 UNL     1      -3.255  -2.705  30.067  1.00  0.00    -0.017 A 
ENDBRANCH  10  11
BRANCH   9  14
HETATM   14  C12 UNL     1      -0.447  -6.841  30.335  1.00  0.00     0.233 C 
HETATM   15  O4  UNL     1       0.564  -6.602  31.017  1.00  0.00    -0.642 OA
HETATM   16  O5  UNL     1      -0.957  -8.111  30.308  1.00  0.00    -0.642 OA
ENDBRANCH   9  14
ENDBRANCH   8   9
ENDBRANCH   5   8
BRANCH   1  17
HETATM   17  C1  UNL     1      -0.643  -5.289  23.479  1.00  0.00     0.213 C 
HETATM   18  O1  UNL     1      -1.814  -5.667  23.279  1.00  0.00    -0.644 OA
HETATM   19  O2  UNL     1       0.091  -4.758  22.449  1.00  0.00    -0.644 OA
ENDBRANCH   1  17
TORSDOF 5
ENDMDL
