MODEL 17
REMARK VINA RESULT: -6.325334907      2.100      6.031
REMARK  5 active torsions:
REMARK  status: ('A' for Active; 'I' for Inactive)
REMARK    1  A    between atoms: C1_2  and  C2_4 
REMARK    2  A    between atoms: C6_8  and  O3_9 
REMARK    3  A    between atoms: O3_9  and  C7_10 
REMARK    4  A    between atoms: C7_10  and  C12_15 
REMARK    5  A    between atoms: C8_11  and  C9_12 
ROOT
HETATM    1  C2  UNL     1       1.596  -6.218  27.422  1.00  0.00     0.089 A 
HETATM    2  C3  UNL     1       2.144  -7.121  28.231  1.00  0.00     0.022 A 
HETATM    3  C4  UNL     1       1.549  -7.401  29.527  1.00  0.00     0.000 A 
HETATM    4  C5  UNL     1       0.463  -6.794  29.957  1.00  0.00     0.013 A 
HETATM    5  C6  UNL     1      -0.264  -5.770  29.171  1.00  0.00     0.227 A 
HETATM    6  C13 UNL     1       0.406  -5.513  27.873  1.00  0.00     0.199 A 
HETATM    7  O6  UNL     1      -0.046  -4.645  27.082  1.00  0.00    -0.289 OA
ENDROOT
BRANCH   5   8
HETATM    8  O3  UNL     1      -1.599  -6.245  28.951  1.00  0.00    -0.328 OA
BRANCH   8   9
HETATM    9  C7  UNL     1      -2.564  -6.287  29.934  1.00  0.00     0.143 C 
HETATM   10  C8  UNL     1      -3.009  -5.159  30.447  1.00  0.00     0.029 C 
BRANCH  10  11
HETATM   11  C9  UNL     1      -2.574  -3.823  30.067  1.00  0.00     0.056 A 
HETATM   12  C10 UNL     1      -2.310  -2.816  31.157  1.00  0.00    -0.017 A 
HETATM   13  C11 UNL     1      -3.232  -2.595  30.186  1.00  0.00    -0.017 A 
ENDBRANCH  10  11
BRANCH   9  14
HETATM   14  C12 UNL     1      -3.097  -7.588  30.408  1.00  0.00     0.233 C 
HETATM   15  O4  UNL     1      -4.192  -7.629  30.994  1.00  0.00    -0.642 OA
HETATM   16  O5  UNL     1      -2.397  -8.747  30.207  1.00  0.00    -0.642 OA
ENDBRANCH   9  14
ENDBRANCH   8   9
ENDBRANCH   5   8
BRANCH   1  17
HETATM   17  C1  UNL     1       2.204  -5.945  26.118  1.00  0.00     0.213 C 
HETATM   18  O1  UNL     1       3.302  -5.357  26.059  1.00  0.00    -0.644 OA
HETATM   19  O2  UNL     1       1.573  -6.333  24.963  1.00  0.00    -0.644 OA
ENDBRANCH   1  17
TORSDOF 5
ENDMDL
