MODEL 10
REMARK VINA RESULT: -6.501611969      2.602      3.820
REMARK  5 active torsions:
REMARK  status: ('A' for Active; 'I' for Inactive)
REMARK    1  A    between atoms: C1_2  and  C2_4 
REMARK    2  A    between atoms: C6_8  and  O3_9 
REMARK    3  A    between atoms: O3_9  and  C7_10 
REMARK    4  A    between atoms: C7_10  and  C12_15 
REMARK    5  A    between atoms: C8_11  and  C9_12 
ROOT
HETATM    1  C2  UNL     1      -3.624  -6.098  29.921  1.00  0.00     0.089 A 
HETATM    2  C3  UNL     1      -3.380  -4.809  30.144  1.00  0.00     0.022 A 
HETATM    3  C4  UNL     1      -2.084  -4.385  30.649  1.00  0.00     0.000 A 
HETATM    4  C5  UNL     1      -1.107  -5.232  30.902  1.00  0.00     0.013 A 
HETATM    5  C6  UNL     1      -1.224  -6.695  30.700  1.00  0.00     0.227 A 
HETATM    6  C13 UNL     1      -2.575  -7.064  30.208  1.00  0.00     0.199 A 
HETATM    7  O6  UNL     1      -2.876  -8.270  30.013  1.00  0.00    -0.289 OA
ENDROOT
BRANCH   5   8
HETATM    8  O3  UNL     1      -0.228  -7.092  29.748  1.00  0.00    -0.328 OA
BRANCH   8   9
HETATM    9  C7  UNL     1       1.106  -7.245  30.060  1.00  0.00     0.143 C 
HETATM   10  C8  UNL     1       2.008  -7.100  29.113  1.00  0.00     0.029 C 
BRANCH  10  11
HETATM   11  C9  UNL     1       1.734  -6.780  27.720  1.00  0.00     0.056 A 
HETATM   12  C10 UNL     1       2.545  -5.695  27.059  1.00  0.00    -0.017 A 
HETATM   13  C11 UNL     1       1.194  -5.622  27.152  1.00  0.00    -0.017 A 
ENDBRANCH  10  11
BRANCH   9  14
HETATM   14  C12 UNL     1       1.520  -7.567  31.448  1.00  0.00     0.233 C 
HETATM   15  O4  UNL     1       1.400  -8.729  31.873  1.00  0.00    -0.642 OA
HETATM   16  O5  UNL     1       2.035  -6.600  32.268  1.00  0.00    -0.642 OA
ENDBRANCH   9  14
ENDBRANCH   8   9
ENDBRANCH   5   8
BRANCH   1  17
HETATM   17  C1  UNL     1      -4.933  -6.512  29.411  1.00  0.00     0.213 C 
HETATM   18  O1  UNL     1      -5.840  -6.816  30.212  1.00  0.00    -0.644 OA
HETATM   19  O2  UNL     1      -5.165  -6.568  28.061  1.00  0.00    -0.644 OA
ENDBRANCH   1  17
TORSDOF 5
ENDMDL
