MODEL 7
REMARK VINA RESULT: -6.643035111      1.916      6.048
REMARK  5 active torsions:
REMARK  status: ('A' for Active; 'I' for Inactive)
REMARK    1  A    between atoms: C1_2  and  C2_4 
REMARK    2  A    between atoms: C6_8  and  O3_9 
REMARK    3  A    between atoms: O3_9  and  C7_10 
REMARK    4  A    between atoms: C7_10  and  C12_15 
REMARK    5  A    between atoms: C8_11  and  C9_12 
ROOT
HETATM    1  C2  UNL     1       0.069  -5.586  25.745  1.00  0.00     0.089 A 
HETATM    2  C3  UNL     1       1.033  -6.007  26.560  1.00  0.00     0.022 A 
HETATM    3  C4  UNL     1       0.933  -5.779  27.992  1.00  0.00     0.000 A 
HETATM    4  C5  UNL     1      -0.091  -5.162  28.545  1.00  0.00     0.013 A 
HETATM    5  C6  UNL     1      -1.243  -4.640  27.772  1.00  0.00     0.227 A 
HETATM    6  C13 UNL     1      -1.068  -4.883  26.318  1.00  0.00     0.199 A 
HETATM    7  O6  UNL     1      -1.929  -4.476  25.496  1.00  0.00    -0.289 OA
ENDROOT
BRANCH   5   8
HETATM    8  O3  UNL     1      -2.427  -5.298  28.242  1.00  0.00    -0.328 OA
BRANCH   8   9
HETATM    9  C7  UNL     1      -2.720  -5.475  29.578  1.00  0.00     0.143 C 
HETATM   10  C8  UNL     1      -2.974  -4.422  30.325  1.00  0.00     0.029 C 
BRANCH  10  11
HETATM   11  C9  UNL     1      -2.983  -3.039  29.870  1.00  0.00     0.056 A 
HETATM   12  C10 UNL     1      -2.068  -2.053  30.551  1.00  0.00    -0.017 A 
HETATM   13  C11 UNL     1      -3.413  -1.880  30.523  1.00  0.00    -0.017 A 
ENDBRANCH  10  11
BRANCH   9  14
HETATM   14  C12 UNL     1      -2.749  -6.837  30.166  1.00  0.00     0.233 C 
HETATM   15  O4  UNL     1      -3.785  -7.249  30.715  1.00  0.00    -0.642 OA
HETATM   16  O5  UNL     1      -1.649  -7.649  30.109  1.00  0.00    -0.642 OA
ENDBRANCH   9  14
ENDBRANCH   8   9
ENDBRANCH   5   8
BRANCH   1  17
HETATM   17  C1  UNL     1       0.180  -5.823  24.304  1.00  0.00     0.213 C 
HETATM   18  O1  UNL     1       1.306  -5.968  23.787  1.00  0.00    -0.644 OA
HETATM   19  O2  UNL     1      -0.945  -5.886  23.522  1.00  0.00    -0.644 OA
ENDBRANCH   1  17
TORSDOF 5
ENDMDL
