MODEL 9
REMARK VINA RESULT: -6.597928051      2.517      3.868
REMARK  5 active torsions:
REMARK  status: ('A' for Active; 'I' for Inactive)
REMARK    1  A    between atoms: C1_2  and  C2_4 
REMARK    2  A    between atoms: C6_8  and  O3_9 
REMARK    3  A    between atoms: O3_9  and  C7_10 
REMARK    4  A    between atoms: C7_10  and  C12_15 
REMARK    5  A    between atoms: C8_11  and  C9_12 
ROOT
HETATM    1  C2  UNL     1      -2.252  -3.562  30.677  1.00  0.00     0.089 A 
HETATM    2  C3  UNL     1      -2.164  -3.795  31.984  1.00  0.00     0.022 A 
HETATM    3  C4  UNL     1      -1.479  -4.980  32.473  1.00  0.00     0.000 A 
HETATM    4  C5  UNL     1      -0.920  -5.861  31.669  1.00  0.00     0.013 A 
HETATM    5  C6  UNL     1      -0.929  -5.739  30.193  1.00  0.00     0.227 A 
HETATM    6  C13 UNL     1      -1.663  -4.525  29.759  1.00  0.00     0.199 A 
HETATM    7  O6  UNL     1      -1.809  -4.270  28.535  1.00  0.00    -0.289 OA
ENDROOT
BRANCH   5   8
HETATM    8  O3  UNL     1       0.431  -5.679  29.745  1.00  0.00    -0.328 OA
BRANCH   8   9
HETATM    9  C7  UNL     1       1.187  -6.794  29.451  1.00  0.00     0.143 C 
HETATM   10  C8  UNL     1       1.861  -6.835  28.322  1.00  0.00     0.029 C 
BRANCH  10  11
HETATM   11  C9  UNL     1       1.898  -5.784  27.316  1.00  0.00     0.056 A 
HETATM   12  C10 UNL     1       1.355  -6.086  25.942  1.00  0.00    -0.017 A 
HETATM   13  C11 UNL     1       2.640  -5.695  26.134  1.00  0.00    -0.017 A 
ENDBRANCH  10  11
BRANCH   9  14
HETATM   14  C12 UNL     1       1.239  -7.935  30.399  1.00  0.00     0.233 C 
HETATM   15  O4  UNL     1       0.562  -8.952  30.176  1.00  0.00    -0.642 OA
HETATM   16  O5  UNL     1       2.029  -7.883  31.516  1.00  0.00    -0.642 OA
ENDBRANCH   9  14
ENDBRANCH   8   9
ENDBRANCH   5   8
BRANCH   1  17
HETATM   17  C1  UNL     1      -2.943  -2.364  30.196  1.00  0.00     0.213 C 
HETATM   18  O1  UNL     1      -4.126  -2.447  29.807  1.00  0.00    -0.644 OA
HETATM   19  O2  UNL     1      -2.299  -1.153  30.172  1.00  0.00    -0.644 OA
ENDBRANCH   1  17
TORSDOF 5
ENDMDL
