MODEL 1
REMARK VINA RESULT: -7.004399087      0.000      0.000
REMARK  5 active torsions:
REMARK  status: ('A' for Active; 'I' for Inactive)
REMARK    1  A    between atoms: C1_2  and  C2_4 
REMARK    2  A    between atoms: C6_8  and  O3_9 
REMARK    3  A    between atoms: O3_9  and  C7_10 
REMARK    4  A    between atoms: C7_10  and  C12_15 
REMARK    5  A    between atoms: C8_11  and  C9_12 
ROOT
HETATM    1  C2  UNL     1      -1.852  -5.745  30.222  1.00  0.00     0.089 A 
HETATM    2  C3  UNL     1      -2.532  -4.620  30.015  1.00  0.00     0.022 A 
HETATM    3  C4  UNL     1      -2.096  -3.675  28.999  1.00  0.00     0.000 A 
HETATM    4  C5  UNL     1      -1.035  -3.880  28.247  1.00  0.00     0.013 A 
HETATM    5  C6  UNL     1      -0.180  -5.086  28.353  1.00  0.00     0.227 A 
HETATM    6  C13 UNL     1      -0.663  -5.995  29.422  1.00  0.00     0.199 A 
HETATM    7  O6  UNL     1      -0.041  -7.056  29.687  1.00  0.00    -0.289 OA
ENDROOT
BRANCH   5   8
HETATM    8  O3  UNL     1      -0.202  -5.759  27.087  1.00  0.00    -0.328 OA
BRANCH   8   9
HETATM    9  C7  UNL     1       0.926  -5.995  26.331  1.00  0.00     0.143 C 
HETATM   10  C8  UNL     1       0.813  -6.104  25.024  1.00  0.00     0.029 C 
BRANCH  10  11
HETATM   11  C9  UNL     1      -0.425  -5.993  24.266  1.00  0.00     0.056 A 
HETATM   12  C10 UNL     1      -0.402  -5.245  22.958  1.00  0.00    -0.017 A 
HETATM   13  C11 UNL     1      -1.208  -4.870  23.982  1.00  0.00    -0.017 A 
ENDBRANCH  10  11
BRANCH   9  14
HETATM   14  C12 UNL     1       2.254  -6.124  26.982  1.00  0.00     0.233 C 
HETATM   15  O4  UNL     1       3.093  -5.217  26.853  1.00  0.00    -0.642 OA
HETATM   16  O5  UNL     1       2.565  -7.229  27.726  1.00  0.00    -0.642 OA
ENDBRANCH   9  14
ENDBRANCH   8   9
ENDBRANCH   5   8
BRANCH   1  17
HETATM   17  C1  UNL     1      -2.303  -6.689  31.247  1.00  0.00     0.213 C 
HETATM   18  O1  UNL     1      -3.241  -7.471  30.997  1.00  0.00    -0.644 OA
HETATM   19  O2  UNL     1      -1.698  -6.716  32.478  1.00  0.00    -0.644 OA
ENDBRANCH   1  17
TORSDOF 5
ENDMDL
