MODEL 3
REMARK VINA RESULT: -9.440479229      3.413      9.665
REMARK  6 active torsions:
REMARK  status: ('A' for Active; 'I' for Inactive)
REMARK    1  A    between atoms: C2_2  and  N1_4 
REMARK    2  A    between atoms: C5_6  and  C6_7 
REMARK    3  A    between atoms: C6_7  and  C7_9 
REMARK    4  A    between atoms: C10_14  and  N3_15 
REMARK    5  A    between atoms: N3_15  and  C11_17 
REMARK    6  A    between atoms: C14_21  and  C15_22 
ROOT
HETATM    1  C7  UNL     1      42.722  29.530  28.441  1.00  0.00     0.101 A 
HETATM    2  C8  UNL     1      42.272  29.640  27.138  1.00  0.00     0.121 A 
HETATM    3  N2  UNL     1      41.168  28.968  26.769  1.00  0.00    -0.370 N 
ATOM      4  H2  UNL     1      40.843  29.055  25.807  1.00  0.00     0.164 HD
HETATM    5  C9  UNL     1      40.474  28.187  27.616  1.00  0.00     0.136 A 
HETATM    6  C10 UNL     1      40.917  28.068  28.928  1.00  0.00     0.117 A 
HETATM    7  N4  UNL     1      42.016  28.745  29.271  1.00  0.00    -0.337 N 
ATOM      8  H4  UNL     1      42.343  28.660  30.234  1.00  0.00     0.167 HD
ENDROOT
BRANCH   1   9
HETATM    9  C6  UNL     1      43.883  30.202  28.948  1.00  0.00     0.212 C 
HETATM   10  O1  UNL     1      44.202  29.972  30.150  1.00  0.00    -0.285 OA
BRANCH   9  11
HETATM   11  C5  UNL     1      44.715  31.119  28.193  1.00  0.00     0.049 A 
HETATM   12  C4  UNL     1      44.686  32.495  28.112  1.00  0.00     0.109 A 
HETATM   13  N1  UNL     1      45.673  32.909  27.286  1.00  0.00    -0.338 N 
HETATM   14  C24 UNL     1      46.358  31.837  26.817  1.00  0.00     0.123 A 
HETATM   15  C21 UNL     1      45.758  30.726  27.385  1.00  0.00     0.065 A 
HETATM   16  N7  UNL     1      47.404  31.743  25.980  1.00  0.00    -0.338 N 
HETATM   17  C22 UNL     1      46.294  29.494  27.043  1.00  0.00     0.132 A 
HETATM   18  N5  UNL     1      45.691  28.335  27.607  1.00  0.00    -0.082 NA
HETATM   19  N6  UNL     1      47.330  29.421  26.212  1.00  0.00    -0.340 N 
HETATM   20  C23 UNL     1      47.878  30.522  25.688  1.00  0.00     0.183 A 
ATOM     21  H6  UNL     1      47.714  28.508  25.971  1.00  0.00     0.167 HD
ATOM     22  H7  UNL     1      47.827  32.578  25.577  1.00  0.00     0.168 HD
BRANCH  13  23
HETATM   23  C2  UNL     1      46.003  34.271  26.917  1.00  0.00     0.083 C 
HETATM   24  C1  UNL     1      44.677  35.039  26.823  1.00  0.00     0.032 C 
HETATM   25  C3  UNL     1      46.842  34.982  27.932  1.00  0.00     0.032 C 
ENDBRANCH  13  23
ENDBRANCH   9  11
ENDBRANCH   1   9
BRANCH   6  26
HETATM   26  N3  UNL     1      40.225  27.261  29.859  1.00  0.00    -0.368 N 
ATOM     27  H3  UNL     1      39.436  27.642  30.380  1.00  0.00     0.161 HD
BRANCH  26  28
HETATM   28  C11 UNL     1      40.636  25.911  30.067  1.00  0.00     0.117 C 
HETATM   29  C12 UNL     1      41.539  25.368  28.990  1.00  0.00     0.193 C 
HETATM   30  O2  UNL     1      40.777  24.394  28.326  1.00  0.00    -0.388 OA
HETATM   31  C13 UNL     1      40.050  23.753  29.330  1.00  0.00     0.179 C 
HETATM   32  C14 UNL     1      39.504  24.928  30.116  1.00  0.00     0.067 C 
BRANCH  32  33
HETATM   33  C15 UNL     1      38.252  25.431  29.524  1.00  0.00    -0.050 A 
HETATM   34  C16 UNL     1      38.069  25.494  28.151  1.00  0.00     0.011 A 
HETATM   35  C17 UNL     1      36.900  25.964  27.577  1.00  0.00     0.043 A 
HETATM   36  C18 UNL     1      35.858  26.392  28.378  1.00  0.00     0.116 A 
HETATM   37  F1  UNL     1      34.714  26.852  27.801  1.00  0.00    -0.206 F 
HETATM   38  C19 UNL     1      36.033  26.333  29.741  1.00  0.00     0.043 A 
HETATM   39  C20 UNL     1      37.207  25.861  30.312  1.00  0.00     0.011 A 
ENDBRANCH  32  33
ENDBRANCH  26  28
ENDBRANCH   6  26
TORSDOF 6
ENDMDL
