MODEL 2
REMARK VINA RESULT: -9.567245211      5.006      9.422
REMARK  6 active torsions:
REMARK  status: ('A' for Active; 'I' for Inactive)
REMARK    1  A    between atoms: C2_2  and  N1_4 
REMARK    2  A    between atoms: C5_6  and  C6_7 
REMARK    3  A    between atoms: C6_7  and  C7_9 
REMARK    4  A    between atoms: C10_14  and  N3_15 
REMARK    5  A    between atoms: N3_15  and  C11_17 
REMARK    6  A    between atoms: C14_21  and  C15_22 
ROOT
HETATM    1  C7  UNL     1      37.978  23.508  29.931  1.00  0.00     0.101 A 
HETATM    2  C8  UNL     1      37.601  22.313  30.517  1.00  0.00     0.121 A 
HETATM    3  N2  UNL     1      36.305  21.961  30.506  1.00  0.00    -0.370 N 
ATOM      4  H2  UNL     1      36.035  21.078  30.940  1.00  0.00     0.164 HD
HETATM    5  C9  UNL     1      35.347  22.722  29.947  1.00  0.00     0.136 A 
HETATM    6  C10 UNL     1      35.713  23.925  29.355  1.00  0.00     0.117 A 
HETATM    7  N4  UNL     1      37.007  24.255  29.378  1.00  0.00    -0.337 N 
ATOM      8  H4  UNL     1      37.279  25.137  28.944  1.00  0.00     0.167 HD
ENDROOT
BRANCH   1   9
HETATM    9  C6  UNL     1      39.329  23.985  29.878  1.00  0.00     0.212 C 
HETATM   10  O1  UNL     1      40.069  23.730  30.872  1.00  0.00    -0.285 OA
BRANCH   9  11
HETATM   11  C5  UNL     1      39.910  24.731  28.779  1.00  0.00     0.049 A 
HETATM   12  C4  UNL     1      40.530  24.293  27.628  1.00  0.00     0.109 A 
HETATM   13  N1  UNL     1      40.899  25.365  26.890  1.00  0.00    -0.338 N 
HETATM   14  C24 UNL     1      40.537  26.506  27.527  1.00  0.00     0.123 A 
HETATM   15  C21 UNL     1      39.922  26.106  28.701  1.00  0.00     0.065 A 
HETATM   16  N7  UNL     1      40.688  27.798  27.196  1.00  0.00    -0.338 N 
HETATM   17  C22 UNL     1      39.463  27.116  29.532  1.00  0.00     0.132 A 
HETATM   18  N5  UNL     1      38.834  26.733  30.749  1.00  0.00    -0.082 NA
HETATM   19  N6  UNL     1      39.622  28.391  29.187  1.00  0.00    -0.340 N 
HETATM   20  C23 UNL     1      40.222  28.731  28.042  1.00  0.00     0.183 A 
ATOM     21  H6  UNL     1      39.279  29.124  29.808  1.00  0.00     0.167 HD
ATOM     22  H7  UNL     1      41.144  28.065  26.324  1.00  0.00     0.168 HD
BRANCH  13  23
HETATM   23  C2  UNL     1      41.578  25.364  25.610  1.00  0.00     0.083 C 
HETATM   24  C1  UNL     1      42.697  24.318  25.702  1.00  0.00     0.032 C 
HETATM   25  C3  UNL     1      40.703  24.960  24.466  1.00  0.00     0.032 C 
ENDBRANCH  13  23
ENDBRANCH   9  11
ENDBRANCH   1   9
BRANCH   6  26
HETATM   26  N3  UNL     1      34.748  24.763  28.752  1.00  0.00    -0.368 N 
ATOM     27  H3  UNL     1      34.959  25.239  27.875  1.00  0.00     0.161 HD
BRANCH  26  28
HETATM   28  C11 UNL     1      33.478  24.941  29.377  1.00  0.00     0.117 C 
HETATM   29  C12 UNL     1      32.310  24.487  28.542  1.00  0.00     0.193 C 
HETATM   30  O2  UNL     1      31.624  25.662  28.195  1.00  0.00    -0.388 OA
HETATM   31  C13 UNL     1      31.686  26.468  29.333  1.00  0.00     0.179 C 
HETATM   32  C14 UNL     1      33.152  26.369  29.705  1.00  0.00     0.067 C 
BRANCH  32  33
HETATM   33  C15 UNL     1      33.959  27.350  28.959  1.00  0.00    -0.050 A 
HETATM   34  C16 UNL     1      35.345  27.287  28.935  1.00  0.00     0.011 A 
HETATM   35  C17 UNL     1      36.119  28.201  28.240  1.00  0.00     0.043 A 
HETATM   36  C18 UNL     1      35.516  29.224  27.533  1.00  0.00     0.116 A 
HETATM   37  F1  UNL     1      36.288  30.117  26.854  1.00  0.00    -0.206 F 
HETATM   38  C19 UNL     1      34.142  29.293  27.552  1.00  0.00     0.043 A 
HETATM   39  C20 UNL     1      33.370  28.375  28.251  1.00  0.00     0.011 A 
ENDBRANCH  32  33
ENDBRANCH  26  28
ENDBRANCH   6  26
TORSDOF 6
ENDMDL
