MODEL 1
REMARK VINA RESULT: -7.271825576      0.000      0.000
REMARK  5 active torsions:
REMARK  status: ('A' for Active; 'I' for Inactive)
REMARK    1  A    between atoms: N1_1  and  S1_4 
REMARK    2  A    between atoms: S1_4  and  C1_7 
REMARK    3  A    between atoms: C4_10  and  C5_11 
REMARK       I    between atoms: C5_11  and  N2_13 
REMARK    4  A    between atoms: N2_13  and  C6_15 
REMARK    5  A    between atoms: C6_15  and  C7_16 
ROOT
HETATM    1  C1  UNL     1      15.799   2.033  16.104  1.00  0.00     0.079 A 
HETATM    2  C2  UNL     1      17.104   2.142  15.736  1.00  0.00     0.026 A 
HETATM    3  C3  UNL     1      17.562   3.265  15.121  1.00  0.00     0.018 A 
HETATM    4  C4  UNL     1      16.729   4.317  14.856  1.00  0.00     0.032 A 
HETATM    5  C8  UNL     1      15.416   4.217  15.222  1.00  0.00     0.018 A 
HETATM    6  C9  UNL     1      14.944   3.059  15.856  1.00  0.00     0.026 A 
ENDROOT
BRANCH   4   7
HETATM    7  C5  UNL     1      17.217   5.510  14.203  1.00  0.00     0.251 C 
HETATM    8  O3  UNL     1      16.643   5.925  13.146  1.00  0.00    -0.268 OA
HETATM    9  N2  UNL     1      18.309   6.254  14.675  1.00  0.00    -0.348 N 
ATOM     10  H2  UNL     1      18.776   5.935  15.524  1.00  0.00     0.163 HD
BRANCH   9  11
HETATM   11  C6  UNL     1      18.804   7.423  14.043  1.00  0.00     0.240 C 
BRANCH  11  12
HETATM   12  C7  UNL     1      19.406   8.478  14.893  1.00  0.00     0.403 C 
HETATM   13  F1  UNL     1      20.747   8.587  14.466  1.00  0.00    -0.169 F 
HETATM   14  F2  UNL     1      19.515   8.171  16.229  1.00  0.00    -0.169 F 
HETATM   15  F3  UNL     1      18.865   9.733  14.686  1.00  0.00    -0.169 F 
ENDBRANCH  11  12
ENDBRANCH   9  11
ENDBRANCH   4   7
BRANCH   1  16
HETATM   16  S1  UNL     1      15.271   0.563  16.892  1.00  0.00     0.256 S 
HETATM   17  O1  UNL     1      15.791  -0.652  16.146  1.00  0.00    -0.201 OA
HETATM   18  O2  UNL     1      15.814   0.568  18.296  1.00  0.00    -0.201 OA
BRANCH  16  19
HETATM   19  N1  UNL     1      13.551   0.478  16.900  1.00  0.00    -0.324 N 
ATOM     20  H12 UNL     1      12.983   0.088  17.652  1.00  0.00     0.169 HD
ATOM     21  H11 UNL     1      13.216   0.883  16.026  1.00  0.00     0.169 HD
ENDBRANCH  16  19
ENDBRANCH   1  16
TORSDOF 5
ENDMDL
