MODEL 7
REMARK VINA RESULT: -6.899084549      0.886      1.786
REMARK  5 active torsions:
REMARK  status: ('A' for Active; 'I' for Inactive)
REMARK    1  A    between atoms: N1_1  and  S1_4 
REMARK    2  A    between atoms: S1_4  and  C1_7 
REMARK    3  A    between atoms: C4_10  and  C5_11 
REMARK       I    between atoms: C5_11  and  N2_13 
REMARK    4  A    between atoms: N2_13  and  C6_15 
REMARK    5  A    between atoms: C6_15  and  C7_16 
ROOT
HETATM    1  C1  UNL     1      15.664   1.925  16.166  1.00  0.00     0.079 A 
HETATM    2  C2  UNL     1      14.831   2.969  15.906  1.00  0.00     0.026 A 
HETATM    3  C3  UNL     1      15.289   4.082  15.273  1.00  0.00     0.018 A 
HETATM    4  C4  UNL     1      16.595   4.186  14.878  1.00  0.00     0.032 A 
HETATM    5  C8  UNL     1      17.438   3.142  15.134  1.00  0.00     0.018 A 
HETATM    6  C9  UNL     1      16.966   1.995  15.787  1.00  0.00     0.026 A 
ENDROOT
BRANCH   4   7
HETATM    7  C5  UNL     1      17.078   5.369  14.204  1.00  0.00     0.251 C 
HETATM    8  O3  UNL     1      16.487   5.777  13.153  1.00  0.00    -0.268 OA
HETATM    9  N2  UNL     1      18.183   6.112  14.648  1.00  0.00    -0.348 N 
ATOM     10  H2  UNL     1      18.663   5.799  15.492  1.00  0.00     0.163 HD
BRANCH   9  11
HETATM   11  C6  UNL     1      18.672   7.272  13.995  1.00  0.00     0.240 C 
BRANCH  11  12
HETATM   12  C7  UNL     1      19.385   8.285  14.808  1.00  0.00     0.403 C 
HETATM   13  F1  UNL     1      19.119   7.947  16.152  1.00  0.00    -0.169 F 
HETATM   14  F2  UNL     1      18.913   9.572  14.698  1.00  0.00    -0.169 F 
HETATM   15  F3  UNL     1      20.761   8.221  14.692  1.00  0.00    -0.169 F 
ENDBRANCH  11  12
ENDBRANCH   9  11
ENDBRANCH   4   7
BRANCH   1  16
HETATM   16  S1  UNL     1      15.016   0.521  16.984  1.00  0.00     0.256 S 
HETATM   17  O1  UNL     1      13.512   0.446  16.793  1.00  0.00    -0.201 OA
HETATM   18  O2  UNL     1      15.665  -0.701  16.393  1.00  0.00    -0.201 OA
BRANCH  16  19
HETATM   19  N1  UNL     1      15.325   0.622  18.675  1.00  0.00    -0.324 N 
ATOM     20  H12 UNL     1      14.613   0.687  19.402  1.00  0.00     0.169 HD
ATOM     21  H11 UNL     1      16.336   0.605  18.807  1.00  0.00     0.169 HD
ENDBRANCH  16  19
ENDBRANCH   1  16
TORSDOF 5
ENDMDL
