MODEL 11
REMARK VINA RESULT: -6.723527511      4.975      7.269
REMARK  5 active torsions:
REMARK  status: ('A' for Active; 'I' for Inactive)
REMARK    1  A    between atoms: N1_1  and  S1_4 
REMARK    2  A    between atoms: S1_4  and  C1_7 
REMARK    3  A    between atoms: C4_10  and  C5_11 
REMARK       I    between atoms: C5_11  and  N2_13 
REMARK    4  A    between atoms: N2_13  and  C6_15 
REMARK    5  A    between atoms: C6_15  and  C7_16 
ROOT
HETATM    1  C1  UNL     1      17.484   3.354  11.148  1.00  0.00     0.079 A 
HETATM    2  C2  UNL     1      17.911   3.768  12.372  1.00  0.00     0.026 A 
HETATM    3  C3  UNL     1      17.608   3.057  13.491  1.00  0.00     0.018 A 
HETATM    4  C4  UNL     1      16.870   1.907  13.422  1.00  0.00     0.032 A 
HETATM    5  C8  UNL     1      16.438   1.483  12.198  1.00  0.00     0.018 A 
HETATM    6  C9  UNL     1      16.749   2.216  11.044  1.00  0.00     0.026 A 
ENDROOT
BRANCH   4   7
HETATM    7  C5  UNL     1      16.552   1.153  14.612  1.00  0.00     0.251 C 
HETATM    8  O3  UNL     1      16.541  -0.119  14.563  1.00  0.00    -0.268 OA
HETATM    9  N2  UNL     1      16.247   1.750  15.845  1.00  0.00    -0.348 N 
ATOM     10  H2  UNL     1      16.257   2.769  15.900  1.00  0.00     0.163 HD
BRANCH   9  11
HETATM   11  C6  UNL     1      15.928   1.023  17.020  1.00  0.00     0.240 C 
BRANCH  11  12
HETATM   12  C7  UNL     1      14.725   1.425  17.787  1.00  0.00     0.403 C 
HETATM   13  F1  UNL     1      14.280   2.624  17.190  1.00  0.00    -0.169 F 
HETATM   14  F2  UNL     1      14.948   1.779  19.097  1.00  0.00    -0.169 F 
HETATM   15  F3  UNL     1      13.664   0.548  17.655  1.00  0.00    -0.169 F 
ENDBRANCH  11  12
ENDBRANCH   9  11
ENDBRANCH   4   7
BRANCH   1  16
HETATM   16  S1  UNL     1      17.905   4.311   9.746  1.00  0.00     0.256 S 
HETATM   17  O1  UNL     1      18.703   3.480   8.759  1.00  0.00    -0.201 OA
HETATM   18  O2  UNL     1      16.627   4.778   9.102  1.00  0.00    -0.201 OA
BRANCH  16  19
HETATM   19  N1  UNL     1      18.881   5.651  10.213  1.00  0.00    -0.324 N 
ATOM     20  H12 UNL     1      19.619   5.627  10.918  1.00  0.00     0.169 HD
ATOM     21  H11 UNL     1      18.586   6.457   9.662  1.00  0.00     0.169 HD
ENDBRANCH  16  19
ENDBRANCH   1  16
TORSDOF 5
ENDMDL
