MODEL 13
REMARK VINA RESULT: -6.606985036      5.048      7.327
REMARK  5 active torsions:
REMARK  status: ('A' for Active; 'I' for Inactive)
REMARK    1  A    between atoms: N1_1  and  S1_4 
REMARK    2  A    between atoms: S1_4  and  C1_7 
REMARK    3  A    between atoms: C4_10  and  C5_11 
REMARK       I    between atoms: C5_11  and  N2_13 
REMARK    4  A    between atoms: N2_13  and  C6_15 
REMARK    5  A    between atoms: C6_15  and  C7_16 
ROOT
HETATM    1  C1  UNL     1      17.645   3.501  11.068  1.00  0.00     0.079 A 
HETATM    2  C2  UNL     1      16.880   2.380  10.981  1.00  0.00     0.026 A 
HETATM    3  C3  UNL     1      16.553   1.673  12.096  1.00  0.00     0.018 A 
HETATM    4  C4  UNL     1      16.981   2.066  13.335  1.00  0.00     0.032 A 
HETATM    5  C8  UNL     1      17.750   3.191  13.431  1.00  0.00     0.018 A 
HETATM    6  C9  UNL     1      18.086   3.920  12.282  1.00  0.00     0.026 A 
ENDROOT
BRANCH   4   7
HETATM    7  C5  UNL     1      16.632   1.314  14.517  1.00  0.00     0.251 C 
HETATM    8  O3  UNL     1      16.623   0.042  14.470  1.00  0.00    -0.268 OA
HETATM    9  N2  UNL     1      16.296   1.913  15.741  1.00  0.00    -0.348 N 
ATOM     10  H2  UNL     1      16.305   2.932  15.794  1.00  0.00     0.163 HD
BRANCH   9  11
HETATM   11  C6  UNL     1      15.947   1.189  16.909  1.00  0.00     0.240 C 
BRANCH  11  12
HETATM   12  C7  UNL     1      14.624   1.448  17.525  1.00  0.00     0.403 C 
HETATM   13  F1  UNL     1      14.882   1.663  18.896  1.00  0.00    -0.169 F 
HETATM   14  F2  UNL     1      13.750   0.387  17.522  1.00  0.00    -0.169 F 
HETATM   15  F3  UNL     1      14.030   2.618  17.089  1.00  0.00    -0.169 F 
ENDBRANCH  11  12
ENDBRANCH   9  11
ENDBRANCH   4   7
BRANCH   1  16
HETATM   16  S1  UNL     1      18.031   4.368   9.598  1.00  0.00     0.256 S 
HETATM   17  O1  UNL     1      18.867   3.499   8.676  1.00  0.00    -0.201 OA
HETATM   18  O2  UNL     1      16.737   4.730   8.919  1.00  0.00    -0.201 OA
BRANCH  16  19
HETATM   19  N1  UNL     1      18.947   5.779   9.963  1.00  0.00    -0.324 N 
ATOM     20  H12 UNL     1      19.298   6.032  10.887  1.00  0.00     0.169 HD
ATOM     21  H11 UNL     1      19.069   6.303   9.097  1.00  0.00     0.169 HD
ENDBRANCH  16  19
ENDBRANCH   1  16
TORSDOF 5
ENDMDL
