MODEL 2
REMARK VINA RESULT: -7.206811599      0.064      1.109
REMARK  5 active torsions:
REMARK  status: ('A' for Active; 'I' for Inactive)
REMARK    1  A    between atoms: N1_1  and  S1_4 
REMARK    2  A    between atoms: S1_4  and  C1_7 
REMARK    3  A    between atoms: C4_10  and  C5_11 
REMARK       I    between atoms: C5_11  and  N2_13 
REMARK    4  A    between atoms: N2_13  and  C6_15 
REMARK    5  A    between atoms: C6_15  and  C7_16 
ROOT
HETATM    1  C1  UNL     1      15.899   1.992  16.117  1.00  0.00     0.079 A 
HETATM    2  C2  UNL     1      15.031   3.005  15.852  1.00  0.00     0.026 A 
HETATM    3  C3  UNL     1      15.456   4.142  15.239  1.00  0.00     0.018 A 
HETATM    4  C4  UNL     1      16.763   4.302  14.870  1.00  0.00     0.032 A 
HETATM    5  C8  UNL     1      17.642   3.290  15.132  1.00  0.00     0.018 A 
HETATM    6  C9  UNL     1      17.205   2.118  15.763  1.00  0.00     0.026 A 
ENDROOT
BRANCH   4   7
HETATM    7  C5  UNL     1      17.212   5.511  14.218  1.00  0.00     0.251 C 
HETATM    8  O3  UNL     1      16.590   5.936  13.192  1.00  0.00    -0.268 OA
HETATM    9  N2  UNL     1      18.314   6.260  14.657  1.00  0.00    -0.348 N 
ATOM     10  H2  UNL     1      18.818   5.933  15.482  1.00  0.00     0.163 HD
BRANCH   9  11
HETATM   11  C6  UNL     1      18.769   7.445  14.025  1.00  0.00     0.240 C 
BRANCH  11  12
HETATM   12  C7  UNL     1      19.388   8.496  14.868  1.00  0.00     0.403 C 
HETATM   13  F1  UNL     1      20.723   8.599  14.423  1.00  0.00    -0.169 F 
HETATM   14  F2  UNL     1      19.513   8.187  16.202  1.00  0.00    -0.169 F 
HETATM   15  F3  UNL     1      18.850   9.754  14.669  1.00  0.00    -0.169 F 
ENDBRANCH  11  12
ENDBRANCH   9  11
ENDBRANCH   4   7
BRANCH   1  16
HETATM   16  S1  UNL     1      15.292   0.554  16.907  1.00  0.00     0.256 S 
HETATM   17  O1  UNL     1      15.787  -0.690  16.193  1.00  0.00    -0.201 OA
HETATM   18  O2  UNL     1      15.793   0.558  18.327  1.00  0.00    -0.201 OA
BRANCH  16  19
HETATM   19  N1  UNL     1      13.571   0.534  16.864  1.00  0.00    -0.324 N 
ATOM     20  H12 UNL     1      13.004   0.241  16.068  1.00  0.00     0.169 HD
ATOM     21  H11 UNL     1      13.234   0.865  17.768  1.00  0.00     0.169 HD
ENDBRANCH  16  19
ENDBRANCH   1  16
TORSDOF 5
ENDMDL
