MODEL 17
REMARK VINA RESULT: -6.487180230      1.016      1.890
REMARK  5 active torsions:
REMARK  status: ('A' for Active; 'I' for Inactive)
REMARK    1  A    between atoms: N1_1  and  S1_4 
REMARK    2  A    between atoms: S1_4  and  C1_7 
REMARK    3  A    between atoms: C4_10  and  C5_11 
REMARK       I    between atoms: C5_11  and  N2_13 
REMARK    4  A    between atoms: N2_13  and  C6_15 
REMARK    5  A    between atoms: C6_15  and  C7_16 
ROOT
HETATM    1  C1  UNL     1      15.820   1.925  16.179  1.00  0.00     0.079 A 
HETATM    2  C2  UNL     1      14.959   2.933  15.877  1.00  0.00     0.026 A 
HETATM    3  C3  UNL     1      15.395   4.053  15.241  1.00  0.00     0.018 A 
HETATM    4  C4  UNL     1      16.708   4.200  14.885  1.00  0.00     0.032 A 
HETATM    5  C8  UNL     1      17.580   3.192  15.183  1.00  0.00     0.018 A 
HETATM    6  C9  UNL     1      17.130   2.037  15.839  1.00  0.00     0.026 A 
ENDROOT
BRANCH   4   7
HETATM    7  C5  UNL     1      17.168   5.390  14.208  1.00  0.00     0.251 C 
HETATM    8  O3  UNL     1      16.624   5.737  13.111  1.00  0.00    -0.268 OA
HETATM    9  N2  UNL     1      18.201   6.204  14.697  1.00  0.00    -0.348 N 
ATOM     10  H2  UNL     1      18.643   5.940  15.578  1.00  0.00     0.163 HD
BRANCH   9  11
HETATM   11  C6  UNL     1      18.668   7.372  14.042  1.00  0.00     0.240 C 
BRANCH  11  12
HETATM   12  C7  UNL     1      19.910   7.276  13.239  1.00  0.00     0.403 C 
HETATM   13  F1  UNL     1      20.815   8.181  13.835  1.00  0.00    -0.169 F 
HETATM   14  F2  UNL     1      19.813   7.721  11.942  1.00  0.00    -0.169 F 
HETATM   15  F3  UNL     1      20.532   6.044  13.326  1.00  0.00    -0.169 F 
ENDBRANCH  11  12
ENDBRANCH   9  11
ENDBRANCH   4   7
BRANCH   1  16
HETATM   16  S1  UNL     1      15.198   0.510  16.998  1.00  0.00     0.256 S 
HETATM   17  O1  UNL     1      15.664  -0.754  16.297  1.00  0.00    -0.201 OA
HETATM   18  O2  UNL     1      15.715   0.526  18.412  1.00  0.00    -0.201 OA
BRANCH  16  19
HETATM   19  N1  UNL     1      13.477   0.518  16.975  1.00  0.00    -0.324 N 
ATOM     20  H12 UNL     1      12.896   1.221  16.517  1.00  0.00     0.169 HD
ATOM     21  H11 UNL     1      13.155  -0.297  17.496  1.00  0.00     0.169 HD
ENDBRANCH  16  19
ENDBRANCH   1  16
TORSDOF 5
ENDMDL
