MODEL 5
REMARK VINA RESULT: -6.960816400      0.866      1.393
REMARK  5 active torsions:
REMARK  status: ('A' for Active; 'I' for Inactive)
REMARK    1  A    between atoms: N1_1  and  S1_4 
REMARK    2  A    between atoms: S1_4  and  C1_7 
REMARK    3  A    between atoms: C4_10  and  C5_11 
REMARK       I    between atoms: C5_11  and  N2_13 
REMARK    4  A    between atoms: N2_13  and  C6_15 
REMARK    5  A    between atoms: C6_15  and  C7_16 
ROOT
HETATM    1  C1  UNL     1      15.629   1.992  16.097  1.00  0.00     0.079 A 
HETATM    2  C2  UNL     1      16.930   2.075  15.708  1.00  0.00     0.026 A 
HETATM    3  C3  UNL     1      17.400   3.189  15.085  1.00  0.00     0.018 A 
HETATM    4  C4  UNL     1      16.583   4.257  14.832  1.00  0.00     0.032 A 
HETATM    5  C8  UNL     1      15.275   4.183  15.220  1.00  0.00     0.018 A 
HETATM    6  C9  UNL     1      14.791   3.035  15.862  1.00  0.00     0.026 A 
ENDROOT
BRANCH   4   7
HETATM    7  C5  UNL     1      17.084   5.440  14.171  1.00  0.00     0.251 C 
HETATM    8  O3  UNL     1      16.495   5.872  13.129  1.00  0.00    -0.268 OA
HETATM    9  N2  UNL     1      18.205   6.157  14.619  1.00  0.00    -0.348 N 
ATOM     10  H2  UNL     1      18.683   5.824  15.456  1.00  0.00     0.163 HD
BRANCH   9  11
HETATM   11  C6  UNL     1      18.712   7.316  13.978  1.00  0.00     0.240 C 
BRANCH  11  12
HETATM   12  C7  UNL     1      19.406   8.328  14.808  1.00  0.00     0.403 C 
HETATM   13  F1  UNL     1      19.177   7.941  16.146  1.00  0.00    -0.169 F 
HETATM   14  F2  UNL     1      18.890   9.601  14.745  1.00  0.00    -0.169 F 
HETATM   15  F3  UNL     1      20.781   8.313  14.666  1.00  0.00    -0.169 F 
ENDBRANCH  11  12
ENDBRANCH   9  11
ENDBRANCH   4   7
BRANCH   1  16
HETATM   16  S1  UNL     1      15.085   0.533  16.894  1.00  0.00     0.256 S 
HETATM   17  O1  UNL     1      13.579   0.392  16.767  1.00  0.00    -0.201 OA
HETATM   18  O2  UNL     1      15.763  -0.637  16.233  1.00  0.00    -0.201 OA
BRANCH  16  19
HETATM   19  N1  UNL     1      15.467   0.595  18.572  1.00  0.00    -0.324 N 
ATOM     20  H12 UNL     1      16.079  -0.057  19.062  1.00  0.00     0.169 HD
ATOM     21  H11 UNL     1      14.974   1.392  18.973  1.00  0.00     0.169 HD
ENDBRANCH  16  19
ENDBRANCH   1  16
TORSDOF 5
ENDMDL
