MODEL 1
REMARK VINA RESULT: -6.703396642      0.000      0.000
REMARK  4 active torsions:
REMARK  status: ('A' for Active; 'I' for Inactive)
REMARK    1  A    between atoms: C2_2  and  N1_3 
REMARK       I    between atoms: N1_3  and  C3_5 
REMARK    2  A    between atoms: C3_5  and  C4_7 
REMARK    3  A    between atoms: C7_10  and  S1_11 
REMARK    4  A    between atoms: S1_11  and  N2_12 
ROOT
HETATM    1  C4  UNL     1      16.557   3.989  14.737  1.00  0.00     0.032 A 
HETATM    2  C5  UNL     1      15.243   3.851  15.109  1.00  0.00     0.018 A 
HETATM    3  C6  UNL     1      14.829   2.728  15.741  1.00  0.00     0.026 A 
HETATM    4  C7  UNL     1      15.663   1.667  16.054  1.00  0.00     0.079 A 
HETATM    5  C8  UNL     1      16.990   1.811  15.676  1.00  0.00     0.026 A 
HETATM    6  C9  UNL     1      17.450   2.948  15.026  1.00  0.00     0.018 A 
ENDROOT
BRANCH   1   7
HETATM    7  C3  UNL     1      17.086   5.158  14.054  1.00  0.00     0.251 C 
HETATM    8  N1  UNL     1      18.161   5.921  14.576  1.00  0.00    -0.357 N 
ATOM      9  H1  UNL     1      18.587   5.651  15.463  1.00  0.00     0.162 HD
HETATM   10  O1  UNL     1      16.608   5.547  12.960  1.00  0.00    -0.268 OA
BRANCH   8  11
HETATM   11  C2  UNL     1      18.670   7.098  13.856  1.00  0.00     0.118 C 
HETATM   12  C1  UNL     1      19.168   8.116  14.830  1.00  0.00     0.026 C 
ENDBRANCH   8  11
ENDBRANCH   1   7
BRANCH   4  13
HETATM   13  S1  UNL     1      15.069   0.246  16.872  1.00  0.00     0.256 S 
HETATM   14  O2  UNL     1      15.635   0.097  18.249  1.00  0.00    -0.201 OA
HETATM   15  O3  UNL     1      15.568  -0.951  16.075  1.00  0.00    -0.201 OA
BRANCH  13  16
HETATM   16  N2  UNL     1      13.358   0.177  16.914  1.00  0.00    -0.324 N 
ATOM     17  H22 UNL     1      12.774   1.005  17.028  1.00  0.00     0.169 HD
ATOM     18  H21 UNL     1      13.001  -0.773  16.811  1.00  0.00     0.169 HD
ENDBRANCH  13  16
ENDBRANCH   4  13
TORSDOF 4
ENDMDL
