MODEL 20
REMARK VINA RESULT: -5.792835055      2.872      6.676
REMARK  4 active torsions:
REMARK  status: ('A' for Active; 'I' for Inactive)
REMARK    1  A    between atoms: C2_2  and  N1_3 
REMARK       I    between atoms: N1_3  and  C3_5 
REMARK    2  A    between atoms: C3_5  and  C4_7 
REMARK    3  A    between atoms: C7_10  and  S1_11 
REMARK    4  A    between atoms: S1_11  and  N2_12 
ROOT
HETATM    1  C4  UNL     1      17.390   2.809  15.184  1.00  0.00     0.032 A 
HETATM    2  C5  UNL     1      18.705   3.034  14.859  1.00  0.00     0.018 A 
HETATM    3  C6  UNL     1      19.060   4.162  14.200  1.00  0.00     0.026 A 
HETATM    4  C7  UNL     1      18.163   5.145  13.815  1.00  0.00     0.079 A 
HETATM    5  C8  UNL     1      16.836   4.913  14.146  1.00  0.00     0.026 A 
HETATM    6  C9  UNL     1      16.435   3.768  14.820  1.00  0.00     0.018 A 
ENDROOT
BRANCH   1   7
HETATM    7  C3  UNL     1      16.922   1.628  15.887  1.00  0.00     0.251 C 
HETATM    8  N1  UNL     1      15.561   1.444  16.243  1.00  0.00    -0.357 N 
ATOM      9  H1  UNL     1      14.877   2.161  16.002  1.00  0.00     0.162 HD
HETATM   10  O1  UNL     1      17.711   0.707  16.215  1.00  0.00    -0.268 OA
BRANCH   8  11
HETATM   11  C2  UNL     1      15.125   0.233  16.954  1.00  0.00     0.118 C 
HETATM   12  C1  UNL     1      13.633   0.184  17.008  1.00  0.00     0.026 C 
ENDBRANCH   8  11
ENDBRANCH   1   7
BRANCH   4  13
HETATM   13  S1  UNL     1      18.684   6.579  12.969  1.00  0.00     0.256 S 
HETATM   14  O2  UNL     1      17.706   7.016  11.925  1.00  0.00    -0.201 OA
HETATM   15  O3  UNL     1      19.958   6.202  12.226  1.00  0.00    -0.201 OA
BRANCH  13  16
HETATM   16  N2  UNL     1      19.053   7.873  14.029  1.00  0.00    -0.324 N 
ATOM     17  H22 UNL     1      19.218   7.740  15.027  1.00  0.00     0.169 HD
ATOM     18  H21 UNL     1      19.087   8.773  13.552  1.00  0.00     0.169 HD
ENDBRANCH  13  16
ENDBRANCH   4  13
TORSDOF 4
ENDMDL
