MODEL 14
REMARK VINA RESULT: -5.981039600      3.260      6.416
REMARK  4 active torsions:
REMARK  status: ('A' for Active; 'I' for Inactive)
REMARK    1  A    between atoms: C2_2  and  N1_3 
REMARK       I    between atoms: N1_3  and  C3_5 
REMARK    2  A    between atoms: C3_5  and  C4_7 
REMARK    3  A    between atoms: C7_10  and  S1_11 
REMARK    4  A    between atoms: S1_11  and  N2_12 
ROOT
HETATM    1  C4  UNL     1      16.555   1.488  14.443  1.00  0.00     0.032 A 
HETATM    2  C5  UNL     1      16.527   0.869  13.218  1.00  0.00     0.018 A 
HETATM    3  C6  UNL     1      16.655   1.597  12.084  1.00  0.00     0.026 A 
HETATM    4  C7  UNL     1      16.819   2.972  12.065  1.00  0.00     0.079 A 
HETATM    5  C8  UNL     1      16.846   3.594  13.305  1.00  0.00     0.026 A 
HETATM    6  C9  UNL     1      16.718   2.880  14.488  1.00  0.00     0.018 A 
ENDROOT
BRANCH   1   7
HETATM    7  C3  UNL     1      16.424   0.786  15.708  1.00  0.00     0.251 C 
HETATM    8  N1  UNL     1      15.255   0.869  16.506  1.00  0.00    -0.357 N 
ATOM      9  H1  UNL     1      14.470   1.440  16.192  1.00  0.00     0.162 HD
HETATM   10  O1  UNL     1      17.352   0.066  16.154  1.00  0.00    -0.268 OA
BRANCH   8  11
HETATM   11  C2  UNL     1      15.159   0.142  17.781  1.00  0.00     0.118 C 
HETATM   12  C1  UNL     1      14.863   1.097  18.891  1.00  0.00     0.026 C 
ENDBRANCH   8  11
ENDBRANCH   1   7
BRANCH   4  13
HETATM   13  S1  UNL     1      16.979   3.854  10.568  1.00  0.00     0.256 S 
HETATM   14  O2  UNL     1      15.729   4.586  10.196  1.00  0.00    -0.201 OA
HETATM   15  O3  UNL     1      17.203   2.815   9.478  1.00  0.00    -0.201 OA
BRANCH  13  16
HETATM   16  N2  UNL     1      18.322   4.917  10.570  1.00  0.00    -0.324 N 
ATOM     17  H22 UNL     1      18.863   5.125   9.730  1.00  0.00     0.169 HD
ATOM     18  H21 UNL     1      18.511   5.309  11.492  1.00  0.00     0.169 HD
ENDBRANCH  13  16
ENDBRANCH   4  13
TORSDOF 4
ENDMDL
