MODEL 5
REMARK VINA RESULT: -6.330129659      0.941      1.082
REMARK  4 active torsions:
REMARK  status: ('A' for Active; 'I' for Inactive)
REMARK    1  A    between atoms: C2_2  and  N1_3 
REMARK       I    between atoms: N1_3  and  C3_5 
REMARK    2  A    between atoms: C3_5  and  C4_7 
REMARK    3  A    between atoms: C7_10  and  S1_11 
REMARK    4  A    between atoms: S1_11  and  N2_12 
ROOT
HETATM    1  C4  UNL     1      16.404   3.887  14.730  1.00  0.00     0.032 A 
HETATM    2  C5  UNL     1      15.103   3.788  15.157  1.00  0.00     0.018 A 
HETATM    3  C6  UNL     1      14.686   2.686  15.823  1.00  0.00     0.026 A 
HETATM    4  C7  UNL     1      15.506   1.608  16.119  1.00  0.00     0.079 A 
HETATM    5  C8  UNL     1      16.819   1.713  15.686  1.00  0.00     0.026 A 
HETATM    6  C9  UNL     1      17.281   2.828  15.000  1.00  0.00     0.018 A 
ENDROOT
BRANCH   1   7
HETATM    7  C3  UNL     1      16.933   5.031  14.009  1.00  0.00     0.251 C 
HETATM    8  N1  UNL     1      18.125   5.692  14.401  1.00  0.00    -0.357 N 
ATOM      9  H1  UNL     1      18.638   5.362  15.219  1.00  0.00     0.162 HD
HETATM   10  O1  UNL     1      16.352   5.490  12.994  1.00  0.00    -0.268 OA
BRANCH   8  11
HETATM   11  C2  UNL     1      18.631   6.847  13.644  1.00  0.00     0.118 C 
HETATM   12  C1  UNL     1      19.111   7.903  14.587  1.00  0.00     0.026 C 
ENDBRANCH   8  11
ENDBRANCH   1   7
BRANCH   4  13
HETATM   13  S1  UNL     1      14.909   0.215  16.983  1.00  0.00     0.256 S 
HETATM   14  O2  UNL     1      15.498  -1.065  16.484  1.00  0.00    -0.201 OA
HETATM   15  O3  UNL     1      13.417   0.137  16.697  1.00  0.00    -0.201 OA
BRANCH  13  16
HETATM   16  N2  UNL     1      15.116   0.353  18.678  1.00  0.00    -0.324 N 
ATOM     17  H22 UNL     1      15.009   1.235  19.178  1.00  0.00     0.169 HD
ATOM     18  H21 UNL     1      15.353  -0.536  19.118  1.00  0.00     0.169 HD
ENDBRANCH  13  16
ENDBRANCH   4  13
TORSDOF 4
ENDMDL
