MODEL 13
REMARK VINA RESULT: -5.985482465      3.252      6.339
REMARK  4 active torsions:
REMARK  status: ('A' for Active; 'I' for Inactive)
REMARK    1  A    between atoms: C2_2  and  N1_3 
REMARK       I    between atoms: N1_3  and  C3_5 
REMARK    2  A    between atoms: C3_5  and  C4_7 
REMARK    3  A    between atoms: C7_10  and  S1_11 
REMARK    4  A    between atoms: S1_11  and  N2_12 
ROOT
HETATM    1  C4  UNL     1      16.614   1.819  14.555  1.00  0.00     0.032 A 
HETATM    2  C5  UNL     1      16.765   3.182  14.474  1.00  0.00     0.018 A 
HETATM    3  C6  UNL     1      16.858   3.785  13.266  1.00  0.00     0.026 A 
HETATM    4  C7  UNL     1      16.809   3.107  12.058  1.00  0.00     0.079 A 
HETATM    5  C8  UNL     1      16.657   1.731  12.146  1.00  0.00     0.026 A 
HETATM    6  C9  UNL     1      16.560   1.078  13.367  1.00  0.00     0.018 A 
ENDROOT
BRANCH   1   7
HETATM    7  C3  UNL     1      16.509   1.091  15.807  1.00  0.00     0.251 C 
HETATM    8  N1  UNL     1      15.303   1.033  16.553  1.00  0.00    -0.357 N 
ATOM      9  H1  UNL     1      14.474   1.516  16.209  1.00  0.00     0.162 HD
HETATM   10  O1  UNL     1      17.491   0.474  16.290  1.00  0.00    -0.268 OA
BRANCH   8  11
HETATM   11  C2  UNL     1      15.235   0.284  17.817  1.00  0.00     0.118 C 
HETATM   12  C1  UNL     1      14.794   1.188  18.922  1.00  0.00     0.026 C 
ENDBRANCH   8  11
ENDBRANCH   1   7
BRANCH   4  13
HETATM   13  S1  UNL     1      16.933   3.944  10.533  1.00  0.00     0.256 S 
HETATM   14  O2  UNL     1      15.658   4.622  10.145  1.00  0.00    -0.201 OA
HETATM   15  O3  UNL     1      17.186   2.878   9.476  1.00  0.00    -0.201 OA
BRANCH  13  16
HETATM   16  N2  UNL     1      18.240   5.049  10.492  1.00  0.00    -0.324 N 
ATOM     17  H22 UNL     1      19.213   4.759  10.586  1.00  0.00     0.169 HD
ATOM     18  H21 UNL     1      17.934   6.014  10.365  1.00  0.00     0.169 HD
ENDBRANCH  13  16
ENDBRANCH   4  13
TORSDOF 4
ENDMDL
