MODEL 4
REMARK VINA RESULT: -6.454426081      1.436      2.059
REMARK  4 active torsions:
REMARK  status: ('A' for Active; 'I' for Inactive)
REMARK    1  A    between atoms: C2_2  and  N1_3 
REMARK       I    between atoms: N1_3  and  C3_5 
REMARK    2  A    between atoms: C3_5  and  C4_7 
REMARK    3  A    between atoms: C7_10  and  S1_11 
REMARK    4  A    between atoms: S1_11  and  N2_12 
ROOT
HETATM    1  C4  UNL     1      16.600   3.886  14.685  1.00  0.00     0.032 A 
HETATM    2  C5  UNL     1      17.430   2.844  15.014  1.00  0.00     0.018 A 
HETATM    3  C6  UNL     1      16.944   1.769  15.678  1.00  0.00     0.026 A 
HETATM    4  C7  UNL     1      15.620   1.636  16.065  1.00  0.00     0.079 A 
HETATM    5  C8  UNL     1      14.785   2.692  15.731  1.00  0.00     0.026 A 
HETATM    6  C9  UNL     1      15.249   3.809  15.051  1.00  0.00     0.018 A 
ENDROOT
BRANCH   1   7
HETATM    7  C3  UNL     1      17.038   5.076  13.976  1.00  0.00     0.251 C 
HETATM    8  N1  UNL     1      16.779   5.277  12.596  1.00  0.00    -0.357 N 
ATOM      9  H1  UNL     1      16.269   4.566  12.071  1.00  0.00     0.162 HD
HETATM   10  O1  UNL     1      17.671   5.989  14.561  1.00  0.00    -0.268 OA
BRANCH   8  11
HETATM   11  C2  UNL     1      17.238   6.495  11.912  1.00  0.00     0.118 C 
HETATM   12  C1  UNL     1      16.159   7.015  11.020  1.00  0.00     0.026 C 
ENDBRANCH   8  11
ENDBRANCH   1   7
BRANCH   4  13
HETATM   13  S1  UNL     1      15.053   0.224  16.919  1.00  0.00     0.256 S 
HETATM   14  O2  UNL     1      15.633   0.113  18.293  1.00  0.00    -0.201 OA
HETATM   15  O3  UNL     1      15.564  -0.982  16.143  1.00  0.00    -0.201 OA
BRANCH  13  16
HETATM   16  N2  UNL     1      13.344   0.130  16.976  1.00  0.00    -0.324 N 
ATOM     17  H22 UNL     1      12.778  -0.149  16.175  1.00  0.00     0.169 HD
ATOM     18  H21 UNL     1      12.968   0.382  17.890  1.00  0.00     0.169 HD
ENDBRANCH  13  16
ENDBRANCH   4  13
TORSDOF 4
ENDMDL
