MODEL 3
REMARK VINA RESULT: -6.471778548      1.434      1.653
REMARK  4 active torsions:
REMARK  status: ('A' for Active; 'I' for Inactive)
REMARK    1  A    between atoms: C2_2  and  N1_3 
REMARK       I    between atoms: N1_3  and  C3_5 
REMARK    2  A    between atoms: C3_5  and  C4_7 
REMARK    3  A    between atoms: C7_10  and  S1_11 
REMARK    4  A    between atoms: S1_11  and  N2_12 
ROOT
HETATM    1  C4  UNL     1      16.479   3.956  14.685  1.00  0.00     0.032 A 
HETATM    2  C5  UNL     1      15.176   3.819  15.092  1.00  0.00     0.018 A 
HETATM    3  C6  UNL     1      14.782   2.703  15.749  1.00  0.00     0.026 A 
HETATM    4  C7  UNL     1      15.627   1.649  16.055  1.00  0.00     0.079 A 
HETATM    5  C8  UNL     1      16.944   1.792  15.641  1.00  0.00     0.026 A 
HETATM    6  C9  UNL     1      17.383   2.922  14.965  1.00  0.00     0.018 A 
ENDROOT
BRANCH   1   7
HETATM    7  C3  UNL     1      16.986   5.117  13.974  1.00  0.00     0.251 C 
HETATM    8  N1  UNL     1      16.733   5.334  12.595  1.00  0.00    -0.357 N 
ATOM      9  H1  UNL     1      16.177   4.658  12.073  1.00  0.00     0.162 HD
HETATM   10  O1  UNL     1      17.678   5.989  14.555  1.00  0.00    -0.268 OA
BRANCH   8  11
HETATM   11  C2  UNL     1      17.262   6.523  11.909  1.00  0.00     0.118 C 
HETATM   12  C1  UNL     1      16.240   7.063  10.963  1.00  0.00     0.026 C 
ENDBRANCH   8  11
ENDBRANCH   1   7
BRANCH   4  13
HETATM   13  S1  UNL     1      15.058   0.237  16.907  1.00  0.00     0.256 S 
HETATM   14  O2  UNL     1      15.639   0.123  18.281  1.00  0.00    -0.201 OA
HETATM   15  O3  UNL     1      15.566  -0.969  16.130  1.00  0.00    -0.201 OA
BRANCH  13  16
HETATM   16  N2  UNL     1      13.349   0.147  16.967  1.00  0.00    -0.324 N 
ATOM     17  H22 UNL     1      12.766   0.148  16.129  1.00  0.00     0.169 HD
ATOM     18  H21 UNL     1      12.992   0.094  17.920  1.00  0.00     0.169 HD
ENDBRANCH  13  16
ENDBRANCH   4  13
TORSDOF 4
ENDMDL
