MODEL 2
REMARK VINA RESULT: -6.666286874      0.074      1.224
REMARK  4 active torsions:
REMARK  status: ('A' for Active; 'I' for Inactive)
REMARK    1  A    between atoms: C2_2  and  N1_3 
REMARK       I    between atoms: N1_3  and  C3_5 
REMARK    2  A    between atoms: C3_5  and  C4_7 
REMARK    3  A    between atoms: C7_10  and  S1_11 
REMARK    4  A    between atoms: S1_11  and  N2_12 
ROOT
HETATM    1  C4  UNL     1      16.688   3.981  14.730  1.00  0.00     0.032 A 
HETATM    2  C5  UNL     1      17.510   2.932  15.060  1.00  0.00     0.018 A 
HETATM    3  C6  UNL     1      17.008   1.847  15.694  1.00  0.00     0.026 A 
HETATM    4  C7  UNL     1      15.676   1.709  16.049  1.00  0.00     0.079 A 
HETATM    5  C8  UNL     1      14.849   2.772  15.714  1.00  0.00     0.026 A 
HETATM    6  C9  UNL     1      15.330   3.900  15.065  1.00  0.00     0.018 A 
ENDROOT
BRANCH   1   7
HETATM    7  C3  UNL     1      17.143   5.183  14.052  1.00  0.00     0.251 C 
HETATM    8  N1  UNL     1      18.209   5.978  14.546  1.00  0.00    -0.357 N 
ATOM      9  H1  UNL     1      18.681   5.707  15.409  1.00  0.00     0.162 HD
HETATM   10  O1  UNL     1      16.607   5.574  12.986  1.00  0.00    -0.268 OA
BRANCH   8  11
HETATM   11  C2  UNL     1      18.642   7.187  13.831  1.00  0.00     0.118 C 
HETATM   12  C1  UNL     1      19.129   8.209  14.806  1.00  0.00     0.026 C 
ENDBRANCH   8  11
ENDBRANCH   1   7
BRANCH   4  13
HETATM   13  S1  UNL     1      15.089   0.283  16.865  1.00  0.00     0.256 S 
HETATM   14  O2  UNL     1      15.648   0.141  18.245  1.00  0.00    -0.201 OA
HETATM   15  O3  UNL     1      15.605  -0.910  16.073  1.00  0.00    -0.201 OA
BRANCH  13  16
HETATM   16  N2  UNL     1      13.379   0.198  16.896  1.00  0.00    -0.324 N 
ATOM     17  H22 UNL     1      12.834   0.321  17.749  1.00  0.00     0.169 HD
ATOM     18  H21 UNL     1      12.979   0.014  15.976  1.00  0.00     0.169 HD
ENDBRANCH  13  16
ENDBRANCH   4  13
TORSDOF 4
ENDMDL
