MODEL 1
REMARK VINA RESULT: -7.451014898      0.000      0.000
REMARK  6 active torsions:
REMARK  status: ('A' for Active; 'I' for Inactive)
REMARK    1  A    between atoms: N1_1  and  S1_4 
REMARK    2  A    between atoms: S1_4  and  C1_7 
REMARK    3  A    between atoms: C4_10  and  C5_11 
REMARK       I    between atoms: C5_11  and  N2_13 
REMARK    4  A    between atoms: N2_13  and  C6_15 
REMARK    5  A    between atoms: C6_15  and  C7_16 
REMARK    6  A    between atoms: C7_16  and  C8_19 
ROOT
HETATM    1  C1  UNL     1      15.899   1.715  16.183  1.00  0.00     0.079 A 
HETATM    2  C2  UNL     1      17.203   1.866  15.759  1.00  0.00     0.026 A 
HETATM    3  C3  UNL     1      17.657   3.003  15.137  1.00  0.00     0.018 A 
HETATM    4  C4  UNL     1      16.793   4.060  14.913  1.00  0.00     0.032 A 
HETATM    5  C9  UNL     1      15.483   3.947  15.323  1.00  0.00     0.018 A 
HETATM    6  C10 UNL     1      15.063   2.780  15.948  1.00  0.00     0.026 A 
ENDROOT
BRANCH   4   7
HETATM    7  C5  UNL     1      17.307   5.270  14.242  1.00  0.00     0.251 C 
HETATM    8  O3  UNL     1      16.697   5.693  13.224  1.00  0.00    -0.268 OA
HETATM    9  N2  UNL     1      18.435   5.999  14.649  1.00  0.00    -0.351 N 
ATOM     10  H2  UNL     1      18.928   5.658  15.475  1.00  0.00     0.162 HD
BRANCH   9  11
HETATM   11  C6  UNL     1      18.966   7.175  14.023  1.00  0.00     0.212 C 
BRANCH  11  12
HETATM   12  C7  UNL     1      19.528   8.212  14.922  1.00  0.00     0.354 C 
HETATM   13  F1  UNL     1      19.597   7.929  16.242  1.00  0.00    -0.194 F 
HETATM   14  F2  UNL     1      18.782   9.388  14.756  1.00  0.00    -0.194 F 
BRANCH  12  15
HETATM   15  C8  UNL     1      20.952   8.497  14.447  1.00  0.00     0.456 C 
HETATM   16  F3  UNL     1      20.947   9.565  13.545  1.00  0.00    -0.165 F 
HETATM   17  F4  UNL     1      21.758   8.869  15.503  1.00  0.00    -0.165 F 
HETATM   18  F5  UNL     1      21.435   7.389  13.778  1.00  0.00    -0.165 F 
ENDBRANCH  12  15
ENDBRANCH  11  12
ENDBRANCH   9  11
ENDBRANCH   4   7
BRANCH   1  19
HETATM   19  S1  UNL     1      15.345   0.248  16.976  1.00  0.00     0.256 S 
HETATM   20  O1  UNL     1      15.808  -0.971  16.221  1.00  0.00    -0.201 OA
HETATM   21  O2  UNL     1      15.866   0.160  18.373  1.00  0.00    -0.201 OA
BRANCH  19  22
HETATM   22  N1  UNL     1      13.617   0.221  17.020  1.00  0.00    -0.324 N 
ATOM     23  H12 UNL     1      13.033  -0.569  16.744  1.00  0.00     0.169 HD
ATOM     24  H11 UNL     1      13.299   1.126  17.366  1.00  0.00     0.169 HD
ENDBRANCH  19  22
ENDBRANCH   1  19
TORSDOF 6
ENDMDL
