MODEL 3
REMARK VINA RESULT: -7.418140196      0.096      1.032
REMARK  6 active torsions:
REMARK  status: ('A' for Active; 'I' for Inactive)
REMARK    1  A    between atoms: N1_1  and  S1_4 
REMARK    2  A    between atoms: S1_4  and  C1_7 
REMARK    3  A    between atoms: C4_10  and  C5_11 
REMARK       I    between atoms: C5_11  and  N2_13 
REMARK    4  A    between atoms: N2_13  and  C6_15 
REMARK    5  A    between atoms: C6_15  and  C7_16 
REMARK    6  A    between atoms: C7_16  and  C8_19 
ROOT
HETATM    1  C1  UNL     1      15.921   1.661  16.229  1.00  0.00     0.079 A 
HETATM    2  C2  UNL     1      15.099   2.730  15.940  1.00  0.00     0.026 A 
HETATM    3  C3  UNL     1      15.547   3.864  15.308  1.00  0.00     0.018 A 
HETATM    4  C4  UNL     1      16.874   3.968  14.932  1.00  0.00     0.032 A 
HETATM    5  C9  UNL     1      17.726   2.920  15.203  1.00  0.00     0.018 A 
HETATM    6  C10 UNL     1      17.234   1.791  15.844  1.00  0.00     0.026 A 
ENDROOT
BRANCH   4   7
HETATM    7  C5  UNL     1      17.328   5.198  14.255  1.00  0.00     0.251 C 
HETATM    8  O3  UNL     1      16.652   5.628  13.282  1.00  0.00    -0.268 OA
HETATM    9  N2  UNL     1      18.467   5.938  14.607  1.00  0.00    -0.351 N 
ATOM     10  H2  UNL     1      19.014   5.590  15.396  1.00  0.00     0.162 HD
BRANCH   9  11
HETATM   11  C6  UNL     1      18.942   7.133  13.973  1.00  0.00     0.212 C 
BRANCH  11  12
HETATM   12  C7  UNL     1      19.530   8.169  14.857  1.00  0.00     0.354 C 
HETATM   13  F1  UNL     1      19.606   7.896  16.179  1.00  0.00    -0.194 F 
HETATM   14  F2  UNL     1      18.803   9.356  14.686  1.00  0.00    -0.194 F 
BRANCH  12  15
HETATM   15  C8  UNL     1      20.954   8.425  14.367  1.00  0.00     0.456 C 
HETATM   16  F3  UNL     1      20.959   9.482  13.452  1.00  0.00    -0.165 F 
HETATM   17  F4  UNL     1      21.775   8.795  15.412  1.00  0.00    -0.165 F 
HETATM   18  F5  UNL     1      21.413   7.301  13.707  1.00  0.00    -0.165 F 
ENDBRANCH  12  15
ENDBRANCH  11  12
ENDBRANCH   9  11
ENDBRANCH   4   7
BRANCH   1  19
HETATM   19  S1  UNL     1      15.322   0.221  17.039  1.00  0.00     0.256 S 
HETATM   20  O1  UNL     1      15.770  -1.021  16.314  1.00  0.00    -0.201 OA
HETATM   21  O2  UNL     1      15.818   0.147  18.445  1.00  0.00    -0.201 OA
BRANCH  19  22
HETATM   22  N1  UNL     1      13.593   0.232  17.054  1.00  0.00    -0.324 N 
ATOM     23  H12 UNL     1      12.995  -0.246  16.380  1.00  0.00     0.169 HD
ATOM     24  H11 UNL     1      13.291   0.796  17.849  1.00  0.00     0.169 HD
ENDBRANCH  19  22
ENDBRANCH   1  19
TORSDOF 6
ENDMDL
