MODEL 6
REMARK VINA RESULT: -7.316593484      0.563      1.371
REMARK  6 active torsions:
REMARK  status: ('A' for Active; 'I' for Inactive)
REMARK    1  A    between atoms: N1_1  and  S1_4 
REMARK    2  A    between atoms: S1_4  and  C1_7 
REMARK    3  A    between atoms: C4_10  and  C5_11 
REMARK       I    between atoms: C5_11  and  N2_13 
REMARK    4  A    between atoms: N2_13  and  C6_15 
REMARK    5  A    between atoms: C6_15  and  C7_16 
REMARK    6  A    between atoms: C7_16  and  C8_19 
ROOT
HETATM    1  C1  UNL     1      15.898   1.733  16.164  1.00  0.00     0.079 A 
HETATM    2  C2  UNL     1      17.195   1.901  15.728  1.00  0.00     0.026 A 
HETATM    3  C3  UNL     1      17.629   3.045  15.103  1.00  0.00     0.018 A 
HETATM    4  C4  UNL     1      16.750   4.091  14.887  1.00  0.00     0.032 A 
HETATM    5  C9  UNL     1      15.445   3.961  15.309  1.00  0.00     0.018 A 
HETATM    6  C10 UNL     1      15.046   2.788  15.937  1.00  0.00     0.026 A 
ENDROOT
BRANCH   4   7
HETATM    7  C5  UNL     1      17.243   5.307  14.213  1.00  0.00     0.251 C 
HETATM    8  O3  UNL     1      16.702   5.648  13.127  1.00  0.00    -0.268 OA
HETATM    9  N2  UNL     1      18.278   6.128  14.687  1.00  0.00    -0.351 N 
ATOM     10  H2  UNL     1      18.715   5.853  15.567  1.00  0.00     0.162 HD
BRANCH   9  11
HETATM   11  C6  UNL     1      18.786   7.313  14.060  1.00  0.00     0.212 C 
BRANCH  11  12
HETATM   12  C7  UNL     1      19.944   7.970  14.714  1.00  0.00     0.354 C 
HETATM   13  F1  UNL     1      21.177   7.482  14.446  1.00  0.00    -0.194 F 
HETATM   14  F2  UNL     1      19.742   7.935  16.102  1.00  0.00    -0.194 F 
BRANCH  12  15
HETATM   15  C8  UNL     1      19.935   9.435  14.283  1.00  0.00     0.456 C 
HETATM   16  F3  UNL     1      20.851  10.161  15.050  1.00  0.00    -0.165 F 
HETATM   17  F4  UNL     1      20.325   9.563  12.966  1.00  0.00    -0.165 F 
HETATM   18  F5  UNL     1      18.682   9.967  14.518  1.00  0.00    -0.165 F 
ENDBRANCH  12  15
ENDBRANCH  11  12
ENDBRANCH   9  11
ENDBRANCH   4   7
BRANCH   1  19
HETATM   19  S1  UNL     1      15.369   0.259  16.962  1.00  0.00     0.256 S 
HETATM   20  O1  UNL     1      15.834  -0.953  16.197  1.00  0.00    -0.201 OA
HETATM   21  O2  UNL     1      15.910   0.173  18.350  1.00  0.00    -0.201 OA
BRANCH  19  22
HETATM   22  N1  UNL     1      13.642   0.214  17.028  1.00  0.00    -0.324 N 
ATOM     23  H12 UNL     1      13.017   0.888  16.587  1.00  0.00     0.169 HD
ATOM     24  H11 UNL     1      13.372  -0.599  17.582  1.00  0.00     0.169 HD
ENDBRANCH  19  22
ENDBRANCH   1  19
TORSDOF 6
ENDMDL
