MODEL 8
REMARK VINA RESULT: -7.220080023      4.300      5.105
REMARK  6 active torsions:
REMARK  status: ('A' for Active; 'I' for Inactive)
REMARK    1  A    between atoms: N1_1  and  S1_4 
REMARK    2  A    between atoms: S1_4  and  C1_7 
REMARK    3  A    between atoms: C4_10  and  C5_11 
REMARK       I    between atoms: C5_11  and  N2_13 
REMARK    4  A    between atoms: N2_13  and  C6_15 
REMARK    5  A    between atoms: C6_15  and  C7_16 
REMARK    6  A    between atoms: C7_16  and  C8_19 
ROOT
HETATM    1  C1  UNL     1      16.588   1.540  14.833  1.00  0.00     0.079 A 
HETATM    2  C2  UNL     1      16.866   1.623  13.485  1.00  0.00     0.026 A 
HETATM    3  C3  UNL     1      16.900   2.815  12.803  1.00  0.00     0.018 A 
HETATM    4  C4  UNL     1      16.650   4.001  13.470  1.00  0.00     0.032 A 
HETATM    5  C9  UNL     1      16.369   3.958  14.819  1.00  0.00     0.018 A 
HETATM    6  C10 UNL     1      16.344   2.733  15.471  1.00  0.00     0.026 A 
ENDROOT
BRANCH   4   7
HETATM    7  C5  UNL     1      16.692   5.266  12.714  1.00  0.00     0.251 C 
HETATM    8  O3  UNL     1      17.450   6.184  13.128  1.00  0.00    -0.268 OA
HETATM    9  N2  UNL     1      15.948   5.539  11.556  1.00  0.00    -0.351 N 
ATOM     10  H2  UNL     1      15.335   4.795  11.220  1.00  0.00     0.162 HD
BRANCH   9  11
HETATM   11  C6  UNL     1      15.959   6.755  10.797  1.00  0.00     0.212 C 
BRANCH  11  12
HETATM   12  C7  UNL     1      14.702   7.542  10.780  1.00  0.00     0.354 C 
HETATM   13  F1  UNL     1      14.792   8.875  10.993  1.00  0.00    -0.194 F 
HETATM   14  F2  UNL     1      13.829   6.995  11.731  1.00  0.00    -0.194 F 
BRANCH  12  15
HETATM   15  C8  UNL     1      14.067   7.348   9.404  1.00  0.00     0.456 C 
HETATM   16  F3  UNL     1      12.748   6.906   9.548  1.00  0.00    -0.165 F 
HETATM   17  F4  UNL     1      14.017   8.541   8.713  1.00  0.00    -0.165 F 
HETATM   18  F5  UNL     1      14.761   6.369   8.720  1.00  0.00    -0.165 F 
ENDBRANCH  12  15
ENDBRANCH  11  12
ENDBRANCH   9  11
ENDBRANCH   4   7
BRANCH   1  19
HETATM   19  S1  UNL     1      16.552   0.001  15.681  1.00  0.00     0.256 S 
HETATM   20  O1  UNL     1      16.450  -1.141  14.703  1.00  0.00    -0.201 OA
HETATM   21  O2  UNL     1      17.784  -0.193  16.501  1.00  0.00    -0.201 OA
BRANCH  19  22
HETATM   22  N1  UNL     1      15.170  -0.065  16.718  1.00  0.00    -0.324 N 
ATOM     23  H12 UNL     1      14.364   0.558  16.667  1.00  0.00     0.169 HD
ATOM     24  H11 UNL     1      15.311  -0.831  17.377  1.00  0.00     0.169 HD
ENDBRANCH  19  22
ENDBRANCH   1  19
TORSDOF 6
ENDMDL
