MODEL 2
REMARK VINA RESULT: -7.440088825      4.116      4.961
REMARK  6 active torsions:
REMARK  status: ('A' for Active; 'I' for Inactive)
REMARK    1  A    between atoms: N1_1  and  S1_4 
REMARK    2  A    between atoms: S1_4  and  C1_7 
REMARK    3  A    between atoms: C4_10  and  C5_11 
REMARK       I    between atoms: C5_11  and  N2_13 
REMARK    4  A    between atoms: N2_13  and  C6_15 
REMARK    5  A    between atoms: C6_15  and  C7_16 
REMARK    6  A    between atoms: C7_16  and  C8_19 
ROOT
HETATM    1  C1  UNL     1      15.797   1.804  15.988  1.00  0.00     0.079 A 
HETATM    2  C2  UNL     1      16.831   1.857  15.077  1.00  0.00     0.026 A 
HETATM    3  C3  UNL     1      17.032   2.927  14.239  1.00  0.00     0.018 A 
HETATM    4  C4  UNL     1      16.177   4.013  14.288  1.00  0.00     0.032 A 
HETATM    5  C9  UNL     1      15.132   3.997  15.186  1.00  0.00     0.018 A 
HETATM    6  C10 UNL     1      14.964   2.897  16.015  1.00  0.00     0.026 A 
ENDROOT
BRANCH   4   7
HETATM    7  C5  UNL     1      16.416   5.148  13.376  1.00  0.00     0.251 C 
HETATM    8  O3  UNL     1      17.413   5.888  13.593  1.00  0.00    -0.268 OA
HETATM    9  N2  UNL     1      15.613   5.479  12.273  1.00  0.00    -0.351 N 
ATOM     10  H2  UNL     1      14.807   4.878  12.097  1.00  0.00     0.162 HD
BRANCH   9  11
HETATM   11  C6  UNL     1      15.810   6.574  11.368  1.00  0.00     0.212 C 
BRANCH  11  12
HETATM   12  C7  UNL     1      14.608   7.365  11.008  1.00  0.00     0.354 C 
HETATM   13  F1  UNL     1      14.730   8.711  10.971  1.00  0.00    -0.194 F 
HETATM   14  F2  UNL     1      13.580   7.034  11.903  1.00  0.00    -0.194 F 
BRANCH  12  15
HETATM   15  C8  UNL     1      14.172   6.913   9.616  1.00  0.00     0.456 C 
HETATM   16  F3  UNL     1      14.456   5.555   9.446  1.00  0.00    -0.165 F 
HETATM   17  F4  UNL     1      12.810   7.061   9.454  1.00  0.00    -0.165 F 
HETATM   18  F5  UNL     1      14.895   7.611   8.668  1.00  0.00    -0.165 F 
ENDBRANCH  12  15
ENDBRANCH  11  12
ENDBRANCH   9  11
ENDBRANCH   4   7
BRANCH   1  19
HETATM   19  S1  UNL     1      15.563   0.423  17.048  1.00  0.00     0.256 S 
HETATM   20  O1  UNL     1      14.362  -0.380  16.618  1.00  0.00    -0.201 OA
HETATM   21  O2  UNL     1      16.755  -0.476  17.035  1.00  0.00    -0.201 OA
BRANCH  19  22
HETATM   22  N1  UNL     1      15.286   0.964  18.667  1.00  0.00    -0.324 N 
ATOM     23  H12 UNL     1      14.410   1.353  19.016  1.00  0.00     0.169 HD
ATOM     24  H11 UNL     1      16.148   0.824  19.195  1.00  0.00     0.169 HD
ENDBRANCH  19  22
ENDBRANCH   1  19
TORSDOF 6
ENDMDL
