MODEL 9
REMARK VINA RESULT: -7.186354626      4.310      5.157
REMARK  6 active torsions:
REMARK  status: ('A' for Active; 'I' for Inactive)
REMARK    1  A    between atoms: N1_1  and  S1_4 
REMARK    2  A    between atoms: S1_4  and  C1_7 
REMARK    3  A    between atoms: C4_10  and  C5_11 
REMARK       I    between atoms: C5_11  and  N2_13 
REMARK    4  A    between atoms: N2_13  and  C6_15 
REMARK    5  A    between atoms: C6_15  and  C7_16 
REMARK    6  A    between atoms: C7_16  and  C8_19 
ROOT
HETATM    1  C1  UNL     1      16.601   1.511  14.785  1.00  0.00     0.079 A 
HETATM    2  C2  UNL     1      16.340   2.721  15.394  1.00  0.00     0.026 A 
HETATM    3  C3  UNL     1      16.376   3.917  14.720  1.00  0.00     0.018 A 
HETATM    4  C4  UNL     1      16.684   3.942  13.372  1.00  0.00     0.032 A 
HETATM    5  C9  UNL     1      16.951   2.754  12.729  1.00  0.00     0.018 A 
HETATM    6  C10 UNL     1      16.904   1.566  13.446  1.00  0.00     0.026 A 
ENDROOT
BRANCH   4   7
HETATM    7  C5  UNL     1      16.717   5.241  12.673  1.00  0.00     0.251 C 
HETATM    8  O3  UNL     1      17.452   6.152  13.139  1.00  0.00    -0.268 OA
HETATM    9  N2  UNL     1      15.985   5.552  11.516  1.00  0.00    -0.351 N 
ATOM     10  H2  UNL     1      15.390   4.814  11.138  1.00  0.00     0.162 HD
BRANCH   9  11
HETATM   11  C6  UNL     1      15.987   6.801  10.812  1.00  0.00     0.212 C 
BRANCH  11  12
HETATM   12  C7  UNL     1      14.704   7.543  10.768  1.00  0.00     0.354 C 
HETATM   13  F1  UNL     1      14.744   8.879  10.975  1.00  0.00    -0.194 F 
HETATM   14  F2  UNL     1      13.833   6.972  11.707  1.00  0.00    -0.194 F 
BRANCH  12  15
HETATM   15  C8  UNL     1      14.100   7.320   9.383  1.00  0.00     0.456 C 
HETATM   16  F3  UNL     1      12.760   6.942   9.504  1.00  0.00    -0.165 F 
HETATM   17  F4  UNL     1      14.123   8.484   8.642  1.00  0.00    -0.165 F 
HETATM   18  F5  UNL     1      14.770   6.285   8.760  1.00  0.00    -0.165 F 
ENDBRANCH  12  15
ENDBRANCH  11  12
ENDBRANCH   9  11
ENDBRANCH   4   7
BRANCH   1  19
HETATM   19  S1  UNL     1      16.548  -0.005  15.672  1.00  0.00     0.256 S 
HETATM   20  O1  UNL     1      16.445  -1.171  14.723  1.00  0.00    -0.201 OA
HETATM   21  O2  UNL     1      17.773  -0.187  16.505  1.00  0.00    -0.201 OA
BRANCH  19  22
HETATM   22  N1  UNL     1      15.159  -0.035  16.701  1.00  0.00    -0.324 N 
ATOM     23  H12 UNL     1      14.712   0.784  17.111  1.00  0.00     0.169 HD
ATOM     24  H11 UNL     1      14.878  -1.009  16.818  1.00  0.00     0.169 HD
ENDBRANCH  19  22
ENDBRANCH   1  19
TORSDOF 6
ENDMDL
