MODEL 13
REMARK VINA RESULT: -7.024995147      0.956      1.778
REMARK  6 active torsions:
REMARK  status: ('A' for Active; 'I' for Inactive)
REMARK    1  A    between atoms: N1_1  and  S1_4 
REMARK    2  A    between atoms: S1_4  and  C1_7 
REMARK    3  A    between atoms: C4_10  and  C5_11 
REMARK       I    between atoms: C5_11  and  N2_13 
REMARK    4  A    between atoms: N2_13  and  C6_15 
REMARK    5  A    between atoms: C6_15  and  C7_16 
REMARK    6  A    between atoms: C7_16  and  C8_19 
ROOT
HETATM    1  C1  UNL     1      15.849   1.831  16.224  1.00  0.00     0.079 A 
HETATM    2  C2  UNL     1      17.134   2.006  15.753  1.00  0.00     0.026 A 
HETATM    3  C3  UNL     1      17.510   3.090  14.999  1.00  0.00     0.018 A 
HETATM    4  C4  UNL     1      16.583   4.066  14.681  1.00  0.00     0.032 A 
HETATM    5  C9  UNL     1      15.289   3.928  15.134  1.00  0.00     0.018 A 
HETATM    6  C10 UNL     1      14.949   2.817  15.894  1.00  0.00     0.026 A 
ENDROOT
BRANCH   4   7
HETATM    7  C5  UNL     1      17.014   5.220  13.869  1.00  0.00     0.251 C 
HETATM    8  O3  UNL     1      16.353   5.501  12.833  1.00  0.00    -0.268 OA
HETATM    9  N2  UNL     1      18.115   6.041  14.156  1.00  0.00    -0.351 N 
ATOM     10  H2  UNL     1      18.650   5.815  14.995  1.00  0.00     0.162 HD
BRANCH   9  11
HETATM   11  C6  UNL     1      18.567   7.167  13.391  1.00  0.00     0.212 C 
BRANCH  11  12
HETATM   12  C7  UNL     1      19.966   7.606  13.613  1.00  0.00     0.354 C 
HETATM   13  F1  UNL     1      20.589   8.254  12.603  1.00  0.00    -0.194 F 
HETATM   14  F2  UNL     1      20.729   6.482  13.962  1.00  0.00    -0.194 F 
BRANCH  12  15
HETATM   15  C8  UNL     1      19.957   8.549  14.815  1.00  0.00     0.456 C 
HETATM   16  F3  UNL     1      19.779   7.817  15.992  1.00  0.00    -0.165 F 
HETATM   17  F4  UNL     1      21.163   9.209  14.932  1.00  0.00    -0.165 F 
HETATM   18  F5  UNL     1      18.889   9.418  14.699  1.00  0.00    -0.165 F 
ENDBRANCH  12  15
ENDBRANCH  11  12
ENDBRANCH   9  11
ENDBRANCH   4   7
BRANCH   1  19
HETATM   19  S1  UNL     1      15.395   0.434  17.188  1.00  0.00     0.256 S 
HETATM   20  O1  UNL     1      14.165  -0.225  16.620  1.00  0.00    -0.201 OA
HETATM   21  O2  UNL     1      16.493  -0.577  17.225  1.00  0.00    -0.201 OA
BRANCH  19  22
HETATM   22  N1  UNL     1      15.033   0.928  18.805  1.00  0.00    -0.324 N 
ATOM     23  H12 UNL     1      15.177   1.865  19.181  1.00  0.00     0.169 HD
ATOM     24  H11 UNL     1      14.654   0.121  19.300  1.00  0.00     0.169 HD
ENDBRANCH  19  22
ENDBRANCH   1  19
TORSDOF 6
ENDMDL
