MODEL 7
REMARK VINA RESULT: -6.283781915      0.715      1.601
REMARK  5 active torsions:
REMARK  status: ('A' for Active; 'I' for Inactive)
REMARK    1  A    between atoms: C2_2  and  C3_3 
REMARK    2  A    between atoms: C3_3  and  N1_4 
REMARK       I    between atoms: N1_4  and  C4_6 
REMARK    3  A    between atoms: C4_6  and  C5_8 
REMARK    4  A    between atoms: C8_11  and  S1_12 
REMARK    5  A    between atoms: S1_12  and  N2_13 
ROOT
HETATM    1  C5  UNL     1      16.699   4.947  14.767  1.00  0.00     0.032 A 
HETATM    2  C6  UNL     1      17.517   3.908  15.111  1.00  0.00     0.018 A 
HETATM    3  C7  UNL     1      16.998   2.789  15.728  1.00  0.00     0.026 A 
HETATM    4  C8  UNL     1      15.664   2.640  16.033  1.00  0.00     0.079 A 
HETATM    5  C9  UNL     1      14.848   3.695  15.681  1.00  0.00     0.026 A 
HETATM    6  C10 UNL     1      15.346   4.822  15.064  1.00  0.00     0.018 A 
ENDROOT
BRANCH   1   7
HETATM    7  C4  UNL     1      17.163   6.160  14.116  1.00  0.00     0.251 C 
HETATM    8  N1  UNL     1      18.294   6.912  14.544  1.00  0.00    -0.357 N 
ATOM      9  H1  UNL     1      18.820   6.590  15.356  1.00  0.00     0.162 HD
HETATM   10  O1  UNL     1      16.539   6.589  13.108  1.00  0.00    -0.268 OA
BRANCH   8  11
HETATM   11  C3  UNL     1      18.723   8.118  13.864  1.00  0.00     0.122 C 
BRANCH  11  12
HETATM   12  C2  UNL     1      20.173   8.072  13.454  1.00  0.00     0.015 C 
HETATM   13  C1  UNL     1      20.377   6.775  12.661  1.00  0.00     0.006 C 
ENDBRANCH  11  12
ENDBRANCH   8  11
ENDBRANCH   1   7
BRANCH   4  14
HETATM   14  S1  UNL     1      15.130   1.191  16.807  1.00  0.00     0.256 S 
HETATM   15  O2  UNL     1      15.712   1.163  18.211  1.00  0.00    -0.201 OA
HETATM   16  O3  UNL     1      15.693   0.014  16.032  1.00  0.00    -0.201 OA
BRANCH  14  17
HETATM   17  N2  UNL     1      13.437   1.079  16.944  1.00  0.00    -0.324 N 
ATOM     18  H22 UNL     1      12.815   1.841  16.675  1.00  0.00     0.169 HD
ATOM     19  H21 UNL     1      13.118   0.184  17.318  1.00  0.00     0.169 HD
ENDBRANCH  14  17
ENDBRANCH   4  14
TORSDOF 5
ENDMDL
