MODEL 13
REMARK VINA RESULT: -5.954614328      2.947      6.829
REMARK  5 active torsions:
REMARK  status: ('A' for Active; 'I' for Inactive)
REMARK    1  A    between atoms: C2_2  and  C3_3 
REMARK    2  A    between atoms: C3_3  and  N1_4 
REMARK       I    between atoms: N1_4  and  C4_6 
REMARK    3  A    between atoms: C4_6  and  C5_8 
REMARK    4  A    between atoms: C8_11  and  S1_12 
REMARK    5  A    between atoms: S1_12  and  N2_13 
ROOT
HETATM    1  C5  UNL     1      17.504   3.930  15.156  1.00  0.00     0.032 A 
HETATM    2  C6  UNL     1      18.805   4.117  14.783  1.00  0.00     0.018 A 
HETATM    3  C7  UNL     1      19.205   5.317  14.232  1.00  0.00     0.026 A 
HETATM    4  C8  UNL     1      18.353   6.379  14.026  1.00  0.00     0.079 A 
HETATM    5  C9  UNL     1      17.043   6.179  14.407  1.00  0.00     0.026 A 
HETATM    6  C10 UNL     1      16.623   4.988  14.958  1.00  0.00     0.018 A 
ENDROOT
BRANCH   1   7
HETATM    7  C4  UNL     1      17.000   2.699  15.741  1.00  0.00     0.251 C 
HETATM    8  N1  UNL     1      15.628   2.321  15.741  1.00  0.00    -0.357 N 
ATOM      9  H1  UNL     1      14.945   2.943  15.307  1.00  0.00     0.162 HD
HETATM   10  O1  UNL     1      17.812   1.905  16.287  1.00  0.00    -0.268 OA
BRANCH   8  11
HETATM   11  C3  UNL     1      15.167   1.083  16.337  1.00  0.00     0.122 C 
BRANCH  11  12
HETATM   12  C2  UNL     1      14.105   1.301  17.385  1.00  0.00     0.015 C 
HETATM   13  C1  UNL     1      14.718   2.192  18.472  1.00  0.00     0.006 C 
ENDBRANCH  11  12
ENDBRANCH   8  11
ENDBRANCH   1   7
BRANCH   4  14
HETATM   14  S1  UNL     1      18.971   7.834  13.329  1.00  0.00     0.256 S 
HETATM   15  O2  UNL     1      18.047   8.244  12.193  1.00  0.00    -0.201 OA
HETATM   16  O3  UNL     1      20.338   7.528  12.746  1.00  0.00    -0.201 OA
BRANCH  14  17
HETATM   17  N2  UNL     1      19.051   9.132  14.427  1.00  0.00    -0.324 N 
ATOM     18  H22 UNL     1      19.866   9.299  15.017  1.00  0.00     0.169 HD
ATOM     19  H21 UNL     1      18.212   9.714  14.431  1.00  0.00     0.169 HD
ENDBRANCH  14  17
ENDBRANCH   4  14
TORSDOF 5
ENDMDL
