MODEL 1
REMARK VINA RESULT: -6.729039467      0.000      0.000
REMARK  5 active torsions:
REMARK  status: ('A' for Active; 'I' for Inactive)
REMARK    1  A    between atoms: C2_2  and  C3_3 
REMARK    2  A    between atoms: C3_3  and  N1_4 
REMARK       I    between atoms: N1_4  and  C4_6 
REMARK    3  A    between atoms: C4_6  and  C5_8 
REMARK    4  A    between atoms: C8_11  and  S1_12 
REMARK    5  A    between atoms: S1_12  and  N2_13 
ROOT
HETATM    1  C5  UNL     1      16.582   4.983  14.682  1.00  0.00     0.032 A 
HETATM    2  C6  UNL     1      15.269   4.791  15.007  1.00  0.00     0.018 A 
HETATM    3  C7  UNL     1      14.874   3.638  15.651  1.00  0.00     0.026 A 
HETATM    4  C8  UNL     1      15.742   2.629  16.005  1.00  0.00     0.079 A 
HETATM    5  C9  UNL     1      17.065   2.835  15.674  1.00  0.00     0.026 A 
HETATM    6  C10 UNL     1      17.481   3.980  15.029  1.00  0.00     0.018 A 
ENDROOT
BRANCH   1   7
HETATM    7  C4  UNL     1      17.083   6.167  14.004  1.00  0.00     0.251 C 
HETATM    8  N1  UNL     1      18.220   6.909  14.432  1.00  0.00    -0.357 N 
ATOM      9  H1  UNL     1      18.724   6.603  15.264  1.00  0.00     0.162 HD
HETATM   10  O1  UNL     1      16.488   6.576  12.971  1.00  0.00    -0.268 OA
BRANCH   8  11
HETATM   11  C3  UNL     1      18.686   8.085  13.725  1.00  0.00     0.122 C 
BRANCH  11  12
HETATM   12  C2  UNL     1      18.927   9.258  14.641  1.00  0.00     0.015 C 
HETATM   13  C1  UNL     1      19.696   8.730  15.859  1.00  0.00     0.006 C 
ENDBRANCH  11  12
ENDBRANCH   8  11
ENDBRANCH   1   7
BRANCH   4  14
HETATM   14  S1  UNL     1      15.129   1.230  16.811  1.00  0.00     0.256 S 
HETATM   15  O2  UNL     1      15.661   1.233  18.235  1.00  0.00    -0.201 OA
HETATM   16  O3  UNL     1      15.674   0.006  16.099  1.00  0.00    -0.201 OA
BRANCH  14  17
HETATM   17  N2  UNL     1      13.429   1.183  16.892  1.00  0.00    -0.324 N 
ATOM     18  H22 UNL     1      12.903   1.680  17.610  1.00  0.00     0.169 HD
ATOM     19  H21 UNL     1      13.002   0.615  16.159  1.00  0.00     0.169 HD
ENDBRANCH  14  17
ENDBRANCH   4  14
TORSDOF 5
ENDMDL
