MODEL 14
REMARK VINA RESULT: -5.914467833      2.994      6.751
REMARK  5 active torsions:
REMARK  status: ('A' for Active; 'I' for Inactive)
REMARK    1  A    between atoms: C2_2  and  C3_3 
REMARK    2  A    between atoms: C3_3  and  N1_4 
REMARK       I    between atoms: N1_4  and  C4_6 
REMARK    3  A    between atoms: C4_6  and  C5_8 
REMARK    4  A    between atoms: C8_11  and  S1_12 
REMARK    5  A    between atoms: S1_12  and  N2_13 
ROOT
HETATM    1  C5  UNL     1      17.445   3.970  15.128  1.00  0.00     0.032 A 
HETATM    2  C6  UNL     1      16.634   5.044  14.891  1.00  0.00     0.018 A 
HETATM    3  C7  UNL     1      17.146   6.189  14.320  1.00  0.00     0.026 A 
HETATM    4  C8  UNL     1      18.467   6.332  13.957  1.00  0.00     0.079 A 
HETATM    5  C9  UNL     1      19.275   5.242  14.200  1.00  0.00     0.026 A 
HETATM    6  C10 UNL     1      18.784   4.088  14.770  1.00  0.00     0.018 A 
ENDROOT
BRANCH   1   7
HETATM    7  C4  UNL     1      16.987   2.727  15.726  1.00  0.00     0.251 C 
HETATM    8  N1  UNL     1      15.631   2.296  15.729  1.00  0.00    -0.357 N 
ATOM      9  H1  UNL     1      14.925   2.887  15.288  1.00  0.00     0.162 HD
HETATM   10  O1  UNL     1      17.829   1.970  16.280  1.00  0.00    -0.268 OA
BRANCH   8  11
HETATM   11  C3  UNL     1      15.217   1.048  16.337  1.00  0.00     0.122 C 
BRANCH  11  12
HETATM   12  C2  UNL     1      14.155   1.236  17.391  1.00  0.00     0.015 C 
HETATM   13  C1  UNL     1      14.732   2.184  18.449  1.00  0.00     0.006 C 
ENDBRANCH  11  12
ENDBRANCH   8  11
ENDBRANCH   1   7
BRANCH   4  14
HETATM   14  S1  UNL     1      18.992   7.816  13.248  1.00  0.00     0.256 S 
HETATM   15  O2  UNL     1      18.981   8.887  14.328  1.00  0.00    -0.201 OA
HETATM   16  O3  UNL     1      17.988   8.204  12.179  1.00  0.00    -0.201 OA
BRANCH  14  17
HETATM   17  N2  UNL     1      20.568   7.742  12.608  1.00  0.00    -0.324 N 
ATOM     18  H22 UNL     1      20.855   7.021  11.946  1.00  0.00     0.169 HD
ATOM     19  H21 UNL     1      21.182   8.482  12.950  1.00  0.00     0.169 HD
ENDBRANCH  14  17
ENDBRANCH   4  14
TORSDOF 5
ENDMDL
