MODEL 6
REMARK VINA RESULT: -6.314684896      1.091      1.338
REMARK  5 active torsions:
REMARK  status: ('A' for Active; 'I' for Inactive)
REMARK    1  A    between atoms: C2_2  and  C3_3 
REMARK    2  A    between atoms: C3_3  and  N1_4 
REMARK       I    between atoms: N1_4  and  C4_6 
REMARK    3  A    between atoms: C4_6  and  C5_8 
REMARK    4  A    between atoms: C8_11  and  S1_12 
REMARK    5  A    between atoms: S1_12  and  N2_13 
ROOT
HETATM    1  C5  UNL     1      16.300   4.975  14.609  1.00  0.00     0.032 A 
HETATM    2  C6  UNL     1      15.055   4.982  15.170  1.00  0.00     0.018 A 
HETATM    3  C7  UNL     1      14.642   3.930  15.960  1.00  0.00     0.026 A 
HETATM    4  C8  UNL     1      15.428   2.833  16.234  1.00  0.00     0.079 A 
HETATM    5  C9  UNL     1      16.683   2.837  15.663  1.00  0.00     0.026 A 
HETATM    6  C10 UNL     1      17.114   3.878  14.870  1.00  0.00     0.018 A 
ENDROOT
BRANCH   1   7
HETATM    7  C4  UNL     1      16.813   6.041  13.764  1.00  0.00     0.251 C 
HETATM    8  N1  UNL     1      18.027   6.741  14.014  1.00  0.00    -0.357 N 
ATOM      9  H1  UNL     1      18.581   6.490  14.832  1.00  0.00     0.162 HD
HETATM   10  O1  UNL     1      16.157   6.380  12.743  1.00  0.00    -0.268 OA
BRANCH   8  11
HETATM   11  C3  UNL     1      18.502   7.799  13.145  1.00  0.00     0.122 C 
BRANCH  11  12
HETATM   12  C2  UNL     1      19.167   8.921  13.902  1.00  0.00     0.015 C 
HETATM   13  C1  UNL     1      19.115   8.554  15.391  1.00  0.00     0.006 C 
ENDBRANCH  11  12
ENDBRANCH   8  11
ENDBRANCH   1   7
BRANCH   4  14
HETATM   14  S1  UNL     1      14.802   1.576  17.240  1.00  0.00     0.256 S 
HETATM   15  O2  UNL     1      13.353   1.332  16.847  1.00  0.00    -0.201 OA
HETATM   16  O3  UNL     1      14.832   2.068  18.675  1.00  0.00    -0.201 OA
BRANCH  14  17
HETATM   17  N2  UNL     1      15.637   0.101  17.082  1.00  0.00    -0.324 N 
ATOM     18  H22 UNL     1      16.528   0.027  16.592  1.00  0.00     0.169 HD
ATOM     19  H21 UNL     1      15.159  -0.687  17.522  1.00  0.00     0.169 HD
ENDBRANCH  14  17
ENDBRANCH   4  14
TORSDOF 5
ENDMDL
