MODEL 2
REMARK VINA RESULT: -6.700762209      0.138      1.180
REMARK  5 active torsions:
REMARK  status: ('A' for Active; 'I' for Inactive)
REMARK    1  A    between atoms: C2_2  and  C3_3 
REMARK    2  A    between atoms: C3_3  and  N1_4 
REMARK       I    between atoms: N1_4  and  C4_6 
REMARK    3  A    between atoms: C4_6  and  C5_8 
REMARK    4  A    between atoms: C8_11  and  S1_12 
REMARK    5  A    between atoms: S1_12  and  N2_13 
ROOT
HETATM    1  C5  UNL     1      16.726   4.902  14.695  1.00  0.00     0.032 A 
HETATM    2  C6  UNL     1      17.535   3.866  15.070  1.00  0.00     0.018 A 
HETATM    3  C7  UNL     1      17.005   2.766  15.711  1.00  0.00     0.026 A 
HETATM    4  C8  UNL     1      15.668   2.633  16.011  1.00  0.00     0.079 A 
HETATM    5  C9  UNL     1      14.861   3.684  15.628  1.00  0.00     0.026 A 
HETATM    6  C10 UNL     1      15.370   4.792  14.986  1.00  0.00     0.018 A 
ENDROOT
BRANCH   1   7
HETATM    7  C4  UNL     1      17.202   6.095  14.017  1.00  0.00     0.251 C 
HETATM    8  N1  UNL     1      18.426   6.753  14.326  1.00  0.00    -0.357 N 
ATOM      9  H1  UNL     1      19.015   6.374  15.067  1.00  0.00     0.162 HD
HETATM   10  O1  UNL     1      16.502   6.594  13.095  1.00  0.00    -0.268 OA
BRANCH   8  11
HETATM   11  C3  UNL     1      18.863   7.943  13.624  1.00  0.00     0.122 C 
BRANCH  11  12
HETATM   12  C2  UNL     1      18.981   9.143  14.529  1.00  0.00     0.015 C 
HETATM   13  C1  UNL     1      19.581   8.654  15.853  1.00  0.00     0.006 C 
ENDBRANCH  11  12
ENDBRANCH   8  11
ENDBRANCH   1   7
BRANCH   4  14
HETATM   14  S1  UNL     1      15.120   1.207  16.817  1.00  0.00     0.256 S 
HETATM   15  O2  UNL     1      15.686   1.214  18.228  1.00  0.00    -0.201 OA
HETATM   16  O3  UNL     1      15.688   0.008  16.080  1.00  0.00    -0.201 OA
BRANCH  14  17
HETATM   17  N2  UNL     1      13.425   1.104  16.938  1.00  0.00    -0.324 N 
ATOM     18  H22 UNL     1      12.949   0.952  17.827  1.00  0.00     0.169 HD
ATOM     19  H21 UNL     1      12.946   1.208  16.043  1.00  0.00     0.169 HD
ENDBRANCH  14  17
ENDBRANCH   4  14
TORSDOF 5
ENDMDL
