MODEL 12
REMARK VINA RESULT: -7.238849092      3.697      4.925
REMARK  7 active torsions:
REMARK  status: ('A' for Active; 'I' for Inactive)
REMARK    1  A    between atoms: N1_1  and  S1_4 
REMARK    2  A    between atoms: S1_4  and  C1_7 
REMARK    3  A    between atoms: C4_10  and  C5_11 
REMARK       I    between atoms: C5_11  and  N2_13 
REMARK    4  A    between atoms: N2_13  and  C6_15 
REMARK    5  A    between atoms: C6_15  and  C7_16 
REMARK    6  A    between atoms: C7_16  and  C8_19 
REMARK    7  A    between atoms: C8_19  and  C9_22 
ROOT
HETATM    1  C5  UNL     1      17.041   5.562  13.525  1.00  0.00     0.251 C 
HETATM    2  O3  UNL     1      16.265   6.477  13.088  1.00  0.00    -0.268 OA
HETATM    3  N2  UNL     1      18.386   5.552  13.066  1.00  0.00    -0.351 N 
ATOM      4  H2  UNL     1      19.040   4.838  13.388  1.00  0.00     0.162 HD
ENDROOT
BRANCH   1   5
HETATM    5  C4  UNL     1      16.489   4.600  14.456  1.00  0.00     0.032 A 
HETATM    6  C3  UNL     1      15.162   4.655  14.863  1.00  0.00     0.018 A 
HETATM    7  C2  UNL     1      14.690   3.702  15.758  1.00  0.00     0.026 A 
HETATM    8  C1  UNL     1      15.474   2.701  16.264  1.00  0.00     0.079 A 
HETATM    9  C11 UNL     1      16.789   2.660  15.849  1.00  0.00     0.026 A 
HETATM   10  C10 UNL     1      17.281   3.597  14.960  1.00  0.00     0.018 A 
BRANCH   8  11
HETATM   11  S1  UNL     1      14.869   1.514  17.385  1.00  0.00     0.256 S 
HETATM   12  O1  UNL     1      13.546   1.002  16.911  1.00  0.00    -0.201 OA
HETATM   13  O2  UNL     1      15.804   0.335  17.482  1.00  0.00    -0.201 OA
BRANCH  11  14
HETATM   14  N1  UNL     1      14.714   2.179  18.990  1.00  0.00    -0.324 N 
ATOM     15  H12 UNL     1      13.955   2.793  19.285  1.00  0.00     0.169 HD
ATOM     16  H11 UNL     1      15.487   1.864  19.576  1.00  0.00     0.169 HD
ENDBRANCH  11  14
ENDBRANCH   8  11
ENDBRANCH   1   5
BRANCH   3  17
HETATM   17  C6  UNL     1      18.804   6.559  12.146  1.00  0.00     0.209 C 
BRANCH  17  18
HETATM   18  C7  UNL     1      19.831   7.500  12.623  1.00  0.00     0.332 C 
HETATM   19  F1  UNL     1      20.454   6.901  13.731  1.00  0.00    -0.197 F 
HETATM   20  F2  UNL     1      20.817   7.632  11.666  1.00  0.00    -0.197 F 
BRANCH  18  21
HETATM   21  C8  UNL     1      19.375   8.840  13.054  1.00  0.00     0.404 C 
HETATM   22  F3  UNL     1      18.185   9.175  12.438  1.00  0.00    -0.189 F 
HETATM   23  F4  UNL     1      20.296   9.807  12.653  1.00  0.00    -0.189 F 
BRANCH  21  24
HETATM   24  C9  UNL     1      19.182   9.013  14.530  1.00  0.00     0.460 C 
HETATM   25  F5  UNL     1      18.182   8.200  15.032  1.00  0.00    -0.165 F 
HETATM   26  F6  UNL     1      18.716  10.326  14.706  1.00  0.00    -0.165 F 
HETATM   27  F7  UNL     1      20.345   8.929  15.249  1.00  0.00    -0.165 F 
ENDBRANCH  21  24
ENDBRANCH  18  21
ENDBRANCH  17  18
ENDBRANCH   3  17
TORSDOF 7
ENDMDL
