MODEL 9
REMARK VINA RESULT: -7.296216954      4.713      5.964
REMARK  7 active torsions:
REMARK  status: ('A' for Active; 'I' for Inactive)
REMARK    1  A    between atoms: N1_1  and  S1_4 
REMARK    2  A    between atoms: S1_4  and  C1_7 
REMARK    3  A    between atoms: C4_10  and  C5_11 
REMARK       I    between atoms: C5_11  and  N2_13 
REMARK    4  A    between atoms: N2_13  and  C6_15 
REMARK    5  A    between atoms: C6_15  and  C7_16 
REMARK    6  A    between atoms: C7_16  and  C8_19 
REMARK    7  A    between atoms: C8_19  and  C9_22 
ROOT
HETATM    1  C5  UNL     1      17.204   6.241  14.045  1.00  0.00     0.251 C 
HETATM    2  O3  UNL     1      16.787   6.499  12.865  1.00  0.00    -0.268 OA
HETATM    3  N2  UNL     1      18.150   7.128  14.627  1.00  0.00    -0.351 N 
ATOM      4  H2  UNL     1      18.511   6.960  15.566  1.00  0.00     0.162 HD
ENDROOT
BRANCH   1   5
HETATM    5  C4  UNL     1      16.680   5.061  14.700  1.00  0.00     0.032 A 
HETATM    6  C3  UNL     1      15.346   4.961  15.070  1.00  0.00     0.018 A 
HETATM    7  C2  UNL     1      14.903   3.802  15.696  1.00  0.00     0.026 A 
HETATM    8  C1  UNL     1      15.724   2.740  15.967  1.00  0.00     0.079 A 
HETATM    9  C11 UNL     1      17.047   2.855  15.591  1.00  0.00     0.026 A 
HETATM   10  C10 UNL     1      17.510   3.999  14.969  1.00  0.00     0.018 A 
BRANCH   8  11
HETATM   11  S1  UNL     1      15.155   1.294  16.751  1.00  0.00     0.256 S 
HETATM   12  O1  UNL     1      15.674   0.092  16.028  1.00  0.00    -0.201 OA
HETATM   13  O2  UNL     1      15.652   1.217  18.173  1.00  0.00    -0.201 OA
BRANCH  11  14
HETATM   14  N1  UNL     1      13.412   1.249  16.814  1.00  0.00    -0.324 N 
ATOM     15  H12 UNL     1      12.874   1.095  17.666  1.00  0.00     0.169 HD
ATOM     16  H11 UNL     1      13.025   1.398  15.882  1.00  0.00     0.169 HD
ENDBRANCH  11  14
ENDBRANCH   8  11
ENDBRANCH   1   5
BRANCH   3  17
HETATM   17  C6  UNL     1      18.585   8.258  13.872  1.00  0.00     0.209 C 
BRANCH  17  18
HETATM   18  C7  UNL     1      19.412   9.246  14.585  1.00  0.00     0.332 C 
HETATM   19  F1  UNL     1      18.621  10.394  14.758  1.00  0.00    -0.197 F 
HETATM   20  F2  UNL     1      19.687   8.786  15.858  1.00  0.00    -0.197 F 
BRANCH  18  21
HETATM   21  C8  UNL     1      20.666   9.678  13.931  1.00  0.00     0.404 C 
HETATM   22  F3  UNL     1      20.414  10.188  12.672  1.00  0.00    -0.189 F 
HETATM   23  F4  UNL     1      21.502   8.580  13.735  1.00  0.00    -0.189 F 
BRANCH  21  24
HETATM   24  C9  UNL     1      21.466  10.702  14.679  1.00  0.00     0.460 C 
HETATM   25  F5  UNL     1      20.772  11.883  14.863  1.00  0.00    -0.165 F 
HETATM   26  F6  UNL     1      22.545  11.033  13.843  1.00  0.00    -0.165 F 
HETATM   27  F7  UNL     1      22.021  10.225  15.836  1.00  0.00    -0.165 F 
ENDBRANCH  21  24
ENDBRANCH  18  21
ENDBRANCH  17  18
ENDBRANCH   3  17
TORSDOF 7
ENDMDL
