MODEL 1
REMARK VINA RESULT: -7.501844942      0.000      0.000
REMARK  7 active torsions:
REMARK  status: ('A' for Active; 'I' for Inactive)
REMARK    1  A    between atoms: N1_1  and  S1_4 
REMARK    2  A    between atoms: S1_4  and  C1_7 
REMARK    3  A    between atoms: C4_10  and  C5_11 
REMARK       I    between atoms: C5_11  and  N2_13 
REMARK    4  A    between atoms: N2_13  and  C6_15 
REMARK    5  A    between atoms: C6_15  and  C7_16 
REMARK    6  A    between atoms: C7_16  and  C8_19 
REMARK    7  A    between atoms: C8_19  and  C9_22 
ROOT
HETATM    1  C5  UNL     1      16.426   5.684  13.297  1.00  0.00     0.251 C 
HETATM    2  O3  UNL     1      17.657   5.982  13.134  1.00  0.00    -0.268 OA
HETATM    3  N2  UNL     1      15.464   6.365  12.502  1.00  0.00    -0.351 N 
ATOM      4  H2  UNL     1      14.469   6.159  12.600  1.00  0.00     0.162 HD
ENDROOT
BRANCH   1   5
HETATM    5  C4  UNL     1      16.103   4.672  14.281  1.00  0.00     0.032 A 
HETATM    6  C3  UNL     1      17.004   3.673  14.625  1.00  0.00     0.018 A 
HETATM    7  C2  UNL     1      16.636   2.731  15.578  1.00  0.00     0.026 A 
HETATM    8  C1  UNL     1      15.419   2.738  16.204  1.00  0.00     0.079 A 
HETATM    9  C11 UNL     1      14.535   3.738  15.850  1.00  0.00     0.026 A 
HETATM   10  C10 UNL     1      14.879   4.685  14.905  1.00  0.00     0.018 A 
BRANCH   8  11
HETATM   11  S1  UNL     1      14.971   1.551  17.395  1.00  0.00     0.256 S 
HETATM   12  O1  UNL     1      13.666   0.926  17.019  1.00  0.00    -0.201 OA
HETATM   13  O2  UNL     1      15.997   0.447  17.472  1.00  0.00    -0.201 OA
BRANCH  11  14
HETATM   14  N1  UNL     1      14.860   2.258  18.986  1.00  0.00    -0.324 N 
ATOM     15  H12 UNL     1      14.122   2.046  19.656  1.00  0.00     0.169 HD
ATOM     16  H11 UNL     1      15.634   2.905  19.136  1.00  0.00     0.169 HD
ENDBRANCH  11  14
ENDBRANCH   8  11
ENDBRANCH   1   5
BRANCH   3  17
HETATM   17  C6  UNL     1      15.916   7.343  11.567  1.00  0.00     0.209 C 
BRANCH  17  18
HETATM   18  C7  UNL     1      14.878   8.028  10.779  1.00  0.00     0.332 C 
HETATM   19  F1  UNL     1      13.659   7.838  11.451  1.00  0.00    -0.197 F 
HETATM   20  F2  UNL     1      15.107   9.390  10.799  1.00  0.00    -0.197 F 
BRANCH  18  21
HETATM   21  C8  UNL     1      14.679   7.578   9.384  1.00  0.00     0.404 C 
HETATM   22  F3  UNL     1      14.415   6.223   9.338  1.00  0.00    -0.189 F 
HETATM   23  F4  UNL     1      15.852   7.762   8.654  1.00  0.00    -0.189 F 
BRANCH  21  24
HETATM   24  C9  UNL     1      13.587   8.275   8.630  1.00  0.00     0.460 C 
HETATM   25  F5  UNL     1      12.329   7.820   8.979  1.00  0.00    -0.165 F 
HETATM   26  F6  UNL     1      13.754   7.908   7.284  1.00  0.00    -0.165 F 
HETATM   27  F7  UNL     1      13.685   9.640   8.659  1.00  0.00    -0.165 F 
ENDBRANCH  21  24
ENDBRANCH  18  21
ENDBRANCH  17  18
ENDBRANCH   3  17
TORSDOF 7
ENDMDL
