MODEL 16
REMARK VINA RESULT: -7.173143513      3.599      4.973
REMARK  7 active torsions:
REMARK  status: ('A' for Active; 'I' for Inactive)
REMARK    1  A    between atoms: N1_1  and  S1_4 
REMARK    2  A    between atoms: S1_4  and  C1_7 
REMARK    3  A    between atoms: C4_10  and  C5_11 
REMARK       I    between atoms: C5_11  and  N2_13 
REMARK    4  A    between atoms: N2_13  and  C6_15 
REMARK    5  A    between atoms: C6_15  and  C7_16 
REMARK    6  A    between atoms: C7_16  and  C8_19 
REMARK    7  A    between atoms: C8_19  and  C9_22 
ROOT
HETATM    1  C5  UNL     1      16.399   5.728  13.471  1.00  0.00     0.251 C 
HETATM    2  O3  UNL     1      15.471   6.140  12.695  1.00  0.00    -0.268 OA
HETATM    3  N2  UNL     1      17.686   6.318  13.342  1.00  0.00    -0.351 N 
ATOM      4  H2  UNL     1      18.457   6.019  13.940  1.00  0.00     0.162 HD
ENDROOT
BRANCH   1   5
HETATM    5  C4  UNL     1      16.068   4.689  14.423  1.00  0.00     0.032 A 
HETATM    6  C3  UNL     1      16.947   3.652  14.707  1.00  0.00     0.018 A 
HETATM    7  C2  UNL     1      16.573   2.683  15.631  1.00  0.00     0.026 A 
HETATM    8  C1  UNL     1      15.370   2.700  16.284  1.00  0.00     0.079 A 
HETATM    9  C11 UNL     1      14.509   3.737  15.990  1.00  0.00     0.026 A 
HETATM   10  C10 UNL     1      14.859   4.711  15.074  1.00  0.00     0.018 A 
BRANCH   8  11
HETATM   11  S1  UNL     1      14.915   1.480  17.439  1.00  0.00     0.256 S 
HETATM   12  O1  UNL     1      13.602   0.880  17.047  1.00  0.00    -0.201 OA
HETATM   13  O2  UNL     1      15.930   0.365  17.477  1.00  0.00    -0.201 OA
BRANCH  11  14
HETATM   14  N1  UNL     1      14.815   2.138  19.051  1.00  0.00    -0.324 N 
ATOM     15  H12 UNL     1      13.943   2.403  19.508  1.00  0.00     0.169 HD
ATOM     16  H11 UNL     1      15.748   2.215  19.456  1.00  0.00     0.169 HD
ENDBRANCH  11  14
ENDBRANCH   8  11
ENDBRANCH   1   5
BRANCH   3  17
HETATM   17  C6  UNL     1      17.879   7.336  12.361  1.00  0.00     0.209 C 
BRANCH  17  18
HETATM   18  C7  UNL     1      18.865   8.381  12.683  1.00  0.00     0.332 C 
HETATM   19  F1  UNL     1      20.058   8.035  12.028  1.00  0.00    -0.197 F 
HETATM   20  F2  UNL     1      18.465   9.580  12.125  1.00  0.00    -0.197 F 
BRANCH  18  21
HETATM   21  C8  UNL     1      19.196   8.583  14.110  1.00  0.00     0.404 C 
HETATM   22  F3  UNL     1      20.109   7.639  14.541  1.00  0.00    -0.189 F 
HETATM   23  F4  UNL     1      18.058   8.396  14.893  1.00  0.00    -0.189 F 
BRANCH  21  24
HETATM   24  C9  UNL     1      19.745   9.933  14.461  1.00  0.00     0.460 C 
HETATM   25  F5  UNL     1      20.779  10.317  13.626  1.00  0.00    -0.165 F 
HETATM   26  F6  UNL     1      20.327   9.793  15.732  1.00  0.00    -0.165 F 
HETATM   27  F7  UNL     1      18.783  10.898  14.595  1.00  0.00    -0.165 F 
ENDBRANCH  21  24
ENDBRANCH  18  21
ENDBRANCH  17  18
ENDBRANCH   3  17
TORSDOF 7
ENDMDL
