MODEL 4
REMARK VINA RESULT: -7.419839629      4.467      5.752
REMARK  7 active torsions:
REMARK  status: ('A' for Active; 'I' for Inactive)
REMARK    1  A    between atoms: N1_1  and  S1_4 
REMARK    2  A    between atoms: S1_4  and  C1_7 
REMARK    3  A    between atoms: C4_10  and  C5_11 
REMARK       I    between atoms: C5_11  and  N2_13 
REMARK    4  A    between atoms: N2_13  and  C6_15 
REMARK    5  A    between atoms: C6_15  and  C7_16 
REMARK    6  A    between atoms: C7_16  and  C8_19 
REMARK    7  A    between atoms: C8_19  and  C9_22 
ROOT
HETATM    1  C5  UNL     1      16.954   6.100  13.835  1.00  0.00     0.251 C 
HETATM    2  O3  UNL     1      16.234   6.473  12.848  1.00  0.00    -0.268 OA
HETATM    3  N2  UNL     1      18.102   6.876  14.153  1.00  0.00    -0.351 N 
ATOM      4  H2  UNL     1      18.707   6.615  14.933  1.00  0.00     0.162 HD
ENDROOT
BRANCH   1   5
HETATM    5  C4  UNL     1      16.547   4.912  14.554  1.00  0.00     0.032 A 
HETATM    6  C3  UNL     1      17.459   3.931  14.923  1.00  0.00     0.018 A 
HETATM    7  C2  UNL     1      17.007   2.813  15.612  1.00  0.00     0.026 A 
HETATM    8  C1  UNL     1      15.694   2.626  15.953  1.00  0.00     0.079 A 
HETATM    9  C11 UNL     1      14.801   3.610  15.580  1.00  0.00     0.026 A 
HETATM   10  C10 UNL     1      15.228   4.731  14.892  1.00  0.00     0.018 A 
BRANCH   8  11
HETATM   11  S1  UNL     1      15.142   1.220  16.817  1.00  0.00     0.256 S 
HETATM   12  O1  UNL     1      15.688  -0.014  16.173  1.00  0.00    -0.201 OA
HETATM   13  O2  UNL     1      15.625   1.238  18.246  1.00  0.00    -0.201 OA
BRANCH  11  14
HETATM   14  N1  UNL     1      13.399   1.149  16.866  1.00  0.00    -0.324 N 
ATOM     15  H12 UNL     1      12.836   0.519  16.294  1.00  0.00     0.169 HD
ATOM     16  H11 UNL     1      13.040   1.822  17.543  1.00  0.00     0.169 HD
ENDBRANCH  11  14
ENDBRANCH   8  11
ENDBRANCH   1   5
BRANCH   3  17
HETATM   17  C6  UNL     1      18.393   8.027  13.363  1.00  0.00     0.209 C 
BRANCH  17  18
HETATM   18  C7  UNL     1      19.723   8.631  13.544  1.00  0.00     0.332 C 
HETATM   19  F1  UNL     1      20.628   7.577  13.752  1.00  0.00    -0.197 F 
HETATM   20  F2  UNL     1      20.119   9.238  12.368  1.00  0.00    -0.197 F 
BRANCH  18  21
HETATM   21  C8  UNL     1      19.891   9.575  14.671  1.00  0.00     0.404 C 
HETATM   22  F3  UNL     1      19.966   8.897  15.873  1.00  0.00    -0.189 F 
HETATM   23  F4  UNL     1      18.772  10.400  14.770  1.00  0.00    -0.189 F 
BRANCH  21  24
HETATM   24  C9  UNL     1      21.086  10.475  14.587  1.00  0.00     0.460 C 
HETATM   25  F5  UNL     1      22.246   9.789  14.278  1.00  0.00    -0.165 F 
HETATM   26  F6  UNL     1      21.285  10.973  15.886  1.00  0.00    -0.165 F 
HETATM   27  F7  UNL     1      20.891  11.573  13.793  1.00  0.00    -0.165 F 
ENDBRANCH  21  24
ENDBRANCH  18  21
ENDBRANCH  17  18
ENDBRANCH   3  17
TORSDOF 7
ENDMDL
