MODEL 3
REMARK VINA RESULT: -7.441608233      0.438      1.047
REMARK  7 active torsions:
REMARK  status: ('A' for Active; 'I' for Inactive)
REMARK    1  A    between atoms: N1_1  and  S1_4 
REMARK    2  A    between atoms: S1_4  and  C1_7 
REMARK    3  A    between atoms: C4_10  and  C5_11 
REMARK       I    between atoms: C5_11  and  N2_13 
REMARK    4  A    between atoms: N2_13  and  C6_15 
REMARK    5  A    between atoms: C6_15  and  C7_16 
REMARK    6  A    between atoms: C7_16  and  C8_19 
REMARK    7  A    between atoms: C8_19  and  C9_22 
ROOT
HETATM    1  C5  UNL     1      16.310   6.087  13.246  1.00  0.00     0.251 C 
HETATM    2  O3  UNL     1      17.341   6.801  13.489  1.00  0.00    -0.268 OA
HETATM    3  N2  UNL     1      15.523   6.418  12.110  1.00  0.00    -0.351 N 
ATOM      4  H2  UNL     1      14.690   5.876  11.879  1.00  0.00     0.162 HD
ENDROOT
BRANCH   1   5
HETATM    5  C4  UNL     1      16.021   4.994  14.150  1.00  0.00     0.032 A 
HETATM    6  C3  UNL     1      14.902   5.003  14.973  1.00  0.00     0.018 A 
HETATM    7  C2  UNL     1      14.678   3.924  15.819  1.00  0.00     0.026 A 
HETATM    8  C1  UNL     1      15.511   2.840  15.884  1.00  0.00     0.079 A 
HETATM    9  C11 UNL     1      16.618   2.847  15.059  1.00  0.00     0.026 A 
HETATM   10  C10 UNL     1      16.862   3.910  14.210  1.00  0.00     0.018 A 
BRANCH   8  11
HETATM   11  S1  UNL     1      15.218   1.495  16.949  1.00  0.00     0.256 S 
HETATM   12  O1  UNL     1      14.042   0.712  16.459  1.00  0.00    -0.201 OA
HETATM   13  O2  UNL     1      16.402   0.561  16.982  1.00  0.00    -0.201 OA
BRANCH  11  14
HETATM   14  N1  UNL     1      14.942   2.030  18.586  1.00  0.00    -0.324 N 
ATOM     15  H12 UNL     1      14.319   2.797  18.840  1.00  0.00     0.169 HD
ATOM     16  H11 UNL     1      15.490   1.467  19.236  1.00  0.00     0.169 HD
ENDBRANCH  11  14
ENDBRANCH   8  11
ENDBRANCH   1   5
BRANCH   3  17
HETATM   17  C6  UNL     1      15.919   7.523  11.299  1.00  0.00     0.209 C 
BRANCH  17  18
HETATM   18  C7  UNL     1      14.851   8.203  10.546  1.00  0.00     0.332 C 
HETATM   19  F1  UNL     1      13.653   7.984  11.246  1.00  0.00    -0.197 F 
HETATM   20  F2  UNL     1      15.060   9.567  10.580  1.00  0.00    -0.197 F 
BRANCH  18  21
HETATM   21  C8  UNL     1      14.624   7.769   9.151  1.00  0.00     0.404 C 
HETATM   22  F3  UNL     1      14.471   6.397   9.082  1.00  0.00    -0.189 F 
HETATM   23  F4  UNL     1      15.743   8.065   8.373  1.00  0.00    -0.189 F 
BRANCH  21  24
HETATM   24  C9  UNL     1      13.444   8.389   8.465  1.00  0.00     0.460 C 
HETATM   25  F5  UNL     1      12.253   7.770   8.799  1.00  0.00    -0.165 F 
HETATM   26  F6  UNL     1      13.620   8.138   7.094  1.00  0.00    -0.165 F 
HETATM   27  F7  UNL     1      13.390   9.751   8.592  1.00  0.00    -0.165 F 
ENDBRANCH  21  24
ENDBRANCH  18  21
ENDBRANCH  17  18
ENDBRANCH   3  17
TORSDOF 7
ENDMDL
