MODEL 5
REMARK VINA RESULT: -7.386010061      1.463      2.018
REMARK  7 active torsions:
REMARK  status: ('A' for Active; 'I' for Inactive)
REMARK    1  A    between atoms: N1_1  and  S1_4 
REMARK    2  A    between atoms: S1_4  and  C1_7 
REMARK    3  A    between atoms: C4_10  and  C5_11 
REMARK       I    between atoms: C5_11  and  N2_13 
REMARK    4  A    between atoms: N2_13  and  C6_15 
REMARK    5  A    between atoms: C6_15  and  C7_16 
REMARK    6  A    between atoms: C7_16  and  C8_19 
REMARK    7  A    between atoms: C8_19  and  C9_22 
ROOT
HETATM    1  C5  UNL     1      16.571   6.169  12.408  1.00  0.00     0.251 C 
HETATM    2  O3  UNL     1      17.357   7.088  12.819  1.00  0.00    -0.268 OA
HETATM    3  N2  UNL     1      15.815   6.416  11.230  1.00  0.00    -0.351 N 
ATOM      4  H2  UNL     1      15.174   5.710  10.867  1.00  0.00     0.162 HD
ENDROOT
BRANCH   1   5
HETATM    5  C4  UNL     1      16.509   4.943  13.177  1.00  0.00     0.032 A 
HETATM    6  C3  UNL     1      16.246   4.948  14.540  1.00  0.00     0.018 A 
HETATM    7  C2  UNL     1      16.198   3.739  15.224  1.00  0.00     0.026 A 
HETATM    8  C1  UNL     1      16.397   2.529  14.615  1.00  0.00     0.079 A 
HETATM    9  C11 UNL     1      16.657   2.542  13.259  1.00  0.00     0.026 A 
HETATM   10  C10 UNL     1      16.710   3.733  12.559  1.00  0.00     0.018 A 
BRANCH   8  11
HETATM   11  S1  UNL     1      16.335   1.022  15.483  1.00  0.00     0.256 S 
HETATM   12  O1  UNL     1      16.260  -0.115  14.514  1.00  0.00    -0.201 OA
HETATM   13  O2  UNL     1      17.576   0.826  16.318  1.00  0.00    -0.201 OA
BRANCH  11  14
HETATM   14  N1  UNL     1      14.972   0.973  16.571  1.00  0.00    -0.324 N 
ATOM     15  H12 UNL     1      14.268   1.707  16.640  1.00  0.00     0.169 HD
ATOM     16  H11 UNL     1      14.991   0.111  17.117  1.00  0.00     0.169 HD
ENDBRANCH  11  14
ENDBRANCH   8  11
ENDBRANCH   1   5
BRANCH   3  17
HETATM   17  C6  UNL     1      15.969   7.668  10.566  1.00  0.00     0.209 C 
BRANCH  17  18
HETATM   18  C7  UNL     1      14.736   8.424  10.291  1.00  0.00     0.332 C 
HETATM   19  F1  UNL     1      13.698   7.784  10.988  1.00  0.00    -0.197 F 
HETATM   20  F2  UNL     1      14.835   9.686  10.844  1.00  0.00    -0.197 F 
BRANCH  18  21
HETATM   21  C8  UNL     1      14.308   8.532   8.879  1.00  0.00     0.404 C 
HETATM   22  F3  UNL     1      15.396   8.463   8.030  1.00  0.00    -0.189 F 
HETATM   23  F4  UNL     1      13.729   9.780   8.653  1.00  0.00    -0.189 F 
BRANCH  21  24
HETATM   24  C9  UNL     1      13.316   7.506   8.424  1.00  0.00     0.460 C 
HETATM   25  F5  UNL     1      13.698   6.218   8.753  1.00  0.00    -0.165 F 
HETATM   26  F6  UNL     1      13.332   7.550   7.020  1.00  0.00    -0.165 F 
HETATM   27  F7  UNL     1      12.027   7.788   8.792  1.00  0.00    -0.165 F 
ENDBRANCH  21  24
ENDBRANCH  18  21
ENDBRANCH  17  18
ENDBRANCH   3  17
TORSDOF 7
ENDMDL
