MODEL 2
REMARK VINA RESULT: -7.501214544      4.515      5.802
REMARK  7 active torsions:
REMARK  status: ('A' for Active; 'I' for Inactive)
REMARK    1  A    between atoms: N1_1  and  S1_4 
REMARK    2  A    between atoms: S1_4  and  C1_7 
REMARK    3  A    between atoms: C4_10  and  C5_11 
REMARK       I    between atoms: C5_11  and  N2_13 
REMARK    4  A    between atoms: N2_13  and  C6_15 
REMARK    5  A    between atoms: C6_15  and  C7_16 
REMARK    6  A    between atoms: C7_16  and  C8_19 
REMARK    7  A    between atoms: C8_19  and  C9_22 
ROOT
HETATM    1  C5  UNL     1      17.151   6.219  14.065  1.00  0.00     0.251 C 
HETATM    2  O3  UNL     1      16.676   6.516  12.917  1.00  0.00    -0.268 OA
HETATM    3  N2  UNL     1      18.148   7.071  14.614  1.00  0.00    -0.351 N 
ATOM      4  H2  UNL     1      18.556   6.872  15.528  1.00  0.00     0.162 HD
ENDROOT
BRANCH   1   5
HETATM    5  C4  UNL     1      16.638   5.034  14.720  1.00  0.00     0.032 A 
HETATM    6  C3  UNL     1      15.302   4.917  15.079  1.00  0.00     0.018 A 
HETATM    7  C2  UNL     1      14.870   3.754  15.704  1.00  0.00     0.026 A 
HETATM    8  C1  UNL     1      15.703   2.704  15.986  1.00  0.00     0.079 A 
HETATM    9  C11 UNL     1      17.027   2.837  15.622  1.00  0.00     0.026 A 
HETATM   10  C10 UNL     1      17.480   3.985  15.000  1.00  0.00     0.018 A 
BRANCH   8  11
HETATM   11  S1  UNL     1      15.147   1.253  16.770  1.00  0.00     0.256 S 
HETATM   12  O1  UNL     1      15.674   0.056  16.045  1.00  0.00    -0.201 OA
HETATM   13  O2  UNL     1      15.648   1.179  18.191  1.00  0.00    -0.201 OA
BRANCH  11  14
HETATM   14  N1  UNL     1      13.405   1.194  16.837  1.00  0.00    -0.324 N 
ATOM     15  H12 UNL     1      12.810   0.940  16.049  1.00  0.00     0.169 HD
ATOM     16  H11 UNL     1      13.082   1.449  17.770  1.00  0.00     0.169 HD
ENDBRANCH  11  14
ENDBRANCH   8  11
ENDBRANCH   1   5
BRANCH   3  17
HETATM   17  C6  UNL     1      18.566   8.210  13.864  1.00  0.00     0.209 C 
BRANCH  17  18
HETATM   18  C7  UNL     1      19.582   9.073  14.490  1.00  0.00     0.332 C 
HETATM   19  F1  UNL     1      19.352   9.041  15.875  1.00  0.00    -0.197 F 
HETATM   20  F2  UNL     1      20.834   8.520  14.306  1.00  0.00    -0.197 F 
BRANCH  18  21
HETATM   21  C8  UNL     1      19.603  10.496  14.087  1.00  0.00     0.404 C 
HETATM   22  F3  UNL     1      18.525  11.174  14.622  1.00  0.00    -0.189 F 
HETATM   23  F4  UNL     1      19.467  10.600  12.703  1.00  0.00    -0.189 F 
BRANCH  21  24
HETATM   24  C9  UNL     1      20.842  11.254  14.457  1.00  0.00     0.460 C 
HETATM   25  F5  UNL     1      21.279  10.961  15.736  1.00  0.00    -0.165 F 
HETATM   26  F6  UNL     1      20.468  12.607  14.495  1.00  0.00    -0.165 F 
HETATM   27  F7  UNL     1      21.838  11.167  13.522  1.00  0.00    -0.165 F 
ENDBRANCH  21  24
ENDBRANCH  18  21
ENDBRANCH  17  18
ENDBRANCH   3  17
TORSDOF 7
ENDMDL
