MODEL 20
REMARK VINA RESULT: -5.958743891      3.415      7.055
REMARK  6 active torsions:
REMARK  status: ('A' for Active; 'I' for Inactive)
REMARK    1  A    between atoms: C2_2  and  C3_3 
REMARK    2  A    between atoms: C3_3  and  C4_4 
REMARK    3  A    between atoms: C4_4  and  N1_5 
REMARK       I    between atoms: N1_5  and  C5_7 
REMARK    4  A    between atoms: C5_7  and  C6_9 
REMARK    5  A    between atoms: C9_12  and  S1_13 
REMARK    6  A    between atoms: S1_13  and  N2_14 
ROOT
HETATM    1  C6  UNL     1      17.652   3.757  14.553  1.00  0.00     0.032 A 
HETATM    2  C7  UNL     1      18.978   3.722  14.148  1.00  0.00     0.018 A 
HETATM    3  C8  UNL     1      19.675   4.890  14.035  1.00  0.00     0.026 A 
HETATM    4  C9  UNL     1      19.064   6.085  14.320  1.00  0.00     0.079 A 
HETATM    5  C10 UNL     1      17.734   6.146  14.728  1.00  0.00     0.026 A 
HETATM    6  C11 UNL     1      17.042   4.985  14.840  1.00  0.00     0.018 A 
ENDROOT
BRANCH   1   7
HETATM    7  C5  UNL     1      16.828   2.571  14.709  1.00  0.00     0.251 C 
HETATM    8  N1  UNL     1      17.272   1.507  15.512  1.00  0.00    -0.357 N 
ATOM      9  H1  UNL     1      18.173   1.575  15.983  1.00  0.00     0.162 HD
HETATM   10  O1  UNL     1      15.725   2.513  14.124  1.00  0.00    -0.268 OA
BRANCH   8  11
HETATM   11  C4  UNL     1      16.474   0.323  15.678  1.00  0.00     0.123 C 
BRANCH  11  12
HETATM   12  C3  UNL     1      15.900   0.289  17.061  1.00  0.00     0.019 C 
BRANCH  12  13
HETATM   13  C2  UNL     1      14.429   0.670  17.015  1.00  0.00    -0.003 C 
HETATM   14  C1  UNL     1      14.305   2.141  17.366  1.00  0.00     0.005 C 
ENDBRANCH  12  13
ENDBRANCH  11  12
ENDBRANCH   8  11
ENDBRANCH   1   7
BRANCH   4  15
HETATM   15  S1  UNL     1      19.925   7.599  14.188  1.00  0.00     0.256 S 
HETATM   16  O2  UNL     1      21.230   7.348  13.511  1.00  0.00    -0.201 OA
HETATM   17  O3  UNL     1      19.043   8.539  13.399  1.00  0.00    -0.201 OA
BRANCH  15  18
HETATM   18  N2  UNL     1      20.163   8.305  15.745  1.00  0.00    -0.324 N 
ATOM     19  H22 UNL     1      19.409   8.486  16.408  1.00  0.00     0.169 HD
ATOM     20  H21 UNL     1      21.151   8.509  15.901  1.00  0.00     0.169 HD
ENDBRANCH  15  18
ENDBRANCH   4  15
TORSDOF 6
ENDMDL
