MODEL 3
REMARK VINA RESULT: -6.739717394      1.150      1.702
REMARK  6 active torsions:
REMARK  status: ('A' for Active; 'I' for Inactive)
REMARK    1  A    between atoms: C2_2  and  C3_3 
REMARK    2  A    between atoms: C3_3  and  C4_4 
REMARK    3  A    between atoms: C4_4  and  N1_5 
REMARK       I    between atoms: N1_5  and  C5_7 
REMARK    4  A    between atoms: C5_7  and  C6_9 
REMARK    5  A    between atoms: C9_12  and  S1_13 
REMARK    6  A    between atoms: S1_13  and  N2_14 
ROOT
HETATM    1  C6  UNL     1      16.382   3.884  14.649  1.00  0.00     0.032 A 
HETATM    2  C7  UNL     1      17.256   2.847  14.937  1.00  0.00     0.018 A 
HETATM    3  C8  UNL     1      16.879   1.881  15.825  1.00  0.00     0.026 A 
HETATM    4  C9  UNL     1      15.647   1.943  16.426  1.00  0.00     0.079 A 
HETATM    5  C10 UNL     1      14.753   2.974  16.153  1.00  0.00     0.026 A 
HETATM    6  C11 UNL     1      15.127   3.933  15.270  1.00  0.00     0.018 A 
ENDROOT
BRANCH   1   7
HETATM    7  C5  UNL     1      16.685   4.954  13.714  1.00  0.00     0.251 C 
HETATM    8  N1  UNL     1      17.837   5.738  13.891  1.00  0.00    -0.357 N 
ATOM      9  H1  UNL     1      18.458   5.548  14.677  1.00  0.00     0.162 HD
HETATM   10  O1  UNL     1      15.909   5.165  12.756  1.00  0.00    -0.268 OA
BRANCH   8  11
HETATM   11  C4  UNL     1      18.154   6.804  12.980  1.00  0.00     0.123 C 
BRANCH  11  12
HETATM   12  C3  UNL     1      19.225   7.669  13.569  1.00  0.00     0.019 C 
BRANCH  12  13
HETATM   13  C2  UNL     1      19.082   7.706  15.082  1.00  0.00    -0.003 C 
HETATM   14  C1  UNL     1      20.231   8.518  15.652  1.00  0.00     0.005 C 
ENDBRANCH  12  13
ENDBRANCH  11  12
ENDBRANCH   8  11
ENDBRANCH   1   7
BRANCH   4  15
HETATM   15  S1  UNL     1      15.132   0.725  17.567  1.00  0.00     0.256 S 
HETATM   16  O2  UNL     1      13.808   0.193  17.131  1.00  0.00    -0.201 OA
HETATM   17  O3  UNL     1      16.199  -0.343  17.585  1.00  0.00    -0.201 OA
BRANCH  15  18
HETATM   18  N2  UNL     1      15.037   1.384  19.161  1.00  0.00    -0.324 N 
ATOM     19  H22 UNL     1      15.374   2.313  19.412  1.00  0.00     0.169 HD
ATOM     20  H21 UNL     1      14.601   0.719  19.800  1.00  0.00     0.169 HD
ENDBRANCH  15  18
ENDBRANCH   4  15
TORSDOF 6
ENDMDL
