MODEL 10
REMARK VINA RESULT: -6.294261946      0.914      1.582
REMARK  6 active torsions:
REMARK  status: ('A' for Active; 'I' for Inactive)
REMARK    1  A    between atoms: C2_2  and  C3_3 
REMARK    2  A    between atoms: C3_3  and  C4_4 
REMARK    3  A    between atoms: C4_4  and  N1_5 
REMARK       I    between atoms: N1_5  and  C5_7 
REMARK    4  A    between atoms: C5_7  and  C6_9 
REMARK    5  A    between atoms: C9_12  and  S1_13 
REMARK    6  A    between atoms: S1_13  and  N2_14 
ROOT
HETATM    1  C6  UNL     1      16.690   4.261  14.891  1.00  0.00     0.032 A 
HETATM    2  C7  UNL     1      15.359   4.112  15.251  1.00  0.00     0.018 A 
HETATM    3  C8  UNL     1      14.956   2.962  15.865  1.00  0.00     0.026 A 
HETATM    4  C9  UNL     1      15.863   1.965  16.120  1.00  0.00     0.079 A 
HETATM    5  C10 UNL     1      17.204   2.091  15.768  1.00  0.00     0.026 A 
HETATM    6  C11 UNL     1      17.605   3.234  15.158  1.00  0.00     0.018 A 
ENDROOT
BRANCH   1   7
HETATM    7  C5  UNL     1      17.219   5.447  14.240  1.00  0.00     0.251 C 
HETATM    8  N1  UNL     1      18.196   6.226  14.882  1.00  0.00    -0.357 N 
ATOM      9  H1  UNL     1      18.531   5.950  15.805  1.00  0.00     0.162 HD
HETATM   10  O1  UNL     1      16.794   5.762  13.108  1.00  0.00    -0.268 OA
BRANCH   8  11
HETATM   11  C4  UNL     1      18.730   7.405  14.259  1.00  0.00     0.123 C 
BRANCH  11  12
HETATM   12  C3  UNL     1      20.178   7.197  13.939  1.00  0.00     0.019 C 
BRANCH  12  13
HETATM   13  C2  UNL     1      20.316   6.610  12.543  1.00  0.00    -0.003 C 
HETATM   14  C1  UNL     1      20.749   5.161  12.674  1.00  0.00     0.005 C 
ENDBRANCH  12  13
ENDBRANCH  11  12
ENDBRANCH   8  11
ENDBRANCH   1   7
BRANCH   4  15
HETATM   15  S1  UNL     1      15.384   0.479  16.904  1.00  0.00     0.256 S 
HETATM   16  O2  UNL     1      15.915  -0.670  16.114  1.00  0.00    -0.201 OA
HETATM   17  O3  UNL     1      15.948   0.519  18.305  1.00  0.00    -0.201 OA
BRANCH  15  18
HETATM   18  N2  UNL     1      13.665   0.389  17.044  1.00  0.00    -0.324 N 
ATOM     19  H22 UNL     1      13.089  -0.280  16.534  1.00  0.00     0.169 HD
ATOM     20  H21 UNL     1      13.320   1.091  17.699  1.00  0.00     0.169 HD
ENDBRANCH  15  18
ENDBRANCH   4  15
TORSDOF 6
ENDMDL
