MODEL 14
REMARK VINA RESULT: -7.617173949      4.919      6.487
REMARK  8 active torsions:
REMARK  status: ('A' for Active; 'I' for Inactive)
REMARK    1  A    between atoms: N1_1  and  S1_4 
REMARK    2  A    between atoms: S1_4  and  C1_7 
REMARK    3  A    between atoms: C4_10  and  C5_11 
REMARK       I    between atoms: C5_11  and  N2_13 
REMARK    4  A    between atoms: N2_13  and  C6_15 
REMARK    5  A    between atoms: C6_15  and  C7_16 
REMARK    6  A    between atoms: C7_16  and  C8_19 
REMARK    7  A    between atoms: C8_19  and  C9_22 
REMARK    8  A    between atoms: C9_22  and  C10_25 
ROOT
HETATM    1  C5  UNL     1      17.110   6.199  14.086  1.00  0.00     0.251 C 
HETATM    2  O3  UNL     1      16.515   6.548  13.010  1.00  0.00    -0.268 OA
HETATM    3  N2  UNL     1      18.142   7.027  14.584  1.00  0.00    -0.351 N 
ATOM      4  H2  UNL     1      18.628   6.766  15.442  1.00  0.00     0.162 HD
ENDROOT
BRANCH   3   5
HETATM    5  C6  UNL     1      18.513   8.223  13.905  1.00  0.00     0.208 C 
BRANCH   5   6
HETATM    6  C7  UNL     1      19.577   9.064  14.539  1.00  0.00     0.330 C 
HETATM    7  F1  UNL     1      19.208   9.034  15.911  1.00  0.00    -0.198 F 
HETATM    8  F2  UNL     1      20.783   8.433  14.330  1.00  0.00    -0.198 F 
BRANCH   6   9
HETATM    9  C8  UNL     1      19.524  10.484  14.089  1.00  0.00     0.382 C 
HETATM   10  F3  UNL     1      19.235  10.480  12.733  1.00  0.00    -0.192 F 
HETATM   11  F4  UNL     1      18.362  11.014  14.683  1.00  0.00    -0.192 F 
BRANCH   9  12
HETATM   12  C9  UNL     1      20.667  11.346  14.306  1.00  0.00     0.409 C 
HETATM   13  F5  UNL     1      21.682  10.908  13.427  1.00  0.00    -0.189 F 
HETATM   14  F6  UNL     1      21.252  11.044  15.558  1.00  0.00    -0.189 F 
BRANCH  12  15
HETATM   15  C10 UNL     1      20.621  12.801  14.213  1.00  0.00     0.461 C 
HETATM   16  F7  UNL     1      20.381  13.445  15.417  1.00  0.00    -0.165 F 
HETATM   17  F8  UNL     1      21.871  13.313  13.807  1.00  0.00    -0.165 F 
HETATM   18  F9  UNL     1      19.741  13.354  13.323  1.00  0.00    -0.165 F 
ENDBRANCH  12  15
ENDBRANCH   9  12
ENDBRANCH   6   9
ENDBRANCH   5   6
ENDBRANCH   3   5
BRANCH   1  19
HETATM   19  C4  UNL     1      16.696   4.966  14.746  1.00  0.00     0.032 A 
HETATM   20  C3  UNL     1      17.561   3.956  15.081  1.00  0.00     0.018 A 
HETATM   21  C2  UNL     1      17.101   2.795  15.714  1.00  0.00     0.026 A 
HETATM   22  C1  UNL     1      15.764   2.662  16.006  1.00  0.00     0.079 A 
HETATM   23  C12 UNL     1      14.879   3.661  15.680  1.00  0.00     0.026 A 
HETATM   24  C11 UNL     1      15.367   4.777  15.064  1.00  0.00     0.018 A 
BRANCH  22  25
HETATM   25  S1  UNL     1      15.148   1.231  16.796  1.00  0.00     0.256 S 
HETATM   26  O1  UNL     1      15.660   0.044  15.993  1.00  0.00    -0.201 OA
HETATM   27  O2  UNL     1      15.606   1.127  18.221  1.00  0.00    -0.201 OA
BRANCH  25  28
HETATM   28  N1  UNL     1      13.416   1.237  16.806  1.00  0.00    -0.324 N 
ATOM     29  H12 UNL     1      12.843   1.982  16.410  1.00  0.00     0.169 HD
ATOM     30  H11 UNL     1      13.067   0.395  17.263  1.00  0.00     0.169 HD
ENDBRANCH  25  28
ENDBRANCH  22  25
ENDBRANCH   1  19
TORSDOF 8
ENDMDL
