MODEL 3
REMARK VINA RESULT: -7.950712946      0.938      1.550
REMARK  8 active torsions:
REMARK  status: ('A' for Active; 'I' for Inactive)
REMARK    1  A    between atoms: N1_1  and  S1_4 
REMARK    2  A    between atoms: S1_4  and  C1_7 
REMARK    3  A    between atoms: C4_10  and  C5_11 
REMARK       I    between atoms: C5_11  and  N2_13 
REMARK    4  A    between atoms: N2_13  and  C6_15 
REMARK    5  A    between atoms: C6_15  and  C7_16 
REMARK    6  A    between atoms: C7_16  and  C8_19 
REMARK    7  A    between atoms: C8_19  and  C9_22 
REMARK    8  A    between atoms: C9_22  and  C10_25 
ROOT
HETATM    1  C5  UNL     1      16.259   6.086  13.292  1.00  0.00     0.251 C 
HETATM    2  O3  UNL     1      17.320   6.770  13.491  1.00  0.00    -0.268 OA
HETATM    3  N2  UNL     1      15.441   6.418  12.188  1.00  0.00    -0.351 N 
ATOM      4  H2  UNL     1      14.591   5.883  12.013  1.00  0.00     0.162 HD
ENDROOT
BRANCH   3   5
HETATM    5  C6  UNL     1      15.787   7.490  11.317  1.00  0.00     0.208 C 
BRANCH   5   6
HETATM    6  C7  UNL     1      14.708   8.017  10.424  1.00  0.00     0.330 C 
HETATM    7  F1  UNL     1      13.529   7.671  11.137  1.00  0.00    -0.198 F 
HETATM    8  F2  UNL     1      14.865   9.384  10.347  1.00  0.00    -0.198 F 
BRANCH   6   9
HETATM    9  C8  UNL     1      14.662   7.315   9.109  1.00  0.00     0.382 C 
HETATM   10  F3  UNL     1      15.933   6.821   8.858  1.00  0.00    -0.192 F 
HETATM   11  F4  UNL     1      13.888   6.162   9.337  1.00  0.00    -0.192 F 
BRANCH   9  12
HETATM   12  C9  UNL     1      14.212   8.029   7.932  1.00  0.00     0.409 C 
HETATM   13  F5  UNL     1      14.348   7.144   6.840  1.00  0.00    -0.189 F 
HETATM   14  F6  UNL     1      15.163   9.019   7.591  1.00  0.00    -0.189 F 
BRANCH  12  15
HETATM   15  C10 UNL     1      12.902   8.658   7.811  1.00  0.00     0.461 C 
HETATM   16  F7  UNL     1      12.841   9.955   8.299  1.00  0.00    -0.165 F 
HETATM   17  F8  UNL     1      12.540   8.798   6.455  1.00  0.00    -0.165 F 
HETATM   18  F9  UNL     1      11.832   8.010   8.366  1.00  0.00    -0.165 F 
ENDBRANCH  12  15
ENDBRANCH   9  12
ENDBRANCH   6   9
ENDBRANCH   5   6
ENDBRANCH   3   5
BRANCH   1  19
HETATM   19  C4  UNL     1      15.946   4.998  14.211  1.00  0.00     0.032 A 
HETATM   20  C3  UNL     1      14.854   4.996  15.042  1.00  0.00     0.018 A 
HETATM   21  C2  UNL     1      14.607   3.920  15.903  1.00  0.00     0.026 A 
HETATM   22  C1  UNL     1      15.469   2.849  15.920  1.00  0.00     0.079 A 
HETATM   23  C12 UNL     1      16.569   2.829  15.097  1.00  0.00     0.026 A 
HETATM   24  C11 UNL     1      16.774   3.897  14.272  1.00  0.00     0.018 A 
BRANCH  22  25
HETATM   25  S1  UNL     1      15.198   1.486  16.979  1.00  0.00     0.256 S 
HETATM   26  O1  UNL     1      13.988   0.748  16.427  1.00  0.00    -0.201 OA
HETATM   27  O2  UNL     1      16.384   0.567  17.034  1.00  0.00    -0.201 OA
BRANCH  25  28
HETATM   28  N1  UNL     1      14.882   2.021  18.595  1.00  0.00    -0.324 N 
ATOM     29  H12 UNL     1      14.788   1.398  19.397  1.00  0.00     0.169 HD
ATOM     30  H11 UNL     1      14.804   3.037  18.617  1.00  0.00     0.169 HD
ENDBRANCH  25  28
ENDBRANCH  22  25
ENDBRANCH   1  19
TORSDOF 8
ENDMDL
