MODEL 1
REMARK VINA RESULT: -7.997804266      0.000      0.000
REMARK  8 active torsions:
REMARK  status: ('A' for Active; 'I' for Inactive)
REMARK    1  A    between atoms: N1_1  and  S1_4 
REMARK    2  A    between atoms: S1_4  and  C1_7 
REMARK    3  A    between atoms: C4_10  and  C5_11 
REMARK       I    between atoms: C5_11  and  N2_13 
REMARK    4  A    between atoms: N2_13  and  C6_15 
REMARK    5  A    between atoms: C6_15  and  C7_16 
REMARK    6  A    between atoms: C7_16  and  C8_19 
REMARK    7  A    between atoms: C8_19  and  C9_22 
REMARK    8  A    between atoms: C9_22  and  C10_25 
ROOT
HETATM    1  C5  UNL     1      16.646   6.081  13.610  1.00  0.00     0.251 C 
HETATM    2  O3  UNL     1      17.659   6.811  13.885  1.00  0.00    -0.268 OA
HETATM    3  N2  UNL     1      15.894   6.380  12.451  1.00  0.00    -0.351 N 
ATOM      4  H2  UNL     1      15.083   5.809  12.216  1.00  0.00     0.162 HD
ENDROOT
BRANCH   3   5
HETATM    5  C6  UNL     1      16.253   7.469  11.606  1.00  0.00     0.208 C 
BRANCH   5   6
HETATM    6  C7  UNL     1      15.150   8.128  10.838  1.00  0.00     0.330 C 
HETATM    7  F1  UNL     1      14.015   7.857  11.648  1.00  0.00    -0.198 F 
HETATM    8  F2  UNL     1      15.425   9.477  10.795  1.00  0.00    -0.198 F 
BRANCH   6   9
HETATM    9  C8  UNL     1      14.920   7.490   9.511  1.00  0.00     0.382 C 
HETATM   10  F3  UNL     1      16.161   7.152   8.991  1.00  0.00    -0.192 F 
HETATM   11  F4  UNL     1      14.323   6.248   9.799  1.00  0.00    -0.192 F 
BRANCH   9  12
HETATM   12  C9  UNL     1      14.182   8.207   8.492  1.00  0.00     0.409 C 
HETATM   13  F5  UNL     1      15.117   8.592   7.505  1.00  0.00    -0.189 F 
HETATM   14  F6  UNL     1      13.792   9.469   8.995  1.00  0.00    -0.189 F 
BRANCH  12  15
HETATM   15  C10 UNL     1      13.022   7.665   7.792  1.00  0.00     0.461 C 
HETATM   16  F7  UNL     1      11.862   7.627   8.551  1.00  0.00    -0.165 F 
HETATM   17  F8  UNL     1      12.675   8.484   6.697  1.00  0.00    -0.165 F 
HETATM   18  F9  UNL     1      13.138   6.418   7.240  1.00  0.00    -0.165 F 
ENDBRANCH  12  15
ENDBRANCH   9  12
ENDBRANCH   6   9
ENDBRANCH   5   6
ENDBRANCH   3   5
BRANCH   1  19
HETATM   19  C4  UNL     1      16.316   4.978  14.505  1.00  0.00     0.032 A 
HETATM   20  C3  UNL     1      17.204   3.992  14.856  1.00  0.00     0.018 A 
HETATM   21  C2  UNL     1      16.827   2.959  15.721  1.00  0.00     0.026 A 
HETATM   22  C1  UNL     1      15.549   2.926  16.228  1.00  0.00     0.079 A 
HETATM   23  C12 UNL     1      14.643   3.902  15.891  1.00  0.00     0.026 A 
HETATM   24  C11 UNL     1      15.050   4.893  15.045  1.00  0.00     0.018 A 
BRANCH  22  25
HETATM   25  S1  UNL     1      15.037   1.654  17.311  1.00  0.00     0.256 S 
HETATM   26  O1  UNL     1      16.041   0.522  17.149  1.00  0.00    -0.201 OA
HETATM   27  O2  UNL     1      14.996   2.108  18.740  1.00  0.00    -0.201 OA
BRANCH  25  28
HETATM   28  N1  UNL     1      13.449   1.102  16.896  1.00  0.00    -0.324 N 
ATOM     29  H12 UNL     1      13.170   0.811  15.958  1.00  0.00     0.169 HD
ATOM     30  H11 UNL     1      12.849   1.114  17.720  1.00  0.00     0.169 HD
ENDBRANCH  25  28
ENDBRANCH  22  25
ENDBRANCH   1  19
TORSDOF 8
ENDMDL
