MODEL 17
REMARK VINA RESULT: -7.585232848      5.003      6.536
REMARK  8 active torsions:
REMARK  status: ('A' for Active; 'I' for Inactive)
REMARK    1  A    between atoms: N1_1  and  S1_4 
REMARK    2  A    between atoms: S1_4  and  C1_7 
REMARK    3  A    between atoms: C4_10  and  C5_11 
REMARK       I    between atoms: C5_11  and  N2_13 
REMARK    4  A    between atoms: N2_13  and  C6_15 
REMARK    5  A    between atoms: C6_15  and  C7_16 
REMARK    6  A    between atoms: C7_16  and  C8_19 
REMARK    7  A    between atoms: C8_19  and  C9_22 
REMARK    8  A    between atoms: C9_22  and  C10_25 
ROOT
HETATM    1  C5  UNL     1      16.785   6.125  13.921  1.00  0.00     0.251 C 
HETATM    2  O3  UNL     1      16.162   6.491  12.867  1.00  0.00    -0.268 OA
HETATM    3  N2  UNL     1      17.898   6.888  14.344  1.00  0.00    -0.351 N 
ATOM      4  H2  UNL     1      18.408   6.611  15.183  1.00  0.00     0.162 HD
ENDROOT
BRANCH   3   5
HETATM    5  C6  UNL     1      18.318   8.037  13.615  1.00  0.00     0.208 C 
BRANCH   5   6
HETATM    6  C7  UNL     1      19.731   8.490  13.813  1.00  0.00     0.330 C 
HETATM    7  F1  UNL     1      20.344   7.334  14.366  1.00  0.00    -0.198 F 
HETATM    8  F2  UNL     1      20.248   8.788  12.571  1.00  0.00    -0.198 F 
BRANCH   6   9
HETATM    9  C8  UNL     1      19.842   9.585  14.819  1.00  0.00     0.382 C 
HETATM   10  F3  UNL     1      18.683  10.342  14.739  1.00  0.00    -0.192 F 
HETATM   11  F4  UNL     1      19.745   8.945  16.069  1.00  0.00    -0.192 F 
BRANCH   9  12
HETATM   12  C9  UNL     1      20.976  10.485  14.773  1.00  0.00     0.409 C 
HETATM   13  F5  UNL     1      22.098   9.710  14.404  1.00  0.00    -0.189 F 
HETATM   14  F6  UNL     1      21.332  10.859  16.089  1.00  0.00    -0.189 F 
BRANCH  12  15
HETATM   15  C10 UNL     1      21.018  11.704  13.973  1.00  0.00     0.461 C 
HETATM   16  F7  UNL     1      20.335  11.623  12.769  1.00  0.00    -0.165 F 
HETATM   17  F8  UNL     1      20.377  12.764  14.647  1.00  0.00    -0.165 F 
HETATM   18  F9  UNL     1      22.248  12.216  13.659  1.00  0.00    -0.165 F 
ENDBRANCH  12  15
ENDBRANCH   9  12
ENDBRANCH   6   9
ENDBRANCH   5   6
ENDBRANCH   3   5
BRANCH   1  19
HETATM   19  C4  UNL     1      16.319   4.941  14.633  1.00  0.00     0.032 A 
HETATM   20  C3  UNL     1      15.008   4.728  14.976  1.00  0.00     0.018 A 
HETATM   21  C2  UNL     1      14.623   3.569  15.661  1.00  0.00     0.026 A 
HETATM   22  C1  UNL     1      15.568   2.630  15.997  1.00  0.00     0.079 A 
HETATM   23  C12 UNL     1      16.888   2.822  15.664  1.00  0.00     0.026 A 
HETATM   24  C11 UNL     1      17.222   3.965  14.996  1.00  0.00     0.018 A 
BRANCH  22  25
HETATM   25  S1  UNL     1      15.131   1.170  16.851  1.00  0.00     0.256 S 
HETATM   26  O1  UNL     1      15.684   0.012  16.033  1.00  0.00    -0.201 OA
HETATM   27  O2  UNL     1      15.695   1.136  18.241  1.00  0.00    -0.201 OA
BRANCH  25  28
HETATM   28  N1  UNL     1      13.410   1.033  16.985  1.00  0.00    -0.324 N 
ATOM     29  H12 UNL     1      12.896   1.108  17.864  1.00  0.00     0.169 HD
ATOM     30  H11 UNL     1      13.000   0.867  16.067  1.00  0.00     0.169 HD
ENDBRANCH  25  28
ENDBRANCH  22  25
ENDBRANCH   1  19
TORSDOF 8
ENDMDL
