MODEL 4
REMARK VINA RESULT: -7.882260766      1.140      1.870
REMARK  11 active torsions:
REMARK  status: ('A' for Active; 'I' for Inactive)
REMARK    1  A    between atoms: O1_2  and  C2_3 
REMARK    2  A    between atoms: C2_3  and  C3_4 
REMARK       I    between atoms: C3_4  and  N1_6 
REMARK    3  A    between atoms: N1_6  and  C4_8 
REMARK    4  A    between atoms: C4_8  and  C5_9 
REMARK    5  A    between atoms: C4_8  and  C18_24 
REMARK    6  A    between atoms: C5_9  and  C6_10 
REMARK    7  A    between atoms: C9_13  and  C10_14 
REMARK    8  A    between atoms: C18_24  and  O3_25 
REMARK    9  A    between atoms: C18_24  and  C19_27 
REMARK   10  A    between atoms: C19_27  and  O4_28 
REMARK   11  A    between atoms: C19_27  and  C20_30 
ROOT
HETATM    1  C4  UNL     1      -4.016 -36.199 -26.446  1.00  0.00     0.120 C 
ENDROOT
BRANCH   1   2
HETATM    2  N1  UNL     1      -4.452 -36.459 -27.772  1.00  0.00    -0.352 N 
HETATM    3  C3  UNL     1      -3.995 -37.591 -28.505  1.00  0.00     0.241 C 
HETATM    4  O2  UNL     1      -3.185 -38.417 -28.020  1.00  0.00    -0.271 OA
ATOM      5  H1  UNL     1      -5.111 -35.817 -28.212  1.00  0.00     0.163 HD
BRANCH   3   6
HETATM    6  C2  UNL     1      -4.501 -37.781 -29.880  1.00  0.00     0.269 C 
BRANCH   6   7
HETATM    7  O1  UNL     1      -3.727 -37.280 -30.887  1.00  0.00    -0.387 OA
HETATM    8  C1  UNL     1      -3.707 -35.922 -31.050  1.00  0.00     0.202 C 
ENDBRANCH   6   7
ENDBRANCH   3   6
ENDBRANCH   1   2
BRANCH   1   9
HETATM    9  C5  UNL     1      -3.088 -34.981 -26.362  1.00  0.00     0.066 C 
BRANCH   9  10
HETATM   10  C6  UNL     1      -1.687 -35.354 -26.573  1.00  0.00    -0.056 A 
HETATM   11  C7  UNL     1      -0.966 -35.958 -25.579  1.00  0.00     0.008 A 
HETATM   12  C8  UNL     1       0.365 -36.305 -25.802  1.00  0.00     0.013 A 
HETATM   13  C9  UNL     1       0.974 -36.050 -27.011  1.00  0.00    -0.026 A 
HETATM   14  C16 UNL     1       0.255 -35.446 -28.006  1.00  0.00     0.013 A 
HETATM   15  C17 UNL     1      -1.080 -35.101 -27.776  1.00  0.00     0.008 A 
BRANCH  13  16
HETATM   16  C10 UNL     1       2.374 -36.432 -27.198  1.00  0.00    -0.023 A 
HETATM   17  C11 UNL     1       3.338 -36.119 -26.266  1.00  0.00     0.036 A 
HETATM   18  C12 UNL     1       4.667 -36.476 -26.431  1.00  0.00     0.036 A 
HETATM   19 CL1  UNL     1       5.868 -36.067 -25.237  1.00  0.00    -0.084 Cl
HETATM   20  C13 UNL     1       5.018 -37.162 -27.564  1.00  0.00     0.047 A 
HETATM   21  C14 UNL     1       4.082 -37.496 -28.520  1.00  0.00     0.036 A 
HETATM   22 CL2  UNL     1       4.591 -38.381 -29.960  1.00  0.00    -0.084 Cl
HETATM   23  C15 UNL     1       2.770 -37.122 -28.317  1.00  0.00     0.036 A 
ENDBRANCH  13  16
ENDBRANCH   9  10
ENDBRANCH   1   9
BRANCH   1  24
HETATM   24  C18 UNL     1      -5.052 -36.146 -25.389  1.00  0.00     0.180 C 
BRANCH  24  25
HETATM   25  O3  UNL     1      -5.226 -34.803 -24.965  1.00  0.00    -0.390 OA
ATOM     26  H3  UNL     1      -4.873 -34.216 -25.623  1.00  0.00     0.210 HD
ENDBRANCH  24  25
BRANCH  24  27
HETATM   27  C19 UNL     1      -4.821 -36.958 -24.163  1.00  0.00     0.249 C 
BRANCH  27  28
HETATM   28  O4  UNL     1      -3.970 -38.025 -24.292  1.00  0.00    -0.382 OA
ATOM     29  H4  UNL     1      -3.078 -37.824 -24.550  1.00  0.00     0.210 HD
ENDBRANCH  27  28
BRANCH  27  30
HETATM   30  C20 UNL     1      -4.440 -36.114 -23.001  1.00  0.00     0.205 C 
HETATM   31  O5  UNL     1      -5.314 -35.888 -22.129  1.00  0.00    -0.646 OA
HETATM   32  O6  UNL     1      -3.195 -35.557 -22.803  1.00  0.00    -0.646 OA
ENDBRANCH  27  30
ENDBRANCH  24  27
ENDBRANCH   1  24
TORSDOF 11
ENDMDL
