MODEL 5
REMARK VINA RESULT: -7.845572612      1.126      2.526
REMARK  11 active torsions:
REMARK  status: ('A' for Active; 'I' for Inactive)
REMARK    1  A    between atoms: O1_2  and  C2_3 
REMARK    2  A    between atoms: C2_3  and  C3_4 
REMARK       I    between atoms: C3_4  and  N1_6 
REMARK    3  A    between atoms: N1_6  and  C4_8 
REMARK    4  A    between atoms: C4_8  and  C5_9 
REMARK    5  A    between atoms: C4_8  and  C18_24 
REMARK    6  A    between atoms: C5_9  and  C6_10 
REMARK    7  A    between atoms: C9_13  and  C10_14 
REMARK    8  A    between atoms: C18_24  and  O3_25 
REMARK    9  A    between atoms: C18_24  and  C19_27 
REMARK   10  A    between atoms: C19_27  and  O4_28 
REMARK   11  A    between atoms: C19_27  and  C20_30 
ROOT
HETATM    1  C4  UNL     1      -4.031 -36.201 -26.491  1.00  0.00     0.120 C 
ENDROOT
BRANCH   1   2
HETATM    2  N1  UNL     1      -4.477 -36.479 -27.809  1.00  0.00    -0.352 N 
HETATM    3  C3  UNL     1      -3.995 -37.598 -28.546  1.00  0.00     0.241 C 
HETATM    4  O2  UNL     1      -3.153 -38.395 -28.072  1.00  0.00    -0.271 OA
ATOM      5  H1  UNL     1      -5.163 -35.860 -28.240  1.00  0.00     0.163 HD
BRANCH   3   6
HETATM    6  C2  UNL     1      -4.516 -37.807 -29.912  1.00  0.00     0.269 C 
BRANCH   6   7
HETATM    7  O1  UNL     1      -3.755 -37.316 -30.934  1.00  0.00    -0.387 OA
HETATM    8  C1  UNL     1      -3.669 -35.956 -31.058  1.00  0.00     0.202 C 
ENDBRANCH   6   7
ENDBRANCH   3   6
ENDBRANCH   1   2
BRANCH   1   9
HETATM    9  C5  UNL     1      -3.101 -34.982 -26.430  1.00  0.00     0.066 C 
BRANCH   9  10
HETATM   10  C6  UNL     1      -1.701 -35.360 -26.641  1.00  0.00    -0.056 A 
HETATM   11  C7  UNL     1      -0.997 -36.011 -25.666  1.00  0.00     0.008 A 
HETATM   12  C8  UNL     1       0.333 -36.362 -25.888  1.00  0.00     0.013 A 
HETATM   13  C9  UNL     1       0.958 -36.063 -27.078  1.00  0.00    -0.026 A 
HETATM   14  C16 UNL     1       0.256 -35.411 -28.055  1.00  0.00     0.013 A 
HETATM   15  C17 UNL     1      -1.078 -35.063 -27.826  1.00  0.00     0.008 A 
BRANCH  13  16
HETATM   16  C10 UNL     1       2.356 -36.451 -27.266  1.00  0.00    -0.023 A 
HETATM   17  C11 UNL     1       2.769 -37.144 -28.382  1.00  0.00     0.036 A 
HETATM   18  C12 UNL     1       4.091 -37.517 -28.572  1.00  0.00     0.036 A 
HETATM   19 CL1  UNL     1       4.587 -38.394 -29.991  1.00  0.00    -0.084 Cl
HETATM   20  C13 UNL     1       5.005 -37.178 -27.608  1.00  0.00     0.047 A 
HETATM   21  C14 UNL     1       4.631 -36.484 -26.477  1.00  0.00     0.036 A 
HETATM   22 CL2  UNL     1       5.850 -36.074 -25.269  1.00  0.00    -0.084 Cl
HETATM   23  C15 UNL     1       3.306 -36.131 -26.327  1.00  0.00     0.036 A 
ENDBRANCH  13  16
ENDBRANCH   9  10
ENDBRANCH   1   9
BRANCH   1  24
HETATM   24  C18 UNL     1      -5.057 -36.133 -25.425  1.00  0.00     0.180 C 
BRANCH  24  25
HETATM   25  O3  UNL     1      -5.296 -34.777 -25.085  1.00  0.00    -0.390 OA
ATOM     26  H3  UNL     1      -6.152 -34.698 -24.680  1.00  0.00     0.210 HD
ENDBRANCH  24  25
BRANCH  24  27
HETATM   27  C19 UNL     1      -4.773 -36.853 -24.153  1.00  0.00     0.249 C 
BRANCH  27  28
HETATM   28  O4  UNL     1      -3.933 -37.934 -24.241  1.00  0.00    -0.382 OA
ATOM     29  H4  UNL     1      -3.050 -37.809 -23.914  1.00  0.00     0.210 HD
ENDBRANCH  27  28
BRANCH  27  30
HETATM   30  C20 UNL     1      -4.333 -35.928 -23.078  1.00  0.00     0.205 C 
HETATM   31  O5  UNL     1      -5.189 -35.558 -22.237  1.00  0.00    -0.646 OA
HETATM   32  O6  UNL     1      -3.053 -35.440 -22.929  1.00  0.00    -0.646 OA
ENDBRANCH  27  30
ENDBRANCH  24  27
ENDBRANCH   1  24
TORSDOF 11
ENDMDL
