MODEL 14
REMARK VINA RESULT: -7.248740657      2.129      4.579
REMARK  11 active torsions:
REMARK  status: ('A' for Active; 'I' for Inactive)
REMARK    1  A    between atoms: O1_2  and  C2_3 
REMARK    2  A    between atoms: C2_3  and  C3_4 
REMARK       I    between atoms: C3_4  and  N1_6 
REMARK    3  A    between atoms: N1_6  and  C4_8 
REMARK    4  A    between atoms: C4_8  and  C5_9 
REMARK    5  A    between atoms: C4_8  and  C18_24 
REMARK    6  A    between atoms: C5_9  and  C6_10 
REMARK    7  A    between atoms: C9_13  and  C10_14 
REMARK    8  A    between atoms: C18_24  and  O3_25 
REMARK    9  A    between atoms: C18_24  and  C19_27 
REMARK   10  A    between atoms: C19_27  and  O4_28 
REMARK   11  A    between atoms: C19_27  and  C20_30 
ROOT
HETATM    1  C4  UNL     1      -3.203 -34.300 -27.743  1.00  0.00     0.120 C 
ENDROOT
BRANCH   1   2
HETATM    2  N1  UNL     1      -4.072 -33.901 -26.695  1.00  0.00    -0.352 N 
HETATM    3  C3  UNL     1      -5.286 -34.593 -26.419  1.00  0.00     0.241 C 
HETATM    4  O2  UNL     1      -5.651 -35.590 -27.086  1.00  0.00    -0.271 OA
ATOM      5  H1  UNL     1      -3.821 -33.095 -26.122  1.00  0.00     0.163 HD
BRANCH   3   6
HETATM    6  C2  UNL     1      -6.128 -34.105 -25.308  1.00  0.00     0.269 C 
BRANCH   6   7
HETATM    7  O1  UNL     1      -7.388 -33.693 -25.637  1.00  0.00    -0.387 OA
HETATM    8  C1  UNL     1      -7.500 -32.645 -26.509  1.00  0.00     0.202 C 
ENDBRANCH   6   7
ENDBRANCH   3   6
ENDBRANCH   1   2
BRANCH   1   9
HETATM    9  C5  UNL     1      -2.699 -35.739 -27.572  1.00  0.00     0.066 C 
BRANCH   9  10
HETATM   10  C6  UNL     1      -1.315 -35.773 -27.094  1.00  0.00    -0.056 A 
HETATM   11  C7  UNL     1      -1.030 -36.100 -25.797  1.00  0.00     0.008 A 
HETATM   12  C8  UNL     1       0.295 -36.126 -25.364  1.00  0.00     0.013 A 
HETATM   13  C9  UNL     1       1.329 -35.826 -26.222  1.00  0.00    -0.026 A 
HETATM   14  C16 UNL     1       1.046 -35.498 -27.520  1.00  0.00     0.013 A 
HETATM   15  C17 UNL     1      -0.284 -35.475 -27.947  1.00  0.00     0.008 A 
BRANCH  13  16
HETATM   16  C10 UNL     1       2.704 -35.866 -25.722  1.00  0.00    -0.023 A 
HETATM   17  C11 UNL     1       3.767 -36.137 -26.555  1.00  0.00     0.036 A 
HETATM   18  C12 UNL     1       5.074 -36.178 -26.094  1.00  0.00     0.036 A 
HETATM   19 CL1  UNL     1       6.400 -36.522 -27.167  1.00  0.00    -0.084 Cl
HETATM   20  C13 UNL     1       5.299 -35.940 -24.763  1.00  0.00     0.047 A 
HETATM   21  C14 UNL     1       4.262 -35.665 -23.898  1.00  0.00     0.036 A 
HETATM   22 CL2  UNL     1       4.611 -35.367 -22.193  1.00  0.00    -0.084 Cl
HETATM   23  C15 UNL     1       2.977 -35.633 -24.397  1.00  0.00     0.036 A 
ENDBRANCH  13  16
ENDBRANCH   9  10
ENDBRANCH   1   9
BRANCH   1  24
HETATM   24  C18 UNL     1      -3.661 -34.065 -29.132  1.00  0.00     0.180 C 
BRANCH  24  25
HETATM   25  O3  UNL     1      -4.831 -33.261 -29.114  1.00  0.00    -0.390 OA
ATOM     26  H3  UNL     1      -5.598 -33.820 -29.071  1.00  0.00     0.210 HD
ENDBRANCH  24  25
BRANCH  24  27
HETATM   27  C19 UNL     1      -3.974 -35.260 -29.961  1.00  0.00     0.249 C 
BRANCH  27  28
HETATM   28  O4  UNL     1      -5.283 -35.671 -29.968  1.00  0.00    -0.382 OA
ATOM     29  H4  UNL     1      -5.649 -35.926 -29.129  1.00  0.00     0.210 HD
ENDBRANCH  27  28
BRANCH  27  30
HETATM   30  C20 UNL     1      -3.455 -35.128 -31.347  1.00  0.00     0.205 C 
HETATM   31  O5  UNL     1      -3.253 -33.970 -31.788  1.00  0.00    -0.646 OA
HETATM   32  O6  UNL     1      -3.176 -36.181 -32.191  1.00  0.00    -0.646 OA
ENDBRANCH  27  30
ENDBRANCH  24  27
ENDBRANCH   1  24
TORSDOF 11
ENDMDL
