MODEL 6
REMARK VINA RESULT: -7.742155294      2.069      3.795
REMARK  11 active torsions:
REMARK  status: ('A' for Active; 'I' for Inactive)
REMARK    1  A    between atoms: O1_2  and  C2_3 
REMARK    2  A    between atoms: C2_3  and  C3_4 
REMARK       I    between atoms: C3_4  and  N1_6 
REMARK    3  A    between atoms: N1_6  and  C4_8 
REMARK    4  A    between atoms: C4_8  and  C5_9 
REMARK    5  A    between atoms: C4_8  and  C18_24 
REMARK    6  A    between atoms: C5_9  and  C6_10 
REMARK    7  A    between atoms: C9_13  and  C10_14 
REMARK    8  A    between atoms: C18_24  and  O3_25 
REMARK    9  A    between atoms: C18_24  and  C19_27 
REMARK   10  A    between atoms: C19_27  and  O4_28 
REMARK   11  A    between atoms: C19_27  and  C20_30 
ROOT
HETATM    1  C4  UNL     1      -3.851 -34.571 -27.507  1.00  0.00     0.120 C 
ENDROOT
BRANCH   1   2
HETATM    2  N1  UNL     1      -4.394 -33.296 -27.204  1.00  0.00    -0.352 N 
HETATM    3  C3  UNL     1      -5.608 -33.150 -26.473  1.00  0.00     0.241 C 
HETATM    4  O2  UNL     1      -6.259 -34.137 -26.059  1.00  0.00    -0.271 OA
ATOM      5  H1  UNL     1      -3.902 -32.460 -27.518  1.00  0.00     0.163 HD
BRANCH   3   6
HETATM    6  C2  UNL     1      -6.099 -31.783 -26.205  1.00  0.00     0.269 C 
BRANCH   6   7
HETATM    7  O1  UNL     1      -5.559 -30.784 -26.965  1.00  0.00    -0.387 OA
HETATM    8  C1  UNL     1      -5.567 -29.521 -26.442  1.00  0.00     0.202 C 
ENDBRANCH   6   7
ENDBRANCH   3   6
ENDBRANCH   1   2
BRANCH   1   9
HETATM    9  C5  UNL     1      -3.207 -35.240 -26.285  1.00  0.00     0.066 C 
BRANCH   9  10
HETATM   10  C6  UNL     1      -1.795 -35.550 -26.521  1.00  0.00    -0.056 A 
HETATM   11  C7  UNL     1      -1.056 -36.208 -25.577  1.00  0.00     0.008 A 
HETATM   12  C8  UNL     1       0.286 -36.494 -25.823  1.00  0.00     0.013 A 
HETATM   13  C9  UNL     1       0.887 -36.123 -27.006  1.00  0.00    -0.026 A 
HETATM   14  C16 UNL     1       0.149 -35.464 -27.951  1.00  0.00     0.013 A 
HETATM   15  C17 UNL     1      -1.196 -35.182 -27.698  1.00  0.00     0.008 A 
BRANCH  13  16
HETATM   16  C10 UNL     1       2.298 -36.444 -27.219  1.00  0.00    -0.023 A 
HETATM   17  C11 UNL     1       3.259 -36.129 -26.283  1.00  0.00     0.036 A 
HETATM   18  C12 UNL     1       4.599 -36.428 -26.472  1.00  0.00     0.036 A 
HETATM   19 CL1  UNL     1       5.795 -36.020 -25.274  1.00  0.00    -0.084 Cl
HETATM   20  C13 UNL     1       4.965 -37.058 -27.634  1.00  0.00     0.047 A 
HETATM   21  C14 UNL     1       4.033 -37.390 -28.594  1.00  0.00     0.036 A 
HETATM   22 CL2  UNL     1       4.561 -38.200 -30.071  1.00  0.00    -0.084 Cl
HETATM   23  C15 UNL     1       2.710 -37.075 -28.367  1.00  0.00     0.036 A 
ENDBRANCH  13  16
ENDBRANCH   9  10
ENDBRANCH   1   9
BRANCH   1  24
HETATM   24  C18 UNL     1      -4.721 -35.525 -28.232  1.00  0.00     0.180 C 
BRANCH  24  25
HETATM   25  O3  UNL     1      -4.166 -36.829 -28.147  1.00  0.00    -0.390 OA
ATOM     26  H3  UNL     1      -3.238 -36.791 -28.343  1.00  0.00     0.210 HD
ENDBRANCH  24  25
BRANCH  24  27
HETATM   27  C19 UNL     1      -4.974 -35.260 -29.675  1.00  0.00     0.249 C 
BRANCH  27  28
HETATM   28  O4  UNL     1      -4.265 -34.229 -30.238  1.00  0.00    -0.382 OA
ATOM     29  H4  UNL     1      -3.342 -34.390 -30.399  1.00  0.00     0.210 HD
ENDBRANCH  27  28
BRANCH  27  30
HETATM   30  C20 UNL     1      -4.857 -36.492 -30.497  1.00  0.00     0.205 C 
HETATM   31  O5  UNL     1      -3.809 -36.650 -31.170  1.00  0.00    -0.646 OA
HETATM   32  O6  UNL     1      -5.814 -37.480 -30.580  1.00  0.00    -0.646 OA
ENDBRANCH  27  30
ENDBRANCH  24  27
ENDBRANCH   1  24
TORSDOF 11
ENDMDL
