MODEL 7
REMARK VINA RESULT: -7.673808917      2.027      4.218
REMARK  11 active torsions:
REMARK  status: ('A' for Active; 'I' for Inactive)
REMARK    1  A    between atoms: O1_2  and  C2_3 
REMARK    2  A    between atoms: C2_3  and  C3_4 
REMARK       I    between atoms: C3_4  and  N1_6 
REMARK    3  A    between atoms: N1_6  and  C4_8 
REMARK    4  A    between atoms: C4_8  and  C5_9 
REMARK    5  A    between atoms: C4_8  and  C18_24 
REMARK    6  A    between atoms: C5_9  and  C6_10 
REMARK    7  A    between atoms: C9_13  and  C10_14 
REMARK    8  A    between atoms: C18_24  and  O3_25 
REMARK    9  A    between atoms: C18_24  and  C19_27 
REMARK   10  A    between atoms: C19_27  and  O4_28 
REMARK   11  A    between atoms: C19_27  and  C20_30 
ROOT
HETATM    1  C4  UNL     1      -3.804 -34.526 -27.520  1.00  0.00     0.120 C 
ENDROOT
BRANCH   1   2
HETATM    2  N1  UNL     1      -4.395 -33.287 -27.160  1.00  0.00    -0.352 N 
HETATM    3  C3  UNL     1      -5.657 -33.218 -26.503  1.00  0.00     0.241 C 
HETATM    4  O2  UNL     1      -6.312 -34.246 -26.209  1.00  0.00    -0.271 OA
ATOM      5  H1  UNL     1      -3.902 -32.421 -27.377  1.00  0.00     0.163 HD
BRANCH   3   6
HETATM    6  C2  UNL     1      -6.194 -31.884 -26.168  1.00  0.00     0.269 C 
BRANCH   6   7
HETATM    7  O1  UNL     1      -5.759 -30.843 -26.937  1.00  0.00    -0.387 OA
HETATM    8  C1  UNL     1      -5.423 -29.683 -26.294  1.00  0.00     0.202 C 
ENDBRANCH   6   7
ENDBRANCH   3   6
ENDBRANCH   1   2
BRANCH   1   9
HETATM    9  C5  UNL     1      -3.184 -35.253 -26.319  1.00  0.00     0.066 C 
BRANCH   9  10
HETATM   10  C6  UNL     1      -1.770 -35.559 -26.545  1.00  0.00    -0.056 A 
HETATM   11  C7  UNL     1      -1.043 -36.240 -25.608  1.00  0.00     0.008 A 
HETATM   12  C8  UNL     1       0.301 -36.521 -25.844  1.00  0.00     0.013 A 
HETATM   13  C9  UNL     1       0.917 -36.124 -27.010  1.00  0.00    -0.026 A 
HETATM   14  C16 UNL     1       0.192 -35.443 -27.949  1.00  0.00     0.013 A 
HETATM   15  C17 UNL     1      -1.156 -35.165 -27.706  1.00  0.00     0.008 A 
BRANCH  13  16
HETATM   16  C10 UNL     1       2.331 -36.443 -27.213  1.00  0.00    -0.023 A 
HETATM   17  C11 UNL     1       2.772 -37.069 -28.358  1.00  0.00     0.036 A 
HETATM   18  C12 UNL     1       4.108 -37.375 -28.563  1.00  0.00     0.036 A 
HETATM   19 CL1  UNL     1       4.641 -38.167 -30.020  1.00  0.00    -0.084 Cl
HETATM   20  C13 UNL     1       5.008 -37.039 -27.585  1.00  0.00     0.047 A 
HETATM   21  C14 UNL     1       4.605 -36.411 -26.426  1.00  0.00     0.036 A 
HETATM   22 CL2  UNL     1       5.808 -36.002 -25.200  1.00  0.00    -0.084 Cl
HETATM   23  C15 UNL     1       3.267 -36.124 -26.261  1.00  0.00     0.036 A 
ENDBRANCH  13  16
ENDBRANCH   9  10
ENDBRANCH   1   9
BRANCH   1  24
HETATM   24  C18 UNL     1      -4.620 -35.456 -28.335  1.00  0.00     0.180 C 
BRANCH  24  25
HETATM   25  O3  UNL     1      -4.045 -36.753 -28.290  1.00  0.00    -0.390 OA
ATOM     26  H3  UNL     1      -3.949 -37.086 -29.174  1.00  0.00     0.210 HD
ENDBRANCH  24  25
BRANCH  24  27
HETATM   27  C19 UNL     1      -4.812 -35.120 -29.772  1.00  0.00     0.249 C 
BRANCH  27  28
HETATM   28  O4  UNL     1      -4.282 -33.927 -30.193  1.00  0.00    -0.382 OA
ATOM     29  H4  UNL     1      -3.863 -33.929 -31.046  1.00  0.00     0.210 HD
ENDBRANCH  27  28
BRANCH  27  30
HETATM   30  C20 UNL     1      -4.389 -36.230 -30.664  1.00  0.00     0.205 C 
HETATM   31  O5  UNL     1      -3.347 -36.070 -31.345  1.00  0.00    -0.646 OA
HETATM   32  O6  UNL     1      -5.056 -37.428 -30.805  1.00  0.00    -0.646 OA
ENDBRANCH  27  30
ENDBRANCH  24  27
ENDBRANCH   1  24
TORSDOF 11
ENDMDL
