MODEL 2
REMARK VINA RESULT: -6.618924838      0.086      1.122
REMARK  7 active torsions:
REMARK  status: ('A' for Active; 'I' for Inactive)
REMARK    1  A    between atoms: C2_2  and  C3_3 
REMARK    2  A    between atoms: C3_3  and  C4_4 
REMARK    3  A    between atoms: C4_4  and  C5_5 
REMARK    4  A    between atoms: C5_5  and  N1_6 
REMARK       I    between atoms: N1_6  and  C6_8 
REMARK    5  A    between atoms: C6_8  and  C7_10 
REMARK    6  A    between atoms: C10_13  and  S1_14 
REMARK    7  A    between atoms: S1_14  and  N2_15 
ROOT
HETATM    1  C7  UNL     1      16.093   4.693  14.472  1.00  0.00     0.032 A 
HETATM    2  C8  UNL     1      14.854   4.637  15.049  1.00  0.00     0.018 A 
HETATM    3  C9  UNL     1      14.486   3.633  15.936  1.00  0.00     0.026 A 
HETATM    4  C10 UNL     1      15.401   2.656  16.249  1.00  0.00     0.079 A 
HETATM    5  C11 UNL     1      16.662   2.662  15.700  1.00  0.00     0.026 A 
HETATM    6  C12 UNL     1      16.993   3.681  14.817  1.00  0.00     0.018 A 
ENDROOT
BRANCH   1   7
HETATM    7  C6  UNL     1      16.519   5.732  13.533  1.00  0.00     0.251 C 
HETATM    8  N1  UNL     1      17.766   6.375  13.658  1.00  0.00    -0.357 N 
ATOM      9  H1  UNL     1      18.389   6.117  14.423  1.00  0.00     0.162 HD
HETATM   10  O1  UNL     1      15.727   6.054  12.579  1.00  0.00    -0.268 OA
BRANCH   8  11
HETATM   11  C5  UNL     1      18.178   7.399  12.718  1.00  0.00     0.123 C 
BRANCH  11  12
HETATM   12  C4  UNL     1      18.908   8.475  13.479  1.00  0.00     0.020 C 
BRANCH  12  13
HETATM   13  C3  UNL     1      18.636   8.300  14.948  1.00  0.00     0.001 C 
BRANCH  13  14
HETATM   14  C2  UNL     1      19.765   8.890  15.754  1.00  0.00    -0.004 C 
HETATM   15  C1  UNL     1      20.410   9.994  14.941  1.00  0.00     0.005 C 
ENDBRANCH  13  14
ENDBRANCH  12  13
ENDBRANCH  11  12
ENDBRANCH   8  11
ENDBRANCH   1   7
BRANCH   4  16
HETATM   16  S1  UNL     1      14.983   1.376  17.359  1.00  0.00     0.256 S 
HETATM   17  O2  UNL     1      15.992   0.267  17.358  1.00  0.00    -0.201 OA
HETATM   18  O3  UNL     1      13.626   0.851  17.009  1.00  0.00    -0.201 OA
BRANCH  16  19
HETATM   19  N2  UNL     1      14.849   2.098  18.941  1.00  0.00    -0.324 N 
ATOM     20  H22 UNL     1      15.609   2.209  19.612  1.00  0.00     0.169 HD
ATOM     21  H21 UNL     1      13.876   2.381  19.056  1.00  0.00     0.169 HD
ENDBRANCH  16  19
ENDBRANCH   4  16
TORSDOF 7
ENDMDL
