MODEL 3
REMARK VINA RESULT: -6.593943453      3.589      5.023
REMARK  7 active torsions:
REMARK  status: ('A' for Active; 'I' for Inactive)
REMARK    1  A    between atoms: C2_2  and  C3_3 
REMARK    2  A    between atoms: C3_3  and  C4_4 
REMARK    3  A    between atoms: C4_4  and  C5_5 
REMARK    4  A    between atoms: C5_5  and  N1_6 
REMARK       I    between atoms: N1_6  and  C6_8 
REMARK    5  A    between atoms: C6_8  and  C7_10 
REMARK    6  A    between atoms: C10_13  and  S1_14 
REMARK    7  A    between atoms: S1_14  and  N2_15 
ROOT
HETATM    1  C7  UNL     1      16.603   2.728  13.591  1.00  0.00     0.032 A 
HETATM    2  C8  UNL     1      15.753   3.463  14.370  1.00  0.00     0.018 A 
HETATM    3  C9  UNL     1      15.145   2.946  15.509  1.00  0.00     0.026 A 
HETATM    4  C10 UNL     1      15.408   1.645  15.868  1.00  0.00     0.079 A 
HETATM    5  C11 UNL     1      16.255   0.860  15.122  1.00  0.00     0.026 A 
HETATM    6  C12 UNL     1      16.843   1.410  13.991  1.00  0.00     0.018 A 
ENDROOT
BRANCH   1   7
HETATM    7  C6  UNL     1      17.262   3.235  12.386  1.00  0.00     0.251 C 
HETATM    8  N1  UNL     1      18.619   2.970  12.119  1.00  0.00    -0.357 N 
ATOM      9  H1  UNL     1      19.162   2.415  12.781  1.00  0.00     0.162 HD
HETATM   10  O1  UNL     1      16.574   3.935  11.563  1.00  0.00    -0.268 OA
BRANCH   8  11
HETATM   11  C5  UNL     1      19.258   3.472  10.918  1.00  0.00     0.123 C 
BRANCH  11  12
HETATM   12  C4  UNL     1      19.703   2.295  10.090  1.00  0.00     0.020 C 
BRANCH  12  13
HETATM   13  C3  UNL     1      19.483   1.035  10.881  1.00  0.00     0.001 C 
BRANCH  13  14
HETATM   14  C2  UNL     1      18.301   0.280  10.326  1.00  0.00    -0.004 C 
HETATM   15  C1  UNL     1      17.975  -0.860  11.269  1.00  0.00     0.005 C 
ENDBRANCH  13  14
ENDBRANCH  12  13
ENDBRANCH  11  12
ENDBRANCH   8  11
ENDBRANCH   1   7
BRANCH   4  16
HETATM   16  S1  UNL     1      14.668   0.954  17.290  1.00  0.00     0.256 S 
HETATM   17  O2  UNL     1      15.187  -0.419  17.593  1.00  0.00    -0.201 OA
HETATM   18  O3  UNL     1      13.183   0.924  17.100  1.00  0.00    -0.201 OA
BRANCH  16  19
HETATM   19  N2  UNL     1      14.983   2.049  18.610  1.00  0.00    -0.324 N 
ATOM     20  H22 UNL     1      15.693   1.924  19.331  1.00  0.00     0.169 HD
ATOM     21  H21 UNL     1      14.326   2.823  18.516  1.00  0.00     0.169 HD
ENDBRANCH  16  19
ENDBRANCH   4  16
TORSDOF 7
ENDMDL
