MODEL 20
REMARK VINA RESULT: -5.874879654      1.218      1.573
REMARK  7 active torsions:
REMARK  status: ('A' for Active; 'I' for Inactive)
REMARK    1  A    between atoms: C2_2  and  C3_3 
REMARK    2  A    between atoms: C3_3  and  C4_4 
REMARK    3  A    between atoms: C4_4  and  C5_5 
REMARK    4  A    between atoms: C5_5  and  N1_6 
REMARK       I    between atoms: N1_6  and  C6_8 
REMARK    5  A    between atoms: C6_8  and  C7_10 
REMARK    6  A    between atoms: C10_13  and  S1_14 
REMARK    7  A    between atoms: S1_14  and  N2_15 
ROOT
HETATM    1  C7  UNL     1      16.331   3.764  13.800  1.00  0.00     0.032 A 
HETATM    2  C8  UNL     1      16.693   2.448  13.893  1.00  0.00     0.018 A 
HETATM    3  C9  UNL     1      16.216   1.609  14.893  1.00  0.00     0.026 A 
HETATM    4  C10 UNL     1      15.345   2.118  15.827  1.00  0.00     0.079 A 
HETATM    5  C11 UNL     1      14.946   3.434  15.782  1.00  0.00     0.026 A 
HETATM    6  C12 UNL     1      15.444   4.242  14.769  1.00  0.00     0.018 A 
ENDROOT
BRANCH   1   7
HETATM    7  C6  UNL     1      16.812   4.680  12.764  1.00  0.00     0.251 C 
HETATM    8  N1  UNL     1      18.187   4.878  12.533  1.00  0.00    -0.357 N 
ATOM      9  H1  UNL     1      18.868   4.377  13.104  1.00  0.00     0.162 HD
HETATM   10  O1  UNL     1      15.948   5.308  12.057  1.00  0.00    -0.268 OA
BRANCH   8  11
HETATM   11  C5  UNL     1      18.650   5.783  11.499  1.00  0.00     0.123 C 
BRANCH  11  12
HETATM   12  C4  UNL     1      18.964   7.111  12.138  1.00  0.00     0.020 C 
BRANCH  12  13
HETATM   13  C3  UNL     1      19.784   6.872  13.376  1.00  0.00     0.001 C 
BRANCH  13  14
HETATM   14  C2  UNL     1      19.424   7.884  14.434  1.00  0.00    -0.004 C 
HETATM   15  C1  UNL     1      18.055   7.539  14.983  1.00  0.00     0.005 C 
ENDBRANCH  13  14
ENDBRANCH  12  13
ENDBRANCH  11  12
ENDBRANCH   8  11
ENDBRANCH   1   7
BRANCH   4  16
HETATM   16  S1  UNL     1      14.719   1.102  17.100  1.00  0.00     0.256 S 
HETATM   17  O2  UNL     1      15.364  -0.251  17.118  1.00  0.00    -0.201 OA
HETATM   18  O3  UNL     1      13.237   0.975  16.938  1.00  0.00    -0.201 OA
BRANCH  16  19
HETATM   19  N2  UNL     1      14.990   1.945  18.602  1.00  0.00    -0.324 N 
ATOM     20  H22 UNL     1      14.293   2.484  19.117  1.00  0.00     0.169 HD
ATOM     21  H21 UNL     1      15.965   1.792  18.857  1.00  0.00     0.169 HD
ENDBRANCH  16  19
ENDBRANCH   4  16
TORSDOF 7
ENDMDL
