MODEL 1
REMARK VINA RESULT: -6.644276447      0.000      0.000
REMARK  7 active torsions:
REMARK  status: ('A' for Active; 'I' for Inactive)
REMARK    1  A    between atoms: C2_2  and  C3_3 
REMARK    2  A    between atoms: C3_3  and  C4_4 
REMARK    3  A    between atoms: C4_4  and  C5_5 
REMARK    4  A    between atoms: C5_5  and  N1_6 
REMARK       I    between atoms: N1_6  and  C6_8 
REMARK    5  A    between atoms: C6_8  and  C7_10 
REMARK    6  A    between atoms: C10_13  and  S1_14 
REMARK    7  A    between atoms: S1_14  and  N2_15 
ROOT
HETATM    1  C7  UNL     1      16.196   4.647  14.512  1.00  0.00     0.032 A 
HETATM    2  C8  UNL     1      17.075   3.677  14.909  1.00  0.00     0.018 A 
HETATM    3  C9  UNL     1      16.719   2.658  15.784  1.00  0.00     0.026 A 
HETATM    4  C10 UNL     1      15.434   2.620  16.272  1.00  0.00     0.079 A 
HETATM    5  C11 UNL     1      14.509   3.569  15.907  1.00  0.00     0.026 A 
HETATM    6  C12 UNL     1      14.901   4.573  15.031  1.00  0.00     0.018 A 
ENDROOT
BRANCH   1   7
HETATM    7  C6  UNL     1      16.532   5.737  13.594  1.00  0.00     0.251 C 
HETATM    8  N1  UNL     1      17.769   6.406  13.662  1.00  0.00    -0.357 N 
ATOM      9  H1  UNL     1      18.449   6.131  14.371  1.00  0.00     0.162 HD
HETATM   10  O1  UNL     1      15.669   6.078  12.711  1.00  0.00    -0.268 OA
BRANCH   8  11
HETATM   11  C5  UNL     1      18.092   7.479  12.743  1.00  0.00     0.123 C 
BRANCH  11  12
HETATM   12  C4  UNL     1      18.928   8.496  13.476  1.00  0.00     0.020 C 
BRANCH  12  13
HETATM   13  C3  UNL     1      18.639   8.390  14.948  1.00  0.00     0.001 C 
BRANCH  13  14
HETATM   14  C2  UNL     1      19.819   8.892  15.742  1.00  0.00    -0.004 C 
HETATM   15  C1  UNL     1      20.485  10.005  14.960  1.00  0.00     0.005 C 
ENDBRANCH  13  14
ENDBRANCH  12  13
ENDBRANCH  11  12
ENDBRANCH   8  11
ENDBRANCH   1   7
BRANCH   4  16
HETATM   16  S1  UNL     1      14.943   1.358  17.373  1.00  0.00     0.256 S 
HETATM   17  O2  UNL     1      15.908   0.212  17.394  1.00  0.00    -0.201 OA
HETATM   18  O3  UNL     1      13.574   0.885  16.992  1.00  0.00    -0.201 OA
BRANCH  16  19
HETATM   19  N2  UNL     1      14.801   2.087  18.950  1.00  0.00    -0.324 N 
ATOM     20  H22 UNL     1      14.232   1.735  19.721  1.00  0.00     0.169 HD
ATOM     21  H21 UNL     1      15.389   2.920  18.947  1.00  0.00     0.169 HD
ENDBRANCH  16  19
ENDBRANCH   4  16
TORSDOF 7
ENDMDL
