MODEL 3
REMARK VINA RESULT: -8.197206726      5.759      9.594
REMARK  9 active torsions:
REMARK  status: ('A' for Active; 'I' for Inactive)
REMARK    1  A    between atoms: N1_1  and  S1_4 
REMARK    2  A    between atoms: S1_4  and  C1_7 
REMARK    3  A    between atoms: C4_10  and  C5_11 
REMARK       I    between atoms: C5_11  and  N2_13 
REMARK    4  A    between atoms: N2_13  and  C6_15 
REMARK    5  A    between atoms: C6_15  and  C7_16 
REMARK    6  A    between atoms: C7_16  and  C8_19 
REMARK    7  A    between atoms: C8_19  and  C9_22 
REMARK    8  A    between atoms: C9_22  and  C10_25 
REMARK    9  A    between atoms: C10_25  and  C11_28 
ROOT
HETATM    1  C6  UNL     1      17.019   5.692  12.966  1.00  0.00     0.208 C 
ENDROOT
BRANCH   1   2
HETATM    2  N2  UNL     1      16.233   6.640  12.174  1.00  0.00    -0.351 N 
HETATM    3  C5  UNL     1      15.736   6.255  10.898  1.00  0.00     0.251 C 
HETATM    4  O3  UNL     1      16.017   5.076  10.524  1.00  0.00    -0.268 OA
ATOM      5  H2  UNL     1      16.043   7.575  12.537  1.00  0.00     0.162 HD
BRANCH   3   6
HETATM    6  C4  UNL     1      14.957   7.153  10.076  1.00  0.00     0.032 A 
HETATM    7  C3  UNL     1      14.035   6.601   9.176  1.00  0.00     0.018 A 
HETATM    8  C2  UNL     1      13.255   7.393   8.361  1.00  0.00     0.026 A 
HETATM    9  C1  UNL     1      13.342   8.762   8.386  1.00  0.00     0.079 A 
HETATM   10  C13 UNL     1      14.244   9.317   9.265  1.00  0.00     0.026 A 
HETATM   11  C12 UNL     1      15.041   8.524  10.101  1.00  0.00     0.018 A 
BRANCH   9  12
HETATM   12  S1  UNL     1      12.355   9.769   7.353  1.00  0.00     0.256 S 
HETATM   13  O1  UNL     1      12.469  11.214   7.691  1.00  0.00    -0.201 OA
HETATM   14  O2  UNL     1      12.815   9.563   5.923  1.00  0.00    -0.201 OA
BRANCH  12  15
HETATM   15  N1  UNL     1      10.720   9.210   7.438  1.00  0.00    -0.324 N 
ATOM     16  H12 UNL     1      10.007   9.659   8.013  1.00  0.00     0.169 HD
ATOM     17  H11 UNL     1      10.565   8.391   6.851  1.00  0.00     0.169 HD
ENDBRANCH  12  15
ENDBRANCH   9  12
ENDBRANCH   3   6
ENDBRANCH   1   2
BRANCH   1  18
HETATM   18  C7  UNL     1      16.394   5.306  14.268  1.00  0.00     0.329 C 
HETATM   19  F1  UNL     1      16.890   6.130  15.262  1.00  0.00    -0.198 F 
HETATM   20  F2  UNL     1      15.029   5.704  14.170  1.00  0.00    -0.198 F 
BRANCH  18  21
HETATM   21  C8  UNL     1      16.450   3.867  14.620  1.00  0.00     0.380 C 
HETATM   22  F3  UNL     1      16.869   3.120  13.468  1.00  0.00    -0.192 F 
HETATM   23  F4  UNL     1      17.622   3.727  15.424  1.00  0.00    -0.192 F 
BRANCH  21  24
HETATM   24  C9  UNL     1      15.349   3.194  15.300  1.00  0.00     0.387 C 
HETATM   25  F5  UNL     1      14.939   4.125  16.351  1.00  0.00    -0.192 F 
HETATM   26  F6  UNL     1      14.190   3.109  14.528  1.00  0.00    -0.192 F 
BRANCH  24  27
HETATM   27  C10 UNL     1      15.493   1.934  16.034  1.00  0.00     0.409 C 
HETATM   28  F7  UNL     1      16.062   0.919  15.220  1.00  0.00    -0.189 F 
HETATM   29  F8  UNL     1      16.667   2.192  16.884  1.00  0.00    -0.189 F 
BRANCH  27  30
HETATM   30  C11 UNL     1      14.521   1.442  17.009  1.00  0.00     0.461 C 
HETATM   31  F9  UNL     1      14.921   0.086  17.271  1.00  0.00    -0.165 F 
HETATM   32  F10 UNL     1      14.746   2.069  18.222  1.00  0.00    -0.165 F 
HETATM   33  F11 UNL     1      13.220   1.321  16.694  1.00  0.00    -0.165 F 
ENDBRANCH  27  30
ENDBRANCH  24  27
ENDBRANCH  21  24
ENDBRANCH  18  21
ENDBRANCH   1  18
TORSDOF 9
ENDMDL
