MODEL 2
REMARK VINA RESULT: -8.229644848      4.701      6.551
REMARK  9 active torsions:
REMARK  status: ('A' for Active; 'I' for Inactive)
REMARK    1  A    between atoms: N1_1  and  S1_4 
REMARK    2  A    between atoms: S1_4  and  C1_7 
REMARK    3  A    between atoms: C4_10  and  C5_11 
REMARK       I    between atoms: C5_11  and  N2_13 
REMARK    4  A    between atoms: N2_13  and  C6_15 
REMARK    5  A    between atoms: C6_15  and  C7_16 
REMARK    6  A    between atoms: C7_16  and  C8_19 
REMARK    7  A    between atoms: C8_19  and  C9_22 
REMARK    8  A    between atoms: C9_22  and  C10_25 
REMARK    9  A    between atoms: C10_25  and  C11_28 
ROOT
HETATM    1  C6  UNL     1      17.909   6.070  11.283  1.00  0.00     0.208 C 
ENDROOT
BRANCH   1   2
HETATM    2  N2  UNL     1      17.188   5.167  12.181  1.00  0.00    -0.351 N 
HETATM    3  C5  UNL     1      17.403   5.246  13.586  1.00  0.00     0.251 C 
HETATM    4  O3  UNL     1      18.232   6.124  13.973  1.00  0.00    -0.268 OA
ATOM      5  H2  UNL     1      16.533   4.483  11.802  1.00  0.00     0.162 HD
BRANCH   3   6
HETATM    6  C4  UNL     1      16.718   4.378  14.516  1.00  0.00     0.032 A 
HETATM    7  C3  UNL     1      17.439   3.327  15.101  1.00  0.00     0.018 A 
HETATM    8  C2  UNL     1      16.854   2.459  15.997  1.00  0.00     0.026 A 
HETATM    9  C1  UNL     1      15.537   2.576  16.363  1.00  0.00     0.079 A 
HETATM   10  C13 UNL     1      14.817   3.603  15.795  1.00  0.00     0.026 A 
HETATM   11  C12 UNL     1      15.399   4.494  14.884  1.00  0.00     0.018 A 
BRANCH   9  12
HETATM   12  S1  UNL     1      14.792   1.476  17.500  1.00  0.00     0.256 S 
HETATM   13  O1  UNL     1      13.493   0.943  17.007  1.00  0.00    -0.201 OA
HETATM   14  O2  UNL     1      15.745   0.317  17.720  1.00  0.00    -0.201 OA
BRANCH  12  15
HETATM   15  N1  UNL     1      14.626   2.284  19.020  1.00  0.00    -0.324 N 
ATOM     16  H12 UNL     1      13.747   2.684  19.346  1.00  0.00     0.169 HD
ATOM     17  H11 UNL     1      15.505   2.308  19.538  1.00  0.00     0.169 HD
ENDBRANCH  12  15
ENDBRANCH   9  12
ENDBRANCH   3   6
ENDBRANCH   1   2
BRANCH   1  18
HETATM   18  C7  UNL     1      19.078   5.450  10.589  1.00  0.00     0.329 C 
HETATM   19  F1  UNL     1      19.490   6.290   9.570  1.00  0.00    -0.198 F 
HETATM   20  F2  UNL     1      20.155   5.518  11.519  1.00  0.00    -0.198 F 
BRANCH  18  21
HETATM   21  C8  UNL     1      18.909   4.042  10.153  1.00  0.00     0.380 C 
HETATM   22  F3  UNL     1      17.545   3.835   9.762  1.00  0.00    -0.192 F 
HETATM   23  F4  UNL     1      19.531   3.975   8.869  1.00  0.00    -0.192 F 
BRANCH  21  24
HETATM   24  C9  UNL     1      19.394   2.923  10.952  1.00  0.00     0.387 C 
HETATM   25  F5  UNL     1      20.778   2.732  10.519  1.00  0.00    -0.192 F 
HETATM   26  F6  UNL     1      19.559   3.235  12.301  1.00  0.00    -0.192 F 
BRANCH  24  27
HETATM   27  C10 UNL     1      18.848   1.566  10.869  1.00  0.00     0.409 C 
HETATM   28  F7  UNL     1      19.055   0.998   9.584  1.00  0.00    -0.189 F 
HETATM   29  F8  UNL     1      19.848   0.774  11.603  1.00  0.00    -0.189 F 
BRANCH  27  30
HETATM   30  C11 UNL     1      17.604   1.146  11.514  1.00  0.00     0.461 C 
HETATM   31  F9  UNL     1      16.787   0.645  10.442  1.00  0.00    -0.165 F 
HETATM   32  F10 UNL     1      17.850   0.013  12.269  1.00  0.00    -0.165 F 
HETATM   33  F11 UNL     1      16.799   2.038  12.118  1.00  0.00    -0.165 F 
ENDBRANCH  27  30
ENDBRANCH  24  27
ENDBRANCH  21  24
ENDBRANCH  18  21
ENDBRANCH   1  18
TORSDOF 9
ENDMDL
