MODEL 1
REMARK VINA RESULT: -8.264213918      0.000      0.000
REMARK  9 active torsions:
REMARK  status: ('A' for Active; 'I' for Inactive)
REMARK    1  A    between atoms: N1_1  and  S1_4 
REMARK    2  A    between atoms: S1_4  and  C1_7 
REMARK    3  A    between atoms: C4_10  and  C5_11 
REMARK       I    between atoms: C5_11  and  N2_13 
REMARK    4  A    between atoms: N2_13  and  C6_15 
REMARK    5  A    between atoms: C6_15  and  C7_16 
REMARK    6  A    between atoms: C7_16  and  C8_19 
REMARK    7  A    between atoms: C8_19  and  C9_22 
REMARK    8  A    between atoms: C9_22  and  C10_25 
REMARK    9  A    between atoms: C10_25  and  C11_28 
ROOT
HETATM    1  C6  UNL     1      16.161   7.415  11.484  1.00  0.00     0.208 C 
ENDROOT
BRANCH   1   2
HETATM    2  N2  UNL     1      15.819   6.272  12.331  1.00  0.00    -0.351 N 
HETATM    3  C5  UNL     1      16.608   5.980  13.480  1.00  0.00     0.251 C 
HETATM    4  O3  UNL     1      17.584   6.760  13.695  1.00  0.00    -0.268 OA
ATOM      5  H2  UNL     1      15.017   5.685  12.099  1.00  0.00     0.162 HD
BRANCH   3   6
HETATM    6  C4  UNL     1      16.314   4.863  14.348  1.00  0.00     0.032 A 
HETATM    7  C3  UNL     1      15.006   4.725  14.835  1.00  0.00     0.018 A 
HETATM    8  C2  UNL     1      14.650   3.685  15.667  1.00  0.00     0.026 A 
HETATM    9  C1  UNL     1      15.555   2.733  16.063  1.00  0.00     0.079 A 
HETATM   10  C13 UNL     1      16.843   2.858  15.592  1.00  0.00     0.026 A 
HETATM   11  C12 UNL     1      17.218   3.908  14.745  1.00  0.00     0.018 A 
BRANCH   9  12
HETATM   12  S1  UNL     1      15.107   1.413  17.118  1.00  0.00     0.256 S 
HETATM   13  O1  UNL     1      13.897   0.690  16.640  1.00  0.00    -0.201 OA
HETATM   14  O2  UNL     1      16.270   0.442  17.171  1.00  0.00    -0.201 OA
BRANCH  12  15
HETATM   15  N1  UNL     1      14.899   2.035  18.719  1.00  0.00    -0.324 N 
ATOM     16  H12 UNL     1      14.507   1.486  19.484  1.00  0.00     0.169 HD
ATOM     17  H11 UNL     1      15.215   3.002  18.798  1.00  0.00     0.169 HD
ENDBRANCH  12  15
ENDBRANCH   9  12
ENDBRANCH   3   6
ENDBRANCH   1   2
BRANCH   1  18
HETATM   18  C7  UNL     1      14.998   8.030  10.776  1.00  0.00     0.329 C 
HETATM   19  F1  UNL     1      13.846   7.759  11.491  1.00  0.00    -0.198 F 
HETATM   20  F2  UNL     1      15.153   9.437  10.934  1.00  0.00    -0.198 F 
BRANCH  18  21
HETATM   21  C8  UNL     1      14.874   7.721   9.330  1.00  0.00     0.380 C 
HETATM   22  F3  UNL     1      15.974   8.317   8.629  1.00  0.00    -0.192 F 
HETATM   23  F4  UNL     1      15.244   6.346   9.213  1.00  0.00    -0.192 F 
BRANCH  21  24
HETATM   24  C9  UNL     1      13.627   7.920   8.602  1.00  0.00     0.387 C 
HETATM   25  F5  UNL     1      13.659   6.922   7.533  1.00  0.00    -0.192 F 
HETATM   26  F6  UNL     1      12.497   7.529   9.321  1.00  0.00    -0.192 F 
BRANCH  24  27
HETATM   27  C10 UNL     1      13.294   9.148   7.876  1.00  0.00     0.409 C 
HETATM   28  F7  UNL     1      13.905  10.286   8.469  1.00  0.00    -0.189 F 
HETATM   29  F8  UNL     1      14.152   9.057   6.684  1.00  0.00    -0.189 F 
BRANCH  27  30
HETATM   30  C11 UNL     1      11.985   9.416   7.281  1.00  0.00     0.461 C 
HETATM   31  F9  UNL     1      11.617  10.715   7.776  1.00  0.00    -0.165 F 
HETATM   32  F10 UNL     1      12.146   9.638   5.925  1.00  0.00    -0.165 F 
HETATM   33  F11 UNL     1      10.916   8.661   7.585  1.00  0.00    -0.165 F 
ENDBRANCH  27  30
ENDBRANCH  24  27
ENDBRANCH  21  24
ENDBRANCH  18  21
ENDBRANCH   1  18
TORSDOF 9
ENDMDL
