MODEL 18
REMARK VINA RESULT: -6.239355541      1.631      2.291
REMARK  8 active torsions:
REMARK  status: ('A' for Active; 'I' for Inactive)
REMARK    1  A    between atoms: C2_2  and  C3_3 
REMARK    2  A    between atoms: C3_3  and  C4_4 
REMARK    3  A    between atoms: C4_4  and  C5_5 
REMARK    4  A    between atoms: C5_5  and  C6_6 
REMARK    5  A    between atoms: C6_6  and  N1_7 
REMARK       I    between atoms: N1_7  and  C7_9 
REMARK    6  A    between atoms: C7_9  and  C8_11 
REMARK    7  A    between atoms: C11_14  and  S1_15 
REMARK    8  A    between atoms: S1_15  and  N2_16 
ROOT
HETATM    1  C8  UNL     1      16.277   5.190  13.280  1.00  0.00     0.032 A 
HETATM    2  C9  UNL     1      15.670   5.071  14.506  1.00  0.00     0.018 A 
HETATM    3  C10 UNL     1      15.642   3.885  15.229  1.00  0.00     0.026 A 
HETATM    4  C11 UNL     1      16.242   2.790  14.697  1.00  0.00     0.079 A 
HETATM    5  C12 UNL     1      16.869   2.868  13.456  1.00  0.00     0.026 A 
HETATM    6  C13 UNL     1      16.883   4.038  12.772  1.00  0.00     0.018 A 
ENDROOT
BRANCH   1   7
HETATM    7  C7  UNL     1      16.310   6.429  12.521  1.00  0.00     0.251 C 
HETATM    8  N1  UNL     1      15.259   6.821  11.660  1.00  0.00    -0.357 N 
ATOM      9  H1  UNL     1      14.444   6.216  11.566  1.00  0.00     0.162 HD
HETATM   10  O1  UNL     1      17.313   7.177  12.634  1.00  0.00    -0.268 OA
BRANCH   8  11
HETATM   11  C6  UNL     1      15.309   8.053  10.913  1.00  0.00     0.123 C 
BRANCH  11  12
HETATM   12  C5  UNL     1      14.160   8.190   9.955  1.00  0.00     0.020 C 
BRANCH  12  13
HETATM   13  C4  UNL     1      14.145   7.052   8.942  1.00  0.00     0.002 C 
BRANCH  13  14
HETATM   14  C3  UNL     1      13.413   7.466   7.685  1.00  0.00    -0.000 C 
BRANCH  14  15
HETATM   15  C2  UNL     1      12.070   8.038   8.129  1.00  0.00    -0.005 C 
HETATM   16  C1  UNL     1      11.709   9.271   7.327  1.00  0.00     0.005 C 
ENDBRANCH  14  15
ENDBRANCH  13  14
ENDBRANCH  12  13
ENDBRANCH  11  12
ENDBRANCH   8  11
ENDBRANCH   1   7
BRANCH   4  17
HETATM   17  S1  UNL     1      16.217   1.295  15.585  1.00  0.00     0.256 S 
HETATM   18  O2  UNL     1      17.444   1.219  16.446  1.00  0.00    -0.201 OA
HETATM   19  O3  UNL     1      16.214   0.112  14.642  1.00  0.00    -0.201 OA
BRANCH  17  20
HETATM   20  N2  UNL     1      14.826   1.174  16.577  1.00  0.00    -0.324 N 
ATOM     21  H22 UNL     1      14.471   1.946  17.142  1.00  0.00     0.169 HD
ATOM     22  H21 UNL     1      14.409   0.245  16.527  1.00  0.00     0.169 HD
ENDBRANCH  17  20
ENDBRANCH   4  17
TORSDOF 8
ENDMDL
