MODEL 5
REMARK VINA RESULT: -6.688905001      2.717      4.305
REMARK  8 active torsions:
REMARK  status: ('A' for Active; 'I' for Inactive)
REMARK    1  A    between atoms: C2_2  and  C3_3 
REMARK    2  A    between atoms: C3_3  and  C4_4 
REMARK    3  A    between atoms: C4_4  and  C5_5 
REMARK    4  A    between atoms: C5_5  and  C6_6 
REMARK    5  A    between atoms: C6_6  and  N1_7 
REMARK       I    between atoms: N1_7  and  C7_9 
REMARK    6  A    between atoms: C7_9  and  C8_11 
REMARK    7  A    between atoms: C11_14  and  S1_15 
REMARK    8  A    between atoms: S1_15  and  N2_16 
ROOT
HETATM    1  C8  UNL     1      16.230   4.599  14.533  1.00  0.00     0.032 A 
HETATM    2  C9  UNL     1      17.042   3.571  14.944  1.00  0.00     0.018 A 
HETATM    3  C10 UNL     1      16.634   2.588  15.835  1.00  0.00     0.026 A 
HETATM    4  C11 UNL     1      15.370   2.646  16.327  1.00  0.00     0.079 A 
HETATM    5  C12 UNL     1      14.513   3.672  15.937  1.00  0.00     0.026 A 
HETATM    6  C13 UNL     1      14.937   4.619  15.065  1.00  0.00     0.018 A 
ENDROOT
BRANCH   1   7
HETATM    7  C7  UNL     1      16.652   5.630  13.600  1.00  0.00     0.251 C 
HETATM    8  N1  UNL     1      17.944   6.202  13.632  1.00  0.00    -0.357 N 
ATOM      9  H1  UNL     1      18.610   5.882  14.335  1.00  0.00     0.162 HD
HETATM   10  O1  UNL     1      15.834   6.026  12.733  1.00  0.00    -0.268 OA
BRANCH   8  11
HETATM   11  C6  UNL     1      18.346   7.224  12.700  1.00  0.00     0.123 C 
BRANCH  11  12
HETATM   12  C5  UNL     1      18.849   8.462  13.386  1.00  0.00     0.020 C 
BRANCH  12  13
HETATM   13  C4  UNL     1      18.608   8.399  14.890  1.00  0.00     0.002 C 
BRANCH  13  14
HETATM   14  C3  UNL     1      19.795   8.953  15.645  1.00  0.00    -0.000 C 
BRANCH  14  15
HETATM   15  C2  UNL     1      20.306  10.146  14.843  1.00  0.00    -0.005 C 
HETATM   16  C1  UNL     1      21.695  10.551  15.291  1.00  0.00     0.005 C 
ENDBRANCH  14  15
ENDBRANCH  13  14
ENDBRANCH  12  13
ENDBRANCH  11  12
ENDBRANCH   8  11
ENDBRANCH   1   7
BRANCH   4  17
HETATM   17  S1  UNL     1      14.839   1.425  17.446  1.00  0.00     0.256 S 
HETATM   18  O2  UNL     1      15.836   0.304  17.454  1.00  0.00    -0.201 OA
HETATM   19  O3  UNL     1      13.491   0.872  17.034  1.00  0.00    -0.201 OA
BRANCH  17  20
HETATM   20  N2  UNL     1      14.682   2.050  19.033  1.00  0.00    -0.324 N 
ATOM     21  H22 UNL     1      14.531   3.038  19.234  1.00  0.00     0.169 HD
ATOM     22  H21 UNL     1      14.759   1.315  19.735  1.00  0.00     0.169 HD
ENDBRANCH  17  20
ENDBRANCH   4  17
TORSDOF 8
ENDMDL
