MODEL 3
REMARK VINA RESULT: -6.710968840      2.688      4.469
REMARK  8 active torsions:
REMARK  status: ('A' for Active; 'I' for Inactive)
REMARK    1  A    between atoms: C2_2  and  C3_3 
REMARK    2  A    between atoms: C3_3  and  C4_4 
REMARK    3  A    between atoms: C4_4  and  C5_5 
REMARK    4  A    between atoms: C5_5  and  C6_6 
REMARK    5  A    between atoms: C6_6  and  N1_7 
REMARK       I    between atoms: N1_7  and  C7_9 
REMARK    6  A    between atoms: C7_9  and  C8_11 
REMARK    7  A    between atoms: C11_14  and  S1_15 
REMARK    8  A    between atoms: S1_15  and  N2_16 
ROOT
HETATM    1  C8  UNL     1      16.135   4.654  14.525  1.00  0.00     0.032 A 
HETATM    2  C9  UNL     1      14.892   4.636  15.108  1.00  0.00     0.018 A 
HETATM    3  C10 UNL     1      14.484   3.655  16.002  1.00  0.00     0.026 A 
HETATM    4  C11 UNL     1      15.356   2.664  16.315  1.00  0.00     0.079 A 
HETATM    5  C12 UNL     1      16.627   2.643  15.747  1.00  0.00     0.026 A 
HETATM    6  C13 UNL     1      17.001   3.613  14.877  1.00  0.00     0.018 A 
ENDROOT
BRANCH   1   7
HETATM    7  C7  UNL     1      16.567   5.678  13.590  1.00  0.00     0.251 C 
HETATM    8  N1  UNL     1      17.840   6.289  13.665  1.00  0.00    -0.357 N 
ATOM      9  H1  UNL     1      18.484   6.004  14.403  1.00  0.00     0.162 HD
HETATM   10  O1  UNL     1      15.777   6.033  12.680  1.00  0.00    -0.268 OA
BRANCH   8  11
HETATM   11  C6  UNL     1      18.251   7.305  12.730  1.00  0.00     0.123 C 
BRANCH  11  12
HETATM   12  C5  UNL     1      18.880   8.490  13.407  1.00  0.00     0.020 C 
BRANCH  12  13
HETATM   13  C4  UNL     1      18.638   8.460  14.911  1.00  0.00     0.002 C 
BRANCH  13  14
HETATM   14  C3  UNL     1      19.848   8.978  15.656  1.00  0.00    -0.000 C 
BRANCH  14  15
HETATM   15  C2  UNL     1      20.501  10.023  14.757  1.00  0.00    -0.005 C 
HETATM   16  C1  UNL     1      21.644  10.719  15.467  1.00  0.00     0.005 C 
ENDBRANCH  14  15
ENDBRANCH  13  14
ENDBRANCH  12  13
ENDBRANCH  11  12
ENDBRANCH   8  11
ENDBRANCH   1   7
BRANCH   4  17
HETATM   17  S1  UNL     1      14.865   1.425  17.432  1.00  0.00     0.256 S 
HETATM   18  O2  UNL     1      15.908   0.346  17.453  1.00  0.00    -0.201 OA
HETATM   19  O3  UNL     1      13.546   0.815  17.010  1.00  0.00    -0.201 OA
BRANCH  17  20
HETATM   20  N2  UNL     1      14.668   2.046  19.016  1.00  0.00    -0.324 N 
ATOM     21  H22 UNL     1      15.200   2.837  19.378  1.00  0.00     0.169 HD
ATOM     22  H21 UNL     1      13.959   1.529  19.536  1.00  0.00     0.169 HD
ENDBRANCH  17  20
ENDBRANCH   4  17
TORSDOF 8
ENDMDL
