MODEL 6
REMARK VINA RESULT: -6.546016555      2.804      4.312
REMARK  8 active torsions:
REMARK  status: ('A' for Active; 'I' for Inactive)
REMARK    1  A    between atoms: C2_2  and  C3_3 
REMARK    2  A    between atoms: C3_3  and  C4_4 
REMARK    3  A    between atoms: C4_4  and  C5_5 
REMARK    4  A    between atoms: C5_5  and  C6_6 
REMARK    5  A    between atoms: C6_6  and  N1_7 
REMARK       I    between atoms: N1_7  and  C7_9 
REMARK    6  A    between atoms: C7_9  and  C8_11 
REMARK    7  A    between atoms: C11_14  and  S1_15 
REMARK    8  A    between atoms: S1_15  and  N2_16 
ROOT
HETATM    1  C8  UNL     1      16.457   4.848  14.679  1.00  0.00     0.032 A 
HETATM    2  C9  UNL     1      15.147   4.704  15.065  1.00  0.00     0.018 A 
HETATM    3  C10 UNL     1      14.676   3.602  15.765  1.00  0.00     0.026 A 
HETATM    4  C11 UNL     1      15.553   2.616  16.085  1.00  0.00     0.079 A 
HETATM    5  C12 UNL     1      16.891   2.722  15.712  1.00  0.00     0.026 A 
HETATM    6  C13 UNL     1      17.325   3.809  15.029  1.00  0.00     0.018 A 
ENDROOT
BRANCH   1   7
HETATM    7  C7  UNL     1      16.955   6.000  13.946  1.00  0.00     0.251 C 
HETATM    8  N1  UNL     1      18.141   6.677  14.308  1.00  0.00    -0.357 N 
ATOM      9  H1  UNL     1      18.673   6.348  15.114  1.00  0.00     0.162 HD
HETATM   10  O1  UNL     1      16.302   6.407  12.952  1.00  0.00    -0.268 OA
BRANCH   8  11
HETATM   11  C6  UNL     1      18.620   7.819  13.571  1.00  0.00     0.123 C 
BRANCH  11  12
HETATM   12  C5  UNL     1      19.955   8.302  14.061  1.00  0.00     0.020 C 
BRANCH  12  13
HETATM   13  C4  UNL     1      19.810   9.140  15.326  1.00  0.00     0.002 C 
BRANCH  13  14
HETATM   14  C3  UNL     1      20.679  10.375  15.250  1.00  0.00    -0.000 C 
BRANCH  14  15
HETATM   15  C2  UNL     1      20.303  11.097  13.960  1.00  0.00    -0.005 C 
HETATM   16  C1  UNL     1      18.973  11.809  14.099  1.00  0.00     0.005 C 
ENDBRANCH  14  15
ENDBRANCH  13  14
ENDBRANCH  12  13
ENDBRANCH  11  12
ENDBRANCH   8  11
ENDBRANCH   1   7
BRANCH   4  17
HETATM   17  S1  UNL     1      14.985   1.227  16.961  1.00  0.00     0.256 S 
HETATM   18  O2  UNL     1      15.489   1.301  18.373  1.00  0.00    -0.201 OA
HETATM   19  O3  UNL     1      15.496  -0.051  16.331  1.00  0.00    -0.201 OA
BRANCH  17  20
HETATM   20  N2  UNL     1      13.274   1.150  16.979  1.00  0.00    -0.324 N 
ATOM     21  H22 UNL     1      12.743   0.375  16.583  1.00  0.00     0.169 HD
ATOM     22  H21 UNL     1      12.866   1.968  17.432  1.00  0.00     0.169 HD
ENDBRANCH  17  20
ENDBRANCH   4  17
TORSDOF 8
ENDMDL
