MODEL 13
REMARK VINA RESULT: -6.339281092      2.440      2.682
REMARK  8 active torsions:
REMARK  status: ('A' for Active; 'I' for Inactive)
REMARK    1  A    between atoms: C2_2  and  C3_3 
REMARK    2  A    between atoms: C3_3  and  C4_4 
REMARK    3  A    between atoms: C4_4  and  C5_5 
REMARK    4  A    between atoms: C5_5  and  C6_6 
REMARK    5  A    between atoms: C6_6  and  N1_7 
REMARK       I    between atoms: N1_7  and  C7_9 
REMARK    6  A    between atoms: C7_9  and  C8_11 
REMARK    7  A    between atoms: C11_14  and  S1_15 
REMARK    8  A    between atoms: S1_15  and  N2_16 
ROOT
HETATM    1  C8  UNL     1      16.814   3.686  11.917  1.00  0.00     0.032 A 
HETATM    2  C9  UNL     1      16.810   4.173  13.200  1.00  0.00     0.018 A 
HETATM    3  C10 UNL     1      16.648   3.368  14.320  1.00  0.00     0.026 A 
HETATM    4  C11 UNL     1      16.485   2.033  14.137  1.00  0.00     0.079 A 
HETATM    5  C12 UNL     1      16.482   1.497  12.851  1.00  0.00     0.026 A 
HETATM    6  C13 UNL     1      16.643   2.306  11.775  1.00  0.00     0.018 A 
ENDROOT
BRANCH   1   7
HETATM    7  C7  UNL     1      16.983   4.525  10.742  1.00  0.00     0.251 C 
HETATM    8  N1  UNL     1      17.065   5.934  10.820  1.00  0.00    -0.357 N 
ATOM      9  H1  UNL     1      17.003   6.385  11.732  1.00  0.00     0.162 HD
HETATM   10  O1  UNL     1      17.060   3.973   9.616  1.00  0.00    -0.268 OA
BRANCH   8  11
HETATM   11  C6  UNL     1      17.231   6.751   9.644  1.00  0.00     0.123 C 
BRANCH  11  12
HETATM   12  C5  UNL     1      16.249   7.887   9.590  1.00  0.00     0.020 C 
BRANCH  12  13
HETATM   13  C4  UNL     1      15.341   7.892  10.813  1.00  0.00     0.002 C 
BRANCH  13  14
HETATM   14  C3  UNL     1      13.898   7.694  10.407  1.00  0.00    -0.000 C 
BRANCH  14  15
HETATM   15  C2  UNL     1      13.773   8.203   8.974  1.00  0.00    -0.005 C 
HETATM   16  C1  UNL     1      12.485   7.726   8.334  1.00  0.00     0.005 C 
ENDBRANCH  14  15
ENDBRANCH  13  14
ENDBRANCH  12  13
ENDBRANCH  11  12
ENDBRANCH   8  11
ENDBRANCH   1   7
BRANCH   4  17
HETATM   17  S1  UNL     1      16.279   1.005  15.525  1.00  0.00     0.256 S 
HETATM   18  O2  UNL     1      17.466   1.166  16.429  1.00  0.00    -0.201 OA
HETATM   19  O3  UNL     1      16.182  -0.446  15.107  1.00  0.00    -0.201 OA
BRANCH  17  20
HETATM   20  N2  UNL     1      14.855   1.395  16.392  1.00  0.00    -0.324 N 
ATOM     21  H22 UNL     1      14.847   1.989  17.221  1.00  0.00     0.169 HD
ATOM     22  H21 UNL     1      14.031   0.961  15.975  1.00  0.00     0.169 HD
ENDBRANCH  17  20
ENDBRANCH   4  17
TORSDOF 8
ENDMDL
