MODEL 14
REMARK VINA RESULT: -6.316845624      2.992      4.574
REMARK  8 active torsions:
REMARK  status: ('A' for Active; 'I' for Inactive)
REMARK    1  A    between atoms: C2_2  and  C3_3 
REMARK    2  A    between atoms: C3_3  and  C4_4 
REMARK    3  A    between atoms: C4_4  and  C5_5 
REMARK    4  A    between atoms: C5_5  and  C6_6 
REMARK    5  A    between atoms: C6_6  and  N1_7 
REMARK       I    between atoms: N1_7  and  C7_9 
REMARK    6  A    between atoms: C7_9  and  C8_11 
REMARK    7  A    between atoms: C11_14  and  S1_15 
REMARK    8  A    between atoms: S1_15  and  N2_16 
ROOT
HETATM    1  C8  UNL     1      16.567   4.533  14.511  1.00  0.00     0.032 A 
HETATM    2  C9  UNL     1      15.241   4.605  14.858  1.00  0.00     0.018 A 
HETATM    3  C10 UNL     1      14.630   3.706  15.722  1.00  0.00     0.026 A 
HETATM    4  C11 UNL     1      15.380   2.706  16.250  1.00  0.00     0.079 A 
HETATM    5  C12 UNL     1      16.730   2.596  15.925  1.00  0.00     0.026 A 
HETATM    6  C13 UNL     1      17.302   3.487  15.078  1.00  0.00     0.018 A 
ENDROOT
BRANCH   1   7
HETATM    7  C7  UNL     1      17.211   5.472  13.607  1.00  0.00     0.251 C 
HETATM    8  N1  UNL     1      18.514   5.972  13.832  1.00  0.00    -0.357 N 
ATOM      9  H1  UNL     1      19.027   5.665  14.659  1.00  0.00     0.162 HD
HETATM   10  O1  UNL     1      16.583   5.851  12.588  1.00  0.00    -0.268 OA
BRANCH   8  11
HETATM   11  C6  UNL     1      19.137   6.903  12.926  1.00  0.00     0.123 C 
BRANCH  11  12
HETATM   12  C5  UNL     1      19.081   8.318  13.428  1.00  0.00     0.020 C 
BRANCH  12  13
HETATM   13  C4  UNL     1      18.719   8.367  14.908  1.00  0.00     0.002 C 
BRANCH  13  14
HETATM   14  C3  UNL     1      19.842   8.983  15.712  1.00  0.00    -0.000 C 
BRANCH  14  15
HETATM   15  C2  UNL     1      20.377  10.152  14.891  1.00  0.00    -0.005 C 
HETATM   16  C1  UNL     1      21.664  10.691  15.481  1.00  0.00     0.005 C 
ENDBRANCH  14  15
ENDBRANCH  13  14
ENDBRANCH  12  13
ENDBRANCH  11  12
ENDBRANCH   8  11
ENDBRANCH   1   7
BRANCH   4  17
HETATM   17  S1  UNL     1      14.635   1.569  17.334  1.00  0.00     0.256 S 
HETATM   18  O2  UNL     1      13.223   1.324  16.889  1.00  0.00    -0.201 OA
HETATM   19  O3  UNL     1      14.609   2.113  18.746  1.00  0.00    -0.201 OA
BRANCH  17  20
HETATM   20  N2  UNL     1      15.481   0.080  17.365  1.00  0.00    -0.324 N 
ATOM     21  H22 UNL     1      15.619  -0.504  16.541  1.00  0.00     0.169 HD
ATOM     22  H21 UNL     1      15.823  -0.138  18.301  1.00  0.00     0.169 HD
ENDBRANCH  17  20
ENDBRANCH   4  17
TORSDOF 8
ENDMDL
