MODEL 5
REMARK VINA RESULT: -8.332899326      1.065      6.250
REMARK  2 active torsions:
REMARK  status: ('A' for Active; 'I' for Inactive)
REMARK    1  A    between atoms: C4_4  and  N1_5 
REMARK    2  A    between atoms: N1_5  and  C5_7 
ROOT
HETATM    1  C5  UNL     1      -8.067  -7.351  10.886  1.00  0.00     0.043 A 
HETATM    2  C6  UNL     1      -9.126  -6.698  10.249  1.00  0.00     0.030 A 
HETATM    3  C7  UNL     1      -9.095  -5.383   9.875  1.00  0.00     0.003 A 
HETATM    4  C8  UNL     1      -7.986  -4.628  10.121  1.00  0.00     0.012 A 
HETATM    5  C9  UNL     1      -6.904  -5.239  10.757  1.00  0.00    -0.024 A 
HETATM    6  C10 UNL     1      -5.756  -4.532  11.028  1.00  0.00     0.012 A 
HETATM    7  C11 UNL     1      -4.677  -5.114  11.648  1.00  0.00     0.001 A 
HETATM    8  C12 UNL     1      -4.713  -6.432  12.020  1.00  0.00     0.001 A 
HETATM    9  C13 UNL     1      -5.870  -7.176  11.755  1.00  0.00     0.014 A 
HETATM   10  C14 UNL     1      -6.942  -6.582  11.136  1.00  0.00     0.001 A 
ENDROOT
BRANCH   1  11
HETATM   11  N1  UNL     1      -8.203  -8.705  11.292  1.00  0.00    -0.356 N 
ATOM     12  H1  UNL     1      -7.367  -9.186  11.626  1.00  0.00     0.166 HD
BRANCH  11  13
HETATM   13  C4  UNL     1      -9.419  -9.435  11.265  1.00  0.00     0.032 A 
HETATM   14  C3  UNL     1      -9.965  -9.782  12.502  1.00  0.00     0.029 A 
HETATM   15  C2  UNL     1     -11.129 -10.524  12.567  1.00  0.00     0.002 A 
HETATM   16  C1  UNL     1     -11.796 -10.950  11.441  1.00  0.00     0.000 A 
HETATM   17  C16 UNL     1     -11.258 -10.608  10.227  1.00  0.00     0.002 A 
HETATM   18  C15 UNL     1     -10.077  -9.856  10.143  1.00  0.00     0.029 A 
ENDBRANCH  11  13
ENDBRANCH   1  11
TORSDOF 2
ENDMDL
