MODEL 7
REMARK VINA RESULT: -8.256131495      1.377      5.961
REMARK  2 active torsions:
REMARK  status: ('A' for Active; 'I' for Inactive)
REMARK    1  A    between atoms: C4_4  and  N1_5 
REMARK    2  A    between atoms: N1_5  and  C5_7 
ROOT
HETATM    1  C5  UNL     1      -8.629  -7.172   9.731  1.00  0.00     0.043 A 
HETATM    2  C6  UNL     1      -9.529  -6.335   9.067  1.00  0.00     0.030 A 
HETATM    3  C7  UNL     1      -9.393  -4.977   8.990  1.00  0.00     0.003 A 
HETATM    4  C8  UNL     1      -8.330  -4.362   9.585  1.00  0.00     0.012 A 
HETATM    5  C9  UNL     1      -7.405  -5.159  10.261  1.00  0.00    -0.024 A 
HETATM    6  C10 UNL     1      -6.310  -4.599  10.876  1.00  0.00     0.012 A 
HETATM    7  C11 UNL     1      -5.383  -5.364  11.542  1.00  0.00     0.001 A 
HETATM    8  C12 UNL     1      -5.525  -6.726  11.614  1.00  0.00     0.001 A 
HETATM    9  C13 UNL     1      -6.631  -7.323  10.996  1.00  0.00     0.014 A 
HETATM   10  C14 UNL     1      -7.550  -6.546  10.334  1.00  0.00     0.001 A 
ENDROOT
BRANCH   1  11
HETATM   11  N1  UNL     1      -8.875  -8.568   9.811  1.00  0.00    -0.356 N 
ATOM     12  H1  UNL     1      -8.530  -9.155   9.051  1.00  0.00     0.166 HD
BRANCH  11  13
HETATM   13  C4  UNL     1      -9.569  -9.202  10.874  1.00  0.00     0.032 A 
HETATM   14  C3  UNL     1     -10.643 -10.020  10.517  1.00  0.00     0.029 A 
HETATM   15  C2  UNL     1     -11.395 -10.648  11.491  1.00  0.00     0.002 A 
HETATM   16  C1  UNL     1     -11.132 -10.504  12.834  1.00  0.00     0.000 A 
HETATM   17  C16 UNL     1     -10.076  -9.700  13.182  1.00  0.00     0.002 A 
HETATM   18  C15 UNL     1      -9.303  -9.055  12.207  1.00  0.00     0.029 A 
ENDBRANCH  11  13
ENDBRANCH   1  11
TORSDOF 2
ENDMDL
