MODEL 9
REMARK VINA RESULT: -8.207023056      1.119      6.323
REMARK  2 active torsions:
REMARK  status: ('A' for Active; 'I' for Inactive)
REMARK    1  A    between atoms: C4_4  and  N1_5 
REMARK    2  A    between atoms: N1_5  and  C5_7 
ROOT
HETATM    1  C5  UNL     1      -8.476  -7.198  10.486  1.00  0.00     0.043 A 
HETATM    2  C6  UNL     1      -9.377  -6.421   9.753  1.00  0.00     0.030 A 
HETATM    3  C7  UNL     1      -9.156  -5.115   9.412  1.00  0.00     0.003 A 
HETATM    4  C8  UNL     1      -8.001  -4.496   9.793  1.00  0.00     0.012 A 
HETATM    5  C9  UNL     1      -7.073  -5.233  10.529  1.00  0.00    -0.024 A 
HETATM    6  C10 UNL     1      -5.888  -4.667  10.937  1.00  0.00     0.012 A 
HETATM    7  C11 UNL     1      -4.956  -5.375  11.658  1.00  0.00     0.001 A 
HETATM    8  C12 UNL     1      -5.184  -6.684  11.994  1.00  0.00     0.001 A 
HETATM    9  C13 UNL     1      -6.382  -7.287  11.591  1.00  0.00     0.014 A 
HETATM   10  C14 UNL     1      -7.304  -6.567  10.872  1.00  0.00     0.001 A 
ENDROOT
BRANCH   1  11
HETATM   11  N1  UNL     1      -8.809  -8.530  10.846  1.00  0.00    -0.356 N 
ATOM     12  H1  UNL     1      -8.222  -8.995  11.539  1.00  0.00     0.166 HD
BRANCH  11  13
HETATM   13  C4  UNL     1      -9.900  -9.260  10.307  1.00  0.00     0.032 A 
HETATM   14  C3  UNL     1     -10.580 -10.104  11.188  1.00  0.00     0.029 A 
HETATM   15  C2  UNL     1     -11.633 -10.879  10.738  1.00  0.00     0.002 A 
HETATM   16  C1  UNL     1     -12.056 -10.860   9.429  1.00  0.00     0.000 A 
HETATM   17  C16 UNL     1     -11.387 -10.030   8.566  1.00  0.00     0.002 A 
HETATM   18  C15 UNL     1     -10.317  -9.238   9.005  1.00  0.00     0.029 A 
ENDBRANCH  11  13
ENDBRANCH   1  11
TORSDOF 2
ENDMDL
