MODEL 4
REMARK VINA RESULT: -9.643791037      0.851      2.715
REMARK  2 active torsions:
REMARK  status: ('A' for Active; 'I' for Inactive)
REMARK    1  A    between atoms: C4_4  and  N1_5 
REMARK    2  A    between atoms: N1_5  and  C5_7 
ROOT
HETATM    1  C5  UNL     1      -9.443  -7.350  10.388  1.00  0.00     0.043 A 
HETATM    2  C6  UNL     1      -9.506  -7.442   8.996  1.00  0.00     0.030 A 
HETATM    3  C7  UNL     1     -10.029  -8.513   8.325  1.00  0.00     0.003 A 
HETATM    4  C8  UNL     1     -10.527  -9.576   9.020  1.00  0.00     0.012 A 
HETATM    5  C9  UNL     1     -10.483  -9.529  10.413  1.00  0.00    -0.024 A 
HETATM    6  C10 UNL     1     -10.974 -10.568  11.169  1.00  0.00     0.012 A 
HETATM    7  C11 UNL     1     -10.947 -10.540  12.543  1.00  0.00     0.001 A 
HETATM    8  C12 UNL     1     -10.424  -9.463  13.209  1.00  0.00     0.001 A 
HETATM    9  C13 UNL     1      -9.917  -8.390  12.464  1.00  0.00     0.014 A 
HETATM   10  C14 UNL     1      -9.949  -8.431  11.092  1.00  0.00     0.001 A 
ENDROOT
BRANCH   1  11
HETATM   11  N1  UNL     1      -8.833  -6.226  11.004  1.00  0.00    -0.356 N 
ATOM     12  H1  UNL     1      -9.442  -5.484  11.348  1.00  0.00     0.166 HD
BRANCH  11  13
HETATM   13  C4  UNL     1      -7.433  -6.063  11.173  1.00  0.00     0.032 A 
HETATM   14  C3  UNL     1      -6.700  -7.218  11.452  1.00  0.00     0.029 A 
HETATM   15  C2  UNL     1      -5.337  -7.145  11.667  1.00  0.00     0.002 A 
HETATM   16  C1  UNL     1      -4.646  -5.957  11.619  1.00  0.00     0.000 A 
HETATM   17  C16 UNL     1      -5.367  -4.823  11.345  1.00  0.00     0.002 A 
HETATM   18  C15 UNL     1      -6.751  -4.879  11.125  1.00  0.00     0.029 A 
ENDBRANCH  11  13
ENDBRANCH   1  11
TORSDOF 2
ENDMDL
