MODEL 12
REMARK VINA RESULT: -7.740283335      0.931      2.325
REMARK  2 active torsions:
REMARK  status: ('A' for Active; 'I' for Inactive)
REMARK    1  A    between atoms: C4_4  and  N1_5 
REMARK    2  A    between atoms: N1_5  and  C5_7 
ROOT
HETATM    1  C5  UNL     1      -9.059  -8.048  10.766  1.00  0.00     0.043 A 
HETATM    2  C6  UNL     1      -8.889  -7.494   9.495  1.00  0.00     0.030 A 
HETATM    3  C7  UNL     1      -9.610  -7.870   8.396  1.00  0.00     0.003 A 
HETATM    4  C8  UNL     1     -10.561  -8.843   8.504  1.00  0.00     0.012 A 
HETATM    5  C9  UNL     1     -10.764  -9.427   9.754  1.00  0.00    -0.024 A 
HETATM    6  C10 UNL     1     -11.711 -10.408   9.927  1.00  0.00     0.012 A 
HETATM    7  C11 UNL     1     -11.933 -10.994  11.151  1.00  0.00     0.001 A 
HETATM    8  C12 UNL     1     -11.208 -10.610  12.249  1.00  0.00     0.001 A 
HETATM    9  C13 UNL     1     -10.236  -9.612  12.101  1.00  0.00     0.014 A 
HETATM   10  C14 UNL     1     -10.025  -9.037  10.873  1.00  0.00     0.001 A 
ENDROOT
BRANCH   1  11
HETATM   11  N1  UNL     1      -8.228  -7.639  11.842  1.00  0.00    -0.356 N 
ATOM     12  H1  UNL     1      -8.446  -7.997  12.772  1.00  0.00     0.166 HD
BRANCH  11  13
HETATM   13  C4  UNL     1      -7.116  -6.767  11.713  1.00  0.00     0.032 A 
HETATM   14  C3  UNL     1      -7.377  -5.498  11.191  1.00  0.00     0.029 A 
HETATM   15  C2  UNL     1      -6.346  -4.598  10.999  1.00  0.00     0.002 A 
HETATM   16  C1  UNL     1      -5.038  -4.899  11.304  1.00  0.00     0.000 A 
HETATM   17  C16 UNL     1      -4.785  -6.145  11.817  1.00  0.00     0.002 A 
HETATM   18  C15 UNL     1      -5.819  -7.071  12.018  1.00  0.00     0.029 A 
ENDBRANCH  11  13
ENDBRANCH   1  11
TORSDOF 2
ENDMDL
