MODEL 6
REMARK VINA RESULT: -8.290613387      0.829      2.894
REMARK  2 active torsions:
REMARK  status: ('A' for Active; 'I' for Inactive)
REMARK    1  A    between atoms: C4_4  and  N1_5 
REMARK    2  A    between atoms: N1_5  and  C5_7 
ROOT
HETATM    1  C5  UNL     1      -9.449  -7.593   9.883  1.00  0.00     0.043 A 
HETATM    2  C6  UNL     1     -10.001  -8.258   8.785  1.00  0.00     0.030 A 
HETATM    3  C7  UNL     1     -10.710  -9.424   8.877  1.00  0.00     0.003 A 
HETATM    4  C8  UNL     1     -10.911 -10.006  10.094  1.00  0.00     0.012 A 
HETATM    5  C9  UNL     1     -10.376  -9.378  11.219  1.00  0.00    -0.024 A 
HETATM    6  C10 UNL     1     -10.550  -9.913  12.474  1.00  0.00     0.012 A 
HETATM    7  C11 UNL     1     -10.037  -9.309  13.597  1.00  0.00     0.001 A 
HETATM    8  C12 UNL     1      -9.329  -8.140  13.497  1.00  0.00     0.001 A 
HETATM    9  C13 UNL     1      -9.137  -7.572  12.231  1.00  0.00     0.014 A 
HETATM   10  C14 UNL     1      -9.654  -8.187  11.118  1.00  0.00     0.001 A 
ENDROOT
BRANCH   1  11
HETATM   11  N1  UNL     1      -8.678  -6.416   9.693  1.00  0.00    -0.356 N 
ATOM     12  H1  UNL     1      -9.035  -5.715   9.044  1.00  0.00     0.166 HD
BRANCH  11  13
HETATM   13  C4  UNL     1      -7.445  -6.149  10.342  1.00  0.00     0.032 A 
HETATM   14  C3  UNL     1      -6.692  -7.258  10.732  1.00  0.00     0.029 A 
HETATM   15  C2  UNL     1      -5.496  -7.089  11.403  1.00  0.00     0.002 A 
HETATM   16  C1  UNL     1      -4.995  -5.846  11.715  1.00  0.00     0.000 A 
HETATM   17  C16 UNL     1      -5.736  -4.757  11.331  1.00  0.00     0.002 A 
HETATM   18  C15 UNL     1      -6.953  -4.911  10.651  1.00  0.00     0.029 A 
ENDBRANCH  11  13
ENDBRANCH   1  11
TORSDOF 2
ENDMDL
