MODEL 3
REMARK VINA RESULT: -9.762584650      0.759      2.511
REMARK  2 active torsions:
REMARK  status: ('A' for Active; 'I' for Inactive)
REMARK    1  A    between atoms: C4_4  and  N1_5 
REMARK    2  A    between atoms: N1_5  and  C5_7 
ROOT
HETATM    1  C5  UNL     1      -9.460  -7.422  10.225  1.00  0.00     0.043 A 
HETATM    2  C6  UNL     1      -9.635  -7.657   8.858  1.00  0.00     0.030 A 
HETATM    3  C7  UNL     1     -10.209  -8.788   8.347  1.00  0.00     0.003 A 
HETATM    4  C8  UNL     1     -10.647  -9.770   9.185  1.00  0.00     0.012 A 
HETATM    5  C9  UNL     1     -10.491  -9.580  10.559  1.00  0.00    -0.024 A 
HETATM    6  C10 UNL     1     -10.918 -10.532  11.455  1.00  0.00     0.012 A 
HETATM    7  C11 UNL     1     -10.779 -10.363  12.812  1.00  0.00     0.001 A 
HETATM    8  C12 UNL     1     -10.205  -9.227  13.318  1.00  0.00     0.001 A 
HETATM    9  C13 UNL     1      -9.762  -8.240  12.428  1.00  0.00     0.014 A 
HETATM   10  C14 UNL     1      -9.905  -8.422  11.075  1.00  0.00     0.001 A 
ENDROOT
BRANCH   1  11
HETATM   11  N1  UNL     1      -8.803  -6.245  10.670  1.00  0.00    -0.356 N 
ATOM     12  H1  UNL     1      -9.354  -5.389  10.733  1.00  0.00     0.166 HD
BRANCH  11  13
HETATM   13  C4  UNL     1      -7.432  -6.177  11.031  1.00  0.00     0.032 A 
HETATM   14  C3  UNL     1      -6.850  -4.907  11.030  1.00  0.00     0.029 A 
HETATM   15  C2  UNL     1      -5.511  -4.753  11.335  1.00  0.00     0.002 A 
HETATM   16  C1  UNL     1      -4.699  -5.819  11.648  1.00  0.00     0.000 A 
HETATM   17  C16 UNL     1      -5.272  -7.065  11.648  1.00  0.00     0.002 A 
HETATM   18  C15 UNL     1      -6.629  -7.239  11.340  1.00  0.00     0.029 A 
ENDBRANCH  11  13
ENDBRANCH   1  11
TORSDOF 2
ENDMDL
