MODEL 4
REMARK VINA RESULT: -5.464724693      2.064      3.111
REMARK  7 active torsions:
REMARK  status: ('A' for Active; 'I' for Inactive)
REMARK    1  A    between atoms: C2_2  and  C4_4 
REMARK    2  A    between atoms: C4_4  and  C5_5 
REMARK    3  A    between atoms: C5_5  and  C6_6 
REMARK    4  A    between atoms: C6_6  and  C7_7 
REMARK    5  A    between atoms: C7_7  and  C9_9 
REMARK    6  A    between atoms: C9_9  and  C10_10 
REMARK    7  A    between atoms: C10_10  and  N1_11 
ROOT
HETATM    1  C7  UNL     1      10.198  11.074  32.847  1.00  0.00    -0.017 C 
HETATM    2  C8  UNL     1      11.190  10.318  33.706  1.00  0.00     0.010 C 
ENDROOT
BRANCH   1   3
HETATM    3  C6  UNL     1       9.537  10.153  31.831  1.00  0.00     0.004 C 
BRANCH   3   4
HETATM    4  C5  UNL     1       9.724  10.626  30.437  1.00  0.00     0.005 C 
BRANCH   4   5
HETATM    5  C4  UNL     1       8.481  10.725  29.640  1.00  0.00     0.033 C 
BRANCH   5   6
HETATM    6  C2  UNL     1       7.891  12.061  29.606  1.00  0.00    -0.093 C 
HETATM    7  C1  UNL     1       8.045  12.806  28.516  1.00  0.00     0.014 C 
HETATM    8  C3  UNL     1       7.147  12.700  30.732  1.00  0.00     0.042 C 
ENDBRANCH   5   6
ENDBRANCH   4   5
ENDBRANCH   3   4
ENDBRANCH   1   3
BRANCH   1   9
HETATM    9  C9  UNL     1       9.174  11.723  33.744  1.00  0.00     0.031 C 
BRANCH   9  10
HETATM   10  C10 UNL     1       9.291  13.216  33.805  1.00  0.00     0.230 C 
BRANCH  10  11
HETATM   11  N1  UNL     1       9.565  13.647  35.169  1.00  0.00    -0.079 N 
ATOM     12  H13 UNL     1       8.968  14.424  35.450  1.00  0.00     0.274 HD
ATOM     13  H12 UNL     1       9.251  12.960  35.854  1.00  0.00     0.274 HD
ATOM     14  H11 UNL     1      10.554  13.868  35.278  1.00  0.00     0.274 HD
ENDBRANCH  10  11
ENDBRANCH   9  10
ENDBRANCH   1   9
TORSDOF 7
ENDMDL
