MODEL 10
REMARK VINA RESULT: -5.357692982      2.056      3.070
REMARK  7 active torsions:
REMARK  status: ('A' for Active; 'I' for Inactive)
REMARK    1  A    between atoms: C2_2  and  C4_4 
REMARK    2  A    between atoms: C4_4  and  C5_5 
REMARK    3  A    between atoms: C5_5  and  C6_6 
REMARK    4  A    between atoms: C6_6  and  C7_7 
REMARK    5  A    between atoms: C7_7  and  C9_9 
REMARK    6  A    between atoms: C9_9  and  C10_10 
REMARK    7  A    between atoms: C10_10  and  N1_11 
ROOT
HETATM    1  C7  UNL     1      10.262  11.088  32.996  1.00  0.00    -0.017 C 
HETATM    2  C8  UNL     1      11.088  10.375  34.046  1.00  0.00     0.010 C 
ENDROOT
BRANCH   1   3
HETATM    3  C6  UNL     1       9.780  10.120  31.926  1.00  0.00     0.004 C 
BRANCH   3   4
HETATM    4  C5  UNL     1       9.823  10.715  30.566  1.00  0.00     0.005 C 
BRANCH   4   5
HETATM    5  C4  UNL     1       8.545  10.667  29.823  1.00  0.00     0.033 C 
BRANCH   5   6
HETATM    6  C2  UNL     1       7.892  11.963  29.660  1.00  0.00    -0.093 C 
HETATM    7  C1  UNL     1       7.098  12.411  30.627  1.00  0.00     0.014 C 
HETATM    8  C3  UNL     1       8.006  12.837  28.454  1.00  0.00     0.042 C 
ENDBRANCH   5   6
ENDBRANCH   4   5
ENDBRANCH   3   4
ENDBRANCH   1   3
BRANCH   1   9
HETATM    9  C9  UNL     1       9.103  11.776  33.674  1.00  0.00     0.031 C 
BRANCH   9  10
HETATM   10  C10 UNL     1       9.264  13.263  33.774  1.00  0.00     0.230 C 
BRANCH  10  11
HETATM   11  N1  UNL     1       9.665  13.638  35.123  1.00  0.00    -0.079 N 
ATOM     12  H13 UNL     1       8.973  14.238  35.573  1.00  0.00     0.274 HD
ATOM     13  H12 UNL     1       9.620  12.848  35.767  1.00  0.00     0.274 HD
ATOM     14  H11 UNL     1      10.590  14.066  35.111  1.00  0.00     0.274 HD
ENDBRANCH  10  11
ENDBRANCH   9  10
ENDBRANCH   1   9
TORSDOF 7
ENDMDL
