MODEL 1
REMARK VINA RESULT: -6.912061984      0.000      0.000
REMARK  4 active torsions:
REMARK  status: ('A' for Active; 'I' for Inactive)
REMARK    1  A    between atoms: C2_2  and  C3_3 
REMARK    2  A    between atoms: C3_3  and  C4_4 
REMARK    3  A    between atoms: C7_7  and  O1_8 
REMARK    4  A    between atoms: C8_10  and  O2_11 
ROOT
HETATM    1  C4  UNL     1       3.771 -11.930 -11.625  1.00  0.00    -0.052 A 
HETATM    2  C5  UNL     1       3.777 -13.301 -11.453  1.00  0.00     0.010 A 
HETATM    3  C6  UNL     1       3.267 -13.814 -10.278  1.00  0.00     0.040 A 
HETATM    4  C7  UNL     1       2.754 -12.995  -9.275  1.00  0.00     0.099 A 
HETATM    5  C8  UNL     1       2.745 -11.626  -9.444  1.00  0.00     0.101 A 
HETATM    6  C10 UNL     1       3.257 -11.122 -10.620  1.00  0.00     0.047 A 
ENDROOT
BRANCH   1   7
HETATM    7  C3  UNL     1       4.303 -11.342 -12.860  1.00  0.00     0.065 C 
BRANCH   7   8
HETATM    8  C2  UNL     1       3.346 -10.536 -13.617  1.00  0.00    -0.032 C 
HETATM    9  C1  UNL     1       3.215  -9.219 -13.517  1.00  0.00     0.007 C 
ENDBRANCH   7   8
ENDBRANCH   1   7
BRANCH   5  10
HETATM   10  O2  UNL     1       2.233 -10.843  -8.437  1.00  0.00    -0.353 OA
HETATM   11  C9  UNL     1       2.225  -9.439  -8.446  1.00  0.00     0.210 C 
ENDBRANCH   5  10
BRANCH   4  12
HETATM   12  O1  UNL     1       2.240 -13.528  -8.091  1.00  0.00    -0.358 OA
ATOM     13  H1  UNL     1       1.596 -13.059  -7.575  1.00  0.00     0.217 HD
ENDBRANCH   4  12
TORSDOF 4
ENDMDL
