MODEL 20
REMARK VINA RESULT: -4.568074752      2.461      4.631
REMARK  4 active torsions:
REMARK  status: ('A' for Active; 'I' for Inactive)
REMARK    1  A    between atoms: C2_2  and  C3_3 
REMARK    2  A    between atoms: C3_3  and  C4_4 
REMARK    3  A    between atoms: C7_7  and  O1_8 
REMARK    4  A    between atoms: C8_10  and  O2_11 
ROOT
HETATM    1  C4  UNL     1       2.799 -11.430  -9.816  1.00  0.00    -0.052 A 
HETATM    2  C5  UNL     1       2.419 -10.688  -8.715  1.00  0.00     0.010 A 
HETATM    3  C6  UNL     1       2.020  -9.382  -8.913  1.00  0.00     0.040 A 
HETATM    4  C7  UNL     1       1.992  -8.803 -10.179  1.00  0.00     0.099 A 
HETATM    5  C8  UNL     1       2.370  -9.542 -11.281  1.00  0.00     0.101 A 
HETATM    6  C10 UNL     1       2.767 -10.845 -11.073  1.00  0.00     0.047 A 
ENDROOT
BRANCH   1   7
HETATM    7  C3  UNL     1       3.230 -12.824  -9.649  1.00  0.00     0.065 C 
BRANCH   7   8
HETATM    8  C2  UNL     1       2.380 -13.627  -8.771  1.00  0.00    -0.032 C 
HETATM    9  C1  UNL     1       1.377 -14.395  -9.179  1.00  0.00     0.007 C 
ENDBRANCH   7   8
ENDBRANCH   1   7
BRANCH   5  10
HETATM   10  O2  UNL     1       2.332  -8.943 -12.518  1.00  0.00    -0.353 OA
HETATM   11  C9  UNL     1       3.239  -9.204 -13.557  1.00  0.00     0.210 C 
ENDBRANCH   5  10
BRANCH   4  12
HETATM   12  O1  UNL     1       1.585  -7.480 -10.366  1.00  0.00    -0.358 OA
ATOM     13  H1  UNL     1       0.685  -7.213 -10.224  1.00  0.00     0.217 HD
ENDBRANCH   4  12
TORSDOF 4
ENDMDL
