MODEL 17
REMARK VINA RESULT: -4.796997623      0.927      1.254
REMARK  4 active torsions:
REMARK  status: ('A' for Active; 'I' for Inactive)
REMARK    1  A    between atoms: C2_2  and  C3_3 
REMARK    2  A    between atoms: C3_3  and  C4_4 
REMARK    3  A    between atoms: C7_7  and  O1_8 
REMARK    4  A    between atoms: C8_10  and  O2_11 
ROOT
HETATM    1  C4  UNL     1       2.960 -12.180 -11.600  1.00  0.00    -0.052 A 
HETATM    2  C5  UNL     1       2.891 -13.545 -11.397  1.00  0.00     0.010 A 
HETATM    3  C6  UNL     1       2.643 -14.004 -10.120  1.00  0.00     0.040 A 
HETATM    4  C7  UNL     1       2.463 -13.137  -9.045  1.00  0.00     0.099 A 
HETATM    5  C8  UNL     1       2.530 -11.773  -9.244  1.00  0.00     0.101 A 
HETATM    6  C10 UNL     1       2.779 -11.324 -10.523  1.00  0.00     0.047 A 
ENDROOT
BRANCH   1   7
HETATM    7  C3  UNL     1       3.223 -11.649 -12.944  1.00  0.00     0.065 C 
BRANCH   7   8
HETATM    8  C2  UNL     1       4.568 -11.109 -13.136  1.00  0.00    -0.032 C 
HETATM    9  C1  UNL     1       5.678 -11.644 -12.645  1.00  0.00     0.007 C 
ENDBRANCH   7   8
ENDBRANCH   1   7
BRANCH   5  10
HETATM   10  O2  UNL     1       2.348 -10.942  -8.165  1.00  0.00    -0.353 OA
HETATM   11  C9  UNL     1       2.346  -9.540  -8.231  1.00  0.00     0.210 C 
ENDBRANCH   5  10
BRANCH   4  12
HETATM   12  O1  UNL     1       2.211 -13.615  -7.757  1.00  0.00    -0.358 OA
ATOM     13  H1  UNL     1       2.850 -13.521  -7.060  1.00  0.00     0.217 HD
ENDBRANCH   4  12
TORSDOF 4
ENDMDL
