MODEL 15
REMARK VINA RESULT: -4.868518834      1.576      2.205
REMARK  4 active torsions:
REMARK  status: ('A' for Active; 'I' for Inactive)
REMARK    1  A    between atoms: C2_2  and  C3_3 
REMARK    2  A    between atoms: C3_3  and  C4_4 
REMARK    3  A    between atoms: C7_7  and  O1_8 
REMARK    4  A    between atoms: C8_10  and  O2_11 
ROOT
HETATM    1  C4  UNL     1       2.636 -11.136 -11.472  1.00  0.00    -0.052 A 
HETATM    2  C5  UNL     1       3.082 -12.026 -10.515  1.00  0.00     0.010 A 
HETATM    3  C6  UNL     1       3.024 -11.644  -9.191  1.00  0.00     0.040 A 
HETATM    4  C7  UNL     1       2.533 -10.400  -8.801  1.00  0.00     0.099 A 
HETATM    5  C8  UNL     1       2.086  -9.509  -9.754  1.00  0.00     0.101 A 
HETATM    6  C10 UNL     1       2.149  -9.899 -11.075  1.00  0.00     0.047 A 
ENDROOT
BRANCH   1   7
HETATM    7  C3  UNL     1       2.680 -11.501 -12.894  1.00  0.00     0.065 C 
BRANCH   7   8
HETATM    8  C2  UNL     1       2.754 -10.368 -13.815  1.00  0.00    -0.032 C 
HETATM    9  C1  UNL     1       3.653  -9.394 -13.751  1.00  0.00     0.007 C 
ENDBRANCH   7   8
ENDBRANCH   1   7
BRANCH   5  10
HETATM   10  O2  UNL     1       1.607  -8.289  -9.340  1.00  0.00    -0.353 OA
HETATM   11  C9  UNL     1       1.476  -7.163 -10.168  1.00  0.00     0.210 C 
ENDBRANCH   5  10
BRANCH   4  12
HETATM   12  O1  UNL     1       2.479 -10.027  -7.456  1.00  0.00    -0.358 OA
ATOM     13  H1  UNL     1       2.919  -9.247  -7.140  1.00  0.00     0.217 HD
ENDBRANCH   4  12
TORSDOF 4
ENDMDL
