MODEL 14
REMARK VINA RESULT: -4.888719035      2.709      4.679
REMARK  4 active torsions:
REMARK  status: ('A' for Active; 'I' for Inactive)
REMARK    1  A    between atoms: C2_2  and  C3_3 
REMARK    2  A    between atoms: C3_3  and  C4_4 
REMARK    3  A    between atoms: C7_7  and  O1_8 
REMARK    4  A    between atoms: C8_10  and  O2_11 
ROOT
HETATM    1  C4  UNL     1       3.388 -10.456 -10.877  1.00  0.00    -0.052 A 
HETATM    2  C5  UNL     1       3.664  -9.423 -11.752  1.00  0.00     0.010 A 
HETATM    3  C6  UNL     1       3.669  -9.696 -13.104  1.00  0.00     0.040 A 
HETATM    4  C7  UNL     1       3.406 -10.970 -13.602  1.00  0.00     0.099 A 
HETATM    5  C8  UNL     1       3.129 -12.004 -12.731  1.00  0.00     0.101 A 
HETATM    6  C10 UNL     1       3.127 -11.722 -11.382  1.00  0.00     0.047 A 
ENDROOT
BRANCH   1   7
HETATM    7  C3  UNL     1       3.373 -10.210  -9.429  1.00  0.00     0.065 C 
BRANCH   7   8
HETATM    8  C2  UNL     1       2.061  -9.865  -8.881  1.00  0.00    -0.032 C 
HETATM    9  C1  UNL     1       1.343  -8.808  -9.237  1.00  0.00     0.007 C 
ENDBRANCH   7   8
ENDBRANCH   1   7
BRANCH   5  10
HETATM   10  O2  UNL     1       2.874 -13.250 -13.251  1.00  0.00    -0.353 OA
HETATM   11  C9  UNL     1       2.013 -14.195 -12.669  1.00  0.00     0.210 C 
ENDBRANCH   5  10
BRANCH   4  12
HETATM   12  O1  UNL     1       3.413 -11.232 -14.974  1.00  0.00    -0.358 OA
ATOM     13  H1  UNL     1       2.624 -11.496 -15.432  1.00  0.00     0.217 HD
ENDBRANCH   4  12
TORSDOF 4
ENDMDL
