MODEL 4
REMARK VINA RESULT: -5.662209289      2.548      4.822
REMARK  4 active torsions:
REMARK  status: ('A' for Active; 'I' for Inactive)
REMARK    1  A    between atoms: C2_2  and  C3_3 
REMARK    2  A    between atoms: C3_3  and  C4_4 
REMARK    3  A    between atoms: C7_7  and  O1_8 
REMARK    4  A    between atoms: C8_10  and  O2_11 
ROOT
HETATM    1  C4  UNL     1       2.317  -9.529 -11.348  1.00  0.00    -0.052 A 
HETATM    2  C5  UNL     1       2.515  -8.773 -12.488  1.00  0.00     0.010 A 
HETATM    3  C6  UNL     1       2.923  -9.419 -13.636  1.00  0.00     0.040 A 
HETATM    4  C7  UNL     1       3.138 -10.795 -13.675  1.00  0.00     0.099 A 
HETATM    5  C8  UNL     1       2.940 -11.552 -12.539  1.00  0.00     0.101 A 
HETATM    6  C10 UNL     1       2.533 -10.899 -11.396  1.00  0.00     0.047 A 
ENDROOT
BRANCH   1   7
HETATM    7  C3  UNL     1       1.883  -8.882 -10.103  1.00  0.00     0.065 C 
BRANCH   7   8
HETATM    8  C2  UNL     1       1.951  -9.733  -8.916  1.00  0.00    -0.032 C 
HETATM    9  C1  UNL     1       2.703  -9.490  -7.850  1.00  0.00     0.007 C 
ENDBRANCH   7   8
ENDBRANCH   1   7
BRANCH   5  10
HETATM   10  O2  UNL     1       3.160 -12.907 -12.607  1.00  0.00    -0.353 OA
HETATM   11  C9  UNL     1       3.953 -13.631 -11.703  1.00  0.00     0.210 C 
ENDBRANCH   5  10
BRANCH   4  12
HETATM   12  O1  UNL     1       3.551 -11.435 -14.845  1.00  0.00    -0.358 OA
ATOM     13  H1  UNL     1       3.320 -12.340 -15.023  1.00  0.00     0.217 HD
ENDBRANCH   4  12
TORSDOF 4
ENDMDL
