MODEL 1
REMARK VINA RESULT: -8.254301454      0.000      0.000
REMARK  7 active torsions:
REMARK  status: ('A' for Active; 'I' for Inactive)
REMARK    1  A    between atoms: N1_1  and  C1_5 
REMARK    2  A    between atoms: C1_5  and  C2_6 
REMARK    3  A    between atoms: C1_5  and  C15_27 
REMARK    4  A    between atoms: C2_6  and  N2_7 
REMARK    5  A    between atoms: N3_10  and  C4_11 
REMARK    6  A    between atoms: C4_11  and  C5_12 
REMARK    7  A    between atoms: C8_16  and  C9_17 
ROOT
HETATM    1  N2  UNL     1      44.086  57.809   4.690  1.00  0.00    -0.295 N 
HETATM    2  C3  UNL     1      45.338  57.413   4.881  1.00  0.00     0.332 A 
HETATM    3  O1  UNL     1      45.947  57.792   5.946  1.00  0.00    -0.246 OA
HETATM    4  N3  UNL     1      46.045  56.614   4.013  1.00  0.00    -0.261 N 
HETATM    5  C10 UNL     1      45.400  56.229   2.924  1.00  0.00     0.264 A 
HETATM    6  O4  UNL     1      45.984  55.489   2.081  1.00  0.00    -0.267 OA
HETATM    7  C11 UNL     1      44.059  56.618   2.662  1.00  0.00     0.066 A 
HETATM    8  C12 UNL     1      43.349  56.248   1.544  1.00  0.00     0.069 A 
HETATM    9  S2  UNL     1      41.836  56.992   1.757  1.00  0.00    -0.110 SA
HETATM   10  C13 UNL     1      42.119  57.756   3.245  1.00  0.00     0.080 A 
HETATM   11  C14 UNL     1      43.418  57.409   3.555  1.00  0.00     0.061 A 
ENDROOT
BRANCH   1  12
HETATM   12  C2  UNL     1      43.454  58.653   5.671  1.00  0.00     0.178 C 
BRANCH  12  13
HETATM   13  C1  UNL     1      42.952  57.979   6.888  1.00  0.00     0.301 C 
BRANCH  13  14
HETATM   14  N1  UNL     1      41.971  56.965   6.689  1.00  0.00    -0.064 N 
ATOM     15  H13 UNL     1      41.043  57.338   6.892  1.00  0.00     0.275 HD
ATOM     16  H12 UNL     1      41.878  56.766   5.693  1.00  0.00     0.275 HD
ATOM     17  H11 UNL     1      42.111  56.093   7.202  1.00  0.00     0.275 HD
ENDBRANCH  13  14
BRANCH  13  18
HETATM   18  C15 UNL     1      42.437  59.022   7.813  1.00  0.00     0.206 C 
HETATM   19  O5  UNL     1      41.264  59.035   8.233  1.00  0.00    -0.646 OA
HETATM   20  O6  UNL     1      43.266  60.068   8.267  1.00  0.00    -0.646 OA
ENDBRANCH  13  18
ENDBRANCH  12  13
ENDBRANCH   1  12
BRANCH   4  21
HETATM   21  C4  UNL     1      47.426  56.300   4.377  1.00  0.00     0.177 C 
BRANCH  21  22
HETATM   22  C5  UNL     1      48.348  57.511   4.185  1.00  0.00    -0.015 A 
HETATM   23  C6  UNL     1      47.943  58.575   3.462  1.00  0.00     0.017 A 
HETATM   24  C7  UNL     1      48.850  59.567   3.220  1.00  0.00     0.051 A 
HETATM   25  S1  UNL     1      50.251  59.015   3.999  1.00  0.00    -0.095 SA
HETATM   26  C8  UNL     1      49.637  57.516   4.625  1.00  0.00     0.089 A 
BRANCH  26  27
HETATM   27  C9  UNL     1      50.372  56.617   5.537  1.00  0.00     0.217 C 
HETATM   28  O2  UNL     1      51.650  56.637   5.477  1.00  0.00    -0.643 OA
HETATM   29  O3  UNL     1      49.803  55.771   6.445  1.00  0.00    -0.643 OA
ENDBRANCH  26  27
ENDBRANCH  21  22
ENDBRANCH   4  21
TORSDOF 7
ENDMDL
