MODEL 5
REMARK VINA RESULT: -8.076883851      2.906      5.775
REMARK  7 active torsions:
REMARK  status: ('A' for Active; 'I' for Inactive)
REMARK    1  A    between atoms: N1_1  and  C1_5 
REMARK    2  A    between atoms: C1_5  and  C2_6 
REMARK    3  A    between atoms: C1_5  and  C15_27 
REMARK    4  A    between atoms: C2_6  and  N2_7 
REMARK    5  A    between atoms: N3_10  and  C4_11 
REMARK    6  A    between atoms: C4_11  and  C5_12 
REMARK    7  A    between atoms: C8_16  and  C9_17 
ROOT
HETATM    1  N2  UNL     1      44.345  57.599   3.374  1.00  0.00    -0.295 N 
HETATM    2  C3  UNL     1      43.715  57.930   4.493  1.00  0.00     0.332 A 
HETATM    3  O1  UNL     1      42.506  58.356   4.415  1.00  0.00    -0.246 OA
HETATM    4  N3  UNL     1      44.263  57.849   5.751  1.00  0.00    -0.261 N 
HETATM    5  C10 UNL     1      45.508  57.402   5.814  1.00  0.00     0.264 A 
HETATM    6  O4  UNL     1      46.077  57.296   6.938  1.00  0.00    -0.267 OA
HETATM    7  C11 UNL     1      46.236  57.031   4.652  1.00  0.00     0.066 A 
HETATM    8  C12 UNL     1      47.531  56.566   4.665  1.00  0.00     0.069 A 
HETATM    9  S2  UNL     1      47.882  56.291   3.025  1.00  0.00    -0.110 SA
HETATM   10  C13 UNL     1      46.399  56.764   2.350  1.00  0.00     0.080 A 
HETATM   11  C14 UNL     1      45.640  57.137   3.441  1.00  0.00     0.061 A 
ENDROOT
BRANCH   1  12
HETATM   12  C2  UNL     1      43.665  57.736   2.111  1.00  0.00     0.178 C 
BRANCH  12  13
HETATM   13  C1  UNL     1      43.609  56.524   1.264  1.00  0.00     0.301 C 
BRANCH  13  14
HETATM   14  N1  UNL     1      43.635  56.736  -0.144  1.00  0.00    -0.064 N 
ATOM     15  H13 UNL     1      43.079  56.019  -0.611  1.00  0.00     0.275 HD
ATOM     16  H12 UNL     1      43.094  57.570  -0.377  1.00  0.00     0.275 HD
ATOM     17  H11 UNL     1      44.557  56.793  -0.577  1.00  0.00     0.275 HD
ENDBRANCH  13  14
BRANCH  13  18
HETATM   18  C15 UNL     1      42.401  55.750   1.649  1.00  0.00     0.206 C 
HETATM   19  O5  UNL     1      41.472  56.236   2.324  1.00  0.00    -0.646 OA
HETATM   20  O6  UNL     1      42.242  54.404   1.263  1.00  0.00    -0.646 OA
ENDBRANCH  13  18
ENDBRANCH  12  13
ENDBRANCH   1  12
BRANCH   4  21
HETATM   21  C4  UNL     1      43.426  58.282   6.869  1.00  0.00     0.177 C 
BRANCH  21  22
HETATM   22  C5  UNL     1      44.115  59.373   7.699  1.00  0.00    -0.015 A 
HETATM   23  C6  UNL     1      44.481  60.540   7.130  1.00  0.00     0.017 A 
HETATM   24  C7  UNL     1      45.201  61.422   7.885  1.00  0.00     0.051 A 
HETATM   25  S1  UNL     1      45.360  60.624   9.373  1.00  0.00    -0.095 SA
HETATM   26  C8  UNL     1      44.490  59.170   8.993  1.00  0.00     0.089 A 
BRANCH  26  27
HETATM   27  C9  UNL     1      44.157  58.106   9.961  1.00  0.00     0.217 C 
HETATM   28  O2  UNL     1      43.587  58.462  11.050  1.00  0.00    -0.643 OA
HETATM   29  O3  UNL     1      44.400  56.774   9.789  1.00  0.00    -0.643 OA
ENDBRANCH  26  27
ENDBRANCH  21  22
ENDBRANCH   4  21
TORSDOF 7
ENDMDL
