MODEL 2
REMARK VINA RESULT: -8.143235814      2.443      5.929
REMARK  7 active torsions:
REMARK  status: ('A' for Active; 'I' for Inactive)
REMARK    1  A    between atoms: N1_1  and  C1_5 
REMARK    2  A    between atoms: C1_5  and  C2_6 
REMARK    3  A    between atoms: C1_5  and  C15_27 
REMARK    4  A    between atoms: C2_6  and  N2_7 
REMARK    5  A    between atoms: N3_10  and  C4_11 
REMARK    6  A    between atoms: C4_11  and  C5_12 
REMARK    7  A    between atoms: C8_16  and  C9_17 
ROOT
HETATM    1  N2  UNL     1      46.827  56.727   3.750  1.00  0.00    -0.295 N 
HETATM    2  C3  UNL     1      45.970  57.062   4.706  1.00  0.00     0.332 A 
HETATM    3  O1  UNL     1      46.287  56.823   5.927  1.00  0.00    -0.246 OA
HETATM    4  N3  UNL     1      44.750  57.657   4.487  1.00  0.00    -0.261 N 
HETATM    5  C10 UNL     1      44.442  57.900   3.223  1.00  0.00     0.264 A 
HETATM    6  O4  UNL     1      43.337  58.449   2.945  1.00  0.00    -0.267 OA
HETATM    7  C11 UNL     1      45.316  57.566   2.155  1.00  0.00     0.066 A 
HETATM    8  C12 UNL     1      45.039  57.795   0.827  1.00  0.00     0.069 A 
HETATM    9  S2  UNL     1      46.410  57.202   0.016  1.00  0.00    -0.110 SA
HETATM   10  C13 UNL     1      47.308  56.675   1.357  1.00  0.00     0.080 A 
HETATM   11  C14 UNL     1      46.504  56.979   2.436  1.00  0.00     0.061 A 
ENDROOT
BRANCH   1  12
HETATM   12  C2  UNL     1      48.074  56.100   4.106  1.00  0.00     0.178 C 
BRANCH  12  13
HETATM   13  C1  UNL     1      49.150  57.004   4.571  1.00  0.00     0.301 C 
BRANCH  13  14
HETATM   14  N1  UNL     1      49.940  57.620   3.558  1.00  0.00    -0.064 N 
ATOM     15  H13 UNL     1      49.453  57.569   2.663  1.00  0.00     0.275 HD
ATOM     16  H12 UNL     1      49.958  58.630   3.702  1.00  0.00     0.275 HD
ATOM     17  H11 UNL     1      50.892  57.270   3.452  1.00  0.00     0.275 HD
ENDBRANCH  13  14
BRANCH  13  18
HETATM   18  C15 UNL     1      50.014  56.243   5.510  1.00  0.00     0.206 C 
HETATM   19  O5  UNL     1      51.236  56.458   5.632  1.00  0.00    -0.646 OA
HETATM   20  O6  UNL     1      49.485  55.221   6.325  1.00  0.00    -0.646 OA
ENDBRANCH  13  18
ENDBRANCH  12  13
ENDBRANCH   1  12
BRANCH   4  21
HETATM   21  C4  UNL     1      43.926  57.931   5.664  1.00  0.00     0.177 C 
BRANCH  21  22
HETATM   22  C5  UNL     1      44.307  59.265   6.319  1.00  0.00    -0.015 A 
HETATM   23  C6  UNL     1      45.086  60.153   5.668  1.00  0.00     0.017 A 
HETATM   24  C7  UNL     1      45.496  61.264   6.348  1.00  0.00     0.051 A 
HETATM   25  S1  UNL     1      44.794  61.068   7.879  1.00  0.00    -0.095 SA
HETATM   26  C8  UNL     1      43.983  59.555   7.610  1.00  0.00     0.089 A 
BRANCH  26  27
HETATM   27  C9  UNL     1      43.059  58.910   8.565  1.00  0.00     0.217 C 
HETATM   28  O2  UNL     1      43.502  58.679   9.743  1.00  0.00    -0.643 OA
HETATM   29  O3  UNL     1      41.771  58.547   8.298  1.00  0.00    -0.643 OA
ENDBRANCH  26  27
ENDBRANCH  21  22
ENDBRANCH   4  21
TORSDOF 7
ENDMDL
