MODEL 7
REMARK VINA RESULT: -7.912568330      1.321      1.572
REMARK  7 active torsions:
REMARK  status: ('A' for Active; 'I' for Inactive)
REMARK    1  A    between atoms: N1_1  and  C1_5 
REMARK    2  A    between atoms: C1_5  and  C2_6 
REMARK    3  A    between atoms: C1_5  and  C15_27 
REMARK    4  A    between atoms: C2_6  and  N2_7 
REMARK    5  A    between atoms: N3_10  and  C4_11 
REMARK    6  A    between atoms: C4_11  and  C5_12 
REMARK    7  A    between atoms: C8_16  and  C9_17 
ROOT
HETATM    1  N2  UNL     1      44.003  57.920   4.693  1.00  0.00    -0.295 N 
HETATM    2  C3  UNL     1      45.279  57.674   4.963  1.00  0.00     0.332 A 
HETATM    3  O1  UNL     1      45.781  58.149   6.045  1.00  0.00    -0.246 OA
HETATM    4  N3  UNL     1      46.118  56.934   4.163  1.00  0.00    -0.261 N 
HETATM    5  C10 UNL     1      45.582  56.446   3.056  1.00  0.00     0.264 A 
HETATM    6  O4  UNL     1      46.291  55.753   2.272  1.00  0.00    -0.267 OA
HETATM    7  C11 UNL     1      44.223  56.674   2.710  1.00  0.00     0.066 A 
HETATM    8  C12 UNL     1      43.622  56.193   1.570  1.00  0.00     0.069 A 
HETATM    9  S2  UNL     1      42.026  56.768   1.676  1.00  0.00    -0.110 SA
HETATM   10  C13 UNL     1      42.139  57.603   3.149  1.00  0.00     0.080 A 
HETATM   11  C14 UNL     1      43.449  57.414   3.540  1.00  0.00     0.061 A 
ENDROOT
BRANCH   1  12
HETATM   12  C2  UNL     1      43.228  58.716   5.609  1.00  0.00     0.178 C 
BRANCH  12  13
HETATM   13  C1  UNL     1      42.828  58.058   6.872  1.00  0.00     0.301 C 
BRANCH  13  14
HETATM   14  N1  UNL     1      41.816  57.060   6.772  1.00  0.00    -0.064 N 
ATOM     15  H13 UNL     1      41.265  57.212   5.927  1.00  0.00     0.275 HD
ATOM     16  H12 UNL     1      42.242  56.158   6.556  1.00  0.00     0.275 HD
ATOM     17  H11 UNL     1      41.195  56.964   7.576  1.00  0.00     0.275 HD
ENDBRANCH  13  14
BRANCH  13  18
HETATM   18  C15 UNL     1      42.420  59.116   7.832  1.00  0.00     0.206 C 
HETATM   19  O5  UNL     1      41.262  59.209   8.284  1.00  0.00    -0.646 OA
HETATM   20  O6  UNL     1      43.338  60.083   8.288  1.00  0.00    -0.646 OA
ENDBRANCH  13  18
ENDBRANCH  12  13
ENDBRANCH   1  12
BRANCH   4  21
HETATM   21  C4  UNL     1      47.502  56.788   4.610  1.00  0.00     0.177 C 
BRANCH  21  22
HETATM   22  C5  UNL     1      48.409  57.859   3.991  1.00  0.00    -0.015 A 
HETATM   23  C6  UNL     1      48.908  57.702   2.747  1.00  0.00     0.017 A 
HETATM   24  C7  UNL     1      49.809  58.625   2.297  1.00  0.00     0.051 A 
HETATM   25  S1  UNL     1      49.952  59.700   3.600  1.00  0.00    -0.095 SA
HETATM   26  C8  UNL     1      48.843  58.939   4.699  1.00  0.00     0.089 A 
BRANCH  26  27
HETATM   27  C9  UNL     1      48.422  59.499   5.999  1.00  0.00     0.217 C 
HETATM   28  O2  UNL     1      47.960  60.692   6.000  1.00  0.00    -0.643 OA
HETATM   29  O3  UNL     1      48.479  58.850   7.198  1.00  0.00    -0.643 OA
ENDBRANCH  26  27
ENDBRANCH  21  22
ENDBRANCH   4  21
TORSDOF 7
ENDMDL
