MODEL 3
REMARK VINA RESULT: -8.125813665      2.817      5.674
REMARK  7 active torsions:
REMARK  status: ('A' for Active; 'I' for Inactive)
REMARK    1  A    between atoms: N1_1  and  C1_5 
REMARK    2  A    between atoms: C1_5  and  C2_6 
REMARK    3  A    between atoms: C1_5  and  C15_27 
REMARK    4  A    between atoms: C2_6  and  N2_7 
REMARK    5  A    between atoms: N3_10  and  C4_11 
REMARK    6  A    between atoms: C4_11  and  C5_12 
REMARK    7  A    between atoms: C8_16  and  C9_17 
ROOT
HETATM    1  N2  UNL     1      44.070  57.708   3.557  1.00  0.00    -0.295 N 
HETATM    2  C3  UNL     1      43.560  58.085   4.723  1.00  0.00     0.332 A 
HETATM    3  O1  UNL     1      42.388  58.608   4.740  1.00  0.00    -0.246 OA
HETATM    4  N3  UNL     1      44.199  57.953   5.933  1.00  0.00    -0.261 N 
HETATM    5  C10 UNL     1      45.404  57.407   5.897  1.00  0.00     0.264 A 
HETATM    6  O4  UNL     1      46.051  57.250   6.972  1.00  0.00    -0.267 OA
HETATM    7  C11 UNL     1      46.005  56.983   4.681  1.00  0.00     0.066 A 
HETATM    8  C12 UNL     1      47.254  56.414   4.592  1.00  0.00     0.069 A 
HETATM    9  S2  UNL     1      47.450  56.119   2.929  1.00  0.00    -0.110 SA
HETATM   10  C13 UNL     1      45.961  56.714   2.374  1.00  0.00     0.080 A 
HETATM   11  C14 UNL     1      45.325  57.142   3.521  1.00  0.00     0.061 A 
ENDROOT
BRANCH   1  12
HETATM   12  C2  UNL     1      43.304  57.905   2.353  1.00  0.00     0.178 C 
BRANCH  12  13
HETATM   13  C1  UNL     1      42.167  56.982   2.143  1.00  0.00     0.301 C 
BRANCH  13  14
HETATM   14  N1  UNL     1      41.680  56.307   3.299  1.00  0.00    -0.064 N 
ATOM     15  H13 UNL     1      42.411  56.270   4.010  1.00  0.00     0.275 HD
ATOM     16  H12 UNL     1      40.990  56.890   3.774  1.00  0.00     0.275 HD
ATOM     17  H11 UNL     1      41.297  55.373   3.150  1.00  0.00     0.275 HD
ENDBRANCH  13  14
BRANCH  13  18
HETATM   18  C15 UNL     1      42.558  56.002   1.097  1.00  0.00     0.206 C 
HETATM   19  O5  UNL     1      43.119  56.334   0.035  1.00  0.00    -0.646 OA
HETATM   20  O6  UNL     1      42.309  54.624   1.258  1.00  0.00    -0.646 OA
ENDBRANCH  13  18
ENDBRANCH  12  13
ENDBRANCH   1  12
BRANCH   4  21
HETATM   21  C4  UNL     1      43.491  58.448   7.113  1.00  0.00     0.177 C 
BRANCH  21  22
HETATM   22  C5  UNL     1      44.264  59.582   7.799  1.00  0.00    -0.015 A 
HETATM   23  C6  UNL     1      44.603  60.694   7.115  1.00  0.00     0.017 A 
HETATM   24  C7  UNL     1      45.398  61.613   7.740  1.00  0.00     0.051 A 
HETATM   25  S1  UNL     1      45.664  60.926   9.267  1.00  0.00    -0.095 SA
HETATM   26  C8  UNL     1      44.740  59.468   9.070  1.00  0.00     0.089 A 
BRANCH  26  27
HETATM   27  C9  UNL     1      44.468  58.488  10.141  1.00  0.00     0.217 C 
HETATM   28  O2  UNL     1      43.977  58.937  11.234  1.00  0.00    -0.643 OA
HETATM   29  O3  UNL     1      44.691  57.145  10.061  1.00  0.00    -0.643 OA
ENDBRANCH  26  27
ENDBRANCH  21  22
ENDBRANCH   4  21
TORSDOF 7
ENDMDL
