MODEL 3
REMARK VINA RESULT: -9.068140171      2.514      6.257
REMARK  13 active torsions:
REMARK  status: ('A' for Active; 'I' for Inactive)
REMARK    1  A    between atoms: C2_2  and  C4_4 
REMARK    2  A    between atoms: C4_4  and  N1_5 
REMARK    3  A    between atoms: N1_5  and  C5_6 
REMARK    4  A    between atoms: N1_5  and  S1_28 
REMARK    5  A    between atoms: C5_6  and  C6_7 
REMARK    6  A    between atoms: C6_7  and  O1_8 
REMARK    7  A    between atoms: C6_7  and  C7_10 
REMARK    8  A    between atoms: C7_10  and  C8_11 
REMARK    9  A    between atoms: C7_10  and  N2_18 
REMARK   10  A    between atoms: C8_11  and  C9_12 
REMARK       I    between atoms: N2_18  and  C15_20 
REMARK   11  A    between atoms: C15_20  and  O3_22 
REMARK   12  A    between atoms: O3_22  and  C16_23 
REMARK   13  A    between atoms: S1_28  and  C20_31 
ROOT
HETATM    1  C6  UNL     1      15.540  23.616  18.161  1.00  0.00     0.160 C 
ENDROOT
BRANCH   1   2
HETATM    2  C5  UNL     1      16.680  24.353  17.568  1.00  0.00     0.174 C 
BRANCH   2   3
HETATM    3  N1  UNL     1      17.992  23.889  17.817  1.00  0.00    -0.283 N 
BRANCH   3   4
HETATM    4  C4  UNL     1      18.800  24.658  18.674  1.00  0.00     0.080 C 
BRANCH   4   5
HETATM    5  C2  UNL     1      18.870  24.202  20.107  1.00  0.00     0.017 C 
HETATM    6  C1  UNL     1      19.967  24.800  20.918  1.00  0.00     0.015 C 
HETATM    7  C3  UNL     1      18.839  22.685  20.205  1.00  0.00     0.015 C 
ENDBRANCH   4   5
ENDBRANCH   3   4
BRANCH   3   8
HETATM    8  S1  UNL     1      18.812  23.279  16.481  1.00  0.00     0.264 S 
HETATM    9  O5  UNL     1      20.037  22.510  16.909  1.00  0.00    -0.200 OA
HETATM   10  O6  UNL     1      17.926  22.232  15.780  1.00  0.00    -0.200 OA
BRANCH   8  11
HETATM   11  C20 UNL     1      19.284  24.461  15.281  1.00  0.00     0.080 A 
HETATM   12  C21 UNL     1      18.419  25.380  14.733  1.00  0.00     0.027 A 
HETATM   13  C22 UNL     1      18.855  26.308  13.790  1.00  0.00     0.028 A 
HETATM   14  C23 UNL     1      20.166  26.352  13.363  1.00  0.00     0.046 A 
HETATM   15  N3  UNL     1      20.588  27.310  12.397  1.00  0.00    -0.102 NA
HETATM   16  C24 UNL     1      21.035  25.432  13.911  1.00  0.00     0.028 A 
HETATM   17  C25 UNL     1      20.610  24.513  14.843  1.00  0.00     0.027 A 
ENDBRANCH   8  11
ENDBRANCH   3   8
ENDBRANCH   2   3
ENDBRANCH   1   2
BRANCH   1  18
HETATM   18  O1  UNL     1      14.409  24.373  18.404  1.00  0.00    -0.392 OA
ATOM     19  H1  UNL     1      13.619  23.877  18.584  1.00  0.00     0.210 HD
ENDBRANCH   1  18
BRANCH   1  20
HETATM   20  C7  UNL     1      15.095  22.444  17.261  1.00  0.00     0.121 C 
BRANCH  20  21
HETATM   21  C8  UNL     1      14.338  23.030  16.098  1.00  0.00     0.066 C 
BRANCH  21  22
HETATM   22  C9  UNL     1      14.261  22.065  14.959  1.00  0.00    -0.056 A 
HETATM   23  C10 UNL     1      15.229  22.045  13.983  1.00  0.00     0.007 A 
HETATM   24  C11 UNL     1      15.154  21.142  12.918  1.00  0.00     0.001 A 
HETATM   25  C12 UNL     1      14.099  20.266  12.855  1.00  0.00     0.000 A 
HETATM   26  C13 UNL     1      13.123  20.266  13.813  1.00  0.00     0.001 A 
HETATM   27  C14 UNL     1      13.220  21.170  14.857  1.00  0.00     0.007 A 
ENDBRANCH  21  22
ENDBRANCH  20  21
BRANCH  20  28
HETATM   28  N2  UNL     1      14.079  21.753  18.075  1.00  0.00    -0.329 N 
HETATM   29  C15 UNL     1      14.176  20.372  18.330  1.00  0.00     0.361 C 
HETATM   30  O2  UNL     1      15.158  19.758  17.835  1.00  0.00    -0.238 OA
ATOM     31  H2  UNL     1      13.295  22.283  18.457  1.00  0.00     0.165 HD
BRANCH  29  32
HETATM   32  O3  UNL     1      13.249  19.660  19.097  1.00  0.00    -0.296 OA
BRANCH  32  33
HETATM   33  C16 UNL     1      13.666  18.540  19.871  1.00  0.00     0.159 C 
HETATM   34  C17 UNL     1      14.743  18.931  20.865  1.00  0.00     0.061 C 
HETATM   35  C18 UNL     1      14.049  18.873  22.198  1.00  0.00     0.170 C 
HETATM   36  O4  UNL     1      13.152  17.810  22.006  1.00  0.00    -0.389 OA
HETATM   37  C19 UNL     1      12.533  18.143  20.787  1.00  0.00     0.200 C 
ENDBRANCH  32  33
ENDBRANCH  29  32
ENDBRANCH  20  28
ENDBRANCH   1  20
TORSDOF 13
ENDMDL
