MODEL 4
REMARK VINA RESULT: -9.027556478      2.810      6.265
REMARK  13 active torsions:
REMARK  status: ('A' for Active; 'I' for Inactive)
REMARK    1  A    between atoms: C2_2  and  C4_4 
REMARK    2  A    between atoms: C4_4  and  N1_5 
REMARK    3  A    between atoms: N1_5  and  C5_6 
REMARK    4  A    between atoms: N1_5  and  S1_28 
REMARK    5  A    between atoms: C5_6  and  C6_7 
REMARK    6  A    between atoms: C6_7  and  O1_8 
REMARK    7  A    between atoms: C6_7  and  C7_10 
REMARK    8  A    between atoms: C7_10  and  C8_11 
REMARK    9  A    between atoms: C7_10  and  N2_18 
REMARK   10  A    between atoms: C8_11  and  C9_12 
REMARK       I    between atoms: N2_18  and  C15_20 
REMARK   11  A    between atoms: C15_20  and  O3_22 
REMARK   12  A    between atoms: O3_22  and  C16_23 
REMARK   13  A    between atoms: S1_28  and  C20_31 
ROOT
HETATM    1  C6  UNL     1      15.604  23.572  18.199  1.00  0.00     0.160 C 
ENDROOT
BRANCH   1   2
HETATM    2  C5  UNL     1      16.684  24.482  17.752  1.00  0.00     0.174 C 
BRANCH   2   3
HETATM    3  N1  UNL     1      18.024  24.042  17.845  1.00  0.00    -0.283 N 
BRANCH   3   4
HETATM    4  C4  UNL     1      18.762  24.446  18.972  1.00  0.00     0.080 C 
BRANCH   4   5
HETATM    5  C2  UNL     1      18.718  23.523  20.161  1.00  0.00     0.017 C 
HETATM    6  C1  UNL     1      19.626  23.880  21.285  1.00  0.00     0.015 C 
HETATM    7  C3  UNL     1      18.865  22.070  19.736  1.00  0.00     0.015 C 
ENDBRANCH   4   5
ENDBRANCH   3   4
BRANCH   3   8
HETATM    8  S1  UNL     1      18.902  24.083  16.411  1.00  0.00     0.264 S 
HETATM    9  O5  UNL     1      19.938  22.987  16.385  1.00  0.00    -0.200 OA
HETATM   10  O6  UNL     1      17.964  23.753  15.235  1.00  0.00    -0.200 OA
BRANCH   8  11
HETATM   11  C20 UNL     1      19.688  25.604  16.050  1.00  0.00     0.080 A 
HETATM   12  C21 UNL     1      20.695  26.144  16.817  1.00  0.00     0.027 A 
HETATM   13  C22 UNL     1      21.295  27.353  16.474  1.00  0.00     0.028 A 
HETATM   14  C23 UNL     1      20.912  28.064  15.355  1.00  0.00     0.046 A 
HETATM   15  N3  UNL     1      21.539  29.299  15.025  1.00  0.00    -0.102 NA
HETATM   16  C24 UNL     1      19.903  27.526  14.584  1.00  0.00     0.028 A 
HETATM   17  C25 UNL     1      19.307  26.330  14.920  1.00  0.00     0.027 A 
ENDBRANCH   8  11
ENDBRANCH   3   8
ENDBRANCH   2   3
ENDBRANCH   1   2
BRANCH   1  18
HETATM   18  O1  UNL     1      14.375  24.169  18.407  1.00  0.00    -0.392 OA
ATOM     19  H1  UNL     1      14.125  24.821  17.763  1.00  0.00     0.210 HD
ENDBRANCH   1  18
BRANCH   1  20
HETATM   20  C7  UNL     1      15.368  22.433  17.184  1.00  0.00     0.121 C 
BRANCH  20  21
HETATM   21  C8  UNL     1      14.453  22.967  16.112  1.00  0.00     0.066 C 
BRANCH  21  22
HETATM   22  C9  UNL     1      14.316  21.996  14.983  1.00  0.00    -0.056 A 
HETATM   23  C10 UNL     1      13.247  21.133  14.920  1.00  0.00     0.007 A 
HETATM   24  C11 UNL     1      13.121  20.225  13.864  1.00  0.00     0.001 A 
HETATM   25  C12 UNL     1      14.079  20.202  12.882  1.00  0.00     0.000 A 
HETATM   26  C13 UNL     1      15.152  21.050  12.922  1.00  0.00     0.001 A 
HETATM   27  C14 UNL     1      15.254  21.939  13.978  1.00  0.00     0.007 A 
ENDBRANCH  21  22
ENDBRANCH  20  21
BRANCH  20  28
HETATM   28  N2  UNL     1      14.554  21.464  17.938  1.00  0.00    -0.329 N 
HETATM   29  C15 UNL     1      15.094  20.228  18.342  1.00  0.00     0.361 C 
HETATM   30  O2  UNL     1      16.290  19.987  18.029  1.00  0.00    -0.238 OA
ATOM     31  H2  UNL     1      13.587  21.692  18.171  1.00  0.00     0.165 HD
BRANCH  29  32
HETATM   32  O3  UNL     1      14.377  19.269  19.063  1.00  0.00    -0.296 OA
BRANCH  32  33
HETATM   33  C16 UNL     1      13.020  19.506  19.421  1.00  0.00     0.159 C 
HETATM   34  C17 UNL     1      12.077  19.087  18.310  1.00  0.00     0.061 C 
HETATM   35  C18 UNL     1      11.407  17.851  18.844  1.00  0.00     0.170 C 
HETATM   36  O4  UNL     1      11.329  18.140  20.215  1.00  0.00    -0.389 OA
HETATM   37  C19 UNL     1      12.641  18.545  20.523  1.00  0.00     0.200 C 
ENDBRANCH  32  33
ENDBRANCH  29  32
ENDBRANCH  20  28
ENDBRANCH   1  20
TORSDOF 13
ENDMDL
