MODEL 2
REMARK VINA RESULT: -9.124821284      1.243      4.368
REMARK  13 active torsions:
REMARK  status: ('A' for Active; 'I' for Inactive)
REMARK    1  A    between atoms: C2_2  and  C4_4 
REMARK    2  A    between atoms: C4_4  and  N1_5 
REMARK    3  A    between atoms: N1_5  and  C5_6 
REMARK    4  A    between atoms: N1_5  and  S1_28 
REMARK    5  A    between atoms: C5_6  and  C6_7 
REMARK    6  A    between atoms: C6_7  and  O1_8 
REMARK    7  A    between atoms: C6_7  and  C7_10 
REMARK    8  A    between atoms: C7_10  and  C8_11 
REMARK    9  A    between atoms: C7_10  and  N2_18 
REMARK   10  A    between atoms: C8_11  and  C9_12 
REMARK       I    between atoms: N2_18  and  C15_20 
REMARK   11  A    between atoms: C15_20  and  O3_22 
REMARK   12  A    between atoms: O3_22  and  C16_23 
REMARK   13  A    between atoms: S1_28  and  C20_31 
ROOT
HETATM    1  C6  UNL     1      16.257  24.543  17.929  1.00  0.00     0.160 C 
ENDROOT
BRANCH   1   2
HETATM    2  C5  UNL     1      16.709  23.509  18.889  1.00  0.00     0.174 C 
BRANCH   2   3
HETATM    3  N1  UNL     1      17.371  22.364  18.392  1.00  0.00    -0.283 N 
BRANCH   3   4
HETATM    4  C4  UNL     1      16.709  21.128  18.515  1.00  0.00     0.080 C 
BRANCH   4   5
HETATM    5  C2  UNL     1      15.378  21.155  19.220  1.00  0.00     0.017 C 
HETATM    6  C1  UNL     1      15.281  20.311  20.442  1.00  0.00     0.015 C 
HETATM    7  C3  UNL     1      14.236  20.903  18.248  1.00  0.00     0.015 C 
ENDBRANCH   4   5
ENDBRANCH   3   4
BRANCH   3   8
HETATM    8  S1  UNL     1      19.020  22.282  18.714  1.00  0.00     0.264 S 
HETATM    9  O5  UNL     1      19.339  21.087  19.579  1.00  0.00    -0.200 OA
HETATM   10  O6  UNL     1      19.778  22.018  17.399  1.00  0.00    -0.200 OA
BRANCH   8  11
HETATM   11  C20 UNL     1      19.717  23.707  19.450  1.00  0.00     0.080 A 
HETATM   12  C21 UNL     1      19.811  23.896  20.810  1.00  0.00     0.027 A 
HETATM   13  C22 UNL     1      20.390  25.046  21.341  1.00  0.00     0.028 A 
HETATM   14  C23 UNL     1      20.895  26.046  20.535  1.00  0.00     0.046 A 
HETATM   15  N3  UNL     1      21.481  27.213  21.102  1.00  0.00    -0.102 NA
HETATM   16  C24 UNL     1      20.803  25.860  19.172  1.00  0.00     0.028 A 
HETATM   17  C25 UNL     1      20.231  24.724  18.642  1.00  0.00     0.027 A 
ENDBRANCH   8  11
ENDBRANCH   3   8
ENDBRANCH   2   3
ENDBRANCH   1   2
BRANCH   1  18
HETATM   18  O1  UNL     1      16.680  25.830  18.203  1.00  0.00    -0.392 OA
ATOM     19  H1  UNL     1      16.992  26.323  17.454  1.00  0.00     0.210 HD
ENDBRANCH   1  18
BRANCH   1  20
HETATM   20  C7  UNL     1      16.728  24.225  16.494  1.00  0.00     0.121 C 
BRANCH  20  21
HETATM   21  C8  UNL     1      17.022  25.538  15.815  1.00  0.00     0.066 C 
BRANCH  21  22
HETATM   22  C9  UNL     1      18.314  25.483  15.064  1.00  0.00    -0.056 A 
HETATM   23  C10 UNL     1      19.267  24.541  15.367  1.00  0.00     0.007 A 
HETATM   24  C11 UNL     1      20.475  24.491  14.664  1.00  0.00     0.001 A 
HETATM   25  C12 UNL     1      20.703  25.398  13.660  1.00  0.00     0.000 A 
HETATM   26  C13 UNL     1      19.771  26.347  13.338  1.00  0.00     0.001 A 
HETATM   27  C14 UNL     1      18.583  26.374  14.049  1.00  0.00     0.007 A 
ENDBRANCH  21  22
ENDBRANCH  20  21
BRANCH  20  28
HETATM   28  N2  UNL     1      15.511  23.716  15.838  1.00  0.00    -0.329 N 
HETATM   29  C15 UNL     1      15.531  22.504  15.122  1.00  0.00     0.361 C 
HETATM   30  O2  UNL     1      16.625  21.882  15.062  1.00  0.00    -0.238 OA
ATOM     31  H2  UNL     1      14.643  24.248  15.904  1.00  0.00     0.165 HD
BRANCH  29  32
HETATM   32  O3  UNL     1      14.411  21.965  14.482  1.00  0.00    -0.296 OA
BRANCH  32  33
HETATM   33  C16 UNL     1      14.196  20.557  14.475  1.00  0.00     0.159 C 
HETATM   34  C17 UNL     1      12.768  20.218  14.854  1.00  0.00     0.061 C 
HETATM   35  C18 UNL     1      12.150  19.744  13.567  1.00  0.00     0.170 C 
HETATM   36  O4  UNL     1      13.237  19.108  12.948  1.00  0.00    -0.389 OA
HETATM   37  C19 UNL     1      14.259  20.070  13.047  1.00  0.00     0.200 C 
ENDBRANCH  32  33
ENDBRANCH  29  32
ENDBRANCH  20  28
ENDBRANCH   1  20
TORSDOF 13
ENDMDL
