MODEL 5
REMARK VINA RESULT: -8.942749582      2.172      6.299
REMARK  13 active torsions:
REMARK  status: ('A' for Active; 'I' for Inactive)
REMARK    1  A    between atoms: C2_2  and  C4_4 
REMARK    2  A    between atoms: C4_4  and  N1_5 
REMARK    3  A    between atoms: N1_5  and  C5_6 
REMARK    4  A    between atoms: N1_5  and  S1_28 
REMARK    5  A    between atoms: C5_6  and  C6_7 
REMARK    6  A    between atoms: C6_7  and  O1_8 
REMARK    7  A    between atoms: C6_7  and  C7_10 
REMARK    8  A    between atoms: C7_10  and  C8_11 
REMARK    9  A    between atoms: C7_10  and  N2_18 
REMARK   10  A    between atoms: C8_11  and  C9_12 
REMARK       I    between atoms: N2_18  and  C15_20 
REMARK   11  A    between atoms: C15_20  and  O3_22 
REMARK   12  A    between atoms: O3_22  and  C16_23 
REMARK   13  A    between atoms: S1_28  and  C20_31 
ROOT
HETATM    1  C6  UNL     1      18.249  23.774  15.593  1.00  0.00     0.160 C 
ENDROOT
BRANCH   1   2
HETATM    2  C5  UNL     1      17.243  23.765  16.682  1.00  0.00     0.174 C 
BRANCH   2   3
HETATM    3  N1  UNL     1      16.509  22.581  16.919  1.00  0.00    -0.283 N 
BRANCH   3   4
HETATM    4  C4  UNL     1      15.122  22.707  17.118  1.00  0.00     0.080 C 
BRANCH   4   5
HETATM    5  C2  UNL     1      14.243  22.223  15.995  1.00  0.00     0.017 C 
HETATM    6  C1  UNL     1      14.837  21.173  15.122  1.00  0.00     0.015 C 
HETATM    7  C3  UNL     1      13.676  23.387  15.198  1.00  0.00     0.015 C 
ENDBRANCH   4   5
ENDBRANCH   3   4
BRANCH   3   8
HETATM    8  S1  UNL     1      17.241  21.467  17.944  1.00  0.00     0.264 S 
HETATM    9  O5  UNL     1      18.130  20.527  17.168  1.00  0.00    -0.200 OA
HETATM   10  O6  UNL     1      18.201  22.209  18.892  1.00  0.00    -0.200 OA
BRANCH   8  11
HETATM   11  C20 UNL     1      16.151  20.519  18.931  1.00  0.00     0.080 A 
HETATM   12  C21 UNL     1      15.583  19.335  18.520  1.00  0.00     0.027 A 
HETATM   13  C22 UNL     1      14.732  18.615  19.354  1.00  0.00     0.028 A 
HETATM   14  C23 UNL     1      14.419  19.049  20.626  1.00  0.00     0.046 A 
HETATM   15  N3  UNL     1      13.545  18.295  21.461  1.00  0.00    -0.102 NA
HETATM   16  C24 UNL     1      14.986  20.235  21.041  1.00  0.00     0.028 A 
HETATM   17  C25 UNL     1      15.829  20.952  20.220  1.00  0.00     0.027 A 
ENDBRANCH   8  11
ENDBRANCH   3   8
ENDBRANCH   2   3
ENDBRANCH   1   2
BRANCH   1  18
HETATM   18  O1  UNL     1      17.754  24.051  14.333  1.00  0.00    -0.392 OA
ATOM     19  H1  UNL     1      17.881  23.367  13.687  1.00  0.00     0.210 HD
ENDBRANCH   1  18
BRANCH   1  20
HETATM   20  C7  UNL     1      19.363  24.807  15.862  1.00  0.00     0.121 C 
BRANCH  20  21
HETATM   21  C8  UNL     1      20.409  24.631  14.792  1.00  0.00     0.066 C 
BRANCH  21  22
HETATM   22  C9  UNL     1      20.803  25.944  14.196  1.00  0.00    -0.056 A 
HETATM   23  C10 UNL     1      20.392  26.298  12.933  1.00  0.00     0.007 A 
HETATM   24  C11 UNL     1      20.762  27.527  12.377  1.00  0.00     0.001 A 
HETATM   25  C12 UNL     1      21.543  28.385  13.109  1.00  0.00     0.000 A 
HETATM   26  C13 UNL     1      21.965  28.057  14.368  1.00  0.00     0.001 A 
HETATM   27  C14 UNL     1      21.585  26.835  14.895  1.00  0.00     0.007 A 
ENDBRANCH  21  22
ENDBRANCH  20  21
BRANCH  20  28
HETATM   28  N2  UNL     1      19.992  24.319  17.101  1.00  0.00    -0.329 N 
HETATM   29  C15 UNL     1      20.345  25.211  18.132  1.00  0.00     0.361 C 
HETATM   30  O2  UNL     1      20.105  26.434  17.948  1.00  0.00    -0.238 OA
ATOM     31  H2  UNL     1      20.175  23.322  17.214  1.00  0.00     0.165 HD
BRANCH  29  32
HETATM   32  O3  UNL     1      20.940  24.812  19.332  1.00  0.00    -0.296 OA
BRANCH  32  33
HETATM   33  C16 UNL     1      21.596  25.766  20.161  1.00  0.00     0.159 C 
HETATM   34  C17 UNL     1      21.519  25.368  21.622  1.00  0.00     0.061 C 
HETATM   35  C18 UNL     1      22.924  24.953  21.963  1.00  0.00     0.170 C 
HETATM   36  O4  UNL     1      23.680  25.825  21.164  1.00  0.00    -0.389 OA
HETATM   37  C19 UNL     1      23.081  25.686  19.899  1.00  0.00     0.200 C 
ENDBRANCH  32  33
ENDBRANCH  29  32
ENDBRANCH  20  28
ENDBRANCH   1  20
TORSDOF 13
ENDMDL
