MODEL 1
REMARK VINA RESULT: -9.181431861      0.000      0.000
REMARK  13 active torsions:
REMARK  status: ('A' for Active; 'I' for Inactive)
REMARK    1  A    between atoms: C2_2  and  C4_4 
REMARK    2  A    between atoms: C4_4  and  N1_5 
REMARK    3  A    between atoms: N1_5  and  C5_6 
REMARK    4  A    between atoms: N1_5  and  S1_28 
REMARK    5  A    between atoms: C5_6  and  C6_7 
REMARK    6  A    between atoms: C6_7  and  O1_8 
REMARK    7  A    between atoms: C6_7  and  C7_10 
REMARK    8  A    between atoms: C7_10  and  C8_11 
REMARK    9  A    between atoms: C7_10  and  N2_18 
REMARK   10  A    between atoms: C8_11  and  C9_12 
REMARK       I    between atoms: N2_18  and  C15_20 
REMARK   11  A    between atoms: C15_20  and  O3_22 
REMARK   12  A    between atoms: O3_22  and  C16_23 
REMARK   13  A    between atoms: S1_28  and  C20_31 
ROOT
HETATM    1  C6  UNL     1      16.931  24.614  18.066  1.00  0.00     0.160 C 
ENDROOT
BRANCH   1   2
HETATM    2  C5  UNL     1      18.237  24.537  18.761  1.00  0.00     0.174 C 
BRANCH   2   3
HETATM    3  N1  UNL     1      18.422  23.546  19.752  1.00  0.00    -0.283 N 
BRANCH   3   4
HETATM    4  C4  UNL     1      19.386  23.796  20.746  1.00  0.00     0.080 C 
BRANCH   4   5
HETATM    5  C2  UNL     1      20.483  24.760  20.378  1.00  0.00     0.017 C 
HETATM    6  C1  UNL     1      21.661  24.161  19.692  1.00  0.00     0.015 C 
HETATM    7  C3  UNL     1      20.881  25.621  21.567  1.00  0.00     0.015 C 
ENDBRANCH   4   5
ENDBRANCH   3   4
BRANCH   3   8
HETATM    8  S1  UNL     1      18.415  21.958  19.201  1.00  0.00     0.264 S 
HETATM    9  O5  UNL     1      18.993  21.871  17.809  1.00  0.00    -0.200 OA
HETATM   10  O6  UNL     1      19.373  21.119  20.067  1.00  0.00    -0.200 OA
BRANCH   8  11
HETATM   11  C20 UNL     1      16.858  21.161  19.210  1.00  0.00     0.080 A 
HETATM   12  C21 UNL     1      16.325  20.513  18.119  1.00  0.00     0.027 A 
HETATM   13  C22 UNL     1      15.085  19.883  18.190  1.00  0.00     0.028 A 
HETATM   14  C23 UNL     1      14.335  19.877  19.348  1.00  0.00     0.046 A 
HETATM   15  N3  UNL     1      13.069  19.226  19.394  1.00  0.00    -0.102 NA
HETATM   16  C24 UNL     1      14.867  20.525  20.443  1.00  0.00     0.028 A 
HETATM   17  C25 UNL     1      16.093  21.150  20.379  1.00  0.00     0.027 A 
ENDBRANCH   8  11
ENDBRANCH   3   8
ENDBRANCH   2   3
ENDBRANCH   1   2
BRANCH   1  18
HETATM   18  O1  UNL     1      16.281  25.829  18.161  1.00  0.00    -0.392 OA
ATOM     19  H1  UNL     1      15.815  25.979  18.975  1.00  0.00     0.210 HD
ENDBRANCH   1  18
BRANCH   1  20
HETATM   20  C7  UNL     1      17.074  24.313  16.559  1.00  0.00     0.121 C 
BRANCH  20  21
HETATM   21  C8  UNL     1      17.217  25.633  15.847  1.00  0.00     0.066 C 
BRANCH  21  22
HETATM   22  C9  UNL     1      18.463  25.672  15.021  1.00  0.00    -0.056 A 
HETATM   23  C10 UNL     1      18.648  26.644  14.067  1.00  0.00     0.007 A 
HETATM   24  C11 UNL     1      19.814  26.678  13.296  1.00  0.00     0.001 A 
HETATM   25  C12 UNL     1      20.780  25.726  13.500  1.00  0.00     0.000 A 
HETATM   26  C13 UNL     1      20.620  24.747  14.443  1.00  0.00     0.001 A 
HETATM   27  C14 UNL     1      19.458  24.736  15.193  1.00  0.00     0.007 A 
ENDBRANCH  21  22
ENDBRANCH  20  21
BRANCH  20  28
HETATM   28  N2  UNL     1      15.741  23.813  16.181  1.00  0.00    -0.329 N 
HETATM   29  C15 UNL     1      15.601  22.738  15.283  1.00  0.00     0.361 C 
HETATM   30  O2  UNL     1      16.656  22.229  14.818  1.00  0.00    -0.238 OA
ATOM     31  H2  UNL     1      14.908  24.252  16.575  1.00  0.00     0.165 HD
BRANCH  29  32
HETATM   32  O3  UNL     1      14.366  22.214  14.888  1.00  0.00    -0.296 OA
BRANCH  32  33
HETATM   33  C16 UNL     1      14.177  20.805  14.805  1.00  0.00     0.159 C 
HETATM   34  C17 UNL     1      12.783  20.412  15.255  1.00  0.00     0.061 C 
HETATM   35  C18 UNL     1      12.089  20.006  13.984  1.00  0.00     0.170 C 
HETATM   36  O4  UNL     1      13.143  19.435  13.254  1.00  0.00    -0.389 OA
HETATM   37  C19 UNL     1      14.152  20.412  13.347  1.00  0.00     0.200 C 
ENDBRANCH  32  33
ENDBRANCH  29  32
ENDBRANCH  20  28
ENDBRANCH   1  20
TORSDOF 13
ENDMDL
