MODEL 2
REMARK VINA RESULT: -8.903367718      2.753      7.435
REMARK  13 active torsions:
REMARK  status: ('A' for Active; 'I' for Inactive)
REMARK    1  A    between atoms: C2_2  and  C4_4 
REMARK    2  A    between atoms: C4_4  and  N1_5 
REMARK    3  A    between atoms: N1_5  and  C5_6 
REMARK    4  A    between atoms: N1_5  and  S1_28 
REMARK    5  A    between atoms: C5_6  and  C6_7 
REMARK    6  A    between atoms: C6_7  and  O1_8 
REMARK    7  A    between atoms: C6_7  and  C7_10 
REMARK    8  A    between atoms: C7_10  and  C8_11 
REMARK    9  A    between atoms: C7_10  and  N2_18 
REMARK   10  A    between atoms: C8_11  and  C9_12 
REMARK       I    between atoms: N2_18  and  C15_20 
REMARK   11  A    between atoms: C15_20  and  O3_22 
REMARK   12  A    between atoms: O3_22  and  C16_23 
REMARK   13  A    between atoms: S1_28  and  C20_31 
ROOT
HETATM    1  C6  UNL     1      19.445   9.023  18.385  1.00  0.00     0.160 C 
ENDROOT
BRANCH   1   2
HETATM    2  C5  UNL     1      19.950   8.645  19.726  1.00  0.00     0.174 C 
BRANCH   2   3
HETATM    3  N1  UNL     1      21.289   8.210  19.849  1.00  0.00    -0.283 N 
BRANCH   3   4
HETATM    4  C4  UNL     1      21.514   6.984  20.500  1.00  0.00     0.080 C 
BRANCH   4   5
HETATM    5  C2  UNL     1      20.515   6.601  21.560  1.00  0.00     0.017 C 
HETATM    6  C1  UNL     1      20.935   6.866  22.964  1.00  0.00     0.015 C 
HETATM    7  C3  UNL     1      20.021   5.177  21.363  1.00  0.00     0.015 C 
ENDBRANCH   4   5
ENDBRANCH   3   4
BRANCH   3   8
HETATM    8  S1  UNL     1      22.405   9.403  20.249  1.00  0.00     0.264 S 
HETATM    9  O5  UNL     1      22.065  10.031  21.578  1.00  0.00    -0.200 OA
HETATM   10  O6  UNL     1      23.782   8.750  20.473  1.00  0.00    -0.200 OA
BRANCH   8  11
HETATM   11  C20 UNL     1      22.609  10.674  19.065  1.00  0.00     0.080 A 
HETATM   12  C21 UNL     1      22.656  12.012  19.382  1.00  0.00     0.027 A 
HETATM   13  C22 UNL     1      22.834  12.981  18.397  1.00  0.00     0.028 A 
HETATM   14  C23 UNL     1      22.972  12.650  17.065  1.00  0.00     0.046 A 
HETATM   15  N3  UNL     1      23.152  13.659  16.077  1.00  0.00    -0.102 NA
HETATM   16  C24 UNL     1      22.925  11.310  16.744  1.00  0.00     0.028 A 
HETATM   17  C25 UNL     1      22.749  10.347  17.714  1.00  0.00     0.027 A 
ENDBRANCH   8  11
ENDBRANCH   3   8
ENDBRANCH   2   3
ENDBRANCH   1   2
BRANCH   1  18
HETATM   18  O1  UNL     1      18.951   7.981  17.623  1.00  0.00    -0.392 OA
ATOM     19  H1  UNL     1      18.037   7.769  17.768  1.00  0.00     0.210 HD
ENDBRANCH   1  18
BRANCH   1  20
HETATM   20  C7  UNL     1      18.312  10.067  18.482  1.00  0.00     0.121 C 
BRANCH  20  21
HETATM   21  C8  UNL     1      18.947  11.392  18.819  1.00  0.00     0.066 C 
BRANCH  21  22
HETATM   22  C9  UNL     1      19.225  12.189  17.585  1.00  0.00    -0.056 A 
HETATM   23  C10 UNL     1      19.365  13.555  17.643  1.00  0.00     0.007 A 
HETATM   24  C11 UNL     1      19.624  14.299  16.488  1.00  0.00     0.001 A 
HETATM   25  C12 UNL     1      19.740  13.649  15.284  1.00  0.00     0.000 A 
HETATM   26  C13 UNL     1      19.604  12.290  15.199  1.00  0.00     0.001 A 
HETATM   27  C14 UNL     1      19.348  11.577  16.358  1.00  0.00     0.007 A 
ENDBRANCH  21  22
ENDBRANCH  20  21
BRANCH  20  28
HETATM   28  N2  UNL     1      17.582   9.669  19.698  1.00  0.00    -0.329 N 
HETATM   29  C15 UNL     1      16.376   8.946  19.613  1.00  0.00     0.361 C 
HETATM   30  O2  UNL     1      15.951   8.661  18.462  1.00  0.00    -0.238 OA
ATOM     31  H2  UNL     1      17.954   9.920  20.614  1.00  0.00     0.165 HD
BRANCH  29  32
HETATM   32  O3  UNL     1      15.639   8.535  20.727  1.00  0.00    -0.296 OA
BRANCH  32  33
HETATM   33  C16 UNL     1      15.685   7.179  21.158  1.00  0.00     0.159 C 
HETATM   34  C17 UNL     1      14.405   6.447  20.806  1.00  0.00     0.061 C 
HETATM   35  C18 UNL     1      14.810   5.513  19.699  1.00  0.00     0.170 C 
HETATM   36  O4  UNL     1      16.124   5.185  20.070  1.00  0.00    -0.389 OA
HETATM   37  C19 UNL     1      16.701   6.444  20.317  1.00  0.00     0.200 C 
ENDBRANCH  32  33
ENDBRANCH  29  32
ENDBRANCH  20  28
ENDBRANCH   1  20
TORSDOF 13
ENDMDL
