MODEL 1
REMARK VINA RESULT: -9.029558044      0.000      0.000
REMARK  13 active torsions:
REMARK  status: ('A' for Active; 'I' for Inactive)
REMARK    1  A    between atoms: C2_2  and  C4_4 
REMARK    2  A    between atoms: C4_4  and  N1_5 
REMARK    3  A    between atoms: N1_5  and  C5_6 
REMARK    4  A    between atoms: N1_5  and  S1_28 
REMARK    5  A    between atoms: C5_6  and  C6_7 
REMARK    6  A    between atoms: C6_7  and  O1_8 
REMARK    7  A    between atoms: C6_7  and  C7_10 
REMARK    8  A    between atoms: C7_10  and  C8_11 
REMARK    9  A    between atoms: C7_10  and  N2_18 
REMARK   10  A    between atoms: C8_11  and  C9_12 
REMARK       I    between atoms: N2_18  and  C15_20 
REMARK   11  A    between atoms: C15_20  and  O3_22 
REMARK   12  A    between atoms: O3_22  and  C16_23 
REMARK   13  A    between atoms: S1_28  and  C20_31 
ROOT
HETATM    1  C6  UNL     1      21.257   9.739  17.120  1.00  0.00     0.160 C 
ENDROOT
BRANCH   1   2
HETATM    2  C5  UNL     1      20.345   8.895  17.927  1.00  0.00     0.174 C 
BRANCH   2   3
HETATM    3  N1  UNL     1      20.226   9.155  19.311  1.00  0.00    -0.283 N 
BRANCH   3   4
HETATM    4  C4  UNL     1      20.995   8.366  20.187  1.00  0.00     0.080 C 
BRANCH   4   5
HETATM    5  C2  UNL     1      22.106   9.074  20.916  1.00  0.00     0.017 C 
HETATM    6  C1  UNL     1      23.322   9.364  20.109  1.00  0.00     0.015 C 
HETATM    7  C3  UNL     1      22.434   8.379  22.228  1.00  0.00     0.015 C 
ENDBRANCH   4   5
ENDBRANCH   3   4
BRANCH   3   8
HETATM    8  S1  UNL     1      18.665   9.451  19.863  1.00  0.00     0.264 S 
HETATM    9  O5  UNL     1      18.691  10.050  21.248  1.00  0.00    -0.200 OA
HETATM   10  O6  UNL     1      18.019  10.540  18.985  1.00  0.00    -0.200 OA
BRANCH   8  11
HETATM   11  C20 UNL     1      17.592   8.070  19.870  1.00  0.00     0.080 A 
HETATM   12  C21 UNL     1      17.956   6.823  20.320  1.00  0.00     0.027 A 
HETATM   13  C22 UNL     1      17.053   5.762  20.315  1.00  0.00     0.028 A 
HETATM   14  C23 UNL     1      15.759   5.909  19.862  1.00  0.00     0.046 A 
HETATM   15  N3  UNL     1      14.854   4.809  19.866  1.00  0.00    -0.102 NA
HETATM   16  C24 UNL     1      15.390   7.158  19.409  1.00  0.00     0.028 A 
HETATM   17  C25 UNL     1      16.279   8.211  19.412  1.00  0.00     0.027 A 
ENDBRANCH   8  11
ENDBRANCH   3   8
ENDBRANCH   2   3
ENDBRANCH   1   2
BRANCH   1  18
HETATM   18  O1  UNL     1      21.187   9.547  15.754  1.00  0.00    -0.392 OA
ATOM     19  H1  UNL     1      20.318   9.619  15.377  1.00  0.00     0.210 HD
ENDBRANCH   1  18
BRANCH   1  20
HETATM   20  C7  UNL     1      20.999  11.242  17.363  1.00  0.00     0.121 C 
BRANCH  20  21
HETATM   21  C8  UNL     1      20.069  11.720  16.277  1.00  0.00     0.066 C 
BRANCH  21  22
HETATM   22  C9  UNL     1      19.792  13.183  16.407  1.00  0.00    -0.056 A 
HETATM   23  C10 UNL     1      18.860  13.649  17.304  1.00  0.00     0.007 A 
HETATM   24  C11 UNL     1      18.603  15.019  17.423  1.00  0.00     0.001 A 
HETATM   25  C12 UNL     1      19.293  15.902  16.632  1.00  0.00     0.000 A 
HETATM   26  C13 UNL     1      20.226  15.464  15.731  1.00  0.00     0.001 A 
HETATM   27  C14 UNL     1      20.462  14.104  15.633  1.00  0.00     0.007 A 
ENDBRANCH  21  22
ENDBRANCH  20  21
BRANCH  20  28
HETATM   28  N2  UNL     1      22.299  11.866  17.061  1.00  0.00    -0.329 N 
HETATM   29  C15 UNL     1      23.020  12.549  18.058  1.00  0.00     0.361 C 
HETATM   30  O2  UNL     1      22.509  12.607  19.208  1.00  0.00    -0.238 OA
ATOM     31  H2  UNL     1      22.680  11.802  16.117  1.00  0.00     0.165 HD
BRANCH  29  32
HETATM   32  O3  UNL     1      24.259  13.158  17.837  1.00  0.00    -0.296 OA
BRANCH  32  33
HETATM   33  C16 UNL     1      24.835  13.163  16.535  1.00  0.00     0.159 C 
HETATM   34  C17 UNL     1      24.430  14.401  15.760  1.00  0.00     0.061 C 
HETATM   35  C18 UNL     1      25.688  15.223  15.699  1.00  0.00     0.170 C 
HETATM   36  O4  UNL     1      26.675  14.228  15.621  1.00  0.00    -0.389 OA
HETATM   37  C19 UNL     1      26.326  13.362  16.673  1.00  0.00     0.200 C 
ENDBRANCH  32  33
ENDBRANCH  29  32
ENDBRANCH  20  28
ENDBRANCH   1  20
TORSDOF 13
ENDMDL
