MODEL 7
REMARK VINA RESULT: -8.578691374      1.042      1.622
REMARK  13 active torsions:
REMARK  status: ('A' for Active; 'I' for Inactive)
REMARK    1  A    between atoms: C2_2  and  C4_4 
REMARK    2  A    between atoms: C4_4  and  N1_5 
REMARK    3  A    between atoms: N1_5  and  C5_6 
REMARK    4  A    between atoms: N1_5  and  S1_28 
REMARK    5  A    between atoms: C5_6  and  C6_7 
REMARK    6  A    between atoms: C6_7  and  O1_8 
REMARK    7  A    between atoms: C6_7  and  C7_10 
REMARK    8  A    between atoms: C7_10  and  C8_11 
REMARK    9  A    between atoms: C7_10  and  N2_18 
REMARK   10  A    between atoms: C8_11  and  C9_12 
REMARK       I    between atoms: N2_18  and  C15_20 
REMARK   11  A    between atoms: C15_20  and  O3_22 
REMARK   12  A    between atoms: O3_22  and  C16_23 
REMARK   13  A    between atoms: S1_28  and  C20_31 
ROOT
HETATM    1  C6  UNL     1      21.496   9.587  17.435  1.00  0.00     0.160 C 
ENDROOT
BRANCH   1   2
HETATM    2  C5  UNL     1      20.942   8.782  18.549  1.00  0.00     0.174 C 
BRANCH   2   3
HETATM    3  N1  UNL     1      20.037   9.395  19.444  1.00  0.00    -0.283 N 
BRANCH   3   4
HETATM    4  C4  UNL     1      20.321   9.300  20.819  1.00  0.00     0.080 C 
BRANCH   4   5
HETATM    5  C2  UNL     1      21.333   8.258  21.217  1.00  0.00     0.017 C 
HETATM    6  C1  UNL     1      20.814   7.152  22.068  1.00  0.00     0.015 C 
HETATM    7  C3  UNL     1      22.583   8.899  21.799  1.00  0.00     0.015 C 
ENDBRANCH   4   5
ENDBRANCH   3   4
BRANCH   3   8
HETATM    8  S1  UNL     1      18.407   9.200  19.076  1.00  0.00     0.264 S 
HETATM    9  O5  UNL     1      17.706  10.535  19.021  1.00  0.00    -0.200 OA
HETATM   10  O6  UNL     1      18.277   8.638  17.648  1.00  0.00    -0.200 OA
BRANCH   8  11
HETATM   11  C20 UNL     1      17.513   8.142  20.145  1.00  0.00     0.080 A 
HETATM   12  C21 UNL     1      16.632   8.591  21.102  1.00  0.00     0.027 A 
HETATM   13  C22 UNL     1      15.936   7.701  21.916  1.00  0.00     0.028 A 
HETATM   14  C23 UNL     1      16.094   6.335  21.804  1.00  0.00     0.046 A 
HETATM   15  N3  UNL     1      15.372   5.445  22.649  1.00  0.00    -0.102 NA
HETATM   16  C24 UNL     1      16.976   5.882  20.846  1.00  0.00     0.028 A 
HETATM   17  C25 UNL     1      17.667   6.758  20.038  1.00  0.00     0.027 A 
ENDBRANCH   8  11
ENDBRANCH   3   8
ENDBRANCH   2   3
ENDBRANCH   1   2
BRANCH   1  18
HETATM   18  O1  UNL     1      21.061   9.230  16.173  1.00  0.00    -0.392 OA
ATOM     19  H1  UNL     1      21.742   9.144  15.517  1.00  0.00     0.210 HD
ENDBRANCH   1  18
BRANCH   1  20
HETATM   20  C7  UNL     1      21.168  11.085  17.603  1.00  0.00     0.121 C 
BRANCH  20  21
HETATM   21  C8  UNL     1      20.184  11.455  16.522  1.00  0.00     0.066 C 
BRANCH  21  22
HETATM   22  C9  UNL     1      19.862  12.914  16.558  1.00  0.00    -0.056 A 
HETATM   23  C10 UNL     1      20.528  13.804  15.748  1.00  0.00     0.007 A 
HETATM   24  C11 UNL     1      20.226  15.169  15.783  1.00  0.00     0.001 A 
HETATM   25  C12 UNL     1      19.251  15.618  16.639  1.00  0.00     0.000 A 
HETATM   26  C13 UNL     1      18.575  14.753  17.455  1.00  0.00     0.001 A 
HETATM   27  C14 UNL     1      18.892  13.407  17.401  1.00  0.00     0.007 A 
ENDBRANCH  21  22
ENDBRANCH  20  21
BRANCH  20  28
HETATM   28  N2  UNL     1      22.424  11.756  17.226  1.00  0.00    -0.329 N 
HETATM   29  C15 UNL     1      23.128  12.546  18.155  1.00  0.00     0.361 C 
HETATM   30  O2  UNL     1      22.638  12.657  19.311  1.00  0.00    -0.238 OA
ATOM     31  H2  UNL     1      22.789  11.647  16.279  1.00  0.00     0.165 HD
BRANCH  29  32
HETATM   32  O3  UNL     1      24.325  13.204  17.862  1.00  0.00    -0.296 OA
BRANCH  32  33
HETATM   33  C16 UNL     1      24.801  13.267  16.521  1.00  0.00     0.159 C 
HETATM   34  C17 UNL     1      24.373  14.556  15.847  1.00  0.00     0.061 C 
HETATM   35  C18 UNL     1      25.646  15.350  15.733  1.00  0.00     0.170 C 
HETATM   36  O4  UNL     1      26.595  14.336  15.526  1.00  0.00    -0.389 OA
HETATM   37  C19 UNL     1      26.303  13.421  16.553  1.00  0.00     0.200 C 
ENDBRANCH  32  33
ENDBRANCH  29  32
ENDBRANCH  20  28
ENDBRANCH   1  20
TORSDOF 13
ENDMDL
