MODEL 12
REMARK VINA RESULT: -8.440655565      1.437      1.749
REMARK  13 active torsions:
REMARK  status: ('A' for Active; 'I' for Inactive)
REMARK    1  A    between atoms: C2_2  and  C4_4 
REMARK    2  A    between atoms: C4_4  and  N1_5 
REMARK    3  A    between atoms: N1_5  and  C5_6 
REMARK    4  A    between atoms: N1_5  and  S1_28 
REMARK    5  A    between atoms: C5_6  and  C6_7 
REMARK    6  A    between atoms: C6_7  and  O1_8 
REMARK    7  A    between atoms: C6_7  and  C7_10 
REMARK    8  A    between atoms: C7_10  and  C8_11 
REMARK    9  A    between atoms: C7_10  and  N2_18 
REMARK   10  A    between atoms: C8_11  and  C9_12 
REMARK       I    between atoms: N2_18  and  C15_20 
REMARK   11  A    between atoms: C15_20  and  O3_22 
REMARK   12  A    between atoms: O3_22  and  C16_23 
REMARK   13  A    between atoms: S1_28  and  C20_31 
ROOT
HETATM    1  C6  UNL     1      20.522   9.116  17.891  1.00  0.00     0.160 C 
ENDROOT
BRANCH   1   2
HETATM    2  C5  UNL     1      19.181   8.679  18.346  1.00  0.00     0.174 C 
BRANCH   2   3
HETATM    3  N1  UNL     1      19.022   8.259  19.686  1.00  0.00    -0.283 N 
BRANCH   3   4
HETATM    4  C4  UNL     1      19.679   7.078  20.076  1.00  0.00     0.080 C 
BRANCH   4   5
HETATM    5  C2  UNL     1      20.871   7.249  20.981  1.00  0.00     0.017 C 
HETATM    6  C1  UNL     1      22.123   6.583  20.528  1.00  0.00     0.015 C 
HETATM    7  C3  UNL     1      20.521   6.907  22.421  1.00  0.00     0.015 C 
ENDBRANCH   4   5
ENDBRANCH   3   4
BRANCH   3   8
HETATM    8  S1  UNL     1      17.469   8.408  20.314  1.00  0.00     0.264 S 
HETATM    9  O5  UNL     1      17.421   9.479  21.375  1.00  0.00    -0.200 OA
HETATM   10  O6  UNL     1      16.526   8.918  19.209  1.00  0.00    -0.200 OA
BRANCH   8  11
HETATM   11  C20 UNL     1      16.775   6.941  20.967  1.00  0.00     0.080 A 
HETATM   12  C21 UNL     1      16.780   6.625  22.306  1.00  0.00     0.027 A 
HETATM   13  C22 UNL     1      16.198   5.448  22.771  1.00  0.00     0.028 A 
HETATM   14  C23 UNL     1      15.593   4.547  21.918  1.00  0.00     0.046 A 
HETATM   15  N3  UNL     1      15.006   3.350  22.418  1.00  0.00    -0.102 NA
HETATM   16  C24 UNL     1      15.586   4.862  20.576  1.00  0.00     0.028 A 
HETATM   17  C25 UNL     1      16.160   6.024  20.110  1.00  0.00     0.027 A 
ENDBRANCH   8  11
ENDBRANCH   3   8
ENDBRANCH   2   3
ENDBRANCH   1   2
BRANCH   1  18
HETATM   18  O1  UNL     1      20.901   8.659  16.643  1.00  0.00    -0.392 OA
ATOM     19  H1  UNL     1      21.449   9.251  16.142  1.00  0.00     0.210 HD
ENDBRANCH   1  18
BRANCH   1  20
HETATM   20  C7  UNL     1      20.629  10.655  17.842  1.00  0.00     0.121 C 
BRANCH  20  21
HETATM   21  C8  UNL     1      19.830  11.125  16.654  1.00  0.00     0.066 C 
BRANCH  21  22
HETATM   22  C9  UNL     1      19.612  12.603  16.698  1.00  0.00    -0.056 A 
HETATM   23  C10 UNL     1      18.644  13.150  17.507  1.00  0.00     0.007 A 
HETATM   24  C11 UNL     1      18.441  14.533  17.547  1.00  0.00     0.001 A 
HETATM   25  C12 UNL     1      19.222  15.348  16.767  1.00  0.00     0.000 A 
HETATM   26  C13 UNL     1      20.192  14.829  15.953  1.00  0.00     0.001 A 
HETATM   27  C14 UNL     1      20.373  13.457  15.932  1.00  0.00     0.007 A 
ENDBRANCH  21  22
ENDBRANCH  20  21
BRANCH  20  28
HETATM   28  N2  UNL     1      22.037  10.889  17.479  1.00  0.00    -0.329 N 
HETATM   29  C15 UNL     1      22.837  11.777  18.224  1.00  0.00     0.361 C 
HETATM   30  O2  UNL     1      22.299  12.360  19.203  1.00  0.00    -0.238 OA
ATOM     31  H2  UNL     1      22.438  10.403  16.677  1.00  0.00     0.165 HD
BRANCH  29  32
HETATM   32  O3  UNL     1      24.178  12.040  17.934  1.00  0.00    -0.296 OA
BRANCH  32  33
HETATM   33  C16 UNL     1      24.594  13.357  17.588  1.00  0.00     0.159 C 
HETATM   34  C17 UNL     1      26.103  13.493  17.658  1.00  0.00     0.061 C 
HETATM   35  C18 UNL     1      26.529  13.593  16.219  1.00  0.00     0.170 C 
HETATM   36  O4  UNL     1      25.451  14.290  15.651  1.00  0.00    -0.389 OA
HETATM   37  C19 UNL     1      24.336  13.568  16.115  1.00  0.00     0.200 C 
ENDBRANCH  32  33
ENDBRANCH  29  32
ENDBRANCH  20  28
ENDBRANCH   1  20
TORSDOF 13
ENDMDL
