MODEL 3
REMARK VINA RESULT: -8.788361167      2.675      9.100
REMARK  13 active torsions:
REMARK  status: ('A' for Active; 'I' for Inactive)
REMARK    1  A    between atoms: C2_2  and  C4_4 
REMARK    2  A    between atoms: C4_4  and  N1_5 
REMARK    3  A    between atoms: N1_5  and  C5_6 
REMARK    4  A    between atoms: N1_5  and  S1_28 
REMARK    5  A    between atoms: C5_6  and  C6_7 
REMARK    6  A    between atoms: C6_7  and  O1_8 
REMARK    7  A    between atoms: C6_7  and  C7_10 
REMARK    8  A    between atoms: C7_10  and  C8_11 
REMARK    9  A    between atoms: C7_10  and  N2_18 
REMARK   10  A    between atoms: C8_11  and  C9_12 
REMARK       I    between atoms: N2_18  and  C15_20 
REMARK   11  A    between atoms: C15_20  and  O3_22 
REMARK   12  A    between atoms: O3_22  and  C16_23 
REMARK   13  A    between atoms: S1_28  and  C20_31 
ROOT
HETATM    1  C6  UNL     1      19.054  10.483  18.379  1.00  0.00     0.160 C 
ENDROOT
BRANCH   1   2
HETATM    2  C5  UNL     1      19.695  11.762  18.763  1.00  0.00     0.174 C 
BRANCH   2   3
HETATM    3  N1  UNL     1      20.450  12.461  17.794  1.00  0.00    -0.283 N 
BRANCH   3   4
HETATM    4  C4  UNL     1      21.664  13.037  18.211  1.00  0.00     0.080 C 
BRANCH   4   5
HETATM    5  C2  UNL     1      22.907  12.229  17.949  1.00  0.00     0.017 C 
HETATM    6  C1  UNL     1      24.142  13.017  17.682  1.00  0.00     0.015 C 
HETATM    7  C3  UNL     1      22.660  11.165  16.892  1.00  0.00     0.015 C 
ENDBRANCH   4   5
ENDBRANCH   3   4
BRANCH   3   8
HETATM    8  S1  UNL     1      19.564  13.435  16.747  1.00  0.00     0.264 S 
HETATM    9  O5  UNL     1      19.151  12.663  15.519  1.00  0.00    -0.200 OA
HETATM   10  O6  UNL     1      18.236  13.823  17.423  1.00  0.00    -0.200 OA
BRANCH   8  11
HETATM   11  C20 UNL     1      20.352  14.912  16.241  1.00  0.00     0.080 A 
HETATM   12  C21 UNL     1      21.475  14.945  15.447  1.00  0.00     0.027 A 
HETATM   13  C22 UNL     1      22.052  16.153  15.063  1.00  0.00     0.028 A 
HETATM   14  C23 UNL     1      21.530  17.367  15.456  1.00  0.00     0.046 A 
HETATM   15  N3  UNL     1      22.138  18.590  15.051  1.00  0.00    -0.102 NA
HETATM   16  C24 UNL     1      20.404  17.338  16.251  1.00  0.00     0.028 A 
HETATM   17  C25 UNL     1      19.829  16.146  16.634  1.00  0.00     0.027 A 
ENDBRANCH   8  11
ENDBRANCH   3   8
ENDBRANCH   2   3
ENDBRANCH   1   2
BRANCH   1  18
HETATM   18  O1  UNL     1      19.340  10.037  17.102  1.00  0.00    -0.392 OA
ATOM     19  H1  UNL     1      18.793   9.328  16.787  1.00  0.00     0.210 HD
ENDBRANCH   1  18
BRANCH   1  20
HETATM   20  C7  UNL     1      19.452   9.341  19.338  1.00  0.00     0.121 C 
BRANCH  20  21
HETATM   21  C8  UNL     1      20.548   8.551  18.670  1.00  0.00     0.066 C 
BRANCH  21  22
HETATM   22  C9  UNL     1      21.661   8.254  19.622  1.00  0.00    -0.056 A 
HETATM   23  C10 UNL     1      21.978   6.959  19.956  1.00  0.00     0.007 A 
HETATM   24  C11 UNL     1      23.020   6.683  20.848  1.00  0.00     0.001 A 
HETATM   25  C12 UNL     1      23.729   7.724  21.391  1.00  0.00     0.000 A 
HETATM   26  C13 UNL     1      23.434   9.022  21.075  1.00  0.00     0.001 A 
HETATM   27  C14 UNL     1      22.399   9.268  20.190  1.00  0.00     0.007 A 
ENDBRANCH  21  22
ENDBRANCH  20  21
BRANCH  20  28
HETATM   28  N2  UNL     1      18.275   8.456  19.325  1.00  0.00    -0.329 N 
HETATM   29  C15 UNL     1      17.303   8.532  20.341  1.00  0.00     0.361 C 
HETATM   30  O2  UNL     1      17.485   9.379  21.256  1.00  0.00    -0.238 OA
ATOM     31  H2  UNL     1      18.162   7.779  18.570  1.00  0.00     0.165 HD
BRANCH  29  32
HETATM   32  O3  UNL     1      16.163   7.725  20.384  1.00  0.00    -0.296 OA
BRANCH  32  33
HETATM   33  C16 UNL     1      16.172   6.435  19.779  1.00  0.00     0.159 C 
HETATM   34  C17 UNL     1      16.858   5.417  20.669  1.00  0.00     0.061 C 
HETATM   35  C18 UNL     1      15.735   4.549  21.166  1.00  0.00     0.170 C 
HETATM   36  O4  UNL     1      14.869   4.544  20.061  1.00  0.00    -0.389 OA
HETATM   37  C19 UNL     1      14.757   5.911  19.749  1.00  0.00     0.200 C 
ENDBRANCH  32  33
ENDBRANCH  29  32
ENDBRANCH  20  28
ENDBRANCH   1  20
TORSDOF 13
ENDMDL
