MODEL 4
REMARK VINA RESULT: -8.712756747      2.657      5.036
REMARK  13 active torsions:
REMARK  status: ('A' for Active; 'I' for Inactive)
REMARK    1  A    between atoms: C2_2  and  C4_4 
REMARK    2  A    between atoms: C4_4  and  N1_5 
REMARK    3  A    between atoms: N1_5  and  C5_6 
REMARK    4  A    between atoms: N1_5  and  S1_28 
REMARK    5  A    between atoms: C5_6  and  C6_7 
REMARK    6  A    between atoms: C6_7  and  O1_8 
REMARK    7  A    between atoms: C6_7  and  C7_10 
REMARK    8  A    between atoms: C7_10  and  C8_11 
REMARK    9  A    between atoms: C7_10  and  N2_18 
REMARK   10  A    between atoms: C8_11  and  C9_12 
REMARK       I    between atoms: N2_18  and  C15_20 
REMARK   11  A    between atoms: C15_20  and  O3_22 
REMARK   12  A    between atoms: O3_22  and  C16_23 
REMARK   13  A    between atoms: S1_28  and  C20_31 
ROOT
HETATM    1  C6  UNL     1      20.060   8.353  17.989  1.00  0.00     0.160 C 
ENDROOT
BRANCH   1   2
HETATM    2  C5  UNL     1      20.915   7.615  18.947  1.00  0.00     0.174 C 
BRANCH   2   3
HETATM    3  N1  UNL     1      20.820   7.928  20.322  1.00  0.00    -0.283 N 
BRANCH   3   4
HETATM    4  C4  UNL     1      21.541   9.045  20.784  1.00  0.00     0.080 C 
BRANCH   4   5
HETATM    5  C2  UNL     1      22.903   9.254  20.175  1.00  0.00     0.017 C 
HETATM    6  C1  UNL     1      24.057   8.904  21.049  1.00  0.00     0.015 C 
HETATM    7  C3  UNL     1      23.031  10.645  19.576  1.00  0.00     0.015 C 
ENDBRANCH   4   5
ENDBRANCH   3   4
BRANCH   3   8
HETATM    8  S1  UNL     1      20.866   6.614  21.371  1.00  0.00     0.264 S 
HETATM    9  O5  UNL     1      21.901   5.610  20.926  1.00  0.00    -0.200 OA
HETATM   10  O6  UNL     1      21.357   7.087  22.751  1.00  0.00    -0.200 OA
BRANCH   8  11
HETATM   11  C20 UNL     1      19.345   5.783  21.606  1.00  0.00     0.080 A 
HETATM   12  C21 UNL     1      18.793   5.536  22.843  1.00  0.00     0.027 A 
HETATM   13  C22 UNL     1      17.571   4.882  22.969  1.00  0.00     0.028 A 
HETATM   14  C23 UNL     1      16.857   4.451  21.870  1.00  0.00     0.046 A 
HETATM   15  N3  UNL     1      15.609   3.783  22.025  1.00  0.00    -0.102 NA
HETATM   16  C24 UNL     1      17.407   4.696  20.630  1.00  0.00     0.028 A 
HETATM   17  C25 UNL     1      18.616   5.343  20.498  1.00  0.00     0.027 A 
ENDBRANCH   8  11
ENDBRANCH   3   8
ENDBRANCH   2   3
ENDBRANCH   1   2
BRANCH   1  18
HETATM   18  O1  UNL     1      19.272   7.565  17.171  1.00  0.00    -0.392 OA
ATOM     19  H1  UNL     1      19.547   6.659  17.091  1.00  0.00     0.210 HD
ENDBRANCH   1  18
BRANCH   1  20
HETATM   20  C7  UNL     1      19.102   9.321  18.715  1.00  0.00     0.121 C 
BRANCH  20  21
HETATM   21  C8  UNL     1      17.704   9.007  18.247  1.00  0.00     0.066 C 
BRANCH  21  22
HETATM   22  C9  UNL     1      16.854   8.513  19.373  1.00  0.00    -0.056 A 
HETATM   23  C10 UNL     1      15.772   7.698  19.137  1.00  0.00     0.007 A 
HETATM   24  C11 UNL     1      14.978   7.237  20.192  1.00  0.00     0.001 A 
HETATM   25  C12 UNL     1      15.290   7.606  21.476  1.00  0.00     0.000 A 
HETATM   26  C13 UNL     1      16.361   8.416  21.738  1.00  0.00     0.001 A 
HETATM   27  C14 UNL     1      17.131   8.859  20.677  1.00  0.00     0.007 A 
ENDBRANCH  21  22
ENDBRANCH  20  21
BRANCH  20  28
HETATM   28  N2  UNL     1      19.422  10.630  18.120  1.00  0.00    -0.329 N 
HETATM   29  C15 UNL     1      19.706  11.743  18.935  1.00  0.00     0.361 C 
HETATM   30  O2  UNL     1      19.671  11.572  20.183  1.00  0.00    -0.238 OA
ATOM     31  H2  UNL     1      19.438  10.732  17.106  1.00  0.00     0.165 HD
BRANCH  29  32
HETATM   32  O3  UNL     1      20.022  13.009  18.435  1.00  0.00    -0.296 OA
BRANCH  32  33
HETATM   33  C16 UNL     1      19.485  13.443  17.189  1.00  0.00     0.159 C 
HETATM   34  C17 UNL     1      18.665  14.707  17.355  1.00  0.00     0.061 C 
HETATM   35  C18 UNL     1      19.508  15.777  16.716  1.00  0.00     0.170 C 
HETATM   36  O4  UNL     1      20.121  15.069  15.671  1.00  0.00    -0.389 OA
HETATM   37  C19 UNL     1      20.623  13.927  16.321  1.00  0.00     0.200 C 
ENDBRANCH  32  33
ENDBRANCH  29  32
ENDBRANCH  20  28
ENDBRANCH   1  20
TORSDOF 13
ENDMDL
