MODEL 2
REMARK VINA RESULT: -9.796659108      2.312      7.001
REMARK  13 active torsions:
REMARK  status: ('A' for Active; 'I' for Inactive)
REMARK    1  A    between atoms: C2_2  and  C4_4 
REMARK    2  A    between atoms: C4_4  and  N1_5 
REMARK    3  A    between atoms: N1_5  and  C5_6 
REMARK    4  A    between atoms: N1_5  and  S1_31 
REMARK    5  A    between atoms: C5_6  and  C6_7 
REMARK    6  A    between atoms: C6_7  and  O1_8 
REMARK    7  A    between atoms: C6_7  and  C7_10 
REMARK    8  A    between atoms: C7_10  and  C8_11 
REMARK    9  A    between atoms: C7_10  and  N2_18 
REMARK   10  A    between atoms: C8_11  and  C9_12 
REMARK       I    between atoms: N2_18  and  C15_20 
REMARK   11  A    between atoms: C15_20  and  O3_22 
REMARK   12  A    between atoms: O3_22  and  C16_23 
REMARK   13  A    between atoms: S1_31  and  C22_34 
ROOT
HETATM    1  C7  UNL     1      18.618  24.868  16.156  1.00  0.00     0.029 C 
ENDROOT
BRANCH   1   2
HETATM    2  C6  UNL     1      17.196  24.690  16.625  1.00  0.00     0.203 C 
BRANCH   2   3
HETATM    3  C5  UNL     1      16.965  23.543  17.522  1.00  0.00     0.119 C 
BRANCH   3   4
HETATM    4  N1  UNL     1      16.694  22.299  16.937  1.00  0.00    -0.262 N 
BRANCH   4   5
HETATM    5  C4  UNL     1      16.513  22.152  15.560  1.00  0.00     0.085 C 
BRANCH   5   6
HETATM    6  C2  UNL     1      15.148  21.632  15.127  1.00  0.00     0.017 C 
HETATM    7  C1  UNL     1      14.012  22.527  15.532  1.00  0.00     0.015 C 
HETATM    8  C3  UNL     1      15.096  21.372  13.640  1.00  0.00     0.015 C 
ENDBRANCH   5   6
ENDBRANCH   4   5
BRANCH   4   9
HETATM    9  S1  UNL     1      17.185  20.959  17.841  1.00  0.00     0.267 S 
HETATM   10  O6  UNL     1      17.711  19.909  16.873  1.00  0.00    -0.200 OA
HETATM   11  O7  UNL     1      18.293  21.302  18.828  1.00  0.00    -0.200 OA
BRANCH   9  12
HETATM   12  C22 UNL     1      15.885  20.211  18.761  1.00  0.00     0.080 A 
HETATM   13  C23 UNL     1      15.546  20.597  20.040  1.00  0.00     0.027 A 
HETATM   14  C24 UNL     1      14.523  19.991  20.746  1.00  0.00     0.028 A 
HETATM   15  C25 UNL     1      13.794  18.963  20.187  1.00  0.00     0.046 A 
HETATM   16  N3  UNL     1      12.728  18.330  20.919  1.00  0.00    -0.102 NA
HETATM   17  C26 UNL     1      14.119  18.565  18.910  1.00  0.00     0.028 A 
HETATM   18  C27 UNL     1      15.139  19.172  18.212  1.00  0.00     0.027 A 
ENDBRANCH   9  12
ENDBRANCH   4   9
ENDBRANCH   3   4
ENDBRANCH   2   3
BRANCH   2  19
HETATM   19  O1  UNL     1      16.880  25.872  17.337  1.00  0.00    -0.385 OA
ATOM     20  H1  UNL     1      17.357  26.590  16.938  1.00  0.00     0.211 HD
ENDBRANCH   2  19
ENDBRANCH   1   2
BRANCH   1  21
HETATM   21  C8  UNL     1      18.770  24.718  14.668  1.00  0.00     0.094 C 
BRANCH  21  22
HETATM   22  C9  UNL     1      19.513  25.786  13.998  1.00  0.00    -0.053 A 
HETATM   23  C10 UNL     1      19.630  27.022  14.635  1.00  0.00     0.007 A 
HETATM   24  C11 UNL     1      20.273  28.102  14.094  1.00  0.00     0.001 A 
HETATM   25  C12 UNL     1      20.845  27.971  12.841  1.00  0.00     0.000 A 
HETATM   26  C13 UNL     1      20.756  26.774  12.175  1.00  0.00     0.001 A 
HETATM   27  C14 UNL     1      20.086  25.691  12.768  1.00  0.00     0.007 A 
ENDBRANCH  21  22
ENDBRANCH   1  21
BRANCH   1  28
HETATM   28  N2  UNL     1      19.609  24.316  16.992  1.00  0.00    -0.307 N 
HETATM   29  C15 UNL     1      20.413  25.051  17.898  1.00  0.00     0.365 C 
HETATM   30  O2  UNL     1      20.275  26.276  17.991  1.00  0.00    -0.238 OA
ATOM     31  H2  UNL     1      19.758  23.308  16.941  1.00  0.00     0.170 HD
BRANCH  29  32
HETATM   32  O3  UNL     1      21.368  24.412  18.694  1.00  0.00    -0.296 OA
BRANCH  32  33
HETATM   33  C16 UNL     1      21.392  24.587  20.102  1.00  0.00     0.166 C 
HETATM   34  C17 UNL     1      21.772  23.334  20.819  1.00  0.00     0.204 C 
HETATM   35  O4  UNL     1      22.669  23.636  21.809  1.00  0.00    -0.358 OA
HETATM   36  C18 UNL     1      22.914  24.999  21.808  1.00  0.00     0.266 C 
HETATM   37  O5  UNL     1      24.263  25.307  21.935  1.00  0.00    -0.361 OA
HETATM   38  C21 UNL     1      22.562  25.495  20.420  1.00  0.00     0.075 C 
HETATM   39  C19 UNL     1      24.882  25.088  20.728  1.00  0.00     0.171 C 
HETATM   40  C20 UNL     1      23.799  25.172  19.647  1.00  0.00     0.038 C 
ENDBRANCH  32  33
ENDBRANCH  29  32
ENDBRANCH   1  28
TORSDOF 13
ENDMDL
