MODEL 1
REMARK VINA RESULT: -9.806461169      0.000      0.000
REMARK  13 active torsions:
REMARK  status: ('A' for Active; 'I' for Inactive)
REMARK    1  A    between atoms: C2_2  and  C4_4 
REMARK    2  A    between atoms: C4_4  and  N1_5 
REMARK    3  A    between atoms: N1_5  and  C5_6 
REMARK    4  A    between atoms: N1_5  and  S1_31 
REMARK    5  A    between atoms: C5_6  and  C6_7 
REMARK    6  A    between atoms: C6_7  and  O1_8 
REMARK    7  A    between atoms: C6_7  and  C7_10 
REMARK    8  A    between atoms: C7_10  and  C8_11 
REMARK    9  A    between atoms: C7_10  and  N2_18 
REMARK   10  A    between atoms: C8_11  and  C9_12 
REMARK       I    between atoms: N2_18  and  C15_20 
REMARK   11  A    between atoms: C15_20  and  O3_22 
REMARK   12  A    between atoms: O3_22  and  C16_23 
REMARK   13  A    between atoms: S1_31  and  C22_34 
ROOT
HETATM    1  C7  UNL     1      17.269  24.746  16.033  1.00  0.00     0.029 C 
ENDROOT
BRANCH   1   2
HETATM    2  C6  UNL     1      17.902  25.110  17.352  1.00  0.00     0.203 C 
BRANCH   2   3
HETATM    3  C5  UNL     1      17.438  24.332  18.514  1.00  0.00     0.119 C 
BRANCH   3   4
HETATM    4  N1  UNL     1      18.382  23.557  19.201  1.00  0.00    -0.262 N 
BRANCH   4   5
HETATM    5  C4  UNL     1      18.920  23.959  20.425  1.00  0.00     0.085 C 
BRANCH   5   6
HETATM    6  C2  UNL     1      20.346  24.494  20.374  1.00  0.00     0.017 C 
HETATM    7  C1  UNL     1      20.557  25.715  21.222  1.00  0.00     0.015 C 
HETATM    8  C3  UNL     1      21.355  23.430  20.739  1.00  0.00     0.015 C 
ENDBRANCH   5   6
ENDBRANCH   4   5
BRANCH   4   9
HETATM    9  S1  UNL     1      18.378  21.912  18.815  1.00  0.00     0.267 S 
HETATM   10  O6  UNL     1      18.717  21.778  17.338  1.00  0.00    -0.200 OA
HETATM   11  O7  UNL     1      19.407  21.128  19.618  1.00  0.00    -0.200 OA
BRANCH   9  12
HETATM   12  C22 UNL     1      16.822  21.130  19.063  1.00  0.00     0.080 A 
HETATM   13  C23 UNL     1      15.965  21.461  20.091  1.00  0.00     0.027 A 
HETATM   14  C24 UNL     1      14.749  20.829  20.269  1.00  0.00     0.028 A 
HETATM   15  C25 UNL     1      14.341  19.830  19.411  1.00  0.00     0.046 A 
HETATM   16  N3  UNL     1      13.076  19.169  19.593  1.00  0.00    -0.102 NA
HETATM   17  C26 UNL     1      15.185  19.486  18.379  1.00  0.00     0.028 A 
HETATM   18  C27 UNL     1      16.395  20.120  18.207  1.00  0.00     0.027 A 
ENDBRANCH   9  12
ENDBRANCH   4   9
ENDBRANCH   3   4
ENDBRANCH   2   3
BRANCH   2  19
HETATM   19  O1  UNL     1      19.287  24.865  17.187  1.00  0.00    -0.385 OA
ATOM     20  H1  UNL     1      19.597  25.405  16.470  1.00  0.00     0.211 HD
ENDBRANCH   2  19
ENDBRANCH   1   2
BRANCH   1  21
HETATM   21  C8  UNL     1      17.231  25.892  15.061  1.00  0.00     0.094 C 
BRANCH  21  22
HETATM   22  C9  UNL     1      18.439  26.078  14.257  1.00  0.00    -0.053 A 
HETATM   23  C10 UNL     1      18.785  27.370  13.859  1.00  0.00     0.007 A 
HETATM   24  C11 UNL     1      19.873  27.664  13.081  1.00  0.00     0.001 A 
HETATM   25  C12 UNL     1      20.683  26.625  12.659  1.00  0.00     0.000 A 
HETATM   26  C13 UNL     1      20.382  25.336  13.025  1.00  0.00     0.001 A 
HETATM   27  C14 UNL     1      19.256  25.081  13.824  1.00  0.00     0.007 A 
ENDBRANCH  21  22
ENDBRANCH   1  21
BRANCH   1  28
HETATM   28  N2  UNL     1      16.149  23.894  16.111  1.00  0.00    -0.307 N 
HETATM   29  C15 UNL     1      15.970  22.712  15.350  1.00  0.00     0.365 C 
HETATM   30  O2  UNL     1      16.835  22.365  14.537  1.00  0.00    -0.238 OA
ATOM     31  H2  UNL     1      15.410  24.147  16.766  1.00  0.00     0.170 HD
BRANCH  29  32
HETATM   32  O3  UNL     1      14.825  21.924  15.502  1.00  0.00    -0.296 OA
BRANCH  32  33
HETATM   33  C16 UNL     1      13.947  21.681  14.414  1.00  0.00     0.166 C 
HETATM   34  C17 UNL     1      14.241  20.387  13.731  1.00  0.00     0.204 C 
HETATM   35  O4  UNL     1      13.065  19.733  13.477  1.00  0.00    -0.358 OA
HETATM   36  C18 UNL     1      12.005  20.498  13.938  1.00  0.00     0.266 C 
HETATM   37  O5  UNL     1      11.057  19.752  14.626  1.00  0.00    -0.361 OA
HETATM   38  C21 UNL     1      12.574  21.421  14.996  1.00  0.00     0.075 C 
HETATM   39  C19 UNL     1      11.540  19.474  15.882  1.00  0.00     0.171 C 
HETATM   40  C20 UNL     1      12.591  20.541  16.204  1.00  0.00     0.038 C 
ENDBRANCH  32  33
ENDBRANCH  29  32
ENDBRANCH   1  28
TORSDOF 13
ENDMDL
