MODEL 3
REMARK VINA RESULT: -9.771553410      0.745      1.268
REMARK  13 active torsions:
REMARK  status: ('A' for Active; 'I' for Inactive)
REMARK    1  A    between atoms: C2_2  and  C4_4 
REMARK    2  A    between atoms: C4_4  and  N1_5 
REMARK    3  A    between atoms: N1_5  and  C5_6 
REMARK    4  A    between atoms: N1_5  and  S1_31 
REMARK    5  A    between atoms: C5_6  and  C6_7 
REMARK    6  A    between atoms: C6_7  and  O1_8 
REMARK    7  A    between atoms: C6_7  and  C7_10 
REMARK    8  A    between atoms: C7_10  and  C8_11 
REMARK    9  A    between atoms: C7_10  and  N2_18 
REMARK   10  A    between atoms: C8_11  and  C9_12 
REMARK       I    between atoms: N2_18  and  C15_20 
REMARK   11  A    between atoms: C15_20  and  O3_22 
REMARK   12  A    between atoms: O3_22  and  C16_23 
REMARK   13  A    between atoms: S1_31  and  C22_34 
ROOT
HETATM    1  C7  UNL     1      17.083  24.397  16.356  1.00  0.00     0.029 C 
ENDROOT
BRANCH   1   2
HETATM    2  C6  UNL     1      17.325  25.026  17.705  1.00  0.00     0.203 C 
BRANCH   2   3
HETATM    3  C5  UNL     1      17.094  24.144  18.864  1.00  0.00     0.119 C 
BRANCH   3   4
HETATM    4  N1  UNL     1      18.192  23.445  19.382  1.00  0.00    -0.262 N 
BRANCH   4   5
HETATM    5  C4  UNL     1      18.850  23.854  20.543  1.00  0.00     0.085 C 
BRANCH   5   6
HETATM    6  C2  UNL     1      20.274  24.360  20.351  1.00  0.00     0.017 C 
HETATM    7  C1  UNL     1      20.543  25.666  21.044  1.00  0.00     0.015 C 
HETATM    8  C3  UNL     1      21.295  23.330  20.775  1.00  0.00     0.015 C 
ENDBRANCH   5   6
ENDBRANCH   4   5
BRANCH   4   9
HETATM    9  S1  UNL     1      18.295  21.824  18.916  1.00  0.00     0.267 S 
HETATM   10  O6  UNL     1      18.708  21.783  17.452  1.00  0.00    -0.200 OA
HETATM   11  O7  UNL     1      19.327  21.053  19.728  1.00  0.00    -0.200 OA
BRANCH   9  12
HETATM   12  C22 UNL     1      16.773  20.951  19.050  1.00  0.00     0.080 A 
HETATM   13  C23 UNL     1      16.380  19.976  18.158  1.00  0.00     0.027 A 
HETATM   14  C24 UNL     1      15.177  19.307  18.282  1.00  0.00     0.028 A 
HETATM   15  C25 UNL     1      14.313  19.594  19.317  1.00  0.00     0.046 A 
HETATM   16  N3  UNL     1      13.059  18.900  19.449  1.00  0.00    -0.102 NA
HETATM   17  C26 UNL     1      14.690  20.566  20.217  1.00  0.00     0.028 A 
HETATM   18  C27 UNL     1      15.890  21.228  20.089  1.00  0.00     0.027 A 
ENDBRANCH   9  12
ENDBRANCH   4   9
ENDBRANCH   3   4
ENDBRANCH   2   3
BRANCH   2  19
HETATM   19  O1  UNL     1      18.690  25.403  17.708  1.00  0.00    -0.385 OA
ATOM     20  H1  UNL     1      19.070  25.132  16.881  1.00  0.00     0.211 HD
ENDBRANCH   2  19
ENDBRANCH   1   2
BRANCH   1  21
HETATM   21  C8  UNL     1      17.045  25.402  15.237  1.00  0.00     0.094 C 
BRANCH  21  22
HETATM   22  C9  UNL     1      18.313  25.620  14.540  1.00  0.00    -0.053 A 
HETATM   23  C10 UNL     1      18.527  26.845  13.909  1.00  0.00     0.007 A 
HETATM   24  C11 UNL     1      19.658  27.153  13.202  1.00  0.00     0.001 A 
HETATM   25  C12 UNL     1      20.654  26.199  13.102  1.00  0.00     0.000 A 
HETATM   26  C13 UNL     1      20.489  24.977  13.707  1.00  0.00     0.001 A 
HETATM   27  C14 UNL     1      19.312  24.704  14.422  1.00  0.00     0.007 A 
ENDBRANCH  21  22
ENDBRANCH   1  21
BRANCH   1  28
HETATM   28  N2  UNL     1      16.158  23.334  16.335  1.00  0.00    -0.307 N 
HETATM   29  C15 UNL     1      16.036  22.381  15.294  1.00  0.00     0.365 C 
HETATM   30  O2  UNL     1      16.771  22.452  14.303  1.00  0.00    -0.238 OA
ATOM     31  H2  UNL     1      15.529  23.244  17.132  1.00  0.00     0.170 HD
BRANCH  29  32
HETATM   32  O3  UNL     1      15.090  21.354  15.367  1.00  0.00    -0.296 OA
BRANCH  32  33
HETATM   33  C16 UNL     1      13.744  21.615  15.729  1.00  0.00     0.166 C 
HETATM   34  C17 UNL     1      13.096  22.604  14.818  1.00  0.00     0.204 C 
HETATM   35  O4  UNL     1      11.837  22.169  14.501  1.00  0.00    -0.358 OA
HETATM   36  C18 UNL     1      11.594  20.962  15.137  1.00  0.00     0.266 C 
HETATM   37  O5  UNL     1      10.992  20.024  14.307  1.00  0.00    -0.361 OA
HETATM   38  C21 UNL     1      12.950  20.358  15.438  1.00  0.00     0.075 C 
HETATM   39  C19 UNL     1      11.943  19.508  13.461  1.00  0.00     0.171 C 
HETATM   40  C20 UNL     1      13.303  19.714  14.137  1.00  0.00     0.038 C 
ENDBRANCH  32  33
ENDBRANCH  29  32
ENDBRANCH   1  28
TORSDOF 13
ENDMDL
