MODEL 15
REMARK VINA RESULT: -3.332272310      7.281      8.940
REMARK  5 active torsions:
REMARK  status: ('A' for Active; 'I' for Inactive)
REMARK    1  A    between atoms: O1_1  and  C1_3 
REMARK    2  A    between atoms: C1_3  and  C2_4 
REMARK    3  A    between atoms: C4_8  and  O2_9 
REMARK    4  A    between atoms: C5_11  and  O3_12 
REMARK    5  A    between atoms: C6_14  and  O4_15 
ROOT
HETATM    1  C2  UNL     1      42.802  19.689  37.271  1.00  0.00     0.131 C 
HETATM    2  N1  UNL     1      43.144  20.859  36.549  1.00  0.00    -0.410 N 
ATOM      3  H1  UNL     1      43.912  21.463  36.842  1.00  0.00     0.153 HD
HETATM    4  C3  UNL     1      42.366  21.150  35.401  1.00  0.00     0.148 C 
HETATM    5  C4  UNL     1      42.048  19.953  34.545  1.00  0.00     0.166 C 
HETATM    6  C5  UNL     1      41.344  18.968  35.488  1.00  0.00     0.179 C 
HETATM    7  C6  UNL     1      42.431  18.506  36.417  1.00  0.00     0.173 C 
ENDROOT
BRANCH   1   8
HETATM    8  C1  UNL     1      44.009  19.275  38.103  1.00  0.00     0.191 C 
BRANCH   8   9
HETATM    9  O1  UNL     1      45.160  19.613  37.419  1.00  0.00    -0.399 OA
ATOM     10  H1  UNL     1      45.859  19.028  37.687  1.00  0.00     0.209 HD
ENDBRANCH   8   9
ENDBRANCH   1   8
BRANCH   7  11
HETATM   11  O4  UNL     1      43.559  18.189  35.647  1.00  0.00    -0.391 OA
ATOM     12  H4  UNL     1      44.074  17.570  36.151  1.00  0.00     0.210 HD
ENDBRANCH   7  11
BRANCH   6  13
HETATM   13  O3  UNL     1      40.724  17.953  34.806  1.00  0.00    -0.390 OA
ATOM     14  H3  UNL     1      40.833  17.113  35.237  1.00  0.00     0.210 HD
ENDBRANCH   6  13
BRANCH   5  15
HETATM   15  O2  UNL     1      41.266  20.303  33.483  1.00  0.00    -0.391 OA
ATOM     16  H2  UNL     1      40.347  20.311  33.724  1.00  0.00     0.210 HD
ENDBRANCH   5  15
TORSDOF 5
ENDMDL
