MODEL 13
REMARK VINA RESULT: -3.499921985      3.611      4.738
REMARK  5 active torsions:
REMARK  status: ('A' for Active; 'I' for Inactive)
REMARK    1  A    between atoms: O1_1  and  C1_3 
REMARK    2  A    between atoms: C1_3  and  C2_4 
REMARK    3  A    between atoms: C4_8  and  O2_9 
REMARK    4  A    between atoms: C5_11  and  O3_12 
REMARK    5  A    between atoms: C6_14  and  O4_15 
ROOT
HETATM    1  C2  UNL     1      38.670  16.176  32.266  1.00  0.00     0.131 C 
HETATM    2  N1  UNL     1      39.344  17.292  32.820  1.00  0.00    -0.410 N 
ATOM      3  H1  UNL     1      40.160  17.704  32.366  1.00  0.00     0.153 HD
HETATM    4  C3  UNL     1      38.829  17.809  34.035  1.00  0.00     0.148 C 
HETATM    5  C4  UNL     1      37.327  17.889  34.090  1.00  0.00     0.166 C 
HETATM    6  C5  UNL     1      36.843  16.458  33.818  1.00  0.00     0.179 C 
HETATM    7  C6  UNL     1      37.169  16.229  32.368  1.00  0.00     0.173 C 
ENDROOT
BRANCH   1   8
HETATM    8  C1  UNL     1      39.011  16.104  30.782  1.00  0.00     0.191 C 
BRANCH   8   9
HETATM    9  O1  UNL     1      40.358  15.829  30.647  1.00  0.00    -0.399 OA
ATOM     10  H1  UNL     1      40.720  16.394  29.974  1.00  0.00     0.209 HD
ENDBRANCH   8   9
ENDBRANCH   1   8
BRANCH   7  11
HETATM   11  O4  UNL     1      36.751  17.354  31.643  1.00  0.00    -0.391 OA
ATOM     12  H4  UNL     1      36.478  18.006  32.278  1.00  0.00     0.210 HD
ENDBRANCH   7  11
BRANCH   6  13
HETATM   13  O3  UNL     1      35.518  16.293  34.124  1.00  0.00    -0.390 OA
ATOM     14  H3  UNL     1      35.381  16.141  35.052  1.00  0.00     0.210 HD
ENDBRANCH   6  13
BRANCH   5  15
HETATM   15  O2  UNL     1      36.905  18.356  35.301  1.00  0.00    -0.391 OA
ATOM     16  H2  UNL     1      36.266  19.051  35.195  1.00  0.00     0.210 HD
ENDBRANCH   5  15
TORSDOF 5
ENDMDL
