MODEL 1
REMARK VINA RESULT: -7.778354931      0.000      0.000
REMARK  8 active torsions:
REMARK  status: ('A' for Active; 'I' for Inactive)
REMARK       I    between atoms: C2_2  and  N1_4 
REMARK    1  A    between atoms: N1_4  and  C3_6 
REMARK    2  A    between atoms: N2_8  and  O2_10 
REMARK    3  A    between atoms: O2_10  and  C5_11 
REMARK       I    between atoms: C5_11  and  N3_13 
REMARK    4  A    between atoms: N3_13  and  C6_15 
REMARK    5  A    between atoms: C12_22  and  C13_23 
REMARK    6  A    between atoms: C13_23  and  O5_24 
REMARK    7  A    between atoms: C14_26  and  O6_27 
REMARK    8  A    between atoms: C15_29  and  O7_30 
ROOT
HETATM    1  C3  UNL     1      38.764  -1.985  10.776  1.00  0.00     0.192 C 
HETATM    2  C4  UNL     1      39.652  -0.888  11.232  1.00  0.00     0.165 C 
HETATM    3  N2  UNL     1      40.060  -0.891  12.450  1.00  0.00    -0.236 N 
ATOM      4  H2  UNL     1      39.753  -1.653  13.055  1.00  0.00     0.197 HD
HETATM    5  O4  UNL     1      39.992   0.074  10.328  1.00  0.00    -0.326 OA
HETATM    6  C12 UNL     1      39.443   0.230   9.048  1.00  0.00     0.185 C 
HETATM    7  C14 UNL     1      38.210  -0.546   8.790  1.00  0.00     0.180 C 
HETATM    8  C15 UNL     1      37.689  -1.347   9.922  1.00  0.00     0.180 C 
ENDROOT
BRANCH   1   9
HETATM    9  N1  UNL     1      39.480  -2.914   9.903  1.00  0.00    -0.347 N 
HETATM   10  C2  UNL     1      40.195  -4.032  10.392  1.00  0.00     0.214 C 
HETATM   11  C1  UNL     1      40.928  -4.989   9.538  1.00  0.00     0.117 C 
HETATM   12  O1  UNL     1      40.185  -4.194  11.660  1.00  0.00    -0.274 OA
ATOM     13  H1  UNL     1      39.463  -2.749   8.897  1.00  0.00     0.163 HD
ENDBRANCH   1   9
BRANCH   3  14
HETATM   14  O2  UNL     1      40.875   0.057  12.985  1.00  0.00    -0.179 OA
BRANCH  14  15
HETATM   15  C5  UNL     1      40.245   1.119  13.688  1.00  0.00     0.387 C 
HETATM   16  O3  UNL     1      40.535   1.267  14.897  1.00  0.00    -0.236 OA
HETATM   17  N3  UNL     1      39.345   1.945  13.029  1.00  0.00    -0.301 N 
ATOM     18  H3  UNL     1      39.166   1.748  12.045  1.00  0.00     0.171 HD
BRANCH  17  19
HETATM   19  C6  UNL     1      38.664   3.020  13.599  1.00  0.00     0.036 A 
HETATM   20  C7  UNL     1      37.304   2.842  13.864  1.00  0.00     0.029 A 
HETATM   21  C8  UNL     1      36.571   3.861  14.408  1.00  0.00     0.002 A 
HETATM   22  C9  UNL     1      37.177   5.063  14.691  1.00  0.00     0.000 A 
HETATM   23  C10 UNL     1      38.512   5.250  14.435  1.00  0.00     0.002 A 
HETATM   24  C11 UNL     1      39.264   4.209  13.879  1.00  0.00     0.029 A 
ENDBRANCH  17  19
ENDBRANCH  14  15
ENDBRANCH   3  14
BRANCH   8  25
HETATM   25  O7  UNL     1      36.851  -0.636  10.766  1.00  0.00    -0.390 OA
ATOM     26  H7  UNL     1      36.803   0.255  10.440  1.00  0.00     0.210 HD
ENDBRANCH   8  25
BRANCH   6  27
HETATM   27  C13 UNL     1      39.179   1.731   8.870  1.00  0.00     0.199 C 
BRANCH  27  28
HETATM   28  O5  UNL     1      38.727   2.304  10.040  1.00  0.00    -0.398 OA
ATOM     29  H5  UNL     1      37.920   2.785   9.901  1.00  0.00     0.209 HD
ENDBRANCH  27  28
ENDBRANCH   6  27
BRANCH   7  30
HETATM   30  O6  UNL     1      38.442  -1.369   7.664  1.00  0.00    -0.390 OA
ATOM     31  H6  UNL     1      37.853  -2.112   7.719  1.00  0.00     0.210 HD
ENDBRANCH   7  30
TORSDOF 8
ENDMDL
