MODEL 3
REMARK VINA RESULT: -7.539626630      2.127      6.672
REMARK  8 active torsions:
REMARK  status: ('A' for Active; 'I' for Inactive)
REMARK       I    between atoms: C2_2  and  N1_4 
REMARK    1  A    between atoms: N1_4  and  C3_6 
REMARK    2  A    between atoms: N2_8  and  O2_10 
REMARK    3  A    between atoms: O2_10  and  C5_11 
REMARK       I    between atoms: C5_11  and  N3_13 
REMARK    4  A    between atoms: N3_13  and  C6_15 
REMARK    5  A    between atoms: C12_22  and  C13_23 
REMARK    6  A    between atoms: C13_23  and  O5_24 
REMARK    7  A    between atoms: C14_26  and  O6_27 
REMARK    8  A    between atoms: C15_29  and  O7_30 
ROOT
HETATM    1  C3  UNL     1      38.673   3.230  13.205  1.00  0.00     0.192 C 
HETATM    2  C4  UNL     1      39.136   1.858  13.523  1.00  0.00     0.165 C 
HETATM    3  N2  UNL     1      40.388   1.663  13.732  1.00  0.00    -0.236 N 
ATOM      4  H2  UNL     1      41.014   2.466  13.669  1.00  0.00     0.197 HD
HETATM    5  O4  UNL     1      38.202   0.867  13.577  1.00  0.00    -0.326 OA
HETATM    6  C12 UNL     1      36.860   0.979  13.189  1.00  0.00     0.185 C 
HETATM    7  C14 UNL     1      36.528   2.189  12.405  1.00  0.00     0.180 C 
HETATM    8  C15 UNL     1      37.655   3.098  12.092  1.00  0.00     0.180 C 
ENDROOT
BRANCH   1   9
HETATM    9  N1  UNL     1      37.962   3.822  14.339  1.00  0.00    -0.347 N 
HETATM   10  C2  UNL     1      38.568   4.036  15.598  1.00  0.00     0.214 C 
HETATM   11  C1  UNL     1      37.879   4.632  16.762  1.00  0.00     0.117 C 
HETATM   12  O1  UNL     1      39.791   3.681  15.700  1.00  0.00    -0.274 OA
ATOM     13  H1  UNL     1      36.986   4.092  14.215  1.00  0.00     0.163 HD
ENDBRANCH   1   9
BRANCH   3  14
HETATM   14  O2  UNL     1      40.934   0.454  14.031  1.00  0.00    -0.179 OA
BRANCH  14  15
HETATM   15  C5  UNL     1      41.066  -0.471  12.959  1.00  0.00     0.387 C 
HETATM   16  O3  UNL     1      42.149  -0.481  12.333  1.00  0.00    -0.236 OA
HETATM   17  N3  UNL     1      40.012  -1.318  12.645  1.00  0.00    -0.301 N 
ATOM     18  H3  UNL     1      39.165  -1.237  13.207  1.00  0.00     0.171 HD
BRANCH  17  19
HETATM   19  C6  UNL     1      40.012  -2.270  11.626  1.00  0.00     0.036 A 
HETATM   20  C7  UNL     1      39.469  -1.885  10.397  1.00  0.00     0.029 A 
HETATM   21  C8  UNL     1      39.423  -2.774   9.359  1.00  0.00     0.002 A 
HETATM   22  C9  UNL     1      39.913  -4.048   9.527  1.00  0.00     0.000 A 
HETATM   23  C10 UNL     1      40.449  -4.437  10.729  1.00  0.00     0.002 A 
HETATM   24  C11 UNL     1      40.498  -3.530  11.793  1.00  0.00     0.029 A 
ENDBRANCH  17  19
ENDBRANCH  14  15
ENDBRANCH   3  14
BRANCH   8  25
HETATM   25  O7  UNL     1      38.341   2.756  10.937  1.00  0.00    -0.390 OA
ATOM     26  H7  UNL     1      38.166   3.429  10.290  1.00  0.00     0.210 HD
ENDBRANCH   8  25
BRANCH   6  27
HETATM   27  C13 UNL     1      36.535  -0.287  12.386  1.00  0.00     0.199 C 
BRANCH  27  28
HETATM   28  O5  UNL     1      36.715  -0.084  11.033  1.00  0.00    -0.398 OA
ATOM     29  H5  UNL     1      37.080  -0.854  10.613  1.00  0.00     0.209 HD
ENDBRANCH  27  28
ENDBRANCH   6  27
BRANCH   7  30
HETATM   30  O6  UNL     1      35.504   2.883  13.090  1.00  0.00    -0.390 OA
ATOM     31  H6  UNL     1      35.568   3.802  12.857  1.00  0.00     0.210 HD
ENDBRANCH   7  30
TORSDOF 8
ENDMDL
