MODEL 2
REMARK VINA RESULT: -7.562126959      3.231      6.344
REMARK  8 active torsions:
REMARK  status: ('A' for Active; 'I' for Inactive)
REMARK       I    between atoms: C2_2  and  N1_4 
REMARK    1  A    between atoms: N1_4  and  C3_6 
REMARK    2  A    between atoms: N2_8  and  O2_10 
REMARK    3  A    between atoms: O2_10  and  C5_11 
REMARK       I    between atoms: C5_11  and  N3_13 
REMARK    4  A    between atoms: N3_13  and  C6_15 
REMARK    5  A    between atoms: C12_22  and  C13_23 
REMARK    6  A    between atoms: C13_23  and  O5_24 
REMARK    7  A    between atoms: C14_26  and  O6_27 
REMARK    8  A    between atoms: C15_29  and  O7_30 
ROOT
HETATM    1  C3  UNL     1      40.971  -0.842  10.650  1.00  0.00     0.192 C 
HETATM    2  C4  UNL     1      39.967   0.228  10.438  1.00  0.00     0.165 C 
HETATM    3  N2  UNL     1      39.821   0.711   9.257  1.00  0.00    -0.236 N 
ATOM      4  H2  UNL     1      40.406   0.335   8.511  1.00  0.00     0.197 HD
HETATM    5  O4  UNL     1      39.245   0.648  11.515  1.00  0.00    -0.326 OA
HETATM    6  C12 UNL     1      39.478   0.291  12.851  1.00  0.00     0.185 C 
HETATM    7  C14 UNL     1      40.778  -0.366  13.112  1.00  0.00     0.180 C 
HETATM    8  C15 UNL     1      41.681  -0.520  11.948  1.00  0.00     0.180 C 
ENDROOT
BRANCH   1   9
HETATM    9  N1  UNL     1      40.324  -2.139  10.851  1.00  0.00    -0.347 N 
HETATM   10  C2  UNL     1      40.845  -3.345  10.329  1.00  0.00     0.214 C 
HETATM   11  C1  UNL     1      40.218  -4.671  10.514  1.00  0.00     0.117 C 
HETATM   12  O1  UNL     1      41.930  -3.247   9.661  1.00  0.00    -0.274 OA
ATOM     13  H1  UNL     1      39.460  -2.174  11.391  1.00  0.00     0.163 HD
ENDBRANCH   1   9
BRANCH   3  14
HETATM   14  O2  UNL     1      38.935   1.692   8.936  1.00  0.00    -0.179 OA
BRANCH  14  15
HETATM   15  C5  UNL     1      39.206   2.437   7.756  1.00  0.00     0.387 C 
HETATM   16  O3  UNL     1      39.863   3.496   7.877  1.00  0.00    -0.236 OA
HETATM   17  N3  UNL     1      38.746   1.979   6.530  1.00  0.00    -0.301 N 
ATOM     18  H3  UNL     1      38.215   1.108   6.527  1.00  0.00     0.171 HD
BRANCH  17  19
HETATM   19  C6  UNL     1      38.946   2.608   5.302  1.00  0.00     0.036 A 
HETATM   20  C7  UNL     1      37.823   2.782   4.488  1.00  0.00     0.029 A 
HETATM   21  C8  UNL     1      37.950   3.378   3.263  1.00  0.00     0.002 A 
HETATM   22  C9  UNL     1      39.186   3.804   2.834  1.00  0.00     0.000 A 
HETATM   23  C10 UNL     1      40.294   3.638   3.625  1.00  0.00     0.002 A 
HETATM   24  C11 UNL     1      40.168   3.030   4.879  1.00  0.00     0.029 A 
ENDBRANCH  17  19
ENDBRANCH  14  15
ENDBRANCH   3  14
BRANCH   8  25
HETATM   25  O7  UNL     1      42.488   0.584  11.721  1.00  0.00    -0.390 OA
ATOM     26  H7  UNL     1      42.886   0.824  12.549  1.00  0.00     0.210 HD
ENDBRANCH   8  25
BRANCH   6  27
HETATM   27  C13 UNL     1      39.354   1.581  13.671  1.00  0.00     0.199 C 
BRANCH  27  28
HETATM   28  O5  UNL     1      40.577   2.201  13.822  1.00  0.00    -0.398 OA
ATOM     29  H5  UNL     1      40.974   2.394  12.982  1.00  0.00     0.209 HD
ENDBRANCH  27  28
ENDBRANCH   6  27
BRANCH   7  30
HETATM   30  O6  UNL     1      40.518  -1.620  13.710  1.00  0.00    -0.390 OA
ATOM     31  H6  UNL     1      41.352  -2.043  13.875  1.00  0.00     0.210 HD
ENDBRANCH   7  30
TORSDOF 8
ENDMDL
