MODEL 2
REMARK VINA RESULT: -6.809254192      1.144      1.427
REMARK  2 active torsions:
REMARK  status: ('A' for Active; 'I' for Inactive)
REMARK    1  A    between atoms: N1_1  and  S1_4 
REMARK    2  A    between atoms: S1_4  and  C1_7 
ROOT
HETATM    1  C1  UNL     1      16.344   2.748  13.648  1.00  0.00     0.191 A 
HETATM    2  C2  UNL     1      15.457   3.462  14.422  1.00  0.00     0.065 A 
HETATM    3  C3  UNL     1      15.194   2.738  15.568  1.00  0.00     0.001 A 
HETATM    4  C4  UNL     1      14.392   2.958  16.685  1.00  0.00     0.014 A 
HETATM    5  C5  UNL     1      14.319   2.039  17.708  1.00  0.00     0.001 A 
HETATM    6  C6  UNL     1      15.077   0.895  17.572  1.00  0.00     0.003 A 
HETATM    7  C7  UNL     1      15.871   0.670  16.471  1.00  0.00     0.038 A 
HETATM    8  C8  UNL     1      15.948   1.594  15.439  1.00  0.00     0.087 A 
HETATM    9  O3  UNL     1      16.616   1.624  14.299  1.00  0.00    -0.296 OA
ENDROOT
BRANCH   1  10
HETATM   10  S1  UNL     1      16.997   3.233  12.087  1.00  0.00     0.279 S 
HETATM   11  O1  UNL     1      18.337   2.582  11.944  1.00  0.00    -0.199 OA
HETATM   12  O2  UNL     1      16.028   2.710  11.047  1.00  0.00    -0.199 OA
BRANCH  10  13
HETATM   13  N1  UNL     1      17.111   4.958  12.005  1.00  0.00    -0.323 N 
ATOM     14  H12 UNL     1      17.909   5.484  12.360  1.00  0.00     0.169 HD
ATOM     15  H11 UNL     1      16.289   5.370  11.563  1.00  0.00     0.169 HD
ENDBRANCH  10  13
ENDBRANCH   1  10
TORSDOF 2
ENDMDL
