MODEL 9
REMARK VINA RESULT: -6.225508780      3.396      4.946
REMARK  2 active torsions:
REMARK  status: ('A' for Active; 'I' for Inactive)
REMARK    1  A    between atoms: N1_1  and  S1_4 
REMARK    2  A    between atoms: S1_4  and  C1_7 
ROOT
HETATM    1  C1  UNL     1      15.214   2.310  15.928  1.00  0.00     0.191 A 
HETATM    2  C2  UNL     1      14.819   3.623  15.800  1.00  0.00     0.065 A 
HETATM    3  C3  UNL     1      15.488   4.180  14.728  1.00  0.00     0.001 A 
HETATM    4  C4  UNL     1      15.489   5.444  14.144  1.00  0.00     0.014 A 
HETATM    5  C5  UNL     1      16.277   5.729  13.051  1.00  0.00     0.001 A 
HETATM    6  C6  UNL     1      17.063   4.704  12.568  1.00  0.00     0.003 A 
HETATM    7  C7  UNL     1      17.069   3.453  13.140  1.00  0.00     0.038 A 
HETATM    8  C8  UNL     1      16.276   3.163  14.241  1.00  0.00     0.087 A 
HETATM    9  O3  UNL     1      16.096   2.071  14.964  1.00  0.00    -0.296 OA
ENDROOT
BRANCH   1  10
HETATM   10  S1  UNL     1      14.656   1.162  17.139  1.00  0.00     0.279 S 
HETATM   11  O1  UNL     1      13.185   0.978  16.932  1.00  0.00    -0.199 OA
HETATM   12  O2  UNL     1      15.404  -0.128  16.870  1.00  0.00    -0.199 OA
BRANCH  10  13
HETATM   13  N1  UNL     1      15.011   1.756  18.724  1.00  0.00    -0.323 N 
ATOM     14  H12 UNL     1      14.739   1.270  19.578  1.00  0.00     0.169 HD
ATOM     15  H11 UNL     1      15.519   2.640  18.691  1.00  0.00     0.169 HD
ENDBRANCH  10  13
ENDBRANCH   1  10
TORSDOF 2
ENDMDL
