MODEL 11
REMARK VINA RESULT: -6.062000181      3.588      5.047
REMARK  2 active torsions:
REMARK  status: ('A' for Active; 'I' for Inactive)
REMARK    1  A    between atoms: N1_1  and  S1_4 
REMARK    2  A    between atoms: S1_4  and  C1_7 
ROOT
HETATM    1  C1  UNL     1      15.471   2.737  16.297  1.00  0.00     0.191 A 
HETATM    2  C2  UNL     1      14.869   3.716  15.539  1.00  0.00     0.065 A 
HETATM    3  C3  UNL     1      15.851   4.408  14.858  1.00  0.00     0.001 A 
HETATM    4  C4  UNL     1      15.833   5.477  13.966  1.00  0.00     0.014 A 
HETATM    5  C5  UNL     1      16.997   5.979  13.425  1.00  0.00     0.001 A 
HETATM    6  C6  UNL     1      18.173   5.374  13.811  1.00  0.00     0.003 A 
HETATM    7  C7  UNL     1      18.199   4.318  14.693  1.00  0.00     0.038 A 
HETATM    8  C8  UNL     1      17.030   3.810  15.239  1.00  0.00     0.087 A 
HETATM    9  O3  UNL     1      16.779   2.828  16.087  1.00  0.00    -0.296 OA
ENDROOT
BRANCH   1  10
HETATM   10  S1  UNL     1      14.662   1.581  17.349  1.00  0.00     0.279 S 
HETATM   11  O1  UNL     1      14.660   2.161  18.729  1.00  0.00    -0.199 OA
HETATM   12  O2  UNL     1      13.250   1.448  16.816  1.00  0.00    -0.199 OA
BRANCH  10  13
HETATM   13  N1  UNL     1      15.482   0.058  17.294  1.00  0.00    -0.323 N 
ATOM     14  H12 UNL     1      15.799  -0.437  18.127  1.00  0.00     0.169 HD
ATOM     15  H11 UNL     1      15.604  -0.272  16.337  1.00  0.00     0.169 HD
ENDBRANCH  10  13
ENDBRANCH   1  10
TORSDOF 2
ENDMDL
