MODEL 8
REMARK VINA RESULT: -6.365605385      3.672      5.041
REMARK  2 active torsions:
REMARK  status: ('A' for Active; 'I' for Inactive)
REMARK    1  A    between atoms: N1_1  and  S1_4 
REMARK    2  A    between atoms: S1_4  and  C1_7 
ROOT
HETATM    1  C1  UNL     1      15.560   2.599  16.330  1.00  0.00     0.191 A 
HETATM    2  C2  UNL     1      14.875   3.546  15.601  1.00  0.00     0.065 A 
HETATM    3  C3  UNL     1      15.791   4.297  14.891  1.00  0.00     0.001 A 
HETATM    4  C4  UNL     1      15.680   5.368  14.007  1.00  0.00     0.014 A 
HETATM    5  C5  UNL     1      16.793   5.939  13.429  1.00  0.00     0.001 A 
HETATM    6  C6  UNL     1      18.015   5.400  13.769  1.00  0.00     0.003 A 
HETATM    7  C7  UNL     1      18.133   4.343  14.641  1.00  0.00     0.038 A 
HETATM    8  C8  UNL     1      17.015   3.765  15.225  1.00  0.00     0.087 A 
HETATM    9  O3  UNL     1      16.851   2.766  16.074  1.00  0.00    -0.296 OA
ENDROOT
BRANCH   1  10
HETATM   10  S1  UNL     1      14.855   1.392  17.400  1.00  0.00     0.279 S 
HETATM   11  O1  UNL     1      13.515   1.030  16.840  1.00  0.00    -0.199 OA
HETATM   12  O2  UNL     1      15.794   0.204  17.368  1.00  0.00    -0.199 OA
BRANCH  10  13
HETATM   13  N1  UNL     1      14.729   2.028  19.004  1.00  0.00    -0.323 N 
ATOM     14  H12 UNL     1      13.899   1.917  19.587  1.00  0.00     0.169 HD
ATOM     15  H11 UNL     1      15.577   2.520  19.284  1.00  0.00     0.169 HD
ENDBRANCH  10  13
ENDBRANCH   1  10
TORSDOF 2
ENDMDL
