MODEL 5
REMARK VINA RESULT: -6.600834367      3.472      5.057
REMARK  2 active torsions:
REMARK  status: ('A' for Active; 'I' for Inactive)
REMARK    1  A    between atoms: N1_1  and  S1_4 
REMARK    2  A    between atoms: S1_4  and  C1_7 
ROOT
HETATM    1  C1  UNL     1      15.813   2.341  16.127  1.00  0.00     0.191 A 
HETATM    2  C2  UNL     1      17.163   2.574  15.985  1.00  0.00     0.065 A 
HETATM    3  C3  UNL     1      17.332   3.738  15.261  1.00  0.00     0.001 A 
HETATM    4  C4  UNL     1      18.448   4.447  14.822  1.00  0.00     0.014 A 
HETATM    5  C5  UNL     1      18.319   5.611  14.098  1.00  0.00     0.001 A 
HETATM    6  C6  UNL     1      17.035   6.038  13.830  1.00  0.00     0.003 A 
HETATM    7  C7  UNL     1      15.928   5.343  14.259  1.00  0.00     0.038 A 
HETATM    8  C8  UNL     1      16.054   4.170  14.989  1.00  0.00     0.087 A 
HETATM    9  O3  UNL     1      15.177   3.329  15.510  1.00  0.00    -0.296 OA
ENDROOT
BRANCH   1  10
HETATM   10  S1  UNL     1      15.068   0.986  16.968  1.00  0.00     0.279 S 
HETATM   11  O1  UNL     1      15.514  -0.265  16.278  1.00  0.00    -0.199 OA
HETATM   12  O2  UNL     1      15.593   1.035  18.388  1.00  0.00    -0.199 OA
BRANCH  10  13
HETATM   13  N1  UNL     1      13.347   1.152  16.945  1.00  0.00    -0.323 N 
ATOM     14  H12 UNL     1      12.711   0.369  16.795  1.00  0.00     0.169 HD
ATOM     15  H11 UNL     1      13.058   2.118  17.099  1.00  0.00     0.169 HD
ENDBRANCH  10  13
ENDBRANCH   1  10
TORSDOF 2
ENDMDL
