MODEL 1
REMARK VINA RESULT: -6.953059065      0.000      0.000
REMARK  2 active torsions:
REMARK  status: ('A' for Active; 'I' for Inactive)
REMARK    1  A    between atoms: N1_1  and  S1_4 
REMARK    2  A    between atoms: S1_4  and  C1_7 
ROOT
HETATM    1  C1  UNL     1      16.211   2.457  13.606  1.00  0.00     0.191 A 
HETATM    2  C2  UNL     1      15.364   3.276  14.319  1.00  0.00     0.065 A 
HETATM    3  C3  UNL     1      15.151   2.710  15.561  1.00  0.00     0.001 A 
HETATM    4  C4  UNL     1      14.401   3.083  16.674  1.00  0.00     0.014 A 
HETATM    5  C5  UNL     1      14.370   2.306  17.811  1.00  0.00     0.001 A 
HETATM    6  C6  UNL     1      15.115   1.145  17.791  1.00  0.00     0.003 A 
HETATM    7  C7  UNL     1      15.857   0.770  16.695  1.00  0.00     0.038 A 
HETATM    8  C8  UNL     1      15.891   1.550  15.549  1.00  0.00     0.087 A 
HETATM    9  O3  UNL     1      16.506   1.424  14.386  1.00  0.00    -0.296 OA
ENDROOT
BRANCH   1  10
HETATM   10  S1  UNL     1      16.795   2.727  11.968  1.00  0.00     0.279 S 
HETATM   11  O1  UNL     1      16.487   4.150  11.616  1.00  0.00    -0.199 OA
HETATM   12  O2  UNL     1      18.290   2.493  12.012  1.00  0.00    -0.199 OA
BRANCH  10  13
HETATM   13  N1  UNL     1      16.033   1.619  10.879  1.00  0.00    -0.323 N 
ATOM     14  H12 UNL     1      15.141   1.807  10.423  1.00  0.00     0.169 HD
ATOM     15  H11 UNL     1      16.585   0.770  10.757  1.00  0.00     0.169 HD
ENDBRANCH  10  13
ENDBRANCH   1  10
TORSDOF 2
ENDMDL
