MODEL 3
REMARK VINA RESULT: -6.804850493      3.447      4.832
REMARK  2 active torsions:
REMARK  status: ('A' for Active; 'I' for Inactive)
REMARK    1  A    between atoms: N1_1  and  S1_4 
REMARK    2  A    between atoms: S1_4  and  C1_7 
ROOT
HETATM    1  C1  UNL     1      15.982   2.310  16.096  1.00  0.00     0.191 A 
HETATM    2  C2  UNL     1      15.368   3.390  15.502  1.00  0.00     0.065 A 
HETATM    3  C3  UNL     1      16.345   4.252  15.044  1.00  0.00     0.001 A 
HETATM    4  C4  UNL     1      16.316   5.475  14.379  1.00  0.00     0.014 A 
HETATM    5  C5  UNL     1      17.476   6.132  14.034  1.00  0.00     0.001 A 
HETATM    6  C6  UNL     1      18.663   5.520  14.380  1.00  0.00     0.003 A 
HETATM    7  C7  UNL     1      18.699   4.313  15.038  1.00  0.00     0.038 A 
HETATM    8  C8  UNL     1      17.533   3.648  15.385  1.00  0.00     0.087 A 
HETATM    9  O3  UNL     1      17.292   2.505  16.004  1.00  0.00    -0.296 OA
ENDROOT
BRANCH   1  10
HETATM   10  S1  UNL     1      15.183   0.929  16.838  1.00  0.00     0.279 S 
HETATM   11  O1  UNL     1      15.584  -0.286  16.061  1.00  0.00    -0.199 OA
HETATM   12  O2  UNL     1      15.702   0.858  18.259  1.00  0.00    -0.199 OA
BRANCH  10  13
HETATM   13  N1  UNL     1      13.468   1.161  16.824  1.00  0.00    -0.323 N 
ATOM     14  H12 UNL     1      12.911   1.168  15.969  1.00  0.00     0.169 HD
ATOM     15  H11 UNL     1      13.096   1.288  17.765  1.00  0.00     0.169 HD
ENDBRANCH  10  13
ENDBRANCH   1  10
TORSDOF 2
ENDMDL
