MODEL 4
REMARK VINA RESULT: -6.774587989      0.746      1.580
REMARK  2 active torsions:
REMARK  status: ('A' for Active; 'I' for Inactive)
REMARK    1  A    between atoms: N1_1  and  S1_4 
REMARK    2  A    between atoms: S1_4  and  C1_7 
ROOT
HETATM    1  C1  UNL     1      16.125   2.460  13.549  1.00  0.00     0.191 A 
HETATM    2  C2  UNL     1      16.463   1.461  14.434  1.00  0.00     0.065 A 
HETATM    3  C3  UNL     1      15.800   1.689  15.624  1.00  0.00     0.001 A 
HETATM    4  C4  UNL     1      15.759   1.023  16.847  1.00  0.00     0.014 A 
HETATM    5  C5  UNL     1      14.989   1.487  17.891  1.00  0.00     0.001 A 
HETATM    6  C6  UNL     1      14.264   2.639  17.664  1.00  0.00     0.003 A 
HETATM    7  C7  UNL     1      14.301   3.302  16.460  1.00  0.00     0.038 A 
HETATM    8  C8  UNL     1      15.074   2.837  15.407  1.00  0.00     0.087 A 
HETATM    9  O3  UNL     1      15.284   3.272  14.176  1.00  0.00    -0.296 OA
ENDROOT
BRANCH   1  10
HETATM   10  S1  UNL     1      16.701   2.630  11.894  1.00  0.00     0.279 S 
HETATM   11  O1  UNL     1      16.405   4.033  11.463  1.00  0.00    -0.199 OA
HETATM   12  O2  UNL     1      18.194   2.383  11.942  1.00  0.00    -0.199 OA
BRANCH  10  13
HETATM   13  N1  UNL     1      15.921   1.469  10.876  1.00  0.00    -0.323 N 
ATOM     14  H12 UNL     1      16.343   1.097  10.025  1.00  0.00     0.169 HD
ATOM     15  H11 UNL     1      15.000   1.212  11.232  1.00  0.00     0.169 HD
ENDBRANCH  10  13
ENDBRANCH   1  10
TORSDOF 2
ENDMDL
