MODEL 4
REMARK VINA RESULT: -6.148853319      3.867      4.994
REMARK  2 active torsions:
REMARK  status: ('A' for Active; 'I' for Inactive)
REMARK    1  A    between atoms: N1_1  and  S1_4 
REMARK    2  A    between atoms: S1_4  and  C1_7 
ROOT
HETATM    1  C1  UNL     1      16.249   2.705  13.634  1.00  0.00     0.224 A 
HETATM    2  N2  UNL     1      16.580   1.595  14.286  1.00  0.00    -0.330 N 
ATOM      3  H2  UNL     1      17.235   0.890  13.947  1.00  0.00     0.168 HD
HETATM    4  C2  UNL     1      15.917   1.537  15.473  1.00  0.00     0.061 A 
HETATM    5  C3  UNL     1      15.884   0.630  16.518  1.00  0.00     0.032 A 
HETATM    6  C4  UNL     1      15.070   0.879  17.624  1.00  0.00     0.002 A 
HETATM    7  C5  UNL     1      14.294   2.021  17.690  1.00  0.00     0.002 A 
HETATM    8  C6  UNL     1      14.330   2.922  16.645  1.00  0.00     0.032 A 
HETATM    9  C7  UNL     1      15.140   2.672  15.547  1.00  0.00     0.061 A 
HETATM   10  N3  UNL     1      15.368   3.360  14.410  1.00  0.00    -0.330 N 
ATOM     11  H3  UNL     1      14.934   4.252  14.172  1.00  0.00     0.168 HD
ENDROOT
BRANCH   1  12
HETATM   12  S1  UNL     1      16.817   3.265  12.060  1.00  0.00     0.288 S 
HETATM   13  O1  UNL     1      16.601   4.733  11.917  1.00  0.00    -0.198 OA
HETATM   14  O2  UNL     1      16.067   2.572  10.958  1.00  0.00    -0.198 OA
BRANCH  12  15
HETATM   15  N1  UNL     1      18.486   2.914  11.839  1.00  0.00    -0.322 N 
ATOM     16  H12 UNL     1      18.863   2.356  11.073  1.00  0.00     0.169 HD
ATOM     17  H11 UNL     1      19.023   3.347  12.590  1.00  0.00     0.169 HD
ENDBRANCH  12  15
ENDBRANCH   1  12
TORSDOF 2
ENDMDL
