MODEL 5
REMARK VINA RESULT: -6.112496943      3.808      5.153
REMARK  2 active torsions:
REMARK  status: ('A' for Active; 'I' for Inactive)
REMARK    1  A    between atoms: N1_1  and  S1_4 
REMARK    2  A    between atoms: S1_4  and  C1_7 
ROOT
HETATM    1  C1  UNL     1      16.416   2.589  13.599  1.00  0.00     0.224 A 
HETATM    2  N2  UNL     1      15.542   3.318  14.287  1.00  0.00    -0.330 N 
ATOM      3  H2  UNL     1      15.167   4.218  13.987  1.00  0.00     0.168 HD
HETATM    4  C2  UNL     1      15.220   2.685  15.447  1.00  0.00     0.061 A 
HETATM    5  C3  UNL     1      14.384   2.982  16.510  1.00  0.00     0.032 A 
HETATM    6  C4  UNL     1      14.281   2.091  17.579  1.00  0.00     0.002 A 
HETATM    7  C5  UNL     1      15.003   0.913  17.591  1.00  0.00     0.002 A 
HETATM    8  C6  UNL     1      15.835   0.621  16.530  1.00  0.00     0.032 A 
HETATM    9  C7  UNL     1      15.937   1.509  15.468  1.00  0.00     0.061 A 
HETATM   10  N3  UNL     1      16.653   1.484  14.327  1.00  0.00    -0.330 N 
ATOM     11  H3  UNL     1      17.286   0.732  14.053  1.00  0.00     0.168 HD
ENDROOT
BRANCH   1  12
HETATM   12  S1  UNL     1      17.155   2.945  12.036  1.00  0.00     0.288 S 
HETATM   13  O1  UNL     1      16.151   2.819  10.942  1.00  0.00    -0.198 OA
HETATM   14  O2  UNL     1      18.274   1.982  11.759  1.00  0.00    -0.198 OA
BRANCH  12  15
HETATM   15  N1  UNL     1      17.827   4.527  12.012  1.00  0.00    -0.322 N 
ATOM     16  H12 UNL     1      17.590   5.245  11.327  1.00  0.00     0.169 HD
ATOM     17  H11 UNL     1      18.488   4.624  12.782  1.00  0.00     0.169 HD
ENDBRANCH  12  15
ENDBRANCH   1  12
TORSDOF 2
ENDMDL
