MODEL 3
REMARK VINA RESULT: -6.155834017      3.924      5.162
REMARK  2 active torsions:
REMARK  status: ('A' for Active; 'I' for Inactive)
REMARK    1  A    between atoms: N1_1  and  S1_4 
REMARK    2  A    between atoms: S1_4  and  C1_7 
ROOT
HETATM    1  C1  UNL     1      16.409   2.605  13.560  1.00  0.00     0.224 A 
HETATM    2  N2  UNL     1      15.537   3.331  14.253  1.00  0.00    -0.330 N 
ATOM      3  H2  UNL     1      15.159   4.230  13.957  1.00  0.00     0.168 HD
HETATM    4  C2  UNL     1      15.225   2.697  15.416  1.00  0.00     0.061 A 
HETATM    5  C3  UNL     1      14.395   2.991  16.484  1.00  0.00     0.032 A 
HETATM    6  C4  UNL     1      14.301   2.099  17.552  1.00  0.00     0.002 A 
HETATM    7  C5  UNL     1      15.026   0.923  17.559  1.00  0.00     0.002 A 
HETATM    8  C6  UNL     1      15.853   0.634  16.493  1.00  0.00     0.032 A 
HETATM    9  C7  UNL     1      15.945   1.523  15.431  1.00  0.00     0.061 A 
HETATM   10  N3  UNL     1      16.655   1.501  14.285  1.00  0.00    -0.330 N 
ATOM     11  H3  UNL     1      17.288   0.751  14.007  1.00  0.00     0.168 HD
ENDROOT
BRANCH   1  12
HETATM   12  S1  UNL     1      17.138   2.964  11.993  1.00  0.00     0.288 S 
HETATM   13  O1  UNL     1      17.669   4.356  11.969  1.00  0.00    -0.198 OA
HETATM   14  O2  UNL     1      16.114   2.834  10.901  1.00  0.00    -0.198 OA
BRANCH  12  15
HETATM   15  N1  UNL     1      18.409   1.864  11.631  1.00  0.00    -0.322 N 
ATOM     16  H12 UNL     1      18.700   1.097  12.237  1.00  0.00     0.169 HD
ATOM     17  H11 UNL     1      18.816   2.105  10.727  1.00  0.00     0.169 HD
ENDBRANCH  12  15
ENDBRANCH   1  12
TORSDOF 2
ENDMDL
