MODEL 1
REMARK VINA RESULT: -6.283812661      0.000      0.000
REMARK  2 active torsions:
REMARK  status: ('A' for Active; 'I' for Inactive)
REMARK    1  A    between atoms: N1_1  and  S1_4 
REMARK    2  A    between atoms: S1_4  and  C1_7 
ROOT
HETATM    1  C1  UNL     1      15.849   2.320  16.047  1.00  0.00     0.224 A 
HETATM    2  N2  UNL     1      17.138   2.617  15.916  1.00  0.00    -0.330 N 
ATOM      3  H2  UNL     1      17.907   2.073  16.308  1.00  0.00     0.168 HD
HETATM    4  C2  UNL     1      17.281   3.753  15.181  1.00  0.00     0.061 A 
HETATM    5  C3  UNL     1      18.368   4.495  14.751  1.00  0.00     0.032 A 
HETATM    6  C4  UNL     1      18.161   5.646  13.990  1.00  0.00     0.002 A 
HETATM    7  C5  UNL     1      16.884   6.057  13.659  1.00  0.00     0.002 A 
HETATM    8  C6  UNL     1      15.804   5.315  14.090  1.00  0.00     0.032 A 
HETATM    9  C7  UNL     1      16.012   4.170  14.847  1.00  0.00     0.061 A 
HETATM   10  N3  UNL     1      15.165   3.273  15.391  1.00  0.00    -0.330 N 
ATOM     11  H3  UNL     1      14.148   3.313  15.316  1.00  0.00     0.168 HD
ENDROOT
BRANCH   1  12
HETATM   12  S1  UNL     1      15.116   0.959  16.899  1.00  0.00     0.288 S 
HETATM   13  O1  UNL     1      15.554   0.936  18.323  1.00  0.00    -0.198 OA
HETATM   14  O2  UNL     1      15.527  -0.337  16.260  1.00  0.00    -0.198 OA
BRANCH  12  15
HETATM   15  N1  UNL     1      13.399   1.036  16.834  1.00  0.00    -0.322 N 
ATOM     16  H12 UNL     1      12.773   0.453  17.389  1.00  0.00     0.169 HD
ATOM     17  H11 UNL     1      13.119   1.749  16.160  1.00  0.00     0.169 HD
ENDBRANCH  12  15
ENDBRANCH   1  12
TORSDOF 2
ENDMDL
