MODEL 15
REMARK VINA RESULT: -5.756769599      1.512      2.173
REMARK  2 active torsions:
REMARK  status: ('A' for Active; 'I' for Inactive)
REMARK    1  A    between atoms: N1_1  and  S1_4 
REMARK    2  A    between atoms: S1_4  and  C1_7 
ROOT
HETATM    1  C1  UNL     1      16.617   2.839  14.846  1.00  0.00     0.224 A 
HETATM    2  N2  UNL     1      15.967   3.477  13.877  1.00  0.00    -0.330 N 
ATOM      3  H2  UNL     1      15.134   3.128  13.404  1.00  0.00     0.168 HD
HETATM    4  C2  UNL     1      16.578   4.663  13.610  1.00  0.00     0.061 A 
HETATM    5  C3  UNL     1      16.334   5.697  12.722  1.00  0.00     0.032 A 
HETATM    6  C4  UNL     1      17.180   6.807  12.704  1.00  0.00     0.002 A 
HETATM    7  C5  UNL     1      18.260   6.888  13.562  1.00  0.00     0.002 A 
HETATM    8  C6  UNL     1      18.499   5.855  14.445  1.00  0.00     0.032 A 
HETATM    9  C7  UNL     1      17.657   4.753  14.461  1.00  0.00     0.061 A 
HETATM   10  N3  UNL     1      17.649   3.624  15.199  1.00  0.00    -0.330 N 
ATOM     11  H3  UNL     1      18.331   3.398  15.924  1.00  0.00     0.168 HD
ENDROOT
BRANCH   1  12
HETATM   12  S1  UNL     1      16.249   1.272  15.568  1.00  0.00     0.288 S 
HETATM   13  O1  UNL     1      17.344   0.850  16.488  1.00  0.00    -0.198 OA
HETATM   14  O2  UNL     1      16.106   0.226  14.499  1.00  0.00    -0.198 OA
BRANCH  12  15
HETATM   15  N1  UNL     1      14.766   1.320  16.436  1.00  0.00    -0.322 N 
ATOM     16  H12 UNL     1      14.547   1.992  17.171  1.00  0.00     0.169 HD
ATOM     17  H11 UNL     1      14.154   0.576  16.099  1.00  0.00     0.169 HD
ENDBRANCH  12  15
ENDBRANCH   1  12
TORSDOF 2
ENDMDL
