MODEL 13
REMARK VINA RESULT: -5.807144873      1.395      2.002
REMARK  2 active torsions:
REMARK  status: ('A' for Active; 'I' for Inactive)
REMARK    1  A    between atoms: N1_1  and  S1_4 
REMARK    2  A    between atoms: S1_4  and  C1_7 
ROOT
HETATM    1  C1  UNL     1      15.315   2.507  15.862  1.00  0.00     0.224 A 
HETATM    2  N2  UNL     1      14.772   3.712  15.710  1.00  0.00    -0.330 N 
ATOM      3  H2  UNL     1      14.028   4.096  16.291  1.00  0.00     0.168 HD
HETATM    4  C2  UNL     1      15.358   4.356  14.664  1.00  0.00     0.061 A 
HETATM    5  C3  UNL     1      15.187   5.598  14.076  1.00  0.00     0.032 A 
HETATM    6  C4  UNL     1      15.974   5.959  12.983  1.00  0.00     0.002 A 
HETATM    7  C5  UNL     1      16.924   5.093  12.476  1.00  0.00     0.002 A 
HETATM    8  C6  UNL     1      17.090   3.856  13.065  1.00  0.00     0.032 A 
HETATM    9  C7  UNL     1      16.306   3.498  14.152  1.00  0.00     0.061 A 
HETATM   10  N3  UNL     1      16.252   2.383  14.907  1.00  0.00    -0.330 N 
ATOM     11  H3  UNL     1      16.840   1.560  14.772  1.00  0.00     0.168 HD
ENDROOT
BRANCH   1  12
HETATM   12  S1  UNL     1      14.927   1.271  17.061  1.00  0.00     0.288 S 
HETATM   13  O1  UNL     1      16.013   0.254  17.134  1.00  0.00    -0.198 OA
HETATM   14  O2  UNL     1      13.651   0.570  16.690  1.00  0.00    -0.198 OA
BRANCH  12  15
HETATM   15  N1  UNL     1      14.693   1.965  18.617  1.00  0.00    -0.322 N 
ATOM     16  H12 UNL     1      15.065   1.578  19.484  1.00  0.00     0.169 HD
ATOM     17  H11 UNL     1      14.130   2.811  18.527  1.00  0.00     0.169 HD
ENDBRANCH  12  15
ENDBRANCH   1  12
TORSDOF 2
ENDMDL
