MODEL 2
REMARK VINA RESULT: -6.224672419      0.093      1.575
REMARK  2 active torsions:
REMARK  status: ('A' for Active; 'I' for Inactive)
REMARK    1  A    between atoms: N1_1  and  S1_4 
REMARK    2  A    between atoms: S1_4  and  C1_7 
ROOT
HETATM    1  C1  UNL     1      15.741   2.386  16.001  1.00  0.00     0.224 A 
HETATM    2  N2  UNL     1      15.089   3.343  15.347  1.00  0.00    -0.330 N 
ATOM      3  H2  UNL     1      14.074   3.411  15.269  1.00  0.00     0.168 HD
HETATM    4  C2  UNL     1      15.975   4.217  14.798  1.00  0.00     0.061 A 
HETATM    5  C3  UNL     1      15.851   5.365  14.034  1.00  0.00     0.032 A 
HETATM    6  C4  UNL     1      16.997   6.047  13.621  1.00  0.00     0.002 A 
HETATM    7  C5  UNL     1      18.255   5.590  13.964  1.00  0.00     0.002 A 
HETATM    8  C6  UNL     1      18.373   4.446  14.725  1.00  0.00     0.032 A 
HETATM    9  C7  UNL     1      17.233   3.770  15.135  1.00  0.00     0.061 A 
HETATM   10  N3  UNL     1      17.051   2.652  15.868  1.00  0.00    -0.330 N 
ATOM     11  H3  UNL     1      17.803   2.089  16.266  1.00  0.00     0.168 HD
ENDROOT
BRANCH   1  12
HETATM   12  S1  UNL     1      15.077   1.012  16.888  1.00  0.00     0.288 S 
HETATM   13  O1  UNL     1      15.578   1.003  18.292  1.00  0.00    -0.198 OA
HETATM   14  O2  UNL     1      15.488  -0.277  16.235  1.00  0.00    -0.198 OA
BRANCH  12  15
HETATM   15  N1  UNL     1      13.358   1.051  16.899  1.00  0.00    -0.322 N 
ATOM     16  H12 UNL     1      12.799   1.817  17.275  1.00  0.00     0.169 HD
ATOM     17  H11 UNL     1      12.998   0.196  16.476  1.00  0.00     0.169 HD
ENDBRANCH  12  15
ENDBRANCH   1  12
TORSDOF 2
ENDMDL
