MODEL 17
REMARK VINA RESULT: -5.708899351      1.101      2.076
REMARK  2 active torsions:
REMARK  status: ('A' for Active; 'I' for Inactive)
REMARK    1  A    between atoms: N1_1  and  S1_4 
REMARK    2  A    between atoms: S1_4  and  C1_7 
ROOT
HETATM    1  C1  UNL     1      15.956   2.455  15.799  1.00  0.00     0.224 A 
HETATM    2  N2  UNL     1      15.213   3.370  15.182  1.00  0.00    -0.330 N 
ATOM      3  H2  UNL     1      14.196   3.344  15.109  1.00  0.00     0.168 HD
HETATM    4  C2  UNL     1      16.009   4.344  14.665  1.00  0.00     0.061 A 
HETATM    5  C3  UNL     1      15.773   5.503  13.945  1.00  0.00     0.032 A 
HETATM    6  C4  UNL     1      16.846   6.305  13.556  1.00  0.00     0.002 A 
HETATM    7  C5  UNL     1      18.144   5.958  13.880  1.00  0.00     0.002 A 
HETATM    8  C6  UNL     1      18.374   4.802  14.597  1.00  0.00     0.032 A 
HETATM    9  C7  UNL     1      17.306   4.006  14.983  1.00  0.00     0.061 A 
HETATM   10  N3  UNL     1      17.235   2.850  15.673  1.00  0.00    -0.330 N 
ATOM     11  H3  UNL     1      18.039   2.346  16.048  1.00  0.00     0.168 HD
ENDROOT
BRANCH   1  12
HETATM   12  S1  UNL     1      15.430   0.992  16.634  1.00  0.00     0.288 S 
HETATM   13  O1  UNL     1      13.979   0.747  16.397  1.00  0.00    -0.198 OA
HETATM   14  O2  UNL     1      15.647   1.132  18.114  1.00  0.00    -0.198 OA
BRANCH  12  15
HETATM   15  N1  UNL     1      16.329  -0.378  16.114  1.00  0.00    -0.322 N 
ATOM     16  H12 UNL     1      15.920  -1.212  15.693  1.00  0.00     0.169 HD
ATOM     17  H11 UNL     1      17.320  -0.220  16.296  1.00  0.00     0.169 HD
ENDBRANCH  12  15
ENDBRANCH   1  12
TORSDOF 2
ENDMDL
