MODEL 3
REMARK VINA RESULT: -6.292247742      3.853      5.009
REMARK  2 active torsions:
REMARK  status: ('A' for Active; 'I' for Inactive)
REMARK    1  A    between atoms: N1_1  and  S1_4 
REMARK    2  A    between atoms: S1_4  and  C1_7 
ROOT
HETATM    1  C1  UNL     1      16.231   2.271  16.178  1.00  0.00     0.192 A 
HETATM    2  N2  UNL     1      17.503   2.531  15.974  1.00  0.00    -0.339 N 
ATOM      3  H2  UNL     1      18.212   1.874  16.299  1.00  0.00     0.167 HD
HETATM    4  C2  UNL     1      17.864   3.623  15.358  1.00  0.00     0.050 A 
HETATM    5  C3  UNL     1      19.186   4.030  15.071  1.00  0.00     0.031 A 
HETATM    6  C4  UNL     1      19.400   5.204  14.418  1.00  0.00     0.002 A 
HETATM    7  C5  UNL     1      18.420   6.060  13.996  1.00  0.00     0.002 A 
HETATM    8  C6  UNL     1      17.123   5.671  14.273  1.00  0.00     0.021 A 
HETATM    9  C7  UNL     1      16.866   4.467  14.944  1.00  0.00     0.034 A 
HETATM   10  S2  UNL     1      15.469   3.634  15.469  1.00  0.00    -0.057 SA
ENDROOT
BRANCH   1  11
HETATM   11  S1  UNL     1      15.495   0.874  16.980  1.00  0.00     0.279 S 
HETATM   12  O1  UNL     1      16.087   0.830  18.378  1.00  0.00    -0.199 OA
HETATM   13  O2  UNL     1      15.990  -0.349  16.266  1.00  0.00    -0.199 OA
BRANCH  11  14
HETATM   14  N1  UNL     1      13.845   1.028  17.073  1.00  0.00    -0.323 N 
ATOM     15  H12 UNL     1      13.195   0.687  16.364  1.00  0.00     0.169 HD
ATOM     16  H11 UNL     1      13.591   1.510  17.936  1.00  0.00     0.169 HD
ENDBRANCH  11  14
ENDBRANCH   1  11
TORSDOF 2
ENDMDL
