MODEL 18
REMARK VINA RESULT: -5.713367420      3.988      4.954
REMARK  2 active torsions:
REMARK  status: ('A' for Active; 'I' for Inactive)
REMARK    1  A    between atoms: N1_1  and  S1_4 
REMARK    2  A    between atoms: S1_4  and  C1_7 
ROOT
HETATM    1  C1  UNL     1      16.704   2.386  15.866  1.00  0.00     0.192 A 
HETATM    2  N2  UNL     1      17.930   2.794  15.629  1.00  0.00    -0.339 N 
ATOM      3  H2  UNL     1      18.718   2.183  15.847  1.00  0.00     0.167 HD
HETATM    4  C2  UNL     1      18.147   3.975  15.118  1.00  0.00     0.050 A 
HETATM    5  C3  UNL     1      19.403   4.543  14.814  1.00  0.00     0.031 A 
HETATM    6  C4  UNL     1      19.463   5.793  14.282  1.00  0.00     0.002 A 
HETATM    7  C5  UNL     1      18.382   6.584  14.003  1.00  0.00     0.002 A 
HETATM    8  C6  UNL     1      17.148   6.037  14.299  1.00  0.00     0.021 A 
HETATM    9  C7  UNL     1      17.049   4.750  14.848  1.00  0.00     0.034 A 
HETATM   10  S2  UNL     1      15.773   3.728  15.346  1.00  0.00    -0.057 SA
ENDROOT
BRANCH   1  11
HETATM   11  S1  UNL     1      16.155   0.845  16.547  1.00  0.00     0.279 S 
HETATM   12  O1  UNL     1      14.678   0.737  16.210  1.00  0.00    -0.199 OA
HETATM   13  O2  UNL     1      16.248   0.970  18.038  1.00  0.00    -0.199 OA
BRANCH  11  14
HETATM   14  N1  UNL     1      16.977  -0.437  15.884  1.00  0.00    -0.323 N 
ATOM     15  H12 UNL     1      17.651  -0.355  15.122  1.00  0.00     0.169 HD
ATOM     16  H11 UNL     1      16.705  -1.301  16.353  1.00  0.00     0.169 HD
ENDBRANCH  11  14
ENDBRANCH   1  11
TORSDOF 2
ENDMDL
