MODEL 12
REMARK VINA RESULT: -5.817564606      3.929      5.209
REMARK  2 active torsions:
REMARK  status: ('A' for Active; 'I' for Inactive)
REMARK    1  A    between atoms: N1_1  and  S1_4 
REMARK    2  A    between atoms: S1_4  and  C1_7 
ROOT
HETATM    1  C1  UNL     1      16.180   2.561  16.195  1.00  0.00     0.192 A 
HETATM    2  N2  UNL     1      17.432   2.865  15.937  1.00  0.00    -0.339 N 
ATOM      3  H2  UNL     1      18.183   2.319  16.360  1.00  0.00     0.167 HD
HETATM    4  C2  UNL     1      17.721   3.860  15.144  1.00  0.00     0.050 A 
HETATM    5  C3  UNL     1      19.013   4.299  14.780  1.00  0.00     0.031 A 
HETATM    6  C4  UNL     1      19.149   5.358  13.938  1.00  0.00     0.002 A 
HETATM    7  C5  UNL     1      18.115   6.067  13.390  1.00  0.00     0.002 A 
HETATM    8  C6  UNL     1      16.847   5.646  13.742  1.00  0.00     0.021 A 
HETATM    9  C7  UNL     1      16.669   4.556  14.607  1.00  0.00     0.034 A 
HETATM   10  S2  UNL     1      15.330   3.733  15.278  1.00  0.00    -0.057 SA
ENDROOT
BRANCH   1  11
HETATM   11  S1  UNL     1      15.538   1.271  17.227  1.00  0.00     0.279 S 
HETATM   12  O1  UNL     1      16.608   0.194  17.270  1.00  0.00    -0.199 OA
HETATM   13  O2  UNL     1      14.363   0.680  16.505  1.00  0.00    -0.199 OA
BRANCH  11  14
HETATM   14  N1  UNL     1      15.231   1.821  18.763  1.00  0.00    -0.323 N 
ATOM     15  H12 UNL     1      14.663   1.323  19.448  1.00  0.00     0.169 HD
ATOM     16  H11 UNL     1      15.693   2.719  18.907  1.00  0.00     0.169 HD
ENDBRANCH  11  14
ENDBRANCH   1  11
TORSDOF 2
ENDMDL
