MODEL 4
REMARK VINA RESULT: -6.276462037      1.701      2.301
REMARK  2 active torsions:
REMARK  status: ('A' for Active; 'I' for Inactive)
REMARK    1  A    between atoms: N1_1  and  S1_4 
REMARK    2  A    between atoms: S1_4  and  C1_7 
ROOT
HETATM    1  C1  UNL     1      17.434   1.041  12.998  1.00  0.00     0.192 A 
HETATM    2  N2  UNL     1      17.268   0.479  14.175  1.00  0.00    -0.339 N 
ATOM      3  H2  UNL     1      17.632  -0.458  14.344  1.00  0.00     0.167 HD
HETATM    4  C2  UNL     1      16.641   1.113  15.128  1.00  0.00     0.050 A 
HETATM    5  C3  UNL     1      16.391   0.636  16.433  1.00  0.00     0.031 A 
HETATM    6  C4  UNL     1      15.720   1.422  17.317  1.00  0.00     0.002 A 
HETATM    7  C5  UNL     1      15.246   2.679  17.053  1.00  0.00     0.002 A 
HETATM    8  C6  UNL     1      15.486   3.153  15.778  1.00  0.00     0.021 A 
HETATM    9  C7  UNL     1      16.175   2.371  14.841  1.00  0.00     0.034 A 
HETATM   10  S2  UNL     1      16.669   2.560  13.216  1.00  0.00    -0.057 SA
ENDROOT
BRANCH   1  11
HETATM   11  S1  UNL     1      18.239   0.394  11.559  1.00  0.00     0.279 S 
HETATM   12  O1  UNL     1      17.392   0.823  10.374  1.00  0.00    -0.199 OA
HETATM   13  O2  UNL     1      18.140  -1.101  11.640  1.00  0.00    -0.199 OA
BRANCH  11  14
HETATM   14  N1  UNL     1      19.776   1.000  11.401  1.00  0.00    -0.323 N 
ATOM     15  H12 UNL     1      19.991   1.945  11.083  1.00  0.00     0.169 HD
ATOM     16  H11 UNL     1      20.457   0.289  11.668  1.00  0.00     0.169 HD
ENDBRANCH  11  14
ENDBRANCH   1  11
TORSDOF 2
ENDMDL
