MODEL 2
REMARK VINA RESULT: -6.295097452      1.821      2.421
REMARK  2 active torsions:
REMARK  status: ('A' for Active; 'I' for Inactive)
REMARK    1  A    between atoms: N1_1  and  S1_4 
REMARK    2  A    between atoms: S1_4  and  C1_7 
ROOT
HETATM    1  C1  UNL     1      17.525   0.773  12.754  1.00  0.00     0.192 A 
HETATM    2  N2  UNL     1      17.375   0.342  13.987  1.00  0.00    -0.339 N 
ATOM      3  H2  UNL     1      17.733  -0.576  14.250  1.00  0.00     0.167 HD
HETATM    4  C2  UNL     1      16.769   1.082  14.876  1.00  0.00     0.050 A 
HETATM    5  C3  UNL     1      16.537   0.751  16.228  1.00  0.00     0.031 A 
HETATM    6  C4  UNL     1      15.888   1.634  17.033  1.00  0.00     0.002 A 
HETATM    7  C5  UNL     1      15.421   2.860  16.643  1.00  0.00     0.002 A 
HETATM    8  C6  UNL     1      15.643   3.192  15.320  1.00  0.00     0.021 A 
HETATM    9  C7  UNL     1      16.310   2.306  14.462  1.00  0.00     0.034 A 
HETATM   10  S2  UNL     1      16.778   2.314  12.819  1.00  0.00    -0.057 SA
ENDROOT
BRANCH   1  11
HETATM   11  S1  UNL     1      18.301  -0.034  11.381  1.00  0.00     0.279 S 
HETATM   12  O1  UNL     1      19.739   0.455  11.362  1.00  0.00    -0.199 OA
HETATM   13  O2  UNL     1      17.650   0.498  10.138  1.00  0.00    -0.199 OA
BRANCH  11  14
HETATM   14  N1  UNL     1      18.270  -1.685  11.552  1.00  0.00    -0.323 N 
ATOM     15  H12 UNL     1      18.899  -2.211  12.159  1.00  0.00     0.169 HD
ATOM     16  H11 UNL     1      17.536  -2.080  10.964  1.00  0.00     0.169 HD
ENDBRANCH  11  14
ENDBRANCH   1  11
TORSDOF 2
ENDMDL
