MODEL 1
REMARK VINA RESULT: -6.355715122      0.000      0.000
REMARK  2 active torsions:
REMARK  status: ('A' for Active; 'I' for Inactive)
REMARK    1  A    between atoms: N1_1  and  S1_4 
REMARK    2  A    between atoms: S1_4  and  C1_7 
ROOT
HETATM    1  C1  UNL     1      16.929   1.302  13.762  1.00  0.00     0.192 A 
HETATM    2  N2  UNL     1      16.224   2.299  14.248  1.00  0.00    -0.339 N 
ATOM      3  H2  UNL     1      15.984   3.088  13.649  1.00  0.00     0.167 HD
HETATM    4  C2  UNL     1      15.830   2.286  15.492  1.00  0.00     0.050 A 
HETATM    5  C3  UNL     1      15.073   3.282  16.146  1.00  0.00     0.031 A 
HETATM    6  C4  UNL     1      14.739   3.121  17.454  1.00  0.00     0.002 A 
HETATM    7  C5  UNL     1      15.080   2.044  18.228  1.00  0.00     0.002 A 
HETATM    8  C6  UNL     1      15.823   1.065  17.597  1.00  0.00     0.021 A 
HETATM    9  C7  UNL     1      16.184   1.198  16.249  1.00  0.00     0.034 A 
HETATM   10  S2  UNL     1      17.063   0.263  15.120  1.00  0.00    -0.057 SA
ENDROOT
BRANCH   1  11
HETATM   11  S1  UNL     1      17.575   1.089  12.126  1.00  0.00     0.279 S 
HETATM   12  O1  UNL     1      17.951  -0.379  12.010  1.00  0.00    -0.199 OA
HETATM   13  O2  UNL     1      18.856   1.867  12.059  1.00  0.00    -0.199 OA
BRANCH  11  14
HETATM   14  N1  UNL     1      16.443   1.472  10.974  1.00  0.00    -0.323 N 
ATOM     15  H12 UNL     1      16.044   0.803  10.316  1.00  0.00     0.169 HD
ATOM     16  H11 UNL     1      16.218   2.465  11.029  1.00  0.00     0.169 HD
ENDBRANCH  11  14
ENDBRANCH   1  11
TORSDOF 2
ENDMDL
