MODEL 3
REMARK VINA RESULT: -5.095243900      1.939      2.057
REMARK  2 active torsions:
REMARK  status: ('A' for Active; 'I' for Inactive)
REMARK    1  A    between atoms: N1_1  and  S1_4 
REMARK    2  A    between atoms: S1_4  and  C1_7 
ROOT
HETATM    1  S1  UNL     1      15.285   1.140  16.817  1.00  0.00     0.279 S 
HETATM    2  O1  UNL     1      15.698   1.120  18.281  1.00  0.00    -0.199 OA
HETATM    3  O2  UNL     1      15.796  -0.054  16.084  1.00  0.00    -0.199 OA
ENDROOT
BRANCH   1   4
HETATM    4  N1  UNL     1      13.588   1.209  16.762  1.00  0.00    -0.323 N 
ATOM      5  H12 UNL     1      13.040   1.940  16.308  1.00  0.00     0.169 HD
ATOM      6  H11 UNL     1      13.229   0.395  17.261  1.00  0.00     0.169 HD
ENDBRANCH   1   4
BRANCH   1   7
HETATM    7  C1  UNL     1      15.905   2.610  16.051  1.00  0.00     0.189 A 
HETATM    8  C2  UNL     1      15.171   3.720  15.668  1.00  0.00     0.053 A 
HETATM    9  C3  UNL     1      16.043   4.630  15.113  1.00  0.00     0.028 A 
HETATM   10  C4  UNL     1      17.285   4.031  15.183  1.00  0.00     0.143 A 
HETATM   11  O3  UNL     1      17.148   2.840  15.743  1.00  0.00    -0.310 OA
ENDBRANCH   1   7
TORSDOF 2
ENDMDL
