MODEL 1
REMARK VINA RESULT: -5.191957107      0.000      0.000
REMARK  2 active torsions:
REMARK  status: ('A' for Active; 'I' for Inactive)
REMARK    1  A    between atoms: N1_1  and  S1_4 
REMARK    2  A    between atoms: S1_4  and  C1_7 
ROOT
HETATM    1  S1  UNL     1      16.355   1.159  15.531  1.00  0.00     0.279 S 
HETATM    2  O1  UNL     1      15.130   0.462  16.102  1.00  0.00    -0.199 OA
HETATM    3  O2  UNL     1      17.519   1.077  16.461  1.00  0.00    -0.199 OA
ENDROOT
BRANCH   1   4
HETATM    4  N1  UNL     1      16.713   0.429  14.039  1.00  0.00    -0.323 N 
ATOM      5  H12 UNL     1      16.027   0.148  13.338  1.00  0.00     0.169 HD
ATOM      6  H11 UNL     1      17.727   0.328  13.980  1.00  0.00     0.169 HD
ENDBRANCH   1   4
BRANCH   1   7
HETATM    7  C1  UNL     1      15.973   2.859  15.217  1.00  0.00     0.189 A 
HETATM    8  C2  UNL     1      14.970   3.607  15.811  1.00  0.00     0.053 A 
HETATM    9  C3  UNL     1      15.023   4.876  15.280  1.00  0.00     0.028 A 
HETATM   10  C4  UNL     1      16.066   4.848  14.375  1.00  0.00     0.143 A 
HETATM   11  O3  UNL     1      16.592   3.634  14.377  1.00  0.00    -0.310 OA
ENDBRANCH   1   7
TORSDOF 2
ENDMDL
