MODEL 5
REMARK VINA RESULT: -5.079324855      2.058      2.362
REMARK  2 active torsions:
REMARK  status: ('A' for Active; 'I' for Inactive)
REMARK    1  A    between atoms: N1_1  and  S1_4 
REMARK    2  A    between atoms: S1_4  and  C1_7 
ROOT
HETATM    1  S1  UNL     1      15.095   1.413  17.025  1.00  0.00     0.279 S 
HETATM    2  O1  UNL     1      16.381   0.602  17.080  1.00  0.00    -0.199 OA
HETATM    3  O2  UNL     1      13.928   0.571  16.630  1.00  0.00    -0.199 OA
ENDROOT
BRANCH   1   4
HETATM    4  N1  UNL     1      14.857   2.106  18.558  1.00  0.00    -0.323 N 
ATOM      5  H12 UNL     1      15.544   2.659  19.070  1.00  0.00     0.169 HD
ATOM      6  H11 UNL     1      13.913   1.866  18.862  1.00  0.00     0.169 HD
ENDBRANCH   1   4
BRANCH   1   7
HETATM    7  C1  UNL     1      15.284   2.736  15.863  1.00  0.00     0.189 A 
HETATM    8  C2  UNL     1      14.746   4.009  15.960  1.00  0.00     0.053 A 
HETATM    9  C3  UNL     1      15.138   4.716  14.846  1.00  0.00     0.028 A 
HETATM   10  C4  UNL     1      15.906   3.837  14.109  1.00  0.00     0.143 A 
HETATM   11  O3  UNL     1      15.960   2.682  14.754  1.00  0.00    -0.310 OA
ENDBRANCH   1   7
TORSDOF 2
ENDMDL
