MODEL 13
REMARK VINA RESULT: -4.729931481      4.433      4.979
REMARK  2 active torsions:
REMARK  status: ('A' for Active; 'I' for Inactive)
REMARK    1  A    between atoms: N1_1  and  S1_4 
REMARK    2  A    between atoms: S1_4  and  C1_7 
ROOT
HETATM    1  S1  UNL     1      16.523   1.024  11.697  1.00  0.00     0.279 S 
HETATM    2  O1  UNL     1      15.495   2.123  11.916  1.00  0.00    -0.199 OA
HETATM    3  O2  UNL     1      16.575   0.078  12.850  1.00  0.00    -0.199 OA
ENDROOT
BRANCH   1   4
HETATM    4  N1  UNL     1      16.112   0.213  10.261  1.00  0.00    -0.323 N 
ATOM      5  H12 UNL     1      16.046   0.643   9.338  1.00  0.00     0.169 HD
ATOM      6  H11 UNL     1      15.949  -0.766  10.495  1.00  0.00     0.169 HD
ENDBRANCH   1   4
BRANCH   1   7
HETATM    7  C1  UNL     1      18.120   1.751  11.463  1.00  0.00     0.189 A 
HETATM    8  C2  UNL     1      19.124   1.298  10.623  1.00  0.00     0.053 A 
HETATM    9  C3  UNL     1      20.195   2.154  10.747  1.00  0.00     0.028 A 
HETATM   10  C4  UNL     1      19.795   3.104  11.667  1.00  0.00     0.143 A 
HETATM   11  O3  UNL     1      18.564   2.819  12.058  1.00  0.00    -0.310 OA
ENDBRANCH   1   7
TORSDOF 2
ENDMDL
