MODEL 4
REMARK VINA RESULT: -5.079674101      1.355      1.707
REMARK  2 active torsions:
REMARK  status: ('A' for Active; 'I' for Inactive)
REMARK    1  A    between atoms: N1_1  and  S1_4 
REMARK    2  A    between atoms: S1_4  and  C1_7 
ROOT
HETATM    1  S1  UNL     1      16.248   0.910  15.878  1.00  0.00     0.279 S 
HETATM    2  O1  UNL     1      17.662   0.952  16.438  1.00  0.00    -0.199 OA
HETATM    3  O2  UNL     1      16.143  -0.020  14.716  1.00  0.00    -0.199 OA
ENDROOT
BRANCH   1   4
HETATM    4  N1  UNL     1      15.211   0.434  17.137  1.00  0.00    -0.323 N 
ATOM      5  H12 UNL     1      14.903   1.030  17.906  1.00  0.00     0.169 HD
ATOM      6  H11 UNL     1      14.960  -0.542  16.979  1.00  0.00     0.169 HD
ENDBRANCH   1   4
BRANCH   1   7
HETATM    7  C1  UNL     1      15.767   2.537  15.373  1.00  0.00     0.189 A 
HETATM    8  C2  UNL     1      14.868   3.373  16.014  1.00  0.00     0.053 A 
HETATM    9  C3  UNL     1      14.787   4.539  15.286  1.00  0.00     0.028 A 
HETATM   10  C4  UNL     1      15.648   4.363  14.221  1.00  0.00     0.143 A 
HETATM   11  O3  UNL     1      16.200   3.164  14.320  1.00  0.00    -0.310 OA
ENDBRANCH   1   7
TORSDOF 2
ENDMDL
