MODEL 6
REMARK VINA RESULT: -5.064996238      1.391      1.391
REMARK  2 active torsions:
REMARK  status: ('A' for Active; 'I' for Inactive)
REMARK    1  A    between atoms: N1_1  and  S1_4 
REMARK    2  A    between atoms: S1_4  and  C1_7 
ROOT
HETATM    1  S1  UNL     1      15.358   1.128  16.772  1.00  0.00     0.279 S 
HETATM    2  O1  UNL     1      13.997   0.500  16.515  1.00  0.00    -0.199 OA
HETATM    3  O2  UNL     1      15.639   1.256  18.232  1.00  0.00    -0.199 OA
ENDROOT
BRANCH   1   4
HETATM    4  N1  UNL     1      16.525   0.158  16.008  1.00  0.00    -0.323 N 
ATOM      5  H12 UNL     1      16.352  -0.460  15.215  1.00  0.00     0.169 HD
ATOM      6  H11 UNL     1      17.413   0.310  16.485  1.00  0.00     0.169 HD
ENDBRANCH   1   4
BRANCH   1   7
HETATM    7  C1  UNL     1      15.417   2.730  16.021  1.00  0.00     0.189 A 
HETATM    8  C2  UNL     1      14.569   3.796  16.271  1.00  0.00     0.053 A 
HETATM    9  C3  UNL     1      14.969   4.846  15.474  1.00  0.00     0.028 A 
HETATM   10  C4  UNL     1      16.054   4.371  14.764  1.00  0.00     0.143 A 
HETATM   11  O3  UNL     1      16.276   3.117  15.124  1.00  0.00    -0.310 OA
ENDBRANCH   1   7
TORSDOF 2
ENDMDL
