MODEL 7
REMARK VINA RESULT: -4.473054991      4.257      4.955
REMARK  2 active torsions:
REMARK  status: ('A' for Active; 'I' for Inactive)
REMARK    1  A    between atoms: N1_1  and  S1_4 
REMARK    2  A    between atoms: S1_4  and  C1_7 
ROOT
HETATM    1  C1  UNL     1      18.250   1.279  11.591  1.00  0.00     0.223 A 
HETATM    2  N2  UNL     1      18.169   2.420  12.267  1.00  0.00    -0.340 N 
ATOM      3  H2  UNL     1      17.417   2.663  12.911  1.00  0.00     0.167 HD
HETATM    4  C2  UNL     1      19.230   3.219  11.978  1.00  0.00     0.107 A 
HETATM    5  C3  UNL     1      19.989   2.512  11.077  1.00  0.00     0.107 A 
HETATM    6  N3  UNL     1      19.364   1.329  10.859  1.00  0.00    -0.340 N 
ATOM      7  H3  UNL     1      19.695   0.593  10.234  1.00  0.00     0.167 HD
ENDROOT
BRANCH   1   8
HETATM    8  S1  UNL     1      17.102  -0.031  11.660  1.00  0.00     0.288 S 
HETATM    9  O1  UNL     1      16.487  -0.099  13.041  1.00  0.00    -0.198 OA
HETATM   10  O2  UNL     1      17.818  -1.345  11.461  1.00  0.00    -0.198 OA
BRANCH   8  11
HETATM   11  N1  UNL     1      15.875   0.214  10.471  1.00  0.00    -0.322 N 
ATOM     12  H12 UNL     1      16.063   0.359   9.479  1.00  0.00     0.169 HD
ATOM     13  H11 UNL     1      14.953   0.191  10.905  1.00  0.00     0.169 HD
ENDBRANCH   8  11
ENDBRANCH   1   8
TORSDOF 2
ENDMDL
