MODEL 1
REMARK VINA RESULT: -5.035318727      0.000      0.000
REMARK  2 active torsions:
REMARK  status: ('A' for Active; 'I' for Inactive)
REMARK    1  A    between atoms: N1_1  and  S1_4 
REMARK    2  A    between atoms: S1_4  and  C1_7 
ROOT
HETATM    1  C1  UNL     1      15.888   2.542  15.190  1.00  0.00     0.223 A 
HETATM    2  N2  UNL     1      16.792   3.127  14.411  1.00  0.00    -0.340 N 
ATOM      3  H2  UNL     1      17.689   2.719  14.153  1.00  0.00     0.167 HD
HETATM    4  C2  UNL     1      16.350   4.348  14.009  1.00  0.00     0.107 A 
HETATM    5  C3  UNL     1      15.110   4.499  14.580  1.00  0.00     0.107 A 
HETATM    6  N3  UNL     1      14.853   3.377  15.299  1.00  0.00    -0.340 N 
ATOM      7  H3  UNL     1      14.004   3.201  15.836  1.00  0.00     0.167 HD
ENDROOT
BRANCH   1   8
HETATM    8  S1  UNL     1      16.043   0.969  15.927  1.00  0.00     0.288 S 
HETATM    9  O1  UNL     1      17.373   0.868  16.640  1.00  0.00    -0.198 OA
HETATM   10  O2  UNL     1      16.066  -0.095  14.855  1.00  0.00    -0.198 OA
BRANCH   8  11
HETATM   11  N1  UNL     1      14.747   0.724  17.040  1.00  0.00    -0.322 N 
ATOM     12  H12 UNL     1      14.727   1.105  17.986  1.00  0.00     0.169 HD
ATOM     13  H11 UNL     1      14.018   0.151  16.614  1.00  0.00     0.169 HD
ENDBRANCH   8  11
ENDBRANCH   1   8
TORSDOF 2
ENDMDL
