MODEL 4
REMARK VINA RESULT: -4.823136057      1.232      1.645
REMARK  2 active torsions:
REMARK  status: ('A' for Active; 'I' for Inactive)
REMARK    1  A    between atoms: N1_1  and  S1_4 
REMARK    2  A    between atoms: S1_4  and  C1_7 
ROOT
HETATM    1  C1  UNL     1      15.899   2.598  15.122  1.00  0.00     0.223 A 
HETATM    2  N2  UNL     1      16.747   3.386  14.470  1.00  0.00    -0.340 N 
ATOM      3  H2  UNL     1      17.681   3.112  14.168  1.00  0.00     0.167 HD
HETATM    4  C2  UNL     1      16.193   4.610  14.264  1.00  0.00     0.107 A 
HETATM    5  C3  UNL     1      14.941   4.548  14.825  1.00  0.00     0.107 A 
HETATM    6  N3  UNL     1      14.788   3.304  15.343  1.00  0.00    -0.340 N 
ATOM      7  H3  UNL     1      13.957   2.962  15.825  1.00  0.00     0.167 HD
ENDROOT
BRANCH   1   8
HETATM    8  S1  UNL     1      16.199   0.946  15.593  1.00  0.00     0.288 S 
HETATM    9  O1  UNL     1      14.968   0.375  16.264  1.00  0.00    -0.198 OA
HETATM   10  O2  UNL     1      17.293   0.904  16.632  1.00  0.00    -0.198 OA
BRANCH   8  11
HETATM   11  N1  UNL     1      16.607   0.014  14.199  1.00  0.00    -0.322 N 
ATOM     12  H12 UNL     1      17.463  -0.533  14.108  1.00  0.00     0.169 HD
ATOM     13  H11 UNL     1      15.873   0.091  13.495  1.00  0.00     0.169 HD
ENDBRANCH   8  11
ENDBRANCH   1   8
TORSDOF 2
ENDMDL
