MODEL 10
REMARK VINA RESULT: -4.415349134      3.557      4.308
REMARK  2 active torsions:
REMARK  status: ('A' for Active; 'I' for Inactive)
REMARK    1  A    between atoms: N1_1  and  S1_4 
REMARK    2  A    between atoms: S1_4  and  C1_7 
ROOT
HETATM    1  C1  UNL     1      16.397   1.865  12.936  1.00  0.00     0.223 A 
HETATM    2  N2  UNL     1      15.967   2.875  13.685  1.00  0.00    -0.340 N 
ATOM      3  H2  UNL     1      15.716   3.797  13.331  1.00  0.00     0.167 HD
HETATM    4  C2  UNL     1      15.910   2.505  14.992  1.00  0.00     0.107 A 
HETATM    5  C3  UNL     1      16.330   1.197  15.024  1.00  0.00     0.107 A 
HETATM    6  N3  UNL     1      16.622   0.832  13.750  1.00  0.00    -0.340 N 
ATOM      7  H3  UNL     1      16.959  -0.086  13.462  1.00  0.00     0.167 HD
ENDROOT
BRANCH   1   8
HETATM    8  S1  UNL     1      16.620   1.901  11.207  1.00  0.00     0.288 S 
HETATM    9  O1  UNL     1      18.097   1.972  10.884  1.00  0.00    -0.198 OA
HETATM   10  O2  UNL     1      16.012   3.162  10.642  1.00  0.00    -0.198 OA
BRANCH   8  11
HETATM   11  N1  UNL     1      15.922   0.486  10.507  1.00  0.00    -0.322 N 
ATOM     12  H12 UNL     1      15.788  -0.392  11.007  1.00  0.00     0.169 HD
ATOM     13  H11 UNL     1      15.668   0.662   9.535  1.00  0.00     0.169 HD
ENDBRANCH   8  11
ENDBRANCH   1   8
TORSDOF 2
ENDMDL
