MODEL 5
REMARK VINA RESULT: -4.552836921      1.713      2.031
REMARK  2 active torsions:
REMARK  status: ('A' for Active; 'I' for Inactive)
REMARK    1  A    between atoms: N1_1  and  S1_4 
REMARK    2  A    between atoms: S1_4  and  C1_7 
ROOT
HETATM    1  C1  UNL     1      15.332   2.243  15.771  1.00  0.00     0.223 A 
HETATM    2  N2  UNL     1      14.792   3.410  15.435  1.00  0.00    -0.340 N 
ATOM      3  H2  UNL     1      13.990   3.835  15.898  1.00  0.00     0.167 HD
HETATM    4  C2  UNL     1      15.462   3.956  14.386  1.00  0.00     0.107 A 
HETATM    5  C3  UNL     1      16.459   3.063  14.078  1.00  0.00     0.107 A 
HETATM    6  N3  UNL     1      16.355   2.023  14.943  1.00  0.00    -0.340 N 
ATOM      7  H3  UNL     1      16.963   1.204  14.958  1.00  0.00     0.167 HD
ENDROOT
BRANCH   1   8
HETATM    8  S1  UNL     1      14.789   1.202  17.061  1.00  0.00     0.288 S 
HETATM    9  O1  UNL     1      15.710   0.007  17.174  1.00  0.00    -0.198 OA
HETATM   10  O2  UNL     1      13.427   0.645  16.725  1.00  0.00    -0.198 OA
BRANCH   8  11
HETATM   11  N1  UNL     1      14.770   2.085  18.544  1.00  0.00    -0.322 N 
ATOM     12  H12 UNL     1      15.587   2.547  18.944  1.00  0.00     0.169 HD
ATOM     13  H11 UNL     1      13.834   2.075  18.949  1.00  0.00     0.169 HD
ENDBRANCH   8  11
ENDBRANCH   1   8
TORSDOF 2
ENDMDL
