MODEL 8
REMARK VINA RESULT: -4.449204124      4.211      4.887
REMARK  2 active torsions:
REMARK  status: ('A' for Active; 'I' for Inactive)
REMARK    1  A    between atoms: N1_1  and  S1_4 
REMARK    2  A    between atoms: S1_4  and  C1_7 
ROOT
HETATM    1  C1  UNL     1      18.003   1.823  11.681  1.00  0.00     0.223 A 
HETATM    2  N2  UNL     1      18.393   2.924  12.315  1.00  0.00    -0.340 N 
ATOM      3  H2  UNL     1      17.822   3.448  12.978  1.00  0.00     0.167 HD
HETATM    4  C2  UNL     1      19.661   3.254  11.953  1.00  0.00     0.107 A 
HETATM    5  C3  UNL     1      20.050   2.293  11.052  1.00  0.00     0.107 A 
HETATM    6  N3  UNL     1      19.014   1.430  10.905  1.00  0.00    -0.340 N 
ATOM      7  H3  UNL     1      19.009   0.611  10.297  1.00  0.00     0.167 HD
ENDROOT
BRANCH   1   8
HETATM    8  S1  UNL     1      16.449   1.048  11.847  1.00  0.00     0.288 S 
HETATM    9  O1  UNL     1      15.392   2.086  12.154  1.00  0.00    -0.198 OA
HETATM   10  O2  UNL     1      16.471   0.115  13.034  1.00  0.00    -0.198 OA
BRANCH   8  11
HETATM   11  N1  UNL     1      16.063   0.214  10.386  1.00  0.00    -0.322 N 
ATOM     12  H12 UNL     1      16.201   0.602   9.453  1.00  0.00     0.169 HD
ATOM     13  H11 UNL     1      15.684  -0.709  10.596  1.00  0.00     0.169 HD
ENDBRANCH   8  11
ENDBRANCH   1   8
TORSDOF 2
ENDMDL
