MODEL 3
REMARK VINA RESULT: -4.763687905      1.687      2.148
REMARK  2 active torsions:
REMARK  status: ('A' for Active; 'I' for Inactive)
REMARK    1  A    between atoms: N1_1  and  S1_4 
REMARK    2  A    between atoms: S1_4  and  C1_7 
ROOT
HETATM    1  C1  UNL     1      15.552   2.686  15.985  1.00  0.00     0.190 A 
HETATM    2  N2  UNL     1      14.635   3.631  15.933  1.00  0.00    -0.349 N 
ATOM      3  H2  UNL     1      13.706   3.462  16.316  1.00  0.00     0.166 HD
HETATM    4  C2  UNL     1      14.914   4.777  15.394  1.00  0.00     0.097 A 
HETATM    5  C3  UNL     1      16.174   4.961  14.893  1.00  0.00     0.069 A 
HETATM    6  S2  UNL     1      16.890   3.425  15.243  1.00  0.00    -0.069 SA
ENDROOT
BRANCH   1   7
HETATM    7  S1  UNL     1      15.394   1.084  16.658  1.00  0.00     0.279 S 
HETATM    8  O1  UNL     1      14.054   0.493  16.455  1.00  0.00    -0.199 OA
HETATM    9  O2  UNL     1      15.757   1.146  18.135  1.00  0.00    -0.199 OA
BRANCH   7  10
HETATM   10  N1  UNL     1      16.588   0.033  15.934  1.00  0.00    -0.323 N 
ATOM     11  H12 UNL     1      16.996   0.166  15.009  1.00  0.00     0.169 HD
ATOM     12  H11 UNL     1      16.801  -0.721  16.587  1.00  0.00     0.169 HD
ENDBRANCH   7  10
ENDBRANCH   1   7
TORSDOF 2
ENDMDL
