MODEL 6
REMARK VINA RESULT: -4.607180225      1.671      1.861
REMARK  2 active torsions:
REMARK  status: ('A' for Active; 'I' for Inactive)
REMARK    1  A    between atoms: N1_1  and  S1_4 
REMARK    2  A    between atoms: S1_4  and  C1_7 
ROOT
HETATM    1  C1  UNL     1      15.405   2.753  15.924  1.00  0.00     0.190 A 
HETATM    2  N2  UNL     1      14.734   3.887  15.968  1.00  0.00    -0.349 N 
ATOM      3  H2  UNL     1      14.006   4.021  16.669  1.00  0.00     0.166 HD
HETATM    4  C2  UNL     1      14.999   4.831  15.121  1.00  0.00     0.097 A 
HETATM    5  C3  UNL     1      15.985   4.607  14.198  1.00  0.00     0.069 A 
HETATM    6  S2  UNL     1      16.474   3.005  14.628  1.00  0.00    -0.069 SA
ENDROOT
BRANCH   1   7
HETATM    7  S1  UNL     1      15.215   1.360  16.959  1.00  0.00     0.279 S 
HETATM    8  O1  UNL     1      16.385   0.457  16.944  1.00  0.00    -0.199 OA
HETATM    9  O2  UNL     1      13.943   0.630  16.552  1.00  0.00    -0.199 OA
BRANCH   7  10
HETATM   10  N1  UNL     1      14.936   1.894  18.600  1.00  0.00    -0.323 N 
ATOM     11  H12 UNL     1      15.226   1.385  19.434  1.00  0.00     0.169 HD
ATOM     12  H11 UNL     1      14.442   2.785  18.575  1.00  0.00     0.169 HD
ENDBRANCH   7  10
ENDBRANCH   1   7
TORSDOF 2
ENDMDL
