MODEL 1
REMARK VINA RESULT: -4.908262372      0.000      0.000
REMARK  2 active torsions:
REMARK  status: ('A' for Active; 'I' for Inactive)
REMARK    1  A    between atoms: N1_1  and  S1_4 
REMARK    2  A    between atoms: S1_4  and  C1_7 
ROOT
HETATM    1  C1  UNL     1      15.953   2.552  16.070  1.00  0.00     0.190 A 
HETATM    2  N2  UNL     1      17.211   2.849  15.814  1.00  0.00    -0.349 N 
ATOM      3  H2  UNL     1      17.953   2.210  16.097  1.00  0.00     0.166 HD
HETATM    4  C2  UNL     1      17.506   3.954  15.204  1.00  0.00     0.097 A 
HETATM    5  C3  UNL     1      16.478   4.782  14.842  1.00  0.00     0.069 A 
HETATM    6  S2  UNL     1      15.118   3.884  15.425  1.00  0.00    -0.069 SA
ENDROOT
BRANCH   1   7
HETATM    7  S1  UNL     1      15.334   1.132  16.873  1.00  0.00     0.279 S 
HETATM    8  O1  UNL     1      15.727   1.048  18.297  1.00  0.00    -0.199 OA
HETATM    9  O2  UNL     1      15.789  -0.096  16.098  1.00  0.00    -0.199 OA
BRANCH   7  10
HETATM   10  N1  UNL     1      13.590   1.123  16.769  1.00  0.00    -0.323 N 
ATOM     11  H12 UNL     1      12.960   1.424  17.514  1.00  0.00     0.169 HD
ATOM     12  H11 UNL     1      13.317   0.772  15.852  1.00  0.00     0.169 HD
ENDBRANCH   7  10
ENDBRANCH   1   7
TORSDOF 2
ENDMDL
