MODEL 5
REMARK VINA RESULT: -4.730444555      2.008      2.164
REMARK  2 active torsions:
REMARK  status: ('A' for Active; 'I' for Inactive)
REMARK    1  A    between atoms: N1_1  and  S1_4 
REMARK    2  A    between atoms: S1_4  and  C1_7 
ROOT
HETATM    1  C1  UNL     1      15.964   2.709  15.173  1.00  0.00     0.190 A 
HETATM    2  N2  UNL     1      16.544   3.535  14.326  1.00  0.00    -0.349 N 
ATOM      3  H2  UNL     1      17.327   3.216  13.757  1.00  0.00     0.166 HD
HETATM    4  C2  UNL     1      16.119   4.755  14.215  1.00  0.00     0.097 A 
HETATM    5  C3  UNL     1      15.065   5.141  14.998  1.00  0.00     0.069 A 
HETATM    6  S2  UNL     1      14.750   3.677  15.864  1.00  0.00    -0.069 SA
ENDROOT
BRANCH   1   7
HETATM    7  S1  UNL     1      16.370   1.040  15.482  1.00  0.00     0.279 S 
HETATM    8  O1  UNL     1      15.271   0.277  16.111  1.00  0.00    -0.199 OA
HETATM    9  O2  UNL     1      17.631   1.001  16.332  1.00  0.00    -0.199 OA
BRANCH   7  10
HETATM   10  N1  UNL     1      16.805   0.264  13.977  1.00  0.00    -0.323 N 
ATOM     11  H12 UNL     1      16.148  -0.199  13.350  1.00  0.00     0.169 HD
ATOM     12  H11 UNL     1      17.811   0.354  13.840  1.00  0.00     0.169 HD
ENDBRANCH   7  10
ENDBRANCH   1   7
TORSDOF 2
ENDMDL
