MODEL 7
REMARK VINA RESULT: -4.596411498      1.339      1.361
REMARK  2 active torsions:
REMARK  status: ('A' for Active; 'I' for Inactive)
REMARK    1  A    between atoms: N1_1  and  S1_4 
REMARK    2  A    between atoms: S1_4  and  C1_7 
ROOT
HETATM    1  C1  UNL     1      15.782   2.697  16.216  1.00  0.00     0.190 A 
HETATM    2  N2  UNL     1      17.049   2.817  15.874  1.00  0.00    -0.349 N 
ATOM      3  H2  UNL     1      17.743   2.179  16.261  1.00  0.00     0.166 HD
HETATM    4  C2  UNL     1      17.413   3.746  15.047  1.00  0.00     0.097 A 
HETATM    5  C3  UNL     1      16.446   4.579  14.552  1.00  0.00     0.069 A 
HETATM    6  S2  UNL     1      15.040   3.948  15.337  1.00  0.00    -0.069 SA
ENDROOT
BRANCH   1   7
HETATM    7  S1  UNL     1      15.077   1.529  17.305  1.00  0.00     0.279 S 
HETATM    8  O1  UNL     1      15.860   0.279  17.409  1.00  0.00    -0.199 OA
HETATM    9  O2  UNL     1      13.649   1.254  16.856  1.00  0.00    -0.199 OA
BRANCH   7  10
HETATM   10  N1  UNL     1      14.932   2.237  18.896  1.00  0.00    -0.323 N 
ATOM     11  H12 UNL     1      15.062   1.731  19.772  1.00  0.00     0.169 HD
ATOM     12  H11 UNL     1      14.700   3.225  18.796  1.00  0.00     0.169 HD
ENDBRANCH   7  10
ENDBRANCH   1   7
TORSDOF 2
ENDMDL
