MODEL 4
REMARK VINA RESULT: -5.150029223      1.681      2.133
REMARK  2 active torsions:
REMARK  status: ('A' for Active; 'I' for Inactive)
REMARK    1  A    between atoms: N1_1  and  S1_4 
REMARK    2  A    between atoms: S1_4  and  C1_7 
ROOT
HETATM    1  S1  UNL     1      16.500   1.070  15.412  1.00  0.00     0.263 S 
HETATM    2  O1  UNL     1      15.304   0.337  15.989  1.00  0.00    -0.200 OA
HETATM    3  O2  UNL     1      17.665   0.936  16.317  1.00  0.00    -0.200 OA
ENDROOT
BRANCH   1   4
HETATM    4  N1  UNL     1      16.894   0.332  13.903  1.00  0.00    -0.324 N 
ATOM      5  H12 UNL     1      16.218  -0.008  13.218  1.00  0.00     0.169 HD
ATOM      6  H11 UNL     1      17.910   0.301  13.826  1.00  0.00     0.169 HD
ENDBRANCH   1   4
BRANCH   1   7
HETATM    7  C1  UNL     1      16.071   2.746  15.173  1.00  0.00     0.119 A 
HETATM    8  C2  UNL     1      16.737   3.731  14.491  1.00  0.00     0.033 A 
HETATM    9  C3  UNL     1      16.190   4.943  14.457  1.00  0.00     0.009 A 
HETATM   10  C4  UNL     1      14.995   5.125  15.109  1.00  0.00     0.051 A 
HETATM   11  S2  UNL     1      14.689   3.550  15.753  1.00  0.00    -0.088 SA
ENDBRANCH   1   7
TORSDOF 2
ENDMDL
