MODEL 8
REMARK VINA RESULT: -4.941338444      1.730      1.956
REMARK  2 active torsions:
REMARK  status: ('A' for Active; 'I' for Inactive)
REMARK    1  A    between atoms: N1_1  and  S1_4 
REMARK    2  A    between atoms: S1_4  and  C1_7 
ROOT
HETATM    1  S1  UNL     1      15.235   1.092  16.763  1.00  0.00     0.263 S 
HETATM    2  O1  UNL     1      15.753   1.123  18.189  1.00  0.00    -0.200 OA
HETATM    3  O2  UNL     1      15.604  -0.187  16.114  1.00  0.00    -0.200 OA
ENDROOT
BRANCH   1   4
HETATM    4  N1  UNL     1      13.514   1.196  16.826  1.00  0.00    -0.324 N 
ATOM      5  H12 UNL     1      12.895   0.496  17.235  1.00  0.00     0.169 HD
ATOM      6  H11 UNL     1      13.238   2.074  16.385  1.00  0.00     0.169 HD
ENDBRANCH   1   4
BRANCH   1   7
HETATM    7  C1  UNL     1      15.894   2.457  15.895  1.00  0.00     0.119 A 
HETATM    8  C2  UNL     1      17.199   2.771  15.620  1.00  0.00     0.033 A 
HETATM    9  C3  UNL     1      17.439   3.883  14.932  1.00  0.00     0.009 A 
HETATM   10  C4  UNL     1      16.362   4.642  14.544  1.00  0.00     0.051 A 
HETATM   11  S2  UNL     1      15.033   3.737  15.178  1.00  0.00    -0.088 SA
ENDBRANCH   1   7
TORSDOF 2
ENDMDL
