MODEL 5
REMARK VINA RESULT: -5.144479837      1.526      1.912
REMARK  2 active torsions:
REMARK  status: ('A' for Active; 'I' for Inactive)
REMARK    1  A    between atoms: N1_1  and  S1_4 
REMARK    2  A    between atoms: S1_4  and  C1_7 
ROOT
HETATM    1  S1  UNL     1      15.486   1.176  16.568  1.00  0.00     0.263 S 
HETATM    2  O1  UNL     1      14.088   0.627  16.354  1.00  0.00    -0.200 OA
HETATM    3  O2  UNL     1      15.790   1.243  18.016  1.00  0.00    -0.200 OA
ENDROOT
BRANCH   1   4
HETATM    4  N1  UNL     1      16.600   0.086  15.826  1.00  0.00    -0.324 N 
ATOM      5  H12 UNL     1      16.344  -0.738  15.281  1.00  0.00     0.169 HD
ATOM      6  H11 UNL     1      17.543   0.415  16.032  1.00  0.00     0.169 HD
ENDBRANCH   1   4
BRANCH   1   7
HETATM    7  C1  UNL     1      15.593   2.752  15.823  1.00  0.00     0.119 A 
HETATM    8  C2  UNL     1      14.674   3.768  15.791  1.00  0.00     0.033 A 
HETATM    9  C3  UNL     1      15.004   4.885  15.149  1.00  0.00     0.009 A 
HETATM   10  C4  UNL     1      16.243   4.943  14.559  1.00  0.00     0.051 A 
HETATM   11  S2  UNL     1      16.902   3.392  14.945  1.00  0.00    -0.088 SA
ENDBRANCH   1   7
TORSDOF 2
ENDMDL
