MODEL 7
REMARK VINA RESULT: -5.068451715      1.475      1.475
REMARK  2 active torsions:
REMARK  status: ('A' for Active; 'I' for Inactive)
REMARK    1  A    between atoms: N1_1  and  S1_4 
REMARK    2  A    between atoms: S1_4  and  C1_7 
ROOT
HETATM    1  S1  UNL     1      15.247   1.522  16.894  1.00  0.00     0.263 S 
HETATM    2  O1  UNL     1      16.515   0.689  16.905  1.00  0.00    -0.200 OA
HETATM    3  O2  UNL     1      14.095   0.689  16.476  1.00  0.00    -0.200 OA
ENDROOT
BRANCH   1   4
HETATM    4  N1  UNL     1      14.965   2.076  18.503  1.00  0.00    -0.324 N 
ATOM      5  H12 UNL     1      15.650   2.552  19.091  1.00  0.00     0.169 HD
ATOM      6  H11 UNL     1      14.004   1.842  18.750  1.00  0.00     0.169 HD
ENDBRANCH   1   4
BRANCH   1   7
HETATM    7  C1  UNL     1      15.473   2.878  15.817  1.00  0.00     0.119 A 
HETATM    8  C2  UNL     1      14.730   4.021  15.682  1.00  0.00     0.033 A 
HETATM    9  C3  UNL     1      15.120   4.913  14.776  1.00  0.00     0.009 A 
HETATM   10  C4  UNL     1      16.241   4.627  14.035  1.00  0.00     0.051 A 
HETATM   11  S2  UNL     1      16.705   3.084  14.662  1.00  0.00    -0.088 SA
ENDBRANCH   1   7
TORSDOF 2
ENDMDL
