MODEL 10
REMARK VINA RESULT: -4.868034429      2.076      2.281
REMARK  2 active torsions:
REMARK  status: ('A' for Active; 'I' for Inactive)
REMARK    1  A    between atoms: N1_1  and  S1_4 
REMARK    2  A    between atoms: S1_4  and  C1_7 
ROOT
HETATM    1  S1  UNL     1      14.978   1.520  17.295  1.00  0.00     0.263 S 
HETATM    2  O1  UNL     1      15.905   0.342  17.531  1.00  0.00    -0.200 OA
HETATM    3  O2  UNL     1      13.650   1.041  16.846  1.00  0.00    -0.200 OA
ENDROOT
BRANCH   1   4
HETATM    4  N1  UNL     1      14.781   2.346  18.798  1.00  0.00    -0.324 N 
ATOM      5  H12 UNL     1      15.086   1.997  19.706  1.00  0.00     0.169 HD
ATOM      6  H11 UNL     1      14.312   3.231  18.608  1.00  0.00     0.169 HD
ENDBRANCH   1   4
BRANCH   1   7
HETATM    7  C1  UNL     1      15.705   2.580  16.112  1.00  0.00     0.119 A 
HETATM    8  C2  UNL     1      17.012   2.682  15.715  1.00  0.00     0.033 A 
HETATM    9  C3  UNL     1      17.311   3.581  14.782  1.00  0.00     0.009 A 
HETATM   10  C4  UNL     1      16.287   4.347  14.280  1.00  0.00     0.051 A 
HETATM   11  S2  UNL     1      14.924   3.754  15.161  1.00  0.00    -0.088 SA
ENDBRANCH   1   7
TORSDOF 2
ENDMDL
