MODEL 1
REMARK VINA RESULT: -6.226460208      0.000      0.000
REMARK  5 active torsions:
REMARK  status: ('A' for Active; 'I' for Inactive)
REMARK    1  A    between atoms: N1_5  and  C4_6 
REMARK    2  A    between atoms: C5_8  and  C6_9 
REMARK    3  A    between atoms: C6_9  and  O3_10 
REMARK    4  A    between atoms: C7_12  and  O4_13 
REMARK    5  A    between atoms: C8_15  and  O5_16 
ROOT
HETATM    1  C4  UNL     1      46.711   4.220  18.721  1.00  0.00     0.261 C 
HETATM    2  O2  UNL     1      47.004   2.967  19.212  1.00  0.00    -0.353 OA
HETATM    3  C5  UNL     1      47.839   2.495  18.199  1.00  0.00     0.179 C 
HETATM    4  C7  UNL     1      48.840   3.604  17.959  1.00  0.00     0.182 C 
HETATM    5  C8  UNL     1      48.080   4.809  18.496  1.00  0.00     0.198 C 
ENDROOT
BRANCH   1   6
HETATM    6  N1  UNL     1      45.877   5.019  19.565  1.00  0.00    -0.304 N 
HETATM    7  C3  UNL     1      46.116   5.278  20.851  1.00  0.00     0.102 A 
HETATM    8  C2  UNL     1      45.255   6.064  21.602  1.00  0.00     0.092 A 
HETATM    9  C1  UNL     1      44.128   6.577  20.975  1.00  0.00     0.248 A 
HETATM   10  O1  UNL     1      43.335   7.293  21.640  1.00  0.00    -0.268 OA
HETATM   11  N2  UNL     1      43.896   6.312  19.681  1.00  0.00    -0.300 N 
HETATM   12  C9  UNL     1      44.769   5.542  19.006  1.00  0.00     0.182 A 
ATOM     13  H2  UNL     1      43.069   6.687  19.215  1.00  0.00     0.171 HD
HETATM   14  S1  UNL     1      44.432   5.247  17.412  1.00  0.00    -0.040 SA
ENDBRANCH   1   6
BRANCH   5  15
HETATM   15  O5  UNL     1      47.967   5.815  17.552  1.00  0.00    -0.388 OA
ATOM     16  H5  UNL     1      48.829   6.188  17.412  1.00  0.00     0.210 HD
ENDBRANCH   5  15
BRANCH   3  17
HETATM   17  C6  UNL     1      48.499   1.193  18.553  1.00  0.00     0.198 C 
BRANCH  17  18
HETATM   18  O3  UNL     1      49.212   0.782  17.409  1.00  0.00    -0.398 OA
ATOM     19  H3  UNL     1      49.605  -0.056  17.623  1.00  0.00     0.209 HD
ENDBRANCH  17  18
ENDBRANCH   3  17
BRANCH   4  20
HETATM   20  O4  UNL     1      49.073   3.799  16.591  1.00  0.00    -0.390 OA
ATOM     21  H4  UNL     1      48.752   4.644  16.300  1.00  0.00     0.210 HD
ENDBRANCH   4  20
TORSDOF 5
ENDMDL
