MODEL 2
REMARK VINA RESULT: -6.011698940      2.333      5.795
REMARK  5 active torsions:
REMARK  status: ('A' for Active; 'I' for Inactive)
REMARK    1  A    between atoms: N1_5  and  C4_6 
REMARK    2  A    between atoms: C5_8  and  C6_9 
REMARK    3  A    between atoms: C6_9  and  O3_10 
REMARK    4  A    between atoms: C7_12  and  O4_13 
REMARK    5  A    between atoms: C8_15  and  O5_16 
ROOT
HETATM    1  C4  UNL     1      45.568   4.119  19.868  1.00  0.00     0.261 C 
HETATM    2  O2  UNL     1      44.520   4.486  19.052  1.00  0.00    -0.353 OA
HETATM    3  C5  UNL     1      43.764   5.241  19.950  1.00  0.00     0.179 C 
HETATM    4  C7  UNL     1      44.748   6.189  20.601  1.00  0.00     0.182 C 
HETATM    5  C8  UNL     1      46.060   5.447  20.383  1.00  0.00     0.198 C 
ENDROOT
BRANCH   1   6
HETATM    6  N1  UNL     1      46.585   3.341  19.229  1.00  0.00    -0.304 N 
HETATM    7  C3  UNL     1      47.537   3.834  18.435  1.00  0.00     0.102 A 
HETATM    8  C2  UNL     1      48.489   3.009  17.854  1.00  0.00     0.092 A 
HETATM    9  C1  UNL     1      48.423   1.649  18.120  1.00  0.00     0.248 A 
HETATM   10  O1  UNL     1      49.278   0.886  17.601  1.00  0.00    -0.268 OA
HETATM   11  N2  UNL     1      47.462   1.163  18.920  1.00  0.00    -0.300 N 
HETATM   12  C9  UNL     1      46.567   2.014  19.455  1.00  0.00     0.182 A 
ATOM     13  H2  UNL     1      47.410   0.164  19.119  1.00  0.00     0.171 HD
HETATM   14  S1  UNL     1      45.402   1.360  20.434  1.00  0.00    -0.040 SA
ENDBRANCH   1   6
BRANCH   5  15
HETATM   15  O5  UNL     1      46.735   5.226  21.570  1.00  0.00    -0.388 OA
ATOM     16  H5  UNL     1      47.079   6.058  21.875  1.00  0.00     0.210 HD
ENDBRANCH   5  15
BRANCH   3  17
HETATM   17  C6  UNL     1      42.628   5.964  19.283  1.00  0.00     0.198 C 
BRANCH  17  18
HETATM   18  O3  UNL     1      41.471   5.663  20.030  1.00  0.00    -0.398 OA
ATOM     19  H3  UNL     1      40.993   6.478  20.126  1.00  0.00     0.209 HD
ENDBRANCH  17  18
ENDBRANCH   3  17
BRANCH   4  20
HETATM   20  O4  UNL     1      44.522   6.296  21.980  1.00  0.00    -0.390 OA
ATOM     21  H4  UNL     1      44.060   7.097  22.196  1.00  0.00     0.210 HD
ENDBRANCH   4  20
TORSDOF 5
ENDMDL
