MODEL 3
REMARK VINA RESULT: -5.960225015      2.090      5.801
REMARK  5 active torsions:
REMARK  status: ('A' for Active; 'I' for Inactive)
REMARK    1  A    between atoms: N1_5  and  C4_6 
REMARK    2  A    between atoms: C5_8  and  C6_9 
REMARK    3  A    between atoms: C6_9  and  O3_10 
REMARK    4  A    between atoms: C7_12  and  O4_13 
REMARK    5  A    between atoms: C8_15  and  O5_16 
ROOT
HETATM    1  C4  UNL     1      45.539   4.291  20.084  1.00  0.00     0.261 C 
HETATM    2  O2  UNL     1      45.167   5.606  19.909  1.00  0.00    -0.353 OA
HETATM    3  C5  UNL     1      44.259   5.746  20.959  1.00  0.00     0.179 C 
HETATM    4  C7  UNL     1      44.966   5.184  22.174  1.00  0.00     0.182 C 
HETATM    5  C8  UNL     1      45.995   4.271  21.521  1.00  0.00     0.198 C 
ENDROOT
BRANCH   1   6
HETATM    6  N1  UNL     1      46.527   3.816  19.165  1.00  0.00    -0.304 N 
HETATM    7  C3  UNL     1      47.639   4.474  18.832  1.00  0.00     0.102 A 
HETATM    8  C2  UNL     1      48.549   3.942  17.930  1.00  0.00     0.092 A 
HETATM    9  C1  UNL     1      48.269   2.700  17.378  1.00  0.00     0.248 A 
HETATM   10  O1  UNL     1      49.083   2.202  16.558  1.00  0.00    -0.268 OA
HETATM   11  N2  UNL     1      47.149   2.046  17.720  1.00  0.00    -0.300 N 
HETATM   12  C9  UNL     1      46.305   2.614  18.600  1.00  0.00     0.182 A 
ATOM     13  H2  UNL     1      46.939   1.132  17.317  1.00  0.00     0.171 HD
HETATM   14  S1  UNL     1      44.938   1.763  18.985  1.00  0.00    -0.040 SA
ENDBRANCH   1   6
BRANCH   5  15
HETATM   15  O5  UNL     1      45.903   2.971  21.985  1.00  0.00    -0.388 OA
ATOM     16  H5  UNL     1      46.482   2.428  21.464  1.00  0.00     0.210 HD
ENDBRANCH   5  15
BRANCH   3  17
HETATM   17  C6  UNL     1      43.820   7.169  21.158  1.00  0.00     0.198 C 
BRANCH  17  18
HETATM   18  O3  UNL     1      44.763   7.760  22.022  1.00  0.00    -0.398 OA
ATOM     19  H3  UNL     1      44.593   8.695  22.006  1.00  0.00     0.209 HD
ENDBRANCH  17  18
ENDBRANCH   3  17
BRANCH   4  20
HETATM   20  O4  UNL     1      44.104   4.399  22.952  1.00  0.00    -0.390 OA
ATOM     21  H4  UNL     1      44.270   3.472  22.826  1.00  0.00     0.210 HD
ENDBRANCH   4  20
TORSDOF 5
ENDMDL
