MODEL 1
REMARK VINA RESULT: -8.994414792      0.000      0.000
REMARK  6 active torsions:
REMARK  status: ('A' for Active; 'I' for Inactive)
REMARK    1  A    between atoms: C1_2  and  C2_3 
REMARK       I    between atoms: C1_2  and  N1_10 
REMARK    2  A    between atoms: C2_3  and  C3_4 
REMARK    3  A    between atoms: C3_4  and  C4_5 
REMARK    4  A    between atoms: C4_5  and  C5_6 
REMARK    5  A    between atoms: C8_13  and  C9_14 
REMARK    6  A    between atoms: C10_17  and  C11_18 
ROOT
HETATM    1  O1  UNL     1      27.940  -9.002  -1.771  1.00  0.00    -0.273 OA
HETATM    2  C1  UNL     1      27.784  -8.750  -3.004  1.00  0.00     0.219 C 
HETATM    3  N1  UNL     1      27.075  -7.553  -3.358  1.00  0.00    -0.352 N 
HETATM    4  C6  UNL     1      26.556  -6.667  -2.358  1.00  0.00     0.126 C 
HETATM    5  C7  UNL     1      25.554  -5.714  -2.974  1.00  0.00     0.033 C 
HETATM    6  C8  UNL     1      26.215  -4.887  -4.058  1.00  0.00     0.066 C 
HETATM    7  C14 UNL     1      27.040  -5.734  -5.000  1.00  0.00     0.033 C 
HETATM    8  C15 UNL     1      26.867  -7.214  -4.748  1.00  0.00     0.126 C 
ENDROOT
BRANCH   6   9
HETATM    9  C9  UNL     1      27.099  -3.872  -3.467  1.00  0.00     0.152 A 
HETATM   10  N2  UNL     1      26.704  -2.779  -2.791  1.00  0.00    -0.321 N 
HETATM   11  C10 UNL     1      27.772  -2.072  -2.394  1.00  0.00     0.162 A 
ATOM     12  H2  UNL     1      25.733  -2.525  -2.607  1.00  0.00     0.169 HD
HETATM   13  N4  UNL     1      28.834  -2.756  -2.841  1.00  0.00    -0.241 N 
HETATM   14  O2  UNL     1      28.426  -3.830  -3.483  1.00  0.00    -0.222 OA
ATOM     15  H4  UNL     1      29.808  -2.485  -2.706  1.00  0.00     0.196 HD
BRANCH  11  16
HETATM   16  C11 UNL     1      27.738  -0.825  -1.636  1.00  0.00     0.120 A 
HETATM   17  N3  UNL     1      27.493  -0.660  -0.344  1.00  0.00    -0.357 N 
HETATM   18  C12 UNL     1      27.502   0.527   0.167  1.00  0.00     0.096 A 
ATOM     19  H3  UNL     1      27.297  -1.469   0.247  1.00  0.00     0.166 HD
HETATM   20  C13 UNL     1      27.770   1.583  -0.665  1.00  0.00     0.069 A 
HETATM   21  S1  UNL     1      27.996   0.776  -2.164  1.00  0.00    -0.079 SA
ENDBRANCH  11  16
ENDBRANCH   6   9
BRANCH   2  22
HETATM   22  C2  UNL     1      28.327  -9.676  -4.004  1.00  0.00     0.103 C 
BRANCH  22  23
HETATM   23  C3  UNL     1      27.296 -10.680  -4.407  1.00  0.00     0.018 C 
BRANCH  23  24
HETATM   24  C4  UNL     1      27.263 -10.908  -5.898  1.00  0.00     0.118 C 
BRANCH  24  25
HETATM   25  C5  UNL     1      27.701 -12.350  -6.141  1.00  0.00     0.387 C 
HETATM   26  F1  UNL     1      26.568 -13.136  -5.909  1.00  0.00    -0.171 F 
HETATM   27  F2  UNL     1      28.749 -12.709  -5.328  1.00  0.00    -0.171 F 
HETATM   28  F3  UNL     1      28.043 -12.434  -7.488  1.00  0.00    -0.171 F 
ENDBRANCH  24  25
ENDBRANCH  23  24
ENDBRANCH  22  23
ENDBRANCH   2  22
TORSDOF 6
ENDMDL
