MODEL 4
REMARK VINA RESULT: -8.600247258      0.854      1.173
REMARK  6 active torsions:
REMARK  status: ('A' for Active; 'I' for Inactive)
REMARK    1  A    between atoms: C1_2  and  C2_3 
REMARK       I    between atoms: C1_2  and  N1_10 
REMARK    2  A    between atoms: C2_3  and  C3_4 
REMARK    3  A    between atoms: C3_4  and  C4_5 
REMARK    4  A    between atoms: C4_5  and  C5_6 
REMARK    5  A    between atoms: C8_13  and  C9_14 
REMARK    6  A    between atoms: C10_17  and  C11_18 
ROOT
HETATM    1  O1  UNL     1      27.200  -8.461  -1.878  1.00  0.00    -0.273 OA
HETATM    2  C1  UNL     1      27.350  -8.116  -3.089  1.00  0.00     0.219 C 
HETATM    3  N1  UNL     1      26.804  -6.853  -3.497  1.00  0.00    -0.352 N 
HETATM    4  C6  UNL     1      26.110  -6.004  -2.574  1.00  0.00     0.126 C 
HETATM    5  C7  UNL     1      25.329  -4.946  -3.324  1.00  0.00     0.033 C 
HETATM    6  C8  UNL     1      26.264  -4.093  -4.156  1.00  0.00     0.066 C 
HETATM    7  C14 UNL     1      27.244  -4.928  -4.950  1.00  0.00     0.033 C 
HETATM    8  C15 UNL     1      26.943  -6.407  -4.865  1.00  0.00     0.126 C 
ENDROOT
BRANCH   6   9
HETATM    9  C9  UNL     1      27.035  -3.183  -3.298  1.00  0.00     0.152 A 
HETATM   10  N2  UNL     1      26.535  -2.160  -2.583  1.00  0.00    -0.321 N 
HETATM   11  C10 UNL     1      27.519  -1.540  -1.915  1.00  0.00     0.162 A 
ATOM     12  H2  UNL     1      25.550  -1.894  -2.552  1.00  0.00     0.169 HD
HETATM   13  N4  UNL     1      28.637  -2.205  -2.236  1.00  0.00    -0.241 N 
HETATM   14  O2  UNL     1      28.342  -3.185  -3.063  1.00  0.00    -0.222 OA
ATOM     15  H4  UNL     1      29.571  -1.985  -1.892  1.00  0.00     0.196 HD
BRANCH  11  16
HETATM   16  C11 UNL     1      27.360  -0.385  -1.035  1.00  0.00     0.120 A 
HETATM   17  N3  UNL     1      28.012  -0.117   0.087  1.00  0.00    -0.357 N 
HETATM   18  C12 UNL     1      27.739   0.961   0.747  1.00  0.00     0.096 A 
ATOM     19  H3  UNL     1      28.726  -0.759   0.429  1.00  0.00     0.166 HD
HETATM   20  C13 UNL     1      26.772   1.794   0.249  1.00  0.00     0.069 A 
HETATM   21  S1  UNL     1      26.306   0.948  -1.173  1.00  0.00    -0.079 SA
ENDBRANCH  11  16
ENDBRANCH   6   9
BRANCH   2  22
HETATM   22  C2  UNL     1      28.064  -9.006  -4.010  1.00  0.00     0.103 C 
BRANCH  22  23
HETATM   23  C3  UNL     1      27.142 -10.045  -4.562  1.00  0.00     0.018 C 
BRANCH  23  24
HETATM   24  C4  UNL     1      27.419 -10.351  -6.013  1.00  0.00     0.118 C 
BRANCH  24  25
HETATM   25  C5  UNL     1      27.632 -11.859  -6.120  1.00  0.00     0.387 C 
HETATM   26  F1  UNL     1      28.652 -12.164  -5.213  1.00  0.00    -0.171 F 
HETATM   27  F2  UNL     1      27.954 -12.240  -7.400  1.00  0.00    -0.171 F 
HETATM   28  F3  UNL     1      26.449 -12.453  -5.688  1.00  0.00    -0.171 F 
ENDBRANCH  24  25
ENDBRANCH  23  24
ENDBRANCH  22  23
ENDBRANCH   2  22
TORSDOF 6
ENDMDL
