MODEL 3
REMARK VINA RESULT: -8.602400860      1.634      2.003
REMARK  6 active torsions:
REMARK  status: ('A' for Active; 'I' for Inactive)
REMARK    1  A    between atoms: C1_2  and  C2_3 
REMARK       I    between atoms: C1_2  and  N1_10 
REMARK    2  A    between atoms: C2_3  and  C3_4 
REMARK    3  A    between atoms: C3_4  and  C4_5 
REMARK    4  A    between atoms: C4_5  and  C5_6 
REMARK    5  A    between atoms: C8_13  and  C9_14 
REMARK    6  A    between atoms: C10_17  and  C11_18 
ROOT
HETATM    1  O1  UNL     1      26.053  -7.241  -1.602  1.00  0.00    -0.273 OA
HETATM    2  C1  UNL     1      26.788  -7.219  -2.636  1.00  0.00     0.219 C 
HETATM    3  N1  UNL     1      26.693  -6.076  -3.498  1.00  0.00    -0.352 N 
HETATM    4  C6  UNL     1      25.801  -4.991  -3.210  1.00  0.00     0.126 C 
HETATM    5  C7  UNL     1      25.623  -4.122  -4.436  1.00  0.00     0.033 C 
HETATM    6  C8  UNL     1      26.956  -3.549  -4.872  1.00  0.00     0.066 C 
HETATM    7  C14 UNL     1      28.043  -4.600  -4.916  1.00  0.00     0.033 C 
HETATM    8  C15 UNL     1      27.506  -5.995  -4.692  1.00  0.00     0.126 C 
ENDROOT
BRANCH   6   9
HETATM    9  C9  UNL     1      27.389  -2.488  -3.952  1.00  0.00     0.152 A 
HETATM   10  N2  UNL     1      26.854  -2.223  -2.747  1.00  0.00    -0.321 N 
HETATM   11  C10 UNL     1      27.491  -1.188  -2.178  1.00  0.00     0.162 A 
ATOM     12  H2  UNL     1      26.078  -2.734  -2.326  1.00  0.00     0.169 HD
HETATM   13  N4  UNL     1      28.430  -0.823  -3.061  1.00  0.00    -0.241 N 
HETATM   14  O2  UNL     1      28.364  -1.602  -4.120  1.00  0.00    -0.222 OA
ATOM     15  H4  UNL     1      29.093  -0.059  -2.933  1.00  0.00     0.196 HD
BRANCH  11  16
HETATM   16  C11 UNL     1      27.190  -0.614  -0.870  1.00  0.00     0.120 A 
HETATM   17  N3  UNL     1      28.018   0.001  -0.037  1.00  0.00    -0.357 N 
HETATM   18  C12 UNL     1      27.578   0.451   1.092  1.00  0.00     0.096 A 
ATOM     19  H3  UNL     1      29.000   0.119  -0.287  1.00  0.00     0.166 HD
HETATM   20  C13 UNL     1      26.251   0.270   1.384  1.00  0.00     0.069 A 
HETATM   21  S1  UNL     1      25.712  -0.557  -0.022  1.00  0.00    -0.079 SA
ENDBRANCH  11  16
ENDBRANCH   6   9
BRANCH   2  22
HETATM   22  C2  UNL     1      27.690  -8.343  -2.904  1.00  0.00     0.103 C 
BRANCH  22  23
HETATM   23  C3  UNL     1      27.064  -9.305  -3.862  1.00  0.00     0.018 C 
BRANCH  23  24
HETATM   24  C4  UNL     1      27.942  -9.584  -5.057  1.00  0.00     0.118 C 
BRANCH  24  25
HETATM   25  C5  UNL     1      27.127 -10.445  -6.020  1.00  0.00     0.387 C 
HETATM   26  F1  UNL     1      26.808 -11.608  -5.311  1.00  0.00    -0.171 F 
HETATM   27  F2  UNL     1      27.823 -10.722  -7.171  1.00  0.00    -0.171 F 
HETATM   28  F3  UNL     1      25.956  -9.739  -6.282  1.00  0.00    -0.171 F 
ENDBRANCH  24  25
ENDBRANCH  23  24
ENDBRANCH  22  23
ENDBRANCH   2  22
TORSDOF 6
ENDMDL
