MODEL 1
REMARK VINA RESULT: -9.086772406      0.000      0.000
REMARK  7 active torsions:
REMARK  status: ('A' for Active; 'I' for Inactive)
REMARK    1  A    between atoms: N1_1  and  C1_5 
REMARK    2  A    between atoms: C1_5  and  C2_6 
REMARK    3  A    between atoms: C1_5  and  C9_13 
REMARK    4  A    between atoms: C2_6  and  C3_7 
REMARK       I    between atoms: C9_13  and  N2_15 
REMARK    5  A    between atoms: C13_19  and  C14_20 
REMARK       I    between atoms: C14_20  and  N3_22 
REMARK    6  A    between atoms: N3_22  and  C15_24 
REMARK    7  A    between atoms: C15_24  and  C16_25 
ROOT
HETATM    1  C9  UNL     1     -17.858 -13.291 -22.749  1.00  0.00     0.251 C 
HETATM    2  O1  UNL     1     -17.023 -12.638 -23.411  1.00  0.00    -0.271 OA
HETATM    3  N2  UNL     1     -18.460 -12.716 -21.616  1.00  0.00    -0.337 N 
HETATM    4  C10 UNL     1     -19.425 -13.303 -20.675  1.00  0.00     0.127 C 
HETATM    5  C11 UNL     1     -20.312 -12.119 -20.324  1.00  0.00     0.022 C 
HETATM    6  C12 UNL     1     -19.288 -11.020 -20.228  1.00  0.00     0.037 C 
HETATM    7  C13 UNL     1     -18.220 -11.368 -21.175  1.00  0.00     0.179 C 
ENDROOT
BRANCH   1   8
HETATM    8  C1  UNL     1     -18.205 -14.668 -23.164  1.00  0.00     0.279 C 
BRANCH   8   9
HETATM    9  N1  UNL     1     -16.955 -15.429 -23.212  1.00  0.00    -0.066 N 
ATOM     10  H13 UNL     1     -16.996 -16.217 -23.860  1.00  0.00     0.275 HD
ATOM     11  H12 UNL     1     -16.198 -14.918 -23.669  1.00  0.00     0.275 HD
ATOM     12  H11 UNL     1     -16.723 -15.711 -22.260  1.00  0.00     0.275 HD
ENDBRANCH   8   9
BRANCH   8  13
HETATM   13  C2  UNL     1     -18.743 -14.557 -24.592  1.00  0.00     0.081 C 
BRANCH  13  14
HETATM   14  C3  UNL     1     -20.004 -13.771 -24.624  1.00  0.00    -0.056 A 
HETATM   15  C4  UNL     1     -20.090 -12.605 -25.389  1.00  0.00     0.007 A 
HETATM   16  C5  UNL     1     -21.227 -11.848 -25.450  1.00  0.00     0.001 A 
HETATM   17  C6  UNL     1     -22.328 -12.271 -24.717  1.00  0.00     0.000 A 
HETATM   18  C7  UNL     1     -22.299 -13.413 -23.945  1.00  0.00     0.001 A 
HETATM   19  C8  UNL     1     -21.128 -14.138 -23.920  1.00  0.00     0.007 A 
ENDBRANCH  13  14
ENDBRANCH   8  13
ENDBRANCH   1   8
BRANCH   7  20
HETATM   20  C14 UNL     1     -16.848 -11.199 -20.621  1.00  0.00     0.240 C 
HETATM   21  O2  UNL     1     -16.759 -10.476 -19.595  1.00  0.00    -0.271 OA
HETATM   22  N3  UNL     1     -15.687 -11.782 -21.161  1.00  0.00    -0.355 N 
ATOM     23  H3  UNL     1     -15.765 -12.362 -21.997  1.00  0.00     0.162 HD
BRANCH  22  24
HETATM   24  C15 UNL     1     -14.387 -11.583 -20.564  1.00  0.00     0.164 C 
BRANCH  24  25
HETATM   25  C16 UNL     1     -13.317 -11.250 -21.509  1.00  0.00    -0.003 A 
HETATM   26  C17 UNL     1     -12.542 -12.204 -22.120  1.00  0.00     0.098 A 
HETATM   27  N4  UNL     1     -11.562 -11.868 -23.014  1.00  0.00    -0.375 N 
HETATM   28  C18 UNL     1     -11.347 -10.575 -23.304  1.00  0.00     0.089 A 
ATOM     29  H4  UNL     1     -10.998 -12.594 -23.455  1.00  0.00     0.164 HD
HETATM   30  C19 UNL     1     -12.111  -9.592 -22.706  1.00  0.00     0.041 A 
HETATM   31  C20 UNL     1     -13.106  -9.898 -21.803  1.00  0.00     0.044 A 
HETATM   32 CL1  UNL     1     -14.090  -8.688 -21.027  1.00  0.00    -0.084 Cl
ENDBRANCH  24  25
ENDBRANCH  22  24
ENDBRANCH   7  20
TORSDOF 7
ENDMDL
