MODEL 16
REMARK VINA RESULT: -7.560723601      2.541      7.519
REMARK  7 active torsions:
REMARK  status: ('A' for Active; 'I' for Inactive)
REMARK    1  A    between atoms: N1_1  and  C1_5 
REMARK    2  A    between atoms: C1_5  and  C2_6 
REMARK    3  A    between atoms: C1_5  and  C9_13 
REMARK    4  A    between atoms: C2_6  and  C3_7 
REMARK       I    between atoms: C9_13  and  N2_15 
REMARK    5  A    between atoms: C13_19  and  C14_20 
REMARK       I    between atoms: C14_20  and  N3_22 
REMARK    6  A    between atoms: N3_22  and  C15_24 
REMARK    7  A    between atoms: C15_24  and  C16_25 
ROOT
HETATM    1  C9  UNL     1     -15.026 -12.101 -20.839  1.00  0.00     0.251 C 
HETATM    2  O1  UNL     1     -15.538 -11.984 -21.973  1.00  0.00    -0.271 OA
HETATM    3  N2  UNL     1     -14.479 -13.333 -20.440  1.00  0.00    -0.337 N 
HETATM    4  C10 UNL     1     -13.869 -13.709 -19.156  1.00  0.00     0.127 C 
HETATM    5  C11 UNL     1     -12.763 -14.664 -19.578  1.00  0.00     0.022 C 
HETATM    6  C12 UNL     1     -13.455 -15.428 -20.676  1.00  0.00     0.037 C 
HETATM    7  C13 UNL     1     -14.414 -14.495 -21.285  1.00  0.00     0.179 C 
ENDROOT
BRANCH   1   8
HETATM    8  C1  UNL     1     -15.001 -10.939 -19.923  1.00  0.00     0.279 C 
BRANCH   8   9
HETATM    9  N1  UNL     1     -15.681  -9.838 -20.609  1.00  0.00    -0.066 N 
ATOM     10  H13 UNL     1     -16.697  -9.890 -20.528  1.00  0.00     0.275 HD
ATOM     11  H12 UNL     1     -15.553  -8.941 -20.140  1.00  0.00     0.275 HD
ATOM     12  H11 UNL     1     -15.362  -9.828 -21.577  1.00  0.00     0.275 HD
ENDBRANCH   8   9
BRANCH   8  13
HETATM   13  C2  UNL     1     -13.528 -10.556 -19.766  1.00  0.00     0.081 C 
BRANCH  13  14
HETATM   14  C3  UNL     1     -12.912 -10.264 -21.087  1.00  0.00    -0.056 A 
HETATM   15  C4  UNL     1     -12.085 -11.206 -21.705  1.00  0.00     0.007 A 
HETATM   16  C5  UNL     1     -11.495 -10.983 -22.917  1.00  0.00     0.001 A 
HETATM   17  C6  UNL     1     -11.740  -9.769 -23.544  1.00  0.00     0.000 A 
HETATM   18  C7  UNL     1     -12.546  -8.804 -22.981  1.00  0.00     0.001 A 
HETATM   19  C8  UNL     1     -13.115  -9.080 -21.757  1.00  0.00     0.007 A 
ENDBRANCH  13  14
ENDBRANCH   8  13
ENDBRANCH   1   8
BRANCH   7  20
HETATM   20  C14 UNL     1     -15.759 -15.088 -21.522  1.00  0.00     0.240 C 
HETATM   21  O2  UNL     1     -16.070 -16.052 -20.777  1.00  0.00    -0.271 OA
HETATM   22  N3  UNL     1     -16.671 -14.645 -22.499  1.00  0.00    -0.355 N 
ATOM     23  H3  UNL     1     -16.410 -13.867 -23.105  1.00  0.00     0.162 HD
BRANCH  22  24
HETATM   24  C15 UNL     1     -17.965 -15.261 -22.667  1.00  0.00     0.164 C 
BRANCH  24  25
HETATM   25  C16 UNL     1     -19.065 -14.329 -22.933  1.00  0.00    -0.003 A 
HETATM   26  C17 UNL     1     -19.977 -13.964 -21.976  1.00  0.00     0.098 A 
HETATM   27  N4  UNL     1     -20.983 -13.076 -22.245  1.00  0.00    -0.375 N 
HETATM   28  C18 UNL     1     -21.086 -12.546 -23.474  1.00  0.00     0.089 A 
ATOM     29  H4  UNL     1     -21.651 -12.819 -21.517  1.00  0.00     0.164 HD
HETATM   30  C19 UNL     1     -20.182 -12.894 -24.459  1.00  0.00     0.041 A 
HETATM   31  C20 UNL     1     -19.159 -13.784 -24.219  1.00  0.00     0.044 A 
HETATM   32 CL1  UNL     1     -18.000 -14.249 -25.435  1.00  0.00    -0.084 Cl
ENDBRANCH  24  25
ENDBRANCH  22  24
ENDBRANCH   7  20
TORSDOF 7
ENDMDL
