MODEL 5
REMARK VINA RESULT: -8.548865343      1.474      1.825
REMARK  7 active torsions:
REMARK  status: ('A' for Active; 'I' for Inactive)
REMARK    1  A    between atoms: N1_1  and  C1_5 
REMARK    2  A    between atoms: C1_5  and  C2_6 
REMARK    3  A    between atoms: C1_5  and  C9_13 
REMARK    4  A    between atoms: C2_6  and  C3_7 
REMARK       I    between atoms: C9_13  and  N2_15 
REMARK    5  A    between atoms: C13_19  and  C14_20 
REMARK       I    between atoms: C14_20  and  N3_22 
REMARK    6  A    between atoms: N3_22  and  C15_24 
REMARK    7  A    between atoms: C15_24  and  C16_25 
ROOT
HETATM    1  C9  UNL     1     -17.820 -13.122 -22.518  1.00  0.00     0.251 C 
HETATM    2  O1  UNL     1     -16.881 -12.451 -22.997  1.00  0.00    -0.271 OA
HETATM    3  N2  UNL     1     -18.593 -12.597 -21.467  1.00  0.00    -0.337 N 
HETATM    4  C10 UNL     1     -19.706 -13.214 -20.731  1.00  0.00     0.127 C 
HETATM    5  C11 UNL     1     -20.624 -12.032 -20.462  1.00  0.00     0.022 C 
HETATM    6  C12 UNL     1     -19.616 -10.962 -20.137  1.00  0.00     0.037 C 
HETATM    7  C13 UNL     1     -18.412 -11.280 -20.916  1.00  0.00     0.179 C 
ENDROOT
BRANCH   1   8
HETATM    8  C1  UNL     1     -18.112 -14.466 -23.063  1.00  0.00     0.279 C 
BRANCH   8   9
HETATM    9  N1  UNL     1     -16.849 -15.207 -23.075  1.00  0.00    -0.066 N 
ATOM     10  H13 UNL     1     -16.287 -15.016 -23.905  1.00  0.00     0.275 HD
ATOM     11  H12 UNL     1     -16.184 -14.866 -22.380  1.00  0.00     0.275 HD
ATOM     12  H11 UNL     1     -17.065 -16.197 -22.962  1.00  0.00     0.275 HD
ENDBRANCH   8   9
BRANCH   8  13
HETATM   13  C2  UNL     1     -18.544 -14.250 -24.514  1.00  0.00     0.081 C 
BRANCH  13  14
HETATM   14  C3  UNL     1     -19.904 -13.655 -24.581  1.00  0.00    -0.056 A 
HETATM   15  C4  UNL     1     -20.127 -12.479 -25.302  1.00  0.00     0.007 A 
HETATM   16  C5  UNL     1     -21.359 -11.894 -25.391  1.00  0.00     0.001 A 
HETATM   17  C6  UNL     1     -22.417 -12.506 -24.733  1.00  0.00     0.000 A 
HETATM   18  C7  UNL     1     -22.255 -13.666 -24.006  1.00  0.00     0.001 A 
HETATM   19  C8  UNL     1     -20.992 -14.214 -23.950  1.00  0.00     0.007 A 
ENDBRANCH  13  14
ENDBRANCH   8  13
ENDBRANCH   1   8
BRANCH   7  20
HETATM   20  C14 UNL     1     -17.147 -11.171 -20.137  1.00  0.00     0.240 C 
HETATM   21  O2  UNL     1     -17.213 -11.537 -18.936  1.00  0.00    -0.271 OA
HETATM   22  N3  UNL     1     -15.925 -10.699 -20.652  1.00  0.00    -0.355 N 
ATOM     23  H3  UNL     1     -15.881 -10.398 -21.626  1.00  0.00     0.162 HD
BRANCH  22  24
HETATM   24  C15 UNL     1     -14.734 -10.629 -19.841  1.00  0.00     0.164 C 
BRANCH  24  25
HETATM   25  C16 UNL     1     -13.862 -11.805 -19.920  1.00  0.00    -0.003 A 
HETATM   26  C17 UNL     1     -14.016 -12.900 -19.107  1.00  0.00     0.098 A 
HETATM   27  N4  UNL     1     -13.200 -13.994 -19.215  1.00  0.00    -0.375 N 
HETATM   28  C18 UNL     1     -12.223 -14.002 -20.135  1.00  0.00     0.089 A 
ATOM     29  H4  UNL     1     -13.333 -14.797 -18.600  1.00  0.00     0.164 HD
HETATM   30  C19 UNL     1     -12.043 -12.914 -20.968  1.00  0.00     0.041 A 
HETATM   31  C20 UNL     1     -12.848 -11.799 -20.885  1.00  0.00     0.044 A 
HETATM   32 CL1  UNL     1     -12.653 -10.408 -21.916  1.00  0.00    -0.084 Cl
ENDBRANCH  24  25
ENDBRANCH  22  24
ENDBRANCH   7  20
TORSDOF 7
ENDMDL
