MODEL 2
REMARK VINA RESULT: -8.899856477      1.196      1.389
REMARK  7 active torsions:
REMARK  status: ('A' for Active; 'I' for Inactive)
REMARK    1  A    between atoms: N1_1  and  C1_5 
REMARK    2  A    between atoms: C1_5  and  C2_6 
REMARK    3  A    between atoms: C1_5  and  C9_13 
REMARK    4  A    between atoms: C2_6  and  C3_7 
REMARK       I    between atoms: C9_13  and  N2_15 
REMARK    5  A    between atoms: C13_19  and  C14_20 
REMARK       I    between atoms: C14_20  and  N3_22 
REMARK    6  A    between atoms: N3_22  and  C15_24 
REMARK    7  A    between atoms: C15_24  and  C16_25 
ROOT
HETATM    1  C9  UNL     1     -17.882 -13.409 -22.858  1.00  0.00     0.251 C 
HETATM    2  O1  UNL     1     -17.048 -12.726 -23.491  1.00  0.00    -0.271 OA
HETATM    3  N2  UNL     1     -18.467 -12.894 -21.688  1.00  0.00    -0.337 N 
HETATM    4  C10 UNL     1     -19.427 -13.526 -20.771  1.00  0.00     0.127 C 
HETATM    5  C11 UNL     1     -20.301 -12.356 -20.345  1.00  0.00     0.022 C 
HETATM    6  C12 UNL     1     -19.266 -11.272 -20.197  1.00  0.00     0.037 C 
HETATM    7  C13 UNL     1     -18.210 -11.575 -21.174  1.00  0.00     0.179 C 
ENDROOT
BRANCH   1   8
HETATM    8  C1  UNL     1     -18.245 -14.758 -23.346  1.00  0.00     0.279 C 
BRANCH   8   9
HETATM    9  N1  UNL     1     -17.001 -15.521 -23.463  1.00  0.00    -0.066 N 
ATOM     10  H13 UNL     1     -17.025 -16.398 -22.942  1.00  0.00     0.275 HD
ATOM     11  H12 UNL     1     -16.867 -15.920 -24.392  1.00  0.00     0.275 HD
ATOM     12  H11 UNL     1     -16.233 -14.913 -23.178  1.00  0.00     0.275 HD
ENDBRANCH   8   9
BRANCH   8  13
HETATM   13  C2  UNL     1     -18.808 -14.560 -24.755  1.00  0.00     0.081 C 
BRANCH  13  14
HETATM   14  C3  UNL     1     -20.073 -13.779 -24.717  1.00  0.00    -0.056 A 
HETATM   15  C4  UNL     1     -20.178 -12.569 -25.407  1.00  0.00     0.007 A 
HETATM   16  C5  UNL     1     -21.319 -11.816 -25.401  1.00  0.00     0.001 A 
HETATM   17  C6  UNL     1     -22.404 -12.289 -24.675  1.00  0.00     0.000 A 
HETATM   18  C7  UNL     1     -22.356 -13.475 -23.975  1.00  0.00     0.001 A 
HETATM   19  C8  UNL     1     -21.182 -14.194 -24.015  1.00  0.00     0.007 A 
ENDBRANCH  13  14
ENDBRANCH   8  13
ENDBRANCH   1   8
BRANCH   7  20
HETATM   20  C14 UNL     1     -16.832 -11.449 -20.626  1.00  0.00     0.240 C 
HETATM   21  O2  UNL     1     -16.444 -12.400 -19.900  1.00  0.00    -0.271 OA
HETATM   22  N3  UNL     1     -15.968 -10.364 -20.866  1.00  0.00    -0.355 N 
ATOM     23  H3  UNL     1     -16.291  -9.593 -21.451  1.00  0.00     0.162 HD
BRANCH  22  24
HETATM   24  C15 UNL     1     -14.637 -10.312 -20.309  1.00  0.00     0.164 C 
BRANCH  24  25
HETATM   25  C16 UNL     1     -13.558 -10.197 -21.294  1.00  0.00    -0.003 A 
HETATM   26  C17 UNL     1     -13.388  -9.088 -22.083  1.00  0.00     0.098 A 
HETATM   27  N4  UNL     1     -12.359  -8.997 -22.982  1.00  0.00    -0.375 N 
HETATM   28  C18 UNL     1     -11.493 -10.016 -23.099  1.00  0.00     0.089 A 
ATOM     29  H4  UNL     1     -12.252  -8.162 -23.558  1.00  0.00     0.164 HD
HETATM   30  C19 UNL     1     -11.638 -11.146 -22.319  1.00  0.00     0.041 A 
HETATM   31  C20 UNL     1     -12.662 -11.267 -21.405  1.00  0.00     0.044 A 
HETATM   32 CL1  UNL     1     -12.879 -12.676 -20.403  1.00  0.00    -0.084 Cl
ENDBRANCH  24  25
ENDBRANCH  22  24
ENDBRANCH   7  20
TORSDOF 7
ENDMDL
