MODEL 14
REMARK VINA RESULT: -7.682160142      2.604      7.651
REMARK  7 active torsions:
REMARK  status: ('A' for Active; 'I' for Inactive)
REMARK    1  A    between atoms: N1_1  and  C1_5 
REMARK    2  A    between atoms: C1_5  and  C2_6 
REMARK    3  A    between atoms: C1_5  and  C9_13 
REMARK    4  A    between atoms: C2_6  and  C3_7 
REMARK       I    between atoms: C9_13  and  N2_15 
REMARK    5  A    between atoms: C13_19  and  C14_20 
REMARK       I    between atoms: C14_20  and  N3_22 
REMARK    6  A    between atoms: N3_22  and  C15_24 
REMARK    7  A    between atoms: C15_24  and  C16_25 
ROOT
HETATM    1  C9  UNL     1     -14.300 -11.918 -20.940  1.00  0.00     0.251 C 
HETATM    2  O1  UNL     1     -15.170 -11.638 -21.792  1.00  0.00    -0.271 OA
HETATM    3  N2  UNL     1     -13.997 -13.263 -20.662  1.00  0.00    -0.337 N 
HETATM    4  C10 UNL     1     -13.052 -13.821 -19.685  1.00  0.00     0.127 C 
HETATM    5  C11 UNL     1     -12.513 -15.048 -20.405  1.00  0.00     0.022 C 
HETATM    6  C12 UNL     1     -13.766 -15.560 -21.064  1.00  0.00     0.037 C 
HETATM    7  C13 UNL     1     -14.595 -14.379 -21.345  1.00  0.00     0.179 C 
ENDROOT
BRANCH   1   8
HETATM    8  C1  UNL     1     -13.595 -10.829 -20.228  1.00  0.00     0.279 C 
BRANCH   8   9
HETATM    9  N1  UNL     1     -14.281 -10.639 -18.949  1.00  0.00    -0.066 N 
ATOM     10  H13 UNL     1     -14.386  -9.655 -18.699  1.00  0.00     0.275 HD
ATOM     11  H12 UNL     1     -15.273 -10.874 -18.993  1.00  0.00     0.275 HD
ATOM     12  H11 UNL     1     -13.778 -11.175 -18.242  1.00  0.00     0.275 HD
ENDBRANCH   8   9
BRANCH   8  13
HETATM   13  C2  UNL     1     -13.808  -9.568 -21.068  1.00  0.00     0.081 C 
BRANCH  13  14
HETATM   14  C3  UNL     1     -12.861  -9.525 -22.213  1.00  0.00    -0.056 A 
HETATM   15  C4  UNL     1     -12.811  -8.406 -23.048  1.00  0.00     0.007 A 
HETATM   16  C5  UNL     1     -11.958  -8.322 -24.113  1.00  0.00     0.001 A 
HETATM   17  C6  UNL     1     -11.117  -9.399 -24.357  1.00  0.00     0.000 A 
HETATM   18  C7  UNL     1     -11.124 -10.528 -23.567  1.00  0.00     0.001 A 
HETATM   19  C8  UNL     1     -12.003 -10.561 -22.507  1.00  0.00     0.007 A 
ENDBRANCH  13  14
ENDBRANCH   8  13
ENDBRANCH   1   8
BRANCH   7  20
HETATM   20  C14 UNL     1     -16.028 -14.552 -20.980  1.00  0.00     0.240 C 
HETATM   21  O2  UNL     1     -16.251 -15.259 -19.964  1.00  0.00    -0.271 OA
HETATM   22  N3  UNL     1     -17.109 -13.988 -21.683  1.00  0.00    -0.355 N 
ATOM     23  H3  UNL     1     -16.922 -13.421 -22.510  1.00  0.00     0.162 HD
BRANCH  22  24
HETATM   24  C15 UNL     1     -18.476 -14.190 -21.265  1.00  0.00     0.164 C 
BRANCH  24  25
HETATM   25  C16 UNL     1     -19.483 -13.945 -22.303  1.00  0.00    -0.003 A 
HETATM   26  C17 UNL     1     -19.534 -14.664 -23.471  1.00  0.00     0.098 A 
HETATM   27  N4  UNL     1     -20.497 -14.429 -24.416  1.00  0.00    -0.375 N 
HETATM   28  C18 UNL     1     -21.415 -13.474 -24.201  1.00  0.00     0.089 A 
ATOM     29  H4  UNL     1     -20.515 -14.976 -25.277  1.00  0.00     0.164 HD
HETATM   30  C19 UNL     1     -21.389 -12.734 -23.034  1.00  0.00     0.041 A 
HETATM   31  C20 UNL     1     -20.434 -12.947 -22.065  1.00  0.00     0.044 A 
HETATM   32 CL1  UNL     1     -20.367 -12.035 -20.581  1.00  0.00    -0.084 Cl
ENDBRANCH  24  25
ENDBRANCH  22  24
ENDBRANCH   7  20
TORSDOF 7
ENDMDL
