MODEL 17
REMARK VINA RESULT: -7.519676592      3.974      4.919
REMARK  7 active torsions:
REMARK  status: ('A' for Active; 'I' for Inactive)
REMARK    1  A    between atoms: N1_1  and  C1_5 
REMARK    2  A    between atoms: C1_5  and  C2_6 
REMARK    3  A    between atoms: C1_5  and  C9_13 
REMARK    4  A    between atoms: C2_6  and  C3_7 
REMARK       I    between atoms: C9_13  and  N2_15 
REMARK    5  A    between atoms: C13_19  and  C14_20 
REMARK       I    between atoms: C14_20  and  N3_22 
REMARK    6  A    between atoms: N3_22  and  C15_24 
REMARK    7  A    between atoms: C15_24  and  C16_25 
ROOT
HETATM    1  C9  UNL     1     -15.368 -13.395 -20.662  1.00  0.00     0.251 C 
HETATM    2  O1  UNL     1     -15.793 -12.688 -21.600  1.00  0.00    -0.271 OA
HETATM    3  N2  UNL     1     -15.189 -12.834 -19.385  1.00  0.00    -0.337 N 
HETATM    4  C10 UNL     1     -14.671 -13.457 -18.159  1.00  0.00     0.127 C 
HETATM    5  C11 UNL     1     -15.502 -12.794 -17.071  1.00  0.00     0.022 C 
HETATM    6  C12 UNL     1     -15.562 -11.381 -17.586  1.00  0.00     0.037 C 
HETATM    7  C13 UNL     1     -15.519 -11.474 -19.052  1.00  0.00     0.179 C 
ENDROOT
BRANCH   1   8
HETATM    8  C1  UNL     1     -15.054 -14.821 -20.904  1.00  0.00     0.279 C 
BRANCH   8   9
HETATM    9  N1  UNL     1     -14.232 -14.880 -22.114  1.00  0.00    -0.066 N 
ATOM     10  H13 UNL     1     -14.635 -15.475 -22.838  1.00  0.00     0.275 HD
ATOM     11  H12 UNL     1     -14.238 -14.005 -22.639  1.00  0.00     0.275 HD
ATOM     12  H11 UNL     1     -13.293 -15.170 -21.840  1.00  0.00     0.275 HD
ENDBRANCH   8   9
BRANCH   8  13
HETATM   13  C2  UNL     1     -16.390 -15.502 -21.210  1.00  0.00     0.081 C 
BRANCH  13  14
HETATM   14  C3  UNL     1     -16.694 -16.551 -20.203  1.00  0.00    -0.056 A 
HETATM   15  C4  UNL     1     -17.685 -17.505 -20.452  1.00  0.00     0.007 A 
HETATM   16  C5  UNL     1     -18.001 -18.488 -19.556  1.00  0.00     0.001 A 
HETATM   17  C6  UNL     1     -17.300 -18.524 -18.359  1.00  0.00     0.000 A 
HETATM   18  C7  UNL     1     -16.313 -17.609 -18.060  1.00  0.00     0.001 A 
HETATM   19  C8  UNL     1     -16.035 -16.639 -18.998  1.00  0.00     0.007 A 
ENDBRANCH  13  14
ENDBRANCH   8  13
ENDBRANCH   1   8
BRANCH   7  20
HETATM   20  C14 UNL     1     -14.587 -10.503 -19.687  1.00  0.00     0.240 C 
HETATM   21  O2  UNL     1     -13.616 -10.134 -18.979  1.00  0.00    -0.271 OA
HETATM   22  N3  UNL     1     -14.727  -9.992 -20.992  1.00  0.00    -0.355 N 
ATOM     23  H3  UNL     1     -15.520 -10.291 -21.559  1.00  0.00     0.162 HD
BRANCH  22  24
HETATM   24  C15 UNL     1     -13.777  -9.059 -21.549  1.00  0.00     0.164 C 
BRANCH  24  25
HETATM   25  C16 UNL     1     -12.727  -9.662 -22.374  1.00  0.00    -0.003 A 
HETATM   26  C17 UNL     1     -12.214 -10.911 -22.127  1.00  0.00     0.098 A 
HETATM   27  N4  UNL     1     -11.247 -11.461 -22.924  1.00  0.00    -0.375 N 
HETATM   28  C18 UNL     1     -10.783 -10.766 -23.975  1.00  0.00     0.089 A 
ATOM     29  H4  UNL     1     -10.881 -12.391 -22.721  1.00  0.00     0.164 HD
HETATM   30  C19 UNL     1     -11.280  -9.507 -24.250  1.00  0.00     0.041 A 
HETATM   31  C20 UNL     1     -12.254  -8.927 -23.466  1.00  0.00     0.044 A 
HETATM   32 CL1  UNL     1     -12.905  -7.341 -23.779  1.00  0.00    -0.084 Cl
ENDBRANCH  24  25
ENDBRANCH  22  24
ENDBRANCH   7  20
TORSDOF 7
ENDMDL
