MODEL 6
REMARK VINA RESULT: -8.557859486      2.622      6.874
REMARK  9 active torsions:
REMARK  status: ('A' for Active; 'I' for Inactive)
REMARK    1  A    between atoms: N1_1  and  C1_5 
REMARK    2  A    between atoms: C1_5  and  C2_6 
REMARK    3  A    between atoms: C1_5  and  C9_13 
REMARK    4  A    between atoms: C2_6  and  C3_7 
REMARK    5  A    between atoms: C9_13  and  O1_14 
REMARK    6  A    between atoms: C9_13  and  N2_16 
REMARK    7  A    between atoms: C13_20  and  C14_21 
REMARK       I    between atoms: C14_21  and  N3_23 
REMARK    8  A    between atoms: N3_23  and  C15_25 
REMARK    9  A    between atoms: C15_25  and  C16_26 
ROOT
HETATM    1  N2  UNL     1      15.716 -12.307  19.192  1.00  0.00    -0.350 N 
HETATM    2  C10 UNL     1      14.868 -12.706  18.065  1.00  0.00     0.126 C 
HETATM    3  C11 UNL     1      15.661 -12.076  16.896  1.00  0.00     0.022 C 
HETATM    4  C12 UNL     1      17.065 -11.798  17.463  1.00  0.00     0.037 C 
HETATM    5  C13 UNL     1      17.011 -12.665  18.710  1.00  0.00     0.178 C 
ENDROOT
BRANCH   1   6
HETATM    6  C9  UNL     1      15.279 -11.747  20.375  1.00  0.00     0.145 C 
BRANCH   6   7
HETATM    7  C1  UNL     1      14.401 -12.226  21.433  1.00  0.00     0.261 C 
BRANCH   7   8
HETATM    8  N1  UNL     1      14.412 -13.582  21.812  1.00  0.00    -0.067 N 
ATOM      9  H13 UNL     1      14.574 -13.703  22.812  1.00  0.00     0.275 HD
ATOM     10  H12 UNL     1      13.485 -14.003  21.763  1.00  0.00     0.275 HD
ATOM     11  H11 UNL     1      15.095 -14.088  21.247  1.00  0.00     0.275 HD
ENDBRANCH   7   8
BRANCH   7  12
HETATM   12  C2  UNL     1      12.966 -11.777  21.194  1.00  0.00     0.079 C 
BRANCH  12  13
HETATM   13  C3  UNL     1      12.407 -10.999  22.327  1.00  0.00    -0.056 A 
HETATM   14  C4  UNL     1      12.774  -9.688  22.534  1.00  0.00     0.007 A 
HETATM   15  C5  UNL     1      12.277  -8.930  23.585  1.00  0.00     0.001 A 
HETATM   16  C6  UNL     1      11.379  -9.538  24.443  1.00  0.00     0.000 A 
HETATM   17  C7  UNL     1      11.009 -10.839  24.246  1.00  0.00     0.001 A 
HETATM   18  C8  UNL     1      11.511 -11.570  23.203  1.00  0.00     0.007 A 
ENDBRANCH  12  13
ENDBRANCH   7  12
ENDBRANCH   6   7
BRANCH   6  19
HETATM   19  O1  UNL     1      15.724 -10.546  20.631  1.00  0.00    -0.348 OA
ATOM     20  H1  UNL     1      15.026  -9.902  20.596  1.00  0.00     0.219 HD
ENDBRANCH   6  19
ENDBRANCH   1   6
BRANCH   5  21
HETATM   21  C14 UNL     1      18.162 -12.688  19.548  1.00  0.00     0.240 C 
HETATM   22  O2  UNL     1      19.284 -12.226  19.236  1.00  0.00    -0.271 OA
HETATM   23  N3  UNL     1      18.145 -13.265  20.884  1.00  0.00    -0.354 N 
ATOM     24  H3  UNL     1      17.276 -13.670  21.235  1.00  0.00     0.162 HD
BRANCH  23  25
HETATM   25  C15 UNL     1      19.299 -13.286  21.720  1.00  0.00     0.179 C 
BRANCH  25  26
HETATM   26  C16 UNL     1      19.067 -13.783  23.067  1.00  0.00     0.028 A 
HETATM   27  C17 UNL     1      19.846 -13.363  24.122  1.00  0.00     0.050 A 
HETATM   28  C18 UNL     1      19.644 -13.821  25.405  1.00  0.00     0.037 A 
HETATM   29 CL1  UNL     1      20.633 -13.283  26.729  1.00  0.00    -0.084 Cl
HETATM   30  C19 UNL     1      18.633 -14.719  25.625  1.00  0.00     0.041 A 
HETATM   31  C20 UNL     1      17.857 -15.135  24.567  1.00  0.00     0.090 A 
HETATM   32  N4  UNL     1      18.090 -14.660  23.319  1.00  0.00    -0.368 N 
ATOM     33  H4  UNL     1      17.503 -14.982  22.549  1.00  0.00     0.165 HD
ENDBRANCH  25  26
ENDBRANCH  23  25
ENDBRANCH   5  21
TORSDOF 9
ENDMDL
