MODEL 5
REMARK VINA RESULT: -8.572611602      2.813      4.283
REMARK  9 active torsions:
REMARK  status: ('A' for Active; 'I' for Inactive)
REMARK    1  A    between atoms: N1_1  and  C1_5 
REMARK    2  A    between atoms: C1_5  and  C2_6 
REMARK    3  A    between atoms: C1_5  and  C9_13 
REMARK    4  A    between atoms: C2_6  and  C3_7 
REMARK    5  A    between atoms: C9_13  and  O1_14 
REMARK    6  A    between atoms: C9_13  and  N2_16 
REMARK    7  A    between atoms: C13_20  and  C14_21 
REMARK       I    between atoms: C14_21  and  N3_23 
REMARK    8  A    between atoms: N3_23  and  C15_25 
REMARK    9  A    between atoms: C15_25  and  C16_26 
ROOT
HETATM    1  N2  UNL     1      15.116 -14.479  19.075  1.00  0.00    -0.350 N 
HETATM    2  C10 UNL     1      15.701 -15.801  19.312  1.00  0.00     0.126 C 
HETATM    3  C11 UNL     1      16.090 -15.659  20.803  1.00  0.00     0.022 C 
HETATM    4  C12 UNL     1      15.278 -14.458  21.320  1.00  0.00     0.037 C 
HETATM    5  C13 UNL     1      14.252 -14.346  20.205  1.00  0.00     0.178 C 
ENDROOT
BRANCH   1   6
HETATM    6  C9  UNL     1      15.386 -13.654  18.001  1.00  0.00     0.145 C 
BRANCH   6   7
HETATM    7  C1  UNL     1      15.744 -12.247  17.899  1.00  0.00     0.261 C 
BRANCH   7   8
HETATM    8  N1  UNL     1      15.112 -11.416  16.954  1.00  0.00    -0.067 N 
ATOM      9  H13 UNL     1      14.988 -11.879  16.053  1.00  0.00     0.275 HD
ATOM     10  H12 UNL     1      14.129 -11.260  17.173  1.00  0.00     0.275 HD
ATOM     11  H11 UNL     1      15.631 -10.541  16.869  1.00  0.00     0.275 HD
ENDBRANCH   7   8
BRANCH   7  12
HETATM   12  C2  UNL     1      17.253 -12.075  17.797  1.00  0.00     0.079 C 
BRANCH  12  13
HETATM   13  C3  UNL     1      17.943 -12.241  19.100  1.00  0.00    -0.056 A 
HETATM   14  C4  UNL     1      19.211 -12.774  19.165  1.00  0.00     0.007 A 
HETATM   15  C5  UNL     1      19.887 -12.949  20.365  1.00  0.00     0.001 A 
HETATM   16  C6  UNL     1      19.239 -12.566  21.526  1.00  0.00     0.000 A 
HETATM   17  C7  UNL     1      17.981 -12.037  21.470  1.00  0.00     0.001 A 
HETATM   18  C8  UNL     1      17.331 -11.872  20.277  1.00  0.00     0.007 A 
ENDBRANCH  12  13
ENDBRANCH   7  12
ENDBRANCH   6   7
BRANCH   6  19
HETATM   19  O1  UNL     1      15.319 -14.217  16.825  1.00  0.00    -0.348 OA
ATOM     20  H1  UNL     1      14.421 -14.415  16.586  1.00  0.00     0.219 HD
ENDBRANCH   6  19
ENDBRANCH   1   6
BRANCH   5  21
HETATM   21  C14 UNL     1      13.277 -13.314  20.308  1.00  0.00     0.240 C 
HETATM   22  O2  UNL     1      12.048 -13.469  20.120  1.00  0.00    -0.271 OA
HETATM   23  N3  UNL     1      13.623 -11.942  20.650  1.00  0.00    -0.354 N 
ATOM     24  H3  UNL     1      14.601 -11.709  20.824  1.00  0.00     0.162 HD
BRANCH  23  25
HETATM   25  C15 UNL     1      12.643 -10.912  20.753  1.00  0.00     0.179 C 
BRANCH  25  26
HETATM   26  C16 UNL     1      12.132 -10.688  22.096  1.00  0.00     0.028 A 
HETATM   27  C17 UNL     1      12.310  -9.479  22.730  1.00  0.00     0.050 A 
HETATM   28  C18 UNL     1      11.835  -9.246  24.002  1.00  0.00     0.037 A 
HETATM   29 CL1  UNL     1      12.065  -7.715  24.791  1.00  0.00    -0.084 Cl
HETATM   30  C19 UNL     1      11.166 -10.255  24.643  1.00  0.00     0.041 A 
HETATM   31  C20 UNL     1      10.990 -11.462  24.004  1.00  0.00     0.090 A 
HETATM   32  N4  UNL     1      11.475 -11.650  22.752  1.00  0.00    -0.368 N 
ATOM     33  H4  UNL     1      11.335 -12.552  22.298  1.00  0.00     0.165 HD
ENDBRANCH  25  26
ENDBRANCH  23  25
ENDBRANCH   5  21
TORSDOF 9
ENDMDL
