MODEL 14
REMARK VINA RESULT: -8.340989003      1.144      1.759
REMARK  9 active torsions:
REMARK  status: ('A' for Active; 'I' for Inactive)
REMARK    1  A    between atoms: N1_1  and  C1_5 
REMARK    2  A    between atoms: C1_5  and  C2_6 
REMARK    3  A    between atoms: C1_5  and  C9_13 
REMARK    4  A    between atoms: C2_6  and  C3_7 
REMARK    5  A    between atoms: C9_13  and  O1_14 
REMARK    6  A    between atoms: C9_13  and  N2_16 
REMARK    7  A    between atoms: C13_20  and  C14_21 
REMARK       I    between atoms: C14_21  and  N3_23 
REMARK    8  A    between atoms: N3_23  and  C15_25 
REMARK    9  A    between atoms: C15_25  and  C16_26 
ROOT
HETATM    1  N2  UNL     1      17.633 -12.869  21.279  1.00  0.00    -0.350 N 
HETATM    2  C10 UNL     1      19.081 -12.660  21.365  1.00  0.00     0.126 C 
HETATM    3  C11 UNL     1      19.438 -12.623  19.861  1.00  0.00     0.022 C 
HETATM    4  C12 UNL     1      18.104 -12.369  19.135  1.00  0.00     0.037 C 
HETATM    5  C13 UNL     1      17.265 -11.890  20.307  1.00  0.00     0.178 C 
ENDROOT
BRANCH   1   6
HETATM    6  C9  UNL     1      16.905 -13.794  21.999  1.00  0.00     0.145 C 
BRANCH   6   7
HETATM    7  C1  UNL     1      16.890 -15.250  22.012  1.00  0.00     0.261 C 
BRANCH   7   8
HETATM    8  N1  UNL     1      15.869 -15.949  22.685  1.00  0.00    -0.067 N 
ATOM      9  H13 UNL     1      14.939 -15.617  22.426  1.00  0.00     0.275 HD
ATOM     10  H12 UNL     1      15.777 -16.909  22.355  1.00  0.00     0.275 HD
ATOM     11  H11 UNL     1      16.029 -15.901  23.691  1.00  0.00     0.275 HD
ENDBRANCH   7   8
BRANCH   7  12
HETATM   12  C2  UNL     1      18.245 -15.803  22.432  1.00  0.00     0.079 C 
BRANCH  12  13
HETATM   13  C3  UNL     1      18.415 -15.860  23.905  1.00  0.00    -0.056 A 
HETATM   14  C4  UNL     1      18.209 -17.034  24.595  1.00  0.00     0.007 A 
HETATM   15  C5  UNL     1      18.354 -17.125  25.973  1.00  0.00     0.001 A 
HETATM   16  C6  UNL     1      18.719 -15.979  26.655  1.00  0.00     0.000 A 
HETATM   17  C7  UNL     1      18.924 -14.810  25.978  1.00  0.00     0.001 A 
HETATM   18  C8  UNL     1      18.777 -14.740  24.619  1.00  0.00     0.007 A 
ENDBRANCH  12  13
ENDBRANCH   7  12
ENDBRANCH   6   7
BRANCH   6  19
HETATM   19  O1  UNL     1      16.046 -13.300  22.850  1.00  0.00    -0.348 OA
ATOM     20  H1  UNL     1      16.127 -12.356  22.915  1.00  0.00     0.219 HD
ENDBRANCH   6  19
ENDBRANCH   1   6
BRANCH   5  21
HETATM   21  C14 UNL     1      15.909 -11.539  20.047  1.00  0.00     0.240 C 
HETATM   22  O2  UNL     1      15.320 -11.718  18.957  1.00  0.00    -0.271 OA
HETATM   23  N3  UNL     1      15.056 -10.920  21.052  1.00  0.00    -0.354 N 
ATOM     24  H3  UNL     1      15.442 -10.731  21.977  1.00  0.00     0.162 HD
BRANCH  23  25
HETATM   25  C15 UNL     1      13.699 -10.571  20.788  1.00  0.00     0.179 C 
BRANCH  25  26
HETATM   26  C16 UNL     1      12.858 -10.462  21.969  1.00  0.00     0.028 A 
HETATM   27  C17 UNL     1      12.819  -9.302  22.708  1.00  0.00     0.050 A 
HETATM   28  C18 UNL     1      12.029  -9.178  23.831  1.00  0.00     0.037 A 
HETATM   29 CL1  UNL     1      11.988  -7.706  24.754  1.00  0.00    -0.084 Cl
HETATM   30  C19 UNL     1      11.264 -10.248  24.211  1.00  0.00     0.041 A 
HETATM   31  C20 UNL     1      11.306 -11.407  23.468  1.00  0.00     0.090 A 
HETATM   32  N4  UNL     1      12.098 -11.487  22.371  1.00  0.00    -0.368 N 
ATOM     33  H4  UNL     1      12.115 -12.355  21.835  1.00  0.00     0.165 HD
ENDBRANCH  25  26
ENDBRANCH  23  25
ENDBRANCH   5  21
TORSDOF 9
ENDMDL
