MODEL 12
REMARK VINA RESULT: -8.396743766      1.134      1.566
REMARK  9 active torsions:
REMARK  status: ('A' for Active; 'I' for Inactive)
REMARK    1  A    between atoms: N1_1  and  C1_5 
REMARK    2  A    between atoms: C1_5  and  C2_6 
REMARK    3  A    between atoms: C1_5  and  C9_13 
REMARK    4  A    between atoms: C2_6  and  C3_7 
REMARK    5  A    between atoms: C9_13  and  O1_14 
REMARK    6  A    between atoms: C9_13  and  N2_16 
REMARK    7  A    between atoms: C13_20  and  C14_21 
REMARK       I    between atoms: C14_21  and  N3_23 
REMARK    8  A    between atoms: N3_23  and  C15_25 
REMARK    9  A    between atoms: C15_25  and  C16_26 
ROOT
HETATM    1  N2  UNL     1      17.878 -13.267  20.665  1.00  0.00    -0.350 N 
HETATM    2  C10 UNL     1      19.297 -13.015  20.931  1.00  0.00     0.126 C 
HETATM    3  C11 UNL     1      19.757 -12.557  19.526  1.00  0.00     0.022 C 
HETATM    4  C12 UNL     1      18.463 -12.186  18.779  1.00  0.00     0.037 C 
HETATM    5  C13 UNL     1      17.510 -12.082  19.957  1.00  0.00     0.178 C 
ENDROOT
BRANCH   1   6
HETATM    6  C9  UNL     1      17.169 -14.387  21.049  1.00  0.00     0.145 C 
BRANCH   6   7
HETATM    7  C1  UNL     1      16.998 -15.061  22.328  1.00  0.00     0.261 C 
BRANCH   7   8
HETATM    8  N1  UNL     1      15.968 -16.004  22.507  1.00  0.00    -0.067 N 
ATOM      9  H13 UNL     1      15.138 -15.593  22.935  1.00  0.00     0.275 HD
ATOM     10  H12 UNL     1      15.549 -16.290  21.623  1.00  0.00     0.275 HD
ATOM     11  H11 UNL     1      16.323 -16.799  23.040  1.00  0.00     0.275 HD
ENDBRANCH   7   8
BRANCH   7  12
HETATM   12  C2  UNL     1      16.971 -14.057  23.472  1.00  0.00     0.079 C 
BRANCH  12  13
HETATM   13  C3  UNL     1      17.976 -14.352  24.523  1.00  0.00    -0.056 A 
HETATM   14  C4  UNL     1      17.699 -15.242  25.537  1.00  0.00     0.007 A 
HETATM   15  C5  UNL     1      18.611 -15.539  26.541  1.00  0.00     0.001 A 
HETATM   16  C6  UNL     1      19.838 -14.903  26.498  1.00  0.00     0.000 A 
HETATM   17  C7  UNL     1      20.122 -14.018  25.496  1.00  0.00     0.001 A 
HETATM   18  C8  UNL     1      19.209 -13.738  24.515  1.00  0.00     0.007 A 
ENDBRANCH  12  13
ENDBRANCH   7  12
ENDBRANCH   6   7
BRANCH   6  19
HETATM   19  O1  UNL     1      16.504 -14.988  20.100  1.00  0.00    -0.348 OA
ATOM     20  H1  UNL     1      15.778 -14.458  19.795  1.00  0.00     0.219 HD
ENDBRANCH   6  19
ENDBRANCH   1   6
BRANCH   5  21
HETATM   21  C14 UNL     1      16.154 -11.744  19.682  1.00  0.00     0.240 C 
HETATM   22  O2  UNL     1      15.619 -11.797  18.551  1.00  0.00    -0.271 OA
HETATM   23  N3  UNL     1      15.236 -11.291  20.716  1.00  0.00    -0.354 N 
ATOM     24  H3  UNL     1      15.575 -11.212  21.676  1.00  0.00     0.162 HD
BRANCH  23  25
HETATM   25  C15 UNL     1      13.879 -10.953  20.436  1.00  0.00     0.179 C 
BRANCH  25  26
HETATM   26  C16 UNL     1      13.029 -10.824  21.609  1.00  0.00     0.028 A 
HETATM   27  C17 UNL     1      13.011  -9.662  22.347  1.00  0.00     0.050 A 
HETATM   28  C18 UNL     1      12.214  -9.519  23.462  1.00  0.00     0.037 A 
HETATM   29 CL1  UNL     1      12.199  -8.046  24.385  1.00  0.00    -0.084 Cl
HETATM   30  C19 UNL     1      11.419 -10.571  23.835  1.00  0.00     0.041 A 
HETATM   31  C20 UNL     1      11.441 -11.730  23.093  1.00  0.00     0.090 A 
HETATM   32  N4  UNL     1      12.241 -11.830  22.003  1.00  0.00    -0.368 N 
ATOM     33  H4  UNL     1      12.242 -12.698  21.468  1.00  0.00     0.165 HD
ENDBRANCH  25  26
ENDBRANCH  23  25
ENDBRANCH   5  21
TORSDOF 9
ENDMDL
