MODEL 4
REMARK VINA RESULT: -8.631498777      2.563      7.327
REMARK  9 active torsions:
REMARK  status: ('A' for Active; 'I' for Inactive)
REMARK    1  A    between atoms: N1_1  and  C1_5 
REMARK    2  A    between atoms: C1_5  and  C2_6 
REMARK    3  A    between atoms: C1_5  and  C9_13 
REMARK    4  A    between atoms: C2_6  and  C3_7 
REMARK    5  A    between atoms: C9_13  and  O1_14 
REMARK    6  A    between atoms: C9_13  and  N2_16 
REMARK    7  A    between atoms: C13_20  and  C14_21 
REMARK       I    between atoms: C14_21  and  N3_23 
REMARK    8  A    between atoms: N3_23  and  C15_25 
REMARK    9  A    between atoms: C15_25  and  C16_26 
ROOT
HETATM    1  N2  UNL     1      15.902 -12.321  19.593  1.00  0.00    -0.350 N 
HETATM    2  C10 UNL     1      15.813 -12.067  18.152  1.00  0.00     0.126 C 
HETATM    3  C11 UNL     1      17.314 -11.903  17.815  1.00  0.00     0.022 C 
HETATM    4  C12 UNL     1      18.067 -12.523  19.007  1.00  0.00     0.037 C 
HETATM    5  C13 UNL     1      16.932 -13.309  19.642  1.00  0.00     0.178 C 
ENDROOT
BRANCH   1   6
HETATM    6  C9  UNL     1      15.138 -11.716  20.570  1.00  0.00     0.145 C 
BRANCH   6   7
HETATM    7  C1  UNL     1      14.119 -12.216  21.482  1.00  0.00     0.261 C 
BRANCH   7   8
HETATM    8  N1  UNL     1      13.910 -13.602  21.630  1.00  0.00    -0.067 N 
ATOM      9  H13 UNL     1      12.925 -13.854  21.545  1.00  0.00     0.275 HD
ATOM     10  H12 UNL     1      14.266 -14.132  20.835  1.00  0.00     0.275 HD
ATOM     11  H11 UNL     1      14.314 -13.914  22.513  1.00  0.00     0.275 HD
ENDBRANCH   7   8
BRANCH   7  12
HETATM   12  C2  UNL     1      12.785 -11.525  21.240  1.00  0.00     0.079 C 
BRANCH  12  13
HETATM   13  C3  UNL     1      12.287 -10.795  22.432  1.00  0.00    -0.056 A 
HETATM   14  C4  UNL     1      12.681  -9.500  22.683  1.00  0.00     0.007 A 
HETATM   15  C5  UNL     1      12.240  -8.787  23.790  1.00  0.00     0.001 A 
HETATM   16  C6  UNL     1      11.373  -9.425  24.658  1.00  0.00     0.000 A 
HETATM   17  C7  UNL     1      10.978 -10.710  24.417  1.00  0.00     0.001 A 
HETATM   18  C8  UNL     1      11.423 -11.397  23.319  1.00  0.00     0.007 A 
ENDBRANCH  12  13
ENDBRANCH   7  12
ENDBRANCH   6   7
BRANCH   6  19
HETATM   19  O1  UNL     1      15.344 -10.438  20.739  1.00  0.00    -0.348 OA
ATOM     20  H1  UNL     1      16.253 -10.209  20.582  1.00  0.00     0.219 HD
ENDBRANCH   6  19
ENDBRANCH   1   6
BRANCH   5  21
HETATM   21  C14 UNL     1      17.224 -14.055  20.820  1.00  0.00     0.240 C 
HETATM   22  O2  UNL     1      16.662 -15.125  21.147  1.00  0.00    -0.271 OA
HETATM   23  N3  UNL     1      18.232 -13.633  21.782  1.00  0.00    -0.354 N 
ATOM     24  H3  UNL     1      18.749 -12.771  21.607  1.00  0.00     0.162 HD
BRANCH  23  25
HETATM   25  C15 UNL     1      18.522 -14.382  22.959  1.00  0.00     0.179 C 
BRANCH  25  26
HETATM   26  C16 UNL     1      19.726 -13.970  23.662  1.00  0.00     0.028 A 
HETATM   27  C17 UNL     1      19.692 -13.650  25.000  1.00  0.00     0.050 A 
HETATM   28  C18 UNL     1      20.821 -13.257  25.685  1.00  0.00     0.037 A 
HETATM   29 CL1  UNL     1      20.765 -12.857  27.376  1.00  0.00    -0.084 Cl
HETATM   30  C19 UNL     1      22.007 -13.188  25.003  1.00  0.00     0.041 A 
HETATM   31  C20 UNL     1      22.036 -13.510  23.665  1.00  0.00     0.090 A 
HETATM   32  N4  UNL     1      20.901 -13.891  23.028  1.00  0.00    -0.368 N 
ATOM     33  H4  UNL     1      20.945 -14.124  22.036  1.00  0.00     0.165 HD
ENDBRANCH  25  26
ENDBRANCH  23  25
ENDBRANCH   5  21
TORSDOF 9
ENDMDL
