MODEL 1
REMARK VINA RESULT: -9.276078678      0.000      0.000
REMARK  9 active torsions:
REMARK  status: ('A' for Active; 'I' for Inactive)
REMARK    1  A    between atoms: N1_1  and  C1_5 
REMARK    2  A    between atoms: C1_5  and  C2_6 
REMARK    3  A    between atoms: C1_5  and  C9_13 
REMARK    4  A    between atoms: C2_6  and  C3_7 
REMARK    5  A    between atoms: C9_13  and  O1_14 
REMARK    6  A    between atoms: C9_13  and  N2_16 
REMARK    7  A    between atoms: C13_20  and  C14_21 
REMARK       I    between atoms: C14_21  and  N3_23 
REMARK    8  A    between atoms: N3_23  and  C15_25 
REMARK    9  A    between atoms: C15_25  and  C16_26 
ROOT
HETATM    1  N2  UNL     1      17.460 -12.585  21.225  1.00  0.00    -0.350 N 
HETATM    2  C10 UNL     1      18.838 -12.127  21.025  1.00  0.00     0.126 C 
HETATM    3  C11 UNL     1      18.975 -12.347  19.500  1.00  0.00     0.022 C 
HETATM    4  C12 UNL     1      17.533 -12.473  18.978  1.00  0.00     0.037 C 
HETATM    5  C13 UNL     1      16.781 -11.905  20.169  1.00  0.00     0.178 C 
ENDROOT
BRANCH   1   6
HETATM    6  C9  UNL     1      17.029 -13.447  22.214  1.00  0.00     0.145 C 
BRANCH   6   7
HETATM    7  C1  UNL     1      17.658 -14.573  22.889  1.00  0.00     0.261 C 
BRANCH   7   8
HETATM    8  N1  UNL     1      17.276 -15.894  22.583  1.00  0.00    -0.067 N 
ATOM      9  H13 UNL     1      18.053 -16.550  22.670  1.00  0.00     0.275 HD
ATOM     10  H12 UNL     1      16.667 -16.294  23.296  1.00  0.00     0.275 HD
ATOM     11  H11 UNL     1      16.852 -15.920  21.656  1.00  0.00     0.275 HD
ENDBRANCH   7   8
BRANCH   7  12
HETATM   12  C2  UNL     1      17.645 -14.378  24.398  1.00  0.00     0.079 C 
BRANCH  12  13
HETATM   13  C3  UNL     1      18.982 -14.050  24.951  1.00  0.00    -0.056 A 
HETATM   14  C4  UNL     1      19.920 -13.392  24.187  1.00  0.00     0.007 A 
HETATM   15  C5  UNL     1      21.183 -13.073  24.667  1.00  0.00     0.001 A 
HETATM   16  C6  UNL     1      21.486 -13.441  25.965  1.00  0.00     0.000 A 
HETATM   17  C7  UNL     1      20.561 -14.094  26.730  1.00  0.00     0.001 A 
HETATM   18  C8  UNL     1      19.321 -14.400  26.238  1.00  0.00     0.007 A 
ENDBRANCH  12  13
ENDBRANCH   7  12
ENDBRANCH   6   7
BRANCH   6  19
HETATM   19  O1  UNL     1      15.819 -13.239  22.657  1.00  0.00    -0.348 OA
ATOM     20  H1  UNL     1      15.560 -12.331  22.548  1.00  0.00     0.219 HD
ENDBRANCH   6  19
ENDBRANCH   1   6
BRANCH   5  21
HETATM   21  C14 UNL     1      15.361 -11.844  20.085  1.00  0.00     0.240 C 
HETATM   22  O2  UNL     1      14.653 -12.594  19.374  1.00  0.00    -0.271 OA
HETATM   23  N3  UNL     1      14.574 -10.876  20.836  1.00  0.00    -0.354 N 
ATOM     24  H3  UNL     1      15.057 -10.217  21.447  1.00  0.00     0.162 HD
BRANCH  23  25
HETATM   25  C15 UNL     1      13.152 -10.818  20.750  1.00  0.00     0.179 C 
BRANCH  25  26
HETATM   26  C16 UNL     1      12.472 -10.629  22.021  1.00  0.00     0.028 A 
HETATM   27  C17 UNL     1      12.551  -9.433  22.696  1.00  0.00     0.050 A 
HETATM   28  C18 UNL     1      11.915  -9.232  23.902  1.00  0.00     0.037 A 
HETATM   29 CL1  UNL     1      12.022  -7.715  24.744  1.00  0.00    -0.084 Cl
HETATM   30  C19 UNL     1      11.183 -10.262  24.432  1.00  0.00     0.041 A 
HETATM   31  C20 UNL     1      11.106 -11.456  23.752  1.00  0.00     0.090 A 
HETATM   32  N4  UNL     1      11.749 -11.612  22.568  1.00  0.00    -0.368 N 
ATOM     33  H4  UNL     1      11.680 -12.506  22.082  1.00  0.00     0.165 HD
ENDBRANCH  25  26
ENDBRANCH  23  25
ENDBRANCH   5  21
TORSDOF 9
ENDMDL
