MODEL 18
REMARK VINA RESULT: -7.711070564      4.045      6.494
REMARK  7 active torsions:
REMARK  status: ('A' for Active; 'I' for Inactive)
REMARK    1  A    between atoms: C2_2  and  C3_3 
REMARK    2  A    between atoms: C3_3  and  O1_4 
REMARK    3  A    between atoms: O1_4  and  C4_5 
REMARK    4  A    between atoms: C7_8  and  S1_9 
REMARK    5  A    between atoms: S1_9  and  N1_12 
REMARK    6  A    between atoms: C14_20  and  C15_21 
REMARK    7  A    between atoms: C16_24  and  C17_25 
ROOT
HETATM    1  C4  UNL     1      46.092 -15.798  43.285  1.00  0.00     0.082 A 
HETATM    2  C5  UNL     1      45.855 -15.180  44.528  1.00  0.00     0.039 A 
HETATM    3  C6  UNL     1      44.761 -14.394  44.775  1.00  0.00     0.027 A 
HETATM    4  C7  UNL     1      43.815 -14.154  43.810  1.00  0.00     0.075 A 
HETATM    5  C13 UNL     1      44.019 -14.738  42.596  1.00  0.00     0.042 A 
HETATM    6  C14 UNL     1      45.132 -15.552  42.313  1.00  0.00     0.043 A 
ENDROOT
BRANCH   6   7
HETATM    7  C15 UNL     1      45.224 -16.140  40.984  1.00  0.00     0.121 A 
HETATM    8  N3  UNL     1      44.606 -15.458  39.963  1.00  0.00    -0.343 N 
HETATM    9  C16 UNL     1      44.607 -15.828  38.698  1.00  0.00     0.037 A 
ATOM     10  H3  UNL     1      44.109 -14.600  40.203  1.00  0.00     0.167 HD
HETATM   11  C19 UNL     1      45.263 -16.977  38.321  1.00  0.00     0.124 A 
HETATM   12 CL1  UNL     1      45.287 -17.503  36.642  1.00  0.00    -0.076 Cl
HETATM   13  C20 UNL     1      45.887 -17.677  39.314  1.00  0.00     0.270 A 
HETATM   14  O4  UNL     1      46.510 -18.729  39.080  1.00  0.00    -0.266 OA
HETATM   15  N4  UNL     1      45.852 -17.244  40.610  1.00  0.00    -0.307 N 
ATOM     16  H4  UNL     1      46.331 -17.796  41.321  1.00  0.00     0.170 HD
BRANCH   9  17
HETATM   17  C17 UNL     1      43.931 -15.064  37.610  1.00  0.00     0.054 C 
HETATM   18  C18 UNL     1      43.087 -13.934  38.195  1.00  0.00     0.011 C 
ENDBRANCH   9  17
ENDBRANCH   6   7
BRANCH   1  19
HETATM   19  O1  UNL     1      47.169 -16.554  43.073  1.00  0.00    -0.350 OA
BRANCH  19  20
HETATM   20  C3  UNL     1      48.336 -17.014  43.466  1.00  0.00     0.175 C 
BRANCH  20  21
HETATM   21  C2  UNL     1      49.391 -17.204  42.419  1.00  0.00     0.022 C 
HETATM   22  C1  UNL     1      49.459 -18.513  41.722  1.00  0.00     0.007 C 
ENDBRANCH  20  21
ENDBRANCH  19  20
ENDBRANCH   1  19
BRANCH   4  23
HETATM   23  S1  UNL     1      42.411 -13.163  44.099  1.00  0.00     0.243 S 
HETATM   24  O2  UNL     1      41.151 -13.851  43.587  1.00  0.00    -0.206 OA
HETATM   25  O3  UNL     1      42.182 -12.981  45.582  1.00  0.00    -0.206 OA
BRANCH  23  26
HETATM   26  N1  UNL     1      42.481 -11.626  43.379  1.00  0.00    -0.203 NA
HETATM   27  C8  UNL     1      41.340 -11.425  42.515  1.00  0.00     0.138 C 
HETATM   28  C9  UNL     1      40.922  -9.951  42.550  1.00  0.00     0.287 C 
HETATM   29  N2  UNL     1      42.115  -9.164  42.350  1.00  0.00     0.086 N 
HETATM   30  C10 UNL     1      42.686  -9.495  41.064  1.00  0.00     0.310 C 
HETATM   31  C11 UNL     1      43.030  -9.325  43.437  1.00  0.00     0.287 C 
HETATM   32  C12 UNL     1      42.627 -10.527  44.298  1.00  0.00     0.138 C 
ENDBRANCH  23  26
ENDBRANCH   4  23
TORSDOF 7
ENDMDL
