MODEL 2
REMARK VINA RESULT: -8.465915895      1.573      2.232
REMARK  7 active torsions:
REMARK  status: ('A' for Active; 'I' for Inactive)
REMARK    1  A    between atoms: C2_2  and  C3_3 
REMARK    2  A    between atoms: C3_3  and  O1_4 
REMARK    3  A    between atoms: O1_4  and  C4_5 
REMARK    4  A    between atoms: C7_8  and  S1_9 
REMARK    5  A    between atoms: S1_9  and  N1_12 
REMARK    6  A    between atoms: C14_20  and  C15_21 
REMARK    7  A    between atoms: C16_24  and  C17_25 
ROOT
HETATM    1  C4  UNL     1      43.660 -14.627  36.292  1.00  0.00     0.082 A 
HETATM    2  C5  UNL     1      43.537 -14.236  34.944  1.00  0.00     0.039 A 
HETATM    3  C6  UNL     1      43.276 -12.947  34.561  1.00  0.00     0.027 A 
HETATM    4  C7  UNL     1      43.112 -11.942  35.481  1.00  0.00     0.075 A 
HETATM    5  C13 UNL     1      43.224 -12.291  36.794  1.00  0.00     0.042 A 
HETATM    6  C14 UNL     1      43.493 -13.607  37.218  1.00  0.00     0.043 A 
ENDROOT
BRANCH   6   7
HETATM    7  C15 UNL     1      43.615 -13.848  38.648  1.00  0.00     0.121 A 
HETATM    8  N3  UNL     1      44.509 -14.817  39.036  1.00  0.00    -0.343 N 
HETATM    9  C16 UNL     1      44.767 -15.151  40.286  1.00  0.00     0.037 A 
ATOM     10  H3  UNL     1      45.012 -15.316  38.302  1.00  0.00     0.167 HD
HETATM   11  C19 UNL     1      44.117 -14.509  41.315  1.00  0.00     0.124 A 
HETATM   12 CL1  UNL     1      44.433 -14.927  42.994  1.00  0.00    -0.076 Cl
HETATM   13  C20 UNL     1      43.221 -13.540  40.960  1.00  0.00     0.270 A 
HETATM   14  O4  UNL     1      42.580 -12.898  41.812  1.00  0.00    -0.266 OA
HETATM   15  N4  UNL     1      42.995 -13.237  39.646  1.00  0.00    -0.307 N 
ATOM     16  H4  UNL     1      42.318 -12.507  39.424  1.00  0.00     0.170 HD
BRANCH   9  17
HETATM   17  C17 UNL     1      45.747 -16.205  40.677  1.00  0.00     0.054 C 
HETATM   18  C18 UNL     1      45.647 -17.404  39.737  1.00  0.00     0.011 C 
ENDBRANCH   9  17
ENDBRANCH   6   7
BRANCH   1  19
HETATM   19  O1  UNL     1      43.909 -15.890  36.634  1.00  0.00    -0.350 OA
BRANCH  19  20
HETATM   20  C3  UNL     1      44.482 -17.048  36.388  1.00  0.00     0.175 C 
BRANCH  20  21
HETATM   21  C2  UNL     1      43.625 -18.274  36.474  1.00  0.00     0.022 C 
HETATM   22  C1  UNL     1      44.235 -19.520  37.001  1.00  0.00     0.007 C 
ENDBRANCH  20  21
ENDBRANCH  19  20
ENDBRANCH   1  19
BRANCH   4  23
HETATM   23  S1  UNL     1      42.785 -10.293  35.021  1.00  0.00     0.243 S 
HETATM   24  O2  UNL     1      43.528  -9.934  33.740  1.00  0.00    -0.206 OA
HETATM   25  O3  UNL     1      41.321 -10.112  34.690  1.00  0.00    -0.206 OA
BRANCH  23  26
HETATM   26  N1  UNL     1      43.210  -9.144  36.197  1.00  0.00    -0.203 NA
HETATM   27  C8  UNL     1      44.018  -8.099  35.607  1.00  0.00     0.138 C 
HETATM   28  C9  UNL     1      43.711  -6.764  36.291  1.00  0.00     0.287 C 
HETATM   29  N2  UNL     1      43.768  -6.990  37.715  1.00  0.00     0.086 N 
HETATM   30  C10 UNL     1      45.095  -7.443  38.066  1.00  0.00     0.310 C 
HETATM   31  C11 UNL     1      42.733  -7.881  38.140  1.00  0.00     0.287 C 
HETATM   32  C12 UNL     1      42.106  -8.583  36.931  1.00  0.00     0.138 C 
ENDBRANCH  23  26
ENDBRANCH   4  23
TORSDOF 7
ENDMDL
