MODEL 6
REMARK VINA RESULT: -8.085372957      3.546      6.377
REMARK  7 active torsions:
REMARK  status: ('A' for Active; 'I' for Inactive)
REMARK    1  A    between atoms: C2_2  and  C3_3 
REMARK    2  A    between atoms: C3_3  and  O1_4 
REMARK    3  A    between atoms: O1_4  and  C4_5 
REMARK    4  A    between atoms: C7_8  and  S1_9 
REMARK    5  A    between atoms: S1_9  and  N1_12 
REMARK    6  A    between atoms: C14_20  and  C15_21 
REMARK    7  A    between atoms: C16_24  and  C17_25 
ROOT
HETATM    1  C4  UNL     1      45.067 -16.514  39.497  1.00  0.00     0.082 A 
HETATM    2  C5  UNL     1      45.367 -16.989  40.789  1.00  0.00     0.039 A 
HETATM    3  C6  UNL     1      45.199 -16.235  41.919  1.00  0.00     0.027 A 
HETATM    4  C7  UNL     1      44.723 -14.949  41.863  1.00  0.00     0.075 A 
HETATM    5  C13 UNL     1      44.425 -14.462  40.626  1.00  0.00     0.042 A 
HETATM    6  C14 UNL     1      44.585 -15.213  39.446  1.00  0.00     0.043 A 
ENDROOT
BRANCH   6   7
HETATM    7  C15 UNL     1      44.207 -14.589  38.186  1.00  0.00     0.121 A 
HETATM    8  N3  UNL     1      44.076 -13.221  38.190  1.00  0.00    -0.343 N 
HETATM    9  C16 UNL     1      43.766 -12.488  37.139  1.00  0.00     0.037 A 
ATOM     10  H3  UNL     1      44.232 -12.735  39.073  1.00  0.00     0.167 HD
HETATM   11  C19 UNL     1      43.546 -13.093  35.923  1.00  0.00     0.124 A 
HETATM   12 CL1  UNL     1      43.129 -12.150  34.498  1.00  0.00    -0.076 Cl
HETATM   13  C20 UNL     1      43.668 -14.453  35.888  1.00  0.00     0.270 A 
HETATM   14  O4  UNL     1      43.491 -15.099  34.838  1.00  0.00    -0.266 OA
HETATM   15  N4  UNL     1      43.993 -15.161  37.011  1.00  0.00    -0.307 N 
ATOM     16  H4  UNL     1      44.074 -16.175  36.942  1.00  0.00     0.170 HD
BRANCH   9  17
HETATM   17  C17 UNL     1      43.635 -11.003  37.173  1.00  0.00     0.054 C 
HETATM   18  C18 UNL     1      44.826 -10.378  37.895  1.00  0.00     0.011 C 
ENDBRANCH   9  17
ENDBRANCH   6   7
BRANCH   1  19
HETATM   19  O1  UNL     1      45.246 -17.269  38.414  1.00  0.00    -0.350 OA
BRANCH  19  20
HETATM   20  C3  UNL     1      45.564 -18.421  37.865  1.00  0.00     0.175 C 
BRANCH  20  21
HETATM   21  C2  UNL     1      44.447 -19.257  37.319  1.00  0.00     0.022 C 
HETATM   22  C1  UNL     1      43.498 -18.623  36.370  1.00  0.00     0.007 C 
ENDBRANCH  20  21
ENDBRANCH  19  20
ENDBRANCH   1  19
BRANCH   4  23
HETATM   23  S1  UNL     1      44.494 -13.970  43.287  1.00  0.00     0.243 S 
HETATM   24  O2  UNL     1      45.333 -14.497  44.444  1.00  0.00    -0.206 OA
HETATM   25  O3  UNL     1      44.991 -12.562  43.052  1.00  0.00    -0.206 OA
BRANCH  23  26
HETATM   26  N1  UNL     1      42.885 -13.883  43.822  1.00  0.00    -0.203 NA
HETATM   27  C8  UNL     1      42.842 -13.728  45.259  1.00  0.00     0.138 C 
HETATM   28  C9  UNL     1      41.645 -12.854  45.646  1.00  0.00     0.287 C 
HETATM   29  N2  UNL     1      40.493 -13.374  44.951  1.00  0.00     0.086 N 
HETATM   30  C10 UNL     1      40.272 -14.742  45.365  1.00  0.00     0.310 C 
HETATM   31  C11 UNL     1      40.630 -13.224  43.536  1.00  0.00     0.287 C 
HETATM   32  C12 UNL     1      42.079 -12.880  43.175  1.00  0.00     0.138 C 
ENDBRANCH  23  26
ENDBRANCH   4  23
TORSDOF 7
ENDMDL
