MODEL 1
REMARK VINA RESULT: -8.732402201      0.000      0.000
REMARK  7 active torsions:
REMARK  status: ('A' for Active; 'I' for Inactive)
REMARK    1  A    between atoms: C2_2  and  C3_3 
REMARK    2  A    between atoms: C3_3  and  O1_4 
REMARK    3  A    between atoms: O1_4  and  C4_5 
REMARK    4  A    between atoms: C7_8  and  S1_9 
REMARK    5  A    between atoms: S1_9  and  N1_12 
REMARK    6  A    between atoms: C14_20  and  C15_21 
REMARK    7  A    between atoms: C16_24  and  C17_25 
ROOT
HETATM    1  C4  UNL     1      43.713 -15.140  35.889  1.00  0.00     0.082 A 
HETATM    2  C5  UNL     1      43.317 -14.447  34.728  1.00  0.00     0.039 A 
HETATM    3  C6  UNL     1      43.047 -13.105  34.716  1.00  0.00     0.027 A 
HETATM    4  C7  UNL     1      43.144 -12.340  35.852  1.00  0.00     0.075 A 
HETATM    5  C13 UNL     1      43.524 -12.985  36.991  1.00  0.00     0.042 A 
HETATM    6  C14 UNL     1      43.810 -14.363  37.035  1.00  0.00     0.043 A 
ENDROOT
BRANCH   6   7
HETATM    7  C15 UNL     1      44.231 -14.929  38.308  1.00  0.00     0.121 A 
HETATM    8  N3  UNL     1      43.878 -14.234  39.440  1.00  0.00    -0.343 N 
HETATM    9  C16 UNL     1      44.152 -14.609  40.674  1.00  0.00     0.037 A 
ATOM     10  H3  UNL     1      43.365 -13.361  39.316  1.00  0.00     0.167 HD
HETATM   11  C19 UNL     1      44.841 -15.779  40.897  1.00  0.00     0.124 A 
HETATM   12 CL1  UNL     1      45.225 -16.313  42.529  1.00  0.00    -0.076 Cl
HETATM   13  C20 UNL     1      45.206 -16.493  39.791  1.00  0.00     0.270 A 
HETATM   14  O4  UNL     1      45.831 -17.565  39.881  1.00  0.00    -0.266 OA
HETATM   15  N4  UNL     1      44.894 -16.053  38.534  1.00  0.00    -0.307 N 
ATOM     16  H4  UNL     1      45.184 -16.616  37.735  1.00  0.00     0.170 HD
BRANCH   9  17
HETATM   17  C17 UNL     1      43.752 -13.835  41.884  1.00  0.00     0.054 C 
HETATM   18  C18 UNL     1      42.616 -12.870  41.551  1.00  0.00     0.011 C 
ENDBRANCH   9  17
ENDBRANCH   6   7
BRANCH   1  19
HETATM   19  O1  UNL     1      43.964 -16.449  35.871  1.00  0.00    -0.350 OA
BRANCH  19  20
HETATM   20  C3  UNL     1      43.641 -17.669  35.502  1.00  0.00     0.175 C 
BRANCH  20  21
HETATM   21  C2  UNL     1      43.385 -18.672  36.584  1.00  0.00     0.022 C 
HETATM   22  C1  UNL     1      44.507 -19.547  37.008  1.00  0.00     0.007 C 
ENDBRANCH  20  21
ENDBRANCH  19  20
ENDBRANCH   1  19
BRANCH   4  23
HETATM   23  S1  UNL     1      42.812 -10.629  35.863  1.00  0.00     0.243 S 
HETATM   24  O2  UNL     1      43.543  -9.931  34.723  1.00  0.00    -0.206 OA
HETATM   25  O3  UNL     1      41.345 -10.369  35.605  1.00  0.00    -0.206 OA
BRANCH  23  26
HETATM   26  N1  UNL     1      43.247  -9.844  37.304  1.00  0.00    -0.203 NA
HETATM   27  C8  UNL     1      44.621  -9.399  37.238  1.00  0.00     0.138 C 
HETATM   28  C9  UNL     1      44.774  -8.083  38.007  1.00  0.00     0.287 C 
HETATM   29  N2  UNL     1      44.145  -8.265  39.293  1.00  0.00     0.086 N 
HETATM   30  C10 UNL     1      44.812  -9.339  39.995  1.00  0.00     0.310 C 
HETATM   31  C11 UNL     1      42.735  -8.463  39.157  1.00  0.00     0.287 C 
HETATM   32  C12 UNL     1      42.379  -8.764  37.697  1.00  0.00     0.138 C 
ENDBRANCH  23  26
ENDBRANCH   4  23
TORSDOF 7
ENDMDL
