MODEL 7
REMARK VINA RESULT: -5.982084973      4.610      6.783
REMARK  9 active torsions:
REMARK  status: ('A' for Active; 'I' for Inactive)
REMARK    1  A    between atoms: O1_2  and  C2_3 
REMARK    2  A    between atoms: C5_6  and  N1_7 
REMARK    3  A    between atoms: N1_7  and  C6_9 
REMARK    4  A    between atoms: C6_9  and  N2_11 
REMARK    5  A    between atoms: N2_11  and  C7_13 
REMARK    6  A    between atoms: C7_13  and  C8_14 
REMARK    7  A    between atoms: C8_14  and  C9_15 
REMARK    8  A    between atoms: C9_15  and  N3_16 
REMARK    9  A    between atoms: C14_23  and  O2_24 
ROOT
HETATM    1  C6  UNL     1      15.168 -28.076  -8.039  1.00  0.00     0.172 C 
HETATM    2  S1  UNL     1      15.735 -28.722  -6.637  1.00  0.00    -0.041 SA
ENDROOT
BRANCH   1   3
HETATM    3  N1  UNL     1      15.780 -27.068  -8.767  1.00  0.00    -0.333 N 
ATOM      4  H1  UNL     1      15.492 -26.103  -8.605  1.00  0.00     0.168 HD
BRANCH   3   5
HETATM    5  C5  UNL     1      16.793 -27.323  -9.727  1.00  0.00     0.037 A 
HETATM    6  C4  UNL     1      16.869 -28.526 -10.385  1.00  0.00     0.032 A 
HETATM    7  C3  UNL     1      17.900 -28.796 -11.300  1.00  0.00     0.042 A 
HETATM    8  C2  UNL     1      18.838 -27.823 -11.525  1.00  0.00     0.101 A 
HETATM    9  C14 UNL     1      18.772 -26.599 -10.867  1.00  0.00     0.103 A 
HETATM   10  C13 UNL     1      17.765 -26.333  -9.971  1.00  0.00     0.069 A 
BRANCH   8  11
HETATM   11  O1  UNL     1      19.879 -28.020 -12.410  1.00  0.00    -0.353 OA
HETATM   12  C1  UNL     1      20.608 -29.223 -12.348  1.00  0.00     0.210 C 
ENDBRANCH   8  11
BRANCH   9  13
HETATM   13  O2  UNL     1      19.747 -25.656 -11.136  1.00  0.00    -0.353 OA
HETATM   14  C15 UNL     1      19.503 -24.303 -10.822  1.00  0.00     0.210 C 
ENDBRANCH   9  13
ENDBRANCH   3   5
ENDBRANCH   1   3
BRANCH   1  15
HETATM   15  N2  UNL     1      13.902 -28.608  -8.501  1.00  0.00    -0.367 N 
ATOM     16  H2  UNL     1      13.539 -29.472  -8.097  1.00  0.00     0.161 HD
BRANCH  15  17
HETATM   17  C7  UNL     1      13.158 -27.933  -9.516  1.00  0.00     0.123 C 
BRANCH  17  18
HETATM   18  C8  UNL     1      12.244 -26.904  -8.933  1.00  0.00     0.040 C 
BRANCH  18  19
HETATM   19  C9  UNL     1      12.479 -25.513  -9.383  1.00  0.00     0.130 C 
BRANCH  19  20
HETATM   20  N3  UNL     1      11.380 -24.641  -9.545  1.00  0.00    -0.352 N 
HETATM   21  C10 UNL     1      11.355 -23.469 -10.220  1.00  0.00     0.108 A 
HETATM   22  C11 UNL     1      10.089 -22.942 -10.080  1.00  0.00     0.106 A 
HETATM   23  N4  UNL     1       9.365 -23.772  -9.337  1.00  0.00    -0.361 N 
HETATM   24  C12 UNL     1      10.147 -24.815  -9.004  1.00  0.00     0.182 A 
ATOM     25  H4  UNL     1       8.390 -23.641  -9.067  1.00  0.00     0.166 HD
ENDBRANCH  19  20
ENDBRANCH  18  19
ENDBRANCH  17  18
ENDBRANCH  15  17
ENDBRANCH   1  15
TORSDOF 9
ENDMDL
