MODEL 1
REMARK VINA RESULT: -6.134288488      0.000      0.000
REMARK  9 active torsions:
REMARK  status: ('A' for Active; 'I' for Inactive)
REMARK    1  A    between atoms: O1_2  and  C2_3 
REMARK    2  A    between atoms: C5_6  and  N1_7 
REMARK    3  A    between atoms: N1_7  and  C6_9 
REMARK    4  A    between atoms: C6_9  and  N2_11 
REMARK    5  A    between atoms: N2_11  and  C7_13 
REMARK    6  A    between atoms: C7_13  and  C8_14 
REMARK    7  A    between atoms: C8_14  and  C9_15 
REMARK    8  A    between atoms: C9_15  and  N3_16 
REMARK    9  A    between atoms: C14_23  and  O2_24 
ROOT
HETATM    1  C6  UNL     1      15.113 -27.348  -7.768  1.00  0.00     0.172 C 
HETATM    2  S1  UNL     1      16.485 -26.581  -7.285  1.00  0.00    -0.041 SA
ENDROOT
BRANCH   1   3
HETATM    3  N1  UNL     1      14.418 -28.295  -7.032  1.00  0.00    -0.333 N 
ATOM      4  H1  UNL     1      14.477 -29.274  -7.313  1.00  0.00     0.168 HD
BRANCH   3   5
HETATM    5  C5  UNL     1      13.628 -27.960  -5.902  1.00  0.00     0.037 A 
HETATM    6  C4  UNL     1      12.396 -27.370  -6.041  1.00  0.00     0.032 A 
HETATM    7  C3  UNL     1      11.634 -26.993  -4.922  1.00  0.00     0.042 A 
HETATM    8  C2  UNL     1      12.152 -27.230  -3.676  1.00  0.00     0.101 A 
HETATM    9  C14 UNL     1      13.399 -27.827  -3.522  1.00  0.00     0.103 A 
HETATM   10  C13 UNL     1      14.146 -28.196  -4.614  1.00  0.00     0.069 A 
BRANCH   8  11
HETATM   11  O1  UNL     1      11.460 -26.885  -2.533  1.00  0.00    -0.353 OA
HETATM   12  C1  UNL     1      10.544 -27.804  -1.988  1.00  0.00     0.210 C 
ENDBRANCH   8  11
BRANCH   9  13
HETATM   13  O2  UNL     1      13.869 -28.041  -2.238  1.00  0.00    -0.353 OA
HETATM   14  C15 UNL     1      14.999 -27.325  -1.791  1.00  0.00     0.210 C 
ENDBRANCH   9  13
ENDBRANCH   3   5
ENDBRANCH   1   3
BRANCH   1  15
HETATM   15  N2  UNL     1      14.643 -27.004  -9.094  1.00  0.00    -0.367 N 
ATOM     16  H2  UNL     1      15.086 -26.241  -9.605  1.00  0.00     0.161 HD
BRANCH  15  17
HETATM   17  C7  UNL     1      13.564 -27.725  -9.691  1.00  0.00     0.123 C 
BRANCH  17  18
HETATM   18  C8  UNL     1      12.297 -26.932  -9.670  1.00  0.00     0.040 C 
BRANCH  18  19
HETATM   19  C9  UNL     1      12.446 -25.498  -9.331  1.00  0.00     0.130 C 
BRANCH  19  20
HETATM   20  N3  UNL     1      11.353 -24.624  -9.513  1.00  0.00    -0.352 N 
HETATM   21  C10 UNL     1      11.335 -23.468 -10.215  1.00  0.00     0.108 A 
HETATM   22  C11 UNL     1      10.072 -22.931 -10.087  1.00  0.00     0.106 A 
HETATM   23  N4  UNL     1       9.344 -23.738  -9.325  1.00  0.00    -0.361 N 
HETATM   24  C12 UNL     1      10.119 -24.778  -8.968  1.00  0.00     0.182 A 
ATOM     25  H4  UNL     1       8.369 -23.596  -9.059  1.00  0.00     0.166 HD
ENDBRANCH  19  20
ENDBRANCH  18  19
ENDBRANCH  17  18
ENDBRANCH  15  17
ENDBRANCH   1  15
TORSDOF 9
ENDMDL
