MODEL 5
REMARK VINA RESULT: -5.996276447      1.087      1.128
REMARK  9 active torsions:
REMARK  status: ('A' for Active; 'I' for Inactive)
REMARK    1  A    between atoms: O1_2  and  C2_3 
REMARK    2  A    between atoms: C5_6  and  N1_7 
REMARK    3  A    between atoms: N1_7  and  C6_9 
REMARK    4  A    between atoms: C6_9  and  N2_11 
REMARK    5  A    between atoms: N2_11  and  C7_13 
REMARK    6  A    between atoms: C7_13  and  C8_14 
REMARK    7  A    between atoms: C8_14  and  C9_15 
REMARK    8  A    between atoms: C9_15  and  N3_16 
REMARK    9  A    between atoms: C14_23  and  O2_24 
ROOT
HETATM    1  C6  UNL     1      14.896 -28.427  -8.020  1.00  0.00     0.172 C 
HETATM    2  S1  UNL     1      15.891 -27.204  -8.489  1.00  0.00    -0.041 SA
ENDROOT
BRANCH   1   3
HETATM    3  N1  UNL     1      14.987 -29.127  -6.827  1.00  0.00    -0.333 N 
ATOM      4  H1  UNL     1      15.640 -29.908  -6.767  1.00  0.00     0.168 HD
BRANCH   3   5
HETATM    5  C5  UNL     1      14.208 -28.802  -5.687  1.00  0.00     0.037 A 
HETATM    6  C4  UNL     1      13.332 -27.746  -5.696  1.00  0.00     0.032 A 
HETATM    7  C3  UNL     1      12.596 -27.393  -4.552  1.00  0.00     0.042 A 
HETATM    8  C2  UNL     1      12.775 -28.135  -3.414  1.00  0.00     0.101 A 
HETATM    9  C14 UNL     1      13.659 -29.209  -3.391  1.00  0.00     0.103 A 
HETATM   10  C13 UNL     1      14.379 -29.555  -4.508  1.00  0.00     0.069 A 
BRANCH   8  11
HETATM   11  O1  UNL     1      12.087 -27.846  -2.252  1.00  0.00    -0.353 OA
HETATM   12  C1  UNL     1      10.681 -27.898  -2.263  1.00  0.00     0.210 C 
ENDBRANCH   8  11
BRANCH   9  13
HETATM   13  O2  UNL     1      13.796 -29.921  -2.212  1.00  0.00    -0.353 OA
HETATM   14  C15 UNL     1      14.895 -29.654  -1.370  1.00  0.00     0.210 C 
ENDBRANCH   9  13
ENDBRANCH   3   5
ENDBRANCH   1   3
BRANCH   1  15
HETATM   15  N2  UNL     1      13.874 -28.797  -8.977  1.00  0.00    -0.367 N 
ATOM     16  H2  UNL     1      13.535 -29.759  -9.009  1.00  0.00     0.161 HD
BRANCH  15  17
HETATM   17  C7  UNL     1      13.335 -27.826  -9.876  1.00  0.00     0.123 C 
BRANCH  17  18
HETATM   18  C8  UNL     1      12.279 -26.998  -9.219  1.00  0.00     0.040 C 
BRANCH  18  19
HETATM   19  C9  UNL     1      12.500 -25.534  -9.258  1.00  0.00     0.130 C 
BRANCH  19  20
HETATM   20  N3  UNL     1      11.402 -24.671  -9.466  1.00  0.00    -0.352 N 
HETATM   21  C10 UNL     1      11.384 -23.524 -10.182  1.00  0.00     0.108 A 
HETATM   22  C11 UNL     1      10.115 -22.996 -10.077  1.00  0.00     0.106 A 
HETATM   23  N4  UNL     1       9.383 -23.801  -9.317  1.00  0.00    -0.361 N 
HETATM   24  C12 UNL     1      10.161 -24.830  -8.937  1.00  0.00     0.182 A 
ATOM     25  H4  UNL     1       8.403 -23.664  -9.066  1.00  0.00     0.166 HD
ENDBRANCH  19  20
ENDBRANCH  18  19
ENDBRANCH  17  18
ENDBRANCH  15  17
ENDBRANCH   1  15
TORSDOF 9
ENDMDL
