MODEL 3
REMARK VINA RESULT: -6.091531367      1.002      1.002
REMARK  9 active torsions:
REMARK  status: ('A' for Active; 'I' for Inactive)
REMARK    1  A    between atoms: O1_2  and  C2_3 
REMARK    2  A    between atoms: C5_6  and  N1_7 
REMARK    3  A    between atoms: N1_7  and  C6_9 
REMARK    4  A    between atoms: C6_9  and  N2_11 
REMARK    5  A    between atoms: N2_11  and  C7_13 
REMARK    6  A    between atoms: C7_13  and  C8_14 
REMARK    7  A    between atoms: C8_14  and  C9_15 
REMARK    8  A    between atoms: C9_15  and  N3_16 
REMARK    9  A    between atoms: C14_23  and  O2_24 
ROOT
HETATM    1  C6  UNL     1      14.925 -28.301  -7.709  1.00  0.00     0.172 C 
HETATM    2  S1  UNL     1      14.949 -29.934  -7.901  1.00  0.00    -0.041 SA
ENDROOT
BRANCH   1   3
HETATM    3  N1  UNL     1      15.100 -27.628  -6.510  1.00  0.00    -0.333 N 
ATOM      4  H1  UNL     1      16.012 -27.219  -6.307  1.00  0.00     0.168 HD
BRANCH   3   5
HETATM    5  C5  UNL     1      14.062 -27.485  -5.553  1.00  0.00     0.037 A 
HETATM    6  C4  UNL     1      12.750 -27.355  -5.934  1.00  0.00     0.032 A 
HETATM    7  C3  UNL     1      11.728 -27.165  -4.989  1.00  0.00     0.042 A 
HETATM    8  C2  UNL     1      12.073 -27.109  -3.664  1.00  0.00     0.101 A 
HETATM    9  C14 UNL     1      13.399 -27.240  -3.264  1.00  0.00     0.103 A 
HETATM   10  C13 UNL     1      14.399 -27.426  -4.186  1.00  0.00     0.069 A 
BRANCH   8  11
HETATM   11  O1  UNL     1      11.122 -26.923  -2.681  1.00  0.00    -0.353 OA
HETATM   12  C1  UNL     1      10.379 -28.032  -2.233  1.00  0.00     0.210 C 
ENDBRANCH   8  11
BRANCH   9  13
HETATM   13  O2  UNL     1      13.685 -27.177  -1.912  1.00  0.00    -0.353 OA
HETATM   14  C15 UNL     1      14.333 -26.035  -1.398  1.00  0.00     0.210 C 
ENDBRANCH   9  13
ENDBRANCH   3   5
ENDBRANCH   1   3
BRANCH   1  15
HETATM   15  N2  UNL     1      14.661 -27.538  -8.911  1.00  0.00    -0.367 N 
ATOM     16  H2  UNL     1      15.270 -26.758  -9.160  1.00  0.00     0.161 HD
BRANCH  15  17
HETATM   17  C7  UNL     1      13.554 -27.869  -9.753  1.00  0.00     0.123 C 
BRANCH  17  18
HETATM   18  C8  UNL     1      12.344 -27.063  -9.409  1.00  0.00     0.040 C 
BRANCH  18  19
HETATM   19  C9  UNL     1      12.551 -25.597  -9.341  1.00  0.00     0.130 C 
BRANCH  19  20
HETATM   20  N3  UNL     1      11.445 -24.733  -9.494  1.00  0.00    -0.352 N 
HETATM   21  C10 UNL     1      11.416 -23.546 -10.143  1.00  0.00     0.108 A 
HETATM   22  C11 UNL     1      10.143 -23.035 -10.003  1.00  0.00     0.106 A 
HETATM   23  N4  UNL     1       9.421 -23.888  -9.286  1.00  0.00    -0.361 N 
HETATM   24  C12 UNL     1      10.209 -24.931  -8.969  1.00  0.00     0.182 A 
ATOM     25  H4  UNL     1       8.441 -23.772  -9.023  1.00  0.00     0.166 HD
ENDBRANCH  19  20
ENDBRANCH  18  19
ENDBRANCH  17  18
ENDBRANCH  15  17
ENDBRANCH   1  15
TORSDOF 9
ENDMDL
