MODEL 14
REMARK VINA RESULT: -5.782715606      4.422      6.526
REMARK  9 active torsions:
REMARK  status: ('A' for Active; 'I' for Inactive)
REMARK    1  A    between atoms: O1_2  and  C2_3 
REMARK    2  A    between atoms: C5_6  and  N1_7 
REMARK    3  A    between atoms: N1_7  and  C6_9 
REMARK    4  A    between atoms: C6_9  and  N2_11 
REMARK    5  A    between atoms: N2_11  and  C7_13 
REMARK    6  A    between atoms: C7_13  and  C8_14 
REMARK    7  A    between atoms: C8_14  and  C9_15 
REMARK    8  A    between atoms: C9_15  and  N3_16 
REMARK    9  A    between atoms: C14_23  and  O2_24 
ROOT
HETATM    1  C6  UNL     1      15.283 -29.274  -9.051  1.00  0.00     0.172 C 
HETATM    2  S1  UNL     1      16.041 -30.139  -7.875  1.00  0.00    -0.041 SA
ENDROOT
BRANCH   1   3
HETATM    3  N1  UNL     1      15.789 -29.019 -10.316  1.00  0.00    -0.333 N 
ATOM      4  H1  UNL     1      15.307 -29.414 -11.124  1.00  0.00     0.168 HD
BRANCH   3   5
HETATM    5  C5  UNL     1      16.948 -28.230 -10.534  1.00  0.00     0.037 A 
HETATM    6  C4  UNL     1      17.919 -28.618 -11.423  1.00  0.00     0.032 A 
HETATM    7  C3  UNL     1      19.091 -27.863 -11.604  1.00  0.00     0.042 A 
HETATM    8  C2  UNL     1      19.243 -26.718 -10.866  1.00  0.00     0.101 A 
HETATM    9  C14 UNL     1      18.265 -26.313  -9.963  1.00  0.00     0.103 A 
HETATM   10  C13 UNL     1      17.120 -27.051  -9.785  1.00  0.00     0.069 A 
BRANCH   8  11
HETATM   11  O1  UNL     1      20.368 -25.928 -10.991  1.00  0.00    -0.353 OA
HETATM   12  C1  UNL     1      20.713 -25.430 -12.262  1.00  0.00     0.210 C 
ENDBRANCH   8  11
BRANCH   9  13
HETATM   13  O2  UNL     1      18.476 -25.148  -9.248  1.00  0.00    -0.353 OA
HETATM   14  C15 UNL     1      18.636 -25.218  -7.848  1.00  0.00     0.210 C 
ENDBRANCH   9  13
ENDBRANCH   3   5
ENDBRANCH   1   3
BRANCH   1  15
HETATM   15  N2  UNL     1      13.997 -28.719  -8.682  1.00  0.00    -0.367 N 
ATOM     16  H2  UNL     1      13.648 -28.840  -7.731  1.00  0.00     0.161 HD
BRANCH  15  17
HETATM   17  C7  UNL     1      13.214 -28.004  -9.639  1.00  0.00     0.123 C 
BRANCH  17  18
HETATM   18  C8  UNL     1      12.412 -26.921  -8.991  1.00  0.00     0.040 C 
BRANCH  18  19
HETATM   19  C9  UNL     1      12.553 -25.576  -9.594  1.00  0.00     0.130 C 
BRANCH  19  20
HETATM   20  N3  UNL     1      11.434 -24.716  -9.642  1.00  0.00    -0.352 N 
HETATM   21  C10 UNL     1      11.341 -23.525 -10.276  1.00  0.00     0.108 A 
HETATM   22  C11 UNL     1      10.083 -23.022 -10.019  1.00  0.00     0.106 A 
HETATM   23  N4  UNL     1       9.431 -23.884  -9.249  1.00  0.00    -0.361 N 
HETATM   24  C12 UNL     1      10.249 -24.925  -9.011  1.00  0.00     0.182 A 
ATOM     25  H4  UNL     1       8.479 -23.777  -8.899  1.00  0.00     0.166 HD
ENDBRANCH  19  20
ENDBRANCH  18  19
ENDBRANCH  17  18
ENDBRANCH  15  17
ENDBRANCH   1  15
TORSDOF 9
ENDMDL
