MODEL 4
REMARK VINA RESULT: -6.036409087      5.426      7.564
REMARK  9 active torsions:
REMARK  status: ('A' for Active; 'I' for Inactive)
REMARK    1  A    between atoms: O1_2  and  C2_3 
REMARK    2  A    between atoms: C5_6  and  N1_7 
REMARK    3  A    between atoms: N1_7  and  C6_9 
REMARK    4  A    between atoms: C6_9  and  N2_11 
REMARK    5  A    between atoms: N2_11  and  C7_13 
REMARK    6  A    between atoms: C7_13  and  C8_14 
REMARK    7  A    between atoms: C8_14  and  C9_15 
REMARK    8  A    between atoms: C9_15  and  N3_16 
REMARK    9  A    between atoms: C14_23  and  O2_24 
ROOT
HETATM    1  C6  UNL     1      16.237 -27.716  -9.676  1.00  0.00     0.172 C 
HETATM    2  S1  UNL     1      16.171 -29.172 -10.437  1.00  0.00    -0.041 SA
ENDROOT
BRANCH   1   3
HETATM    3  N1  UNL     1      17.389 -27.100  -9.214  1.00  0.00    -0.333 N 
ATOM      4  H1  UNL     1      17.579 -27.106  -8.212  1.00  0.00     0.168 HD
BRANCH   3   5
HETATM    5  C5  UNL     1      18.317 -26.463 -10.078  1.00  0.00     0.037 A 
HETATM    6  C4  UNL     1      19.145 -27.189 -10.898  1.00  0.00     0.032 A 
HETATM    7  C3  UNL     1      20.098 -26.560 -11.718  1.00  0.00     0.042 A 
HETATM    8  C2  UNL     1      20.184 -25.194 -11.680  1.00  0.00     0.101 A 
HETATM    9  C14 UNL     1      19.350 -24.446 -10.855  1.00  0.00     0.103 A 
HETATM   10  C13 UNL     1      18.419 -25.059 -10.052  1.00  0.00     0.069 A 
BRANCH   8  11
HETATM   11  O1  UNL     1      21.097 -24.510 -12.458  1.00  0.00    -0.353 OA
HETATM   12  C1  UNL     1      21.331 -24.945 -13.776  1.00  0.00     0.210 C 
ENDBRANCH   8  11
BRANCH   9  13
HETATM   13  O2  UNL     1      19.484 -23.069 -10.861  1.00  0.00    -0.353 OA
HETATM   14  C15 UNL     1      19.860 -22.408  -9.674  1.00  0.00     0.210 C 
ENDBRANCH   9  13
ENDBRANCH   3   5
ENDBRANCH   1   3
BRANCH   1  15
HETATM   15  N2  UNL     1      14.959 -27.071  -9.458  1.00  0.00    -0.367 N 
ATOM     16  H2  UNL     1      14.929 -26.105  -9.128  1.00  0.00     0.161 HD
BRANCH  15  17
HETATM   17  C7  UNL     1      13.739 -27.774  -9.700  1.00  0.00     0.123 C 
BRANCH  17  18
HETATM   18  C8  UNL     1      12.554 -26.996  -9.226  1.00  0.00     0.040 C 
BRANCH  18  19
HETATM   19  C9  UNL     1      12.681 -25.523  -9.315  1.00  0.00     0.130 C 
BRANCH  19  20
HETATM   20  N3  UNL     1      11.520 -24.735  -9.468  1.00  0.00    -0.352 N 
HETATM   21  C10 UNL     1      11.400 -23.576 -10.155  1.00  0.00     0.108 A 
HETATM   22  C11 UNL     1      10.101 -23.140 -10.000  1.00  0.00     0.106 A 
HETATM   23  N4  UNL     1       9.451 -24.011  -9.238  1.00  0.00    -0.361 N 
HETATM   24  C12 UNL     1      10.310 -24.992  -8.907  1.00  0.00     0.182 A 
ATOM     25  H4  UNL     1       8.473 -23.949  -8.954  1.00  0.00     0.166 HD
ENDBRANCH  19  20
ENDBRANCH  18  19
ENDBRANCH  17  18
ENDBRANCH  15  17
ENDBRANCH   1  15
TORSDOF 9
ENDMDL
