MODEL 10
REMARK VINA RESULT: -5.952446386      4.646      6.547
REMARK  9 active torsions:
REMARK  status: ('A' for Active; 'I' for Inactive)
REMARK    1  A    between atoms: O1_2  and  C2_3 
REMARK    2  A    between atoms: C5_6  and  N1_7 
REMARK    3  A    between atoms: N1_7  and  C6_9 
REMARK    4  A    between atoms: C6_9  and  N2_11 
REMARK    5  A    between atoms: N2_11  and  C7_13 
REMARK    6  A    between atoms: C7_13  and  C8_14 
REMARK    7  A    between atoms: C8_14  and  C9_15 
REMARK    8  A    between atoms: C9_15  and  N3_16 
REMARK    9  A    between atoms: C14_23  and  O2_24 
ROOT
HETATM    1  C6  UNL     1      15.720 -27.476  -7.793  1.00  0.00     0.172 C 
HETATM    2  S1  UNL     1      15.483 -29.084  -8.043  1.00  0.00    -0.041 SA
ENDROOT
BRANCH   1   3
HETATM    3  N1  UNL     1      16.942 -26.872  -7.540  1.00  0.00    -0.333 N 
ATOM      4  H1  UNL     1      17.350 -26.965  -6.610  1.00  0.00     0.168 HD
BRANCH   3   5
HETATM    5  C5  UNL     1      17.648 -26.131  -8.522  1.00  0.00     0.037 A 
HETATM    6  C4  UNL     1      17.658 -26.516  -9.840  1.00  0.00     0.032 A 
HETATM    7  C3  UNL     1      18.397 -25.810 -10.804  1.00  0.00     0.042 A 
HETATM    8  C2  UNL     1      19.116 -24.717 -10.396  1.00  0.00     0.101 A 
HETATM    9  C14 UNL     1      19.113 -24.315  -9.064  1.00  0.00     0.103 A 
HETATM   10  C13 UNL     1      18.392 -25.004  -8.121  1.00  0.00     0.069 A 
BRANCH   8  11
HETATM   11  O1  UNL     1      19.865 -23.977 -11.289  1.00  0.00    -0.353 OA
HETATM   12  C1  UNL     1      20.893 -24.615 -12.009  1.00  0.00     0.210 C 
ENDBRANCH   8  11
BRANCH   9  13
HETATM   13  O2  UNL     1      19.858 -23.202  -8.714  1.00  0.00    -0.353 OA
HETATM   14  C15 UNL     1      19.461 -22.431  -7.603  1.00  0.00     0.210 C 
ENDBRANCH   9  13
ENDBRANCH   3   5
ENDBRANCH   1   3
BRANCH   1  15
HETATM   15  N2  UNL     1      14.523 -26.661  -7.812  1.00  0.00    -0.367 N 
ATOM     16  H2  UNL     1      14.603 -25.647  -7.882  1.00  0.00     0.161 HD
BRANCH  15  17
HETATM   17  C7  UNL     1      13.231 -27.267  -7.733  1.00  0.00     0.123 C 
BRANCH  17  18
HETATM   18  C8  UNL     1      12.387 -26.912  -8.913  1.00  0.00     0.040 C 
BRANCH  18  19
HETATM   19  C9  UNL     1      12.565 -25.537  -9.436  1.00  0.00     0.130 C 
BRANCH  19  20
HETATM   20  N3  UNL     1      11.443 -24.688  -9.552  1.00  0.00    -0.352 N 
HETATM   21  C10 UNL     1      11.370 -23.511 -10.216  1.00  0.00     0.108 A 
HETATM   22  C11 UNL     1      10.099 -23.013 -10.026  1.00  0.00     0.106 A 
HETATM   23  N4  UNL     1       9.419 -23.863  -9.267  1.00  0.00    -0.361 N 
HETATM   24  C12 UNL     1      10.233 -24.892  -8.970  1.00  0.00     0.182 A 
ATOM     25  H4  UNL     1       8.451 -23.756  -8.962  1.00  0.00     0.166 HD
ENDBRANCH  19  20
ENDBRANCH  18  19
ENDBRANCH  17  18
ENDBRANCH  15  17
ENDBRANCH   1  15
TORSDOF 9
ENDMDL
