MODEL 6
REMARK VINA RESULT: -8.050260776      2.213      7.754
REMARK  7 active torsions:
REMARK  status: ('A' for Active; 'I' for Inactive)
REMARK    1  A    between atoms: N1_1  and  C1_5 
REMARK    2  A    between atoms: C1_5  and  C2_6 
REMARK    3  A    between atoms: C1_5  and  C9_13 
REMARK    4  A    between atoms: C2_6  and  C3_7 
REMARK       I    between atoms: C9_13  and  N2_15 
REMARK    5  A    between atoms: C13_19  and  C14_20 
REMARK       I    between atoms: C14_20  and  N3_22 
REMARK    6  A    between atoms: N3_22  and  C15_24 
REMARK    7  A    between atoms: C15_24  and  C16_25 
ROOT
HETATM    1  C9  UNL     1      14.575 -13.631  20.775  1.00  0.00     0.251 C 
HETATM    2  O1  UNL     1      14.593 -14.565  19.876  1.00  0.00    -0.271 OA
HETATM    3  N2  UNL     1      15.809 -12.971  20.987  1.00  0.00    -0.337 N 
HETATM    4  C10 UNL     1      16.115 -11.861  21.834  1.00  0.00     0.127 C 
HETATM    5  C11 UNL     1      17.247 -11.153  21.080  1.00  0.00     0.022 C 
HETATM    6  C12 UNL     1      17.689 -12.058  19.992  1.00  0.00     0.037 C 
HETATM    7  C13 UNL     1      17.046 -13.367  20.347  1.00  0.00     0.179 C 
ENDROOT
BRANCH   1   8
HETATM    8  C1  UNL     1      13.285 -13.427  21.408  1.00  0.00     0.279 C 
BRANCH   8   9
HETATM    9  N1  UNL     1      12.435 -14.576  21.511  1.00  0.00    -0.066 N 
ATOM     10  H13 UNL     1      12.120 -14.745  22.467  1.00  0.00     0.275 HD
ATOM     11  H12 UNL     1      11.520 -14.423  21.087  1.00  0.00     0.275 HD
ATOM     12  H11 UNL     1      12.921 -15.379  21.113  1.00  0.00     0.275 HD
ENDBRANCH   8   9
BRANCH   8  13
HETATM   13  C2  UNL     1      12.497 -12.289  20.745  1.00  0.00     0.081 C 
BRANCH  13  14
HETATM   14  C3  UNL     1      12.401 -11.148  21.670  1.00  0.00    -0.056 A 
HETATM   15  C4  UNL     1      13.193 -10.004  21.487  1.00  0.00     0.007 A 
HETATM   16  C5  UNL     1      13.131  -8.914  22.315  1.00  0.00     0.001 A 
HETATM   17  C6  UNL     1      12.260  -8.923  23.379  1.00  0.00     0.000 A 
HETATM   18  C7  UNL     1      11.460 -10.014  23.608  1.00  0.00     0.001 A 
HETATM   19  C8  UNL     1      11.553 -11.092  22.750  1.00  0.00     0.007 A 
ENDBRANCH  13  14
ENDBRANCH   8  13
ENDBRANCH   1   8
BRANCH   7  20
HETATM   20  C14 UNL     1      17.964 -14.108  21.251  1.00  0.00     0.240 C 
HETATM   21  O2  UNL     1      17.506 -15.006  22.041  1.00  0.00    -0.271 OA
HETATM   22  N3  UNL     1      19.365 -13.901  21.328  1.00  0.00    -0.354 N 
ATOM     23  H3  UNL     1      19.805 -13.197  20.734  1.00  0.00     0.162 HD
BRANCH  22  24
HETATM   24  C15 UNL     1      20.187 -14.692  22.256  1.00  0.00     0.179 C 
BRANCH  24  25
HETATM   25  C16 UNL     1      20.670 -13.828  23.374  1.00  0.00     0.026 A 
HETATM   26  C17 UNL     1      19.848 -13.407  24.396  1.00  0.00     0.027 A 
HETATM   27  C18 UNL     1      20.313 -12.610  25.418  1.00  0.00     0.003 A 
HETATM   28  C19 UNL     1      21.618 -12.213  25.441  1.00  0.00     0.017 A 
HETATM   29  C20 UNL     1      22.436 -12.649  24.396  1.00  0.00     0.088 A 
HETATM   30  N4  UNL     1      21.955 -13.429  23.407  1.00  0.00    -0.368 N 
ATOM     31  H4  UNL     1      22.584 -13.726  22.662  1.00  0.00     0.165 HD
ENDBRANCH  24  25
ENDBRANCH  22  24
ENDBRANCH   7  20
TORSDOF 7
ENDMDL
