MODEL 10
REMARK VINA RESULT: -7.775263397      1.907      7.537
REMARK  7 active torsions:
REMARK  status: ('A' for Active; 'I' for Inactive)
REMARK    1  A    between atoms: N1_1  and  C1_5 
REMARK    2  A    between atoms: C1_5  and  C2_6 
REMARK    3  A    between atoms: C1_5  and  C9_13 
REMARK    4  A    between atoms: C2_6  and  C3_7 
REMARK       I    between atoms: C9_13  and  N2_15 
REMARK    5  A    between atoms: C13_19  and  C14_20 
REMARK       I    between atoms: C14_20  and  N3_22 
REMARK    6  A    between atoms: N3_22  and  C15_24 
REMARK    7  A    between atoms: C15_24  and  C16_25 
ROOT
HETATM    1  C9  UNL     1      14.664 -11.720  20.231  1.00  0.00     0.251 C 
HETATM    2  O1  UNL     1      14.114 -12.887  20.098  1.00  0.00    -0.271 OA
HETATM    3  N2  UNL     1      16.061 -11.731  20.456  1.00  0.00    -0.337 N 
HETATM    4  C10 UNL     1      16.975 -10.639  20.566  1.00  0.00     0.127 C 
HETATM    5  C11 UNL     1      18.280 -11.221  20.010  1.00  0.00     0.022 C 
HETATM    6  C12 UNL     1      18.088 -12.686  19.871  1.00  0.00     0.037 C 
HETATM    7  C13 UNL     1      16.829 -12.945  20.646  1.00  0.00     0.179 C 
ENDROOT
BRANCH   1   8
HETATM    8  C1  UNL     1      13.743 -10.603  20.125  1.00  0.00     0.279 C 
BRANCH   8   9
HETATM    9  N1  UNL     1      13.632  -9.987  18.836  1.00  0.00    -0.066 N 
ATOM     10  H13 UNL     1      12.776  -9.440  18.737  1.00  0.00     0.275 HD
ATOM     11  H12 UNL     1      14.300  -9.226  18.708  1.00  0.00     0.275 HD
ATOM     12  H11 UNL     1      13.719 -10.708  18.120  1.00  0.00     0.275 HD
ENDBRANCH   8   9
BRANCH   8  13
HETATM   13  C2  UNL     1      14.041  -9.515  21.167  1.00  0.00     0.081 C 
BRANCH  13  14
HETATM   14  C3  UNL     1      13.058  -9.594  22.260  1.00  0.00    -0.056 A 
HETATM   15  C4  UNL     1      12.819  -8.490  23.094  1.00  0.00     0.007 A 
HETATM   16  C5  UNL     1      11.907  -8.511  24.116  1.00  0.00     0.001 A 
HETATM   17  C6  UNL     1      11.185  -9.658  24.352  1.00  0.00     0.000 A 
HETATM   18  C7  UNL     1      11.376 -10.769  23.570  1.00  0.00     0.001 A 
HETATM   19  C8  UNL     1      12.304 -10.706  22.549  1.00  0.00     0.007 A 
ENDBRANCH  13  14
ENDBRANCH   8  13
ENDBRANCH   1   8
BRANCH   7  20
HETATM   20  C14 UNL     1      17.196 -13.190  22.065  1.00  0.00     0.240 C 
HETATM   21  O2  UNL     1      16.523 -12.646  23.009  1.00  0.00    -0.271 OA
HETATM   22  N3  UNL     1      18.275 -14.005  22.492  1.00  0.00    -0.354 N 
ATOM     23  H3  UNL     1      18.864 -14.468  21.799  1.00  0.00     0.162 HD
BRANCH  22  24
HETATM   24  C15 UNL     1      18.553 -14.187  23.925  1.00  0.00     0.179 C 
BRANCH  24  25
HETATM   25  C16 UNL     1      19.817 -13.482  24.294  1.00  0.00     0.026 A 
HETATM   26  C17 UNL     1      19.995 -12.862  25.510  1.00  0.00     0.027 A 
HETATM   27  C18 UNL     1      21.169 -12.217  25.830  1.00  0.00     0.003 A 
HETATM   28  C19 UNL     1      22.197 -12.178  24.935  1.00  0.00     0.017 A 
HETATM   29  C20 UNL     1      21.999 -12.811  23.706  1.00  0.00     0.088 A 
HETATM   30  N4  UNL     1      20.839 -13.435  23.419  1.00  0.00    -0.368 N 
ATOM     31  H4  UNL     1      20.732 -13.886  22.510  1.00  0.00     0.165 HD
ENDBRANCH  24  25
ENDBRANCH  22  24
ENDBRANCH   7  20
TORSDOF 7
ENDMDL
