MODEL 9
REMARK VINA RESULT: -7.980139548      2.192      7.327
REMARK  7 active torsions:
REMARK  status: ('A' for Active; 'I' for Inactive)
REMARK    1  A    between atoms: N1_1  and  C1_5 
REMARK    2  A    between atoms: C1_5  and  C2_6 
REMARK    3  A    between atoms: C1_5  and  C9_13 
REMARK    4  A    between atoms: C2_6  and  C3_7 
REMARK       I    between atoms: C9_13  and  N2_15 
REMARK    5  A    between atoms: C13_19  and  C14_20 
REMARK       I    between atoms: C14_20  and  N3_22 
REMARK    6  A    between atoms: N3_22  and  C15_24 
REMARK    7  A    between atoms: C15_24  and  C16_25 
ROOT
HETATM    1  C9  UNL     1      13.247 -11.590  19.927  1.00  0.00     0.251 C 
HETATM    2  O1  UNL     1      12.339 -12.399  20.372  1.00  0.00    -0.271 OA
HETATM    3  N2  UNL     1      14.306 -12.200  19.213  1.00  0.00    -0.337 N 
HETATM    4  C10 UNL     1      15.410 -11.603  18.532  1.00  0.00     0.127 C 
HETATM    5  C11 UNL     1      15.681 -12.583  17.384  1.00  0.00     0.022 C 
HETATM    6  C12 UNL     1      14.885 -13.806  17.649  1.00  0.00     0.037 C 
HETATM    7  C13 UNL     1      14.451 -13.635  19.076  1.00  0.00     0.179 C 
ENDROOT
BRANCH   1   8
HETATM    8  C1  UNL     1      13.017 -10.191  20.241  1.00  0.00     0.279 C 
BRANCH   8   9
HETATM    9  N1  UNL     1      13.162  -9.261  19.160  1.00  0.00    -0.066 N 
ATOM     10  H13 UNL     1      12.534  -8.461  19.246  1.00  0.00     0.275 HD
ATOM     11  H12 UNL     1      14.044  -8.752  19.199  1.00  0.00     0.275 HD
ATOM     12  H11 UNL     1      13.037  -9.761  18.280  1.00  0.00     0.275 HD
ENDBRANCH   8   9
BRANCH   8  13
HETATM   13  C2  UNL     1      13.884  -9.718  21.416  1.00  0.00     0.081 C 
BRANCH  13  14
HETATM   14  C3  UNL     1      13.020  -9.326  22.542  1.00  0.00    -0.056 A 
HETATM   15  C4  UNL     1      13.108  -8.041  23.103  1.00  0.00     0.007 A 
HETATM   16  C5  UNL     1      12.318  -7.627  24.143  1.00  0.00     0.001 A 
HETATM   17  C6  UNL     1      11.393  -8.494  24.675  1.00  0.00     0.000 A 
HETATM   18  C7  UNL     1      11.262  -9.762  24.168  1.00  0.00     0.001 A 
HETATM   19  C8  UNL     1      12.077 -10.141  23.119  1.00  0.00     0.007 A 
ENDBRANCH  13  14
ENDBRANCH   8  13
ENDBRANCH   1   8
BRANCH   7  20
HETATM   20  C14 UNL     1      15.506 -14.205  19.955  1.00  0.00     0.240 C 
HETATM   21  O2  UNL     1      16.027 -15.343  19.684  1.00  0.00    -0.271 OA
HETATM   22  N3  UNL     1      16.009 -13.578  21.123  1.00  0.00    -0.354 N 
ATOM     23  H3  UNL     1      15.640 -12.671  21.410  1.00  0.00     0.162 HD
BRANCH  22  24
HETATM   24  C15 UNL     1      17.060 -14.225  21.924  1.00  0.00     0.179 C 
BRANCH  24  25
HETATM   25  C16 UNL     1      18.364 -13.526  21.716  1.00  0.00     0.026 A 
HETATM   26  C17 UNL     1      18.572 -12.631  20.690  1.00  0.00     0.027 A 
HETATM   27  C18 UNL     1      19.782 -11.997  20.516  1.00  0.00     0.003 A 
HETATM   28  C19 UNL     1      20.817 -12.245  21.369  1.00  0.00     0.017 A 
HETATM   29  C20 UNL     1      20.588 -13.155  22.404  1.00  0.00     0.088 A 
HETATM   30  N4  UNL     1      19.393 -13.762  22.551  1.00  0.00    -0.368 N 
ATOM     31  H4  UNL     1      19.264 -14.421  23.319  1.00  0.00     0.165 HD
ENDBRANCH  24  25
ENDBRANCH  22  24
ENDBRANCH   7  20
TORSDOF 7
ENDMDL
