MODEL 17
REMARK VINA RESULT: -7.592085524      1.866      3.371
REMARK  7 active torsions:
REMARK  status: ('A' for Active; 'I' for Inactive)
REMARK    1  A    between atoms: N1_1  and  C1_5 
REMARK    2  A    between atoms: C1_5  and  C2_6 
REMARK    3  A    between atoms: C1_5  and  C9_13 
REMARK    4  A    between atoms: C2_6  and  C3_7 
REMARK       I    between atoms: C9_13  and  N2_15 
REMARK    5  A    between atoms: C13_19  and  C14_20 
REMARK       I    between atoms: C14_20  and  N3_22 
REMARK    6  A    between atoms: N3_22  and  C15_24 
REMARK    7  A    between atoms: C15_24  and  C16_25 
ROOT
HETATM    1  C9  UNL     1      18.137 -13.468  23.072  1.00  0.00     0.251 C 
HETATM    2  O1  UNL     1      17.598 -12.707  23.972  1.00  0.00    -0.271 OA
HETATM    3  N2  UNL     1      18.444 -12.831  21.846  1.00  0.00    -0.337 N 
HETATM    4  C10 UNL     1      19.104 -13.350  20.690  1.00  0.00     0.127 C 
HETATM    5  C11 UNL     1      19.818 -12.119  20.118  1.00  0.00     0.022 C 
HETATM    6  C12 UNL     1      19.297 -10.930  20.836  1.00  0.00     0.037 C 
HETATM    7  C13 UNL     1      18.086 -11.459  21.548  1.00  0.00     0.179 C 
ENDROOT
BRANCH   1   8
HETATM    8  C1  UNL     1      18.331 -14.846  23.483  1.00  0.00     0.279 C 
BRANCH   8   9
HETATM    9  N1  UNL     1      17.151 -15.652  23.597  1.00  0.00    -0.066 N 
ATOM     10  H13 UNL     1      17.076 -16.109  24.506  1.00  0.00     0.275 HD
ATOM     11  H12 UNL     1      16.300 -15.092  23.651  1.00  0.00     0.275 HD
ATOM     12  H11 UNL     1      17.133 -16.316  22.824  1.00  0.00     0.275 HD
ENDBRANCH   8   9
BRANCH   8  13
HETATM   13  C2  UNL     1      19.123 -14.946  24.794  1.00  0.00     0.081 C 
BRANCH  13  14
HETATM   14  C3  UNL     1      20.268 -14.020  24.753  1.00  0.00    -0.056 A 
HETATM   15  C4  UNL     1      20.347 -12.935  25.640  1.00  0.00     0.007 A 
HETATM   16  C5  UNL     1      21.397 -12.054  25.646  1.00  0.00     0.001 A 
HETATM   17  C6  UNL     1      22.427 -12.224  24.751  1.00  0.00     0.000 A 
HETATM   18  C7  UNL     1      22.404 -13.268  23.861  1.00  0.00     0.001 A 
HETATM   19  C8  UNL     1      21.328 -14.134  23.887  1.00  0.00     0.007 A 
ENDBRANCH  13  14
ENDBRANCH   8  13
ENDBRANCH   1   8
BRANCH   7  20
HETATM   20  C14 UNL     1      16.919 -11.343  20.635  1.00  0.00     0.240 C 
HETATM   21  O2  UNL     1      16.833 -10.357  19.822  1.00  0.00    -0.271 OA
HETATM   22  N3  UNL     1      15.841 -12.262  20.579  1.00  0.00    -0.354 N 
ATOM     23  H3  UNL     1      15.834 -13.071  21.200  1.00  0.00     0.162 HD
BRANCH  22  24
HETATM   24  C15 UNL     1      14.734 -12.057  19.632  1.00  0.00     0.179 C 
BRANCH  24  25
HETATM   25  C16 UNL     1      13.753 -11.083  20.198  1.00  0.00     0.026 A 
HETATM   26  C17 UNL     1      12.837 -11.428  21.166  1.00  0.00     0.027 A 
HETATM   27  C18 UNL     1      11.940 -10.515  21.674  1.00  0.00     0.003 A 
HETATM   28  C19 UNL     1      11.940  -9.228  21.222  1.00  0.00     0.017 A 
HETATM   29  C20 UNL     1      12.875  -8.896  20.240  1.00  0.00     0.088 A 
HETATM   30  N4  UNL     1      13.742  -9.811  19.759  1.00  0.00    -0.368 N 
ATOM     31  H4  UNL     1      14.410  -9.530  19.042  1.00  0.00     0.165 HD
ENDBRANCH  24  25
ENDBRANCH  22  24
ENDBRANCH   7  20
TORSDOF 7
ENDMDL
