MODEL 3
REMARK VINA RESULT: -8.286713492      3.833      6.996
REMARK  9 active torsions:
REMARK  status: ('A' for Active; 'I' for Inactive)
REMARK    1  A    between atoms: C6_7  and  C7_8 
REMARK    2  A    between atoms: C7_8  and  N2_9 
REMARK       I    between atoms: N2_9  and  C8_11 
REMARK    3  A    between atoms: C8_11  and  C9_13 
REMARK    4  A    between atoms: N3_17  and  C13_18 
REMARK    5  A    between atoms: C13_18  and  O2_19 
REMARK    6  A    between atoms: C13_18  and  C14_21 
REMARK    7  A    between atoms: C14_21  and  N4_22 
REMARK    8  A    between atoms: C14_21  and  C15_26 
REMARK    9  A    between atoms: C15_26  and  C16_27 
ROOT
HETATM    1  C9  UNL     1      12.832 -11.621  22.317  1.00  0.00     0.178 C 
HETATM    2  C10 UNL     1      11.524 -10.849  22.491  1.00  0.00     0.037 C 
HETATM    3  C11 UNL     1      12.011  -9.628  23.212  1.00  0.00     0.022 C 
HETATM    4  C12 UNL     1      13.255  -9.304  22.364  1.00  0.00     0.126 C 
HETATM    5  N3  UNL     1      13.745 -10.612  21.892  1.00  0.00    -0.350 N 
ENDROOT
BRANCH   5   6
HETATM    6  C13 UNL     1      14.937 -10.800  21.168  1.00  0.00     0.145 C 
BRANCH   6   7
HETATM    7  O2  UNL     1      15.379  -9.739  20.546  1.00  0.00    -0.348 OA
ATOM      8  H2  UNL     1      15.367  -9.796  19.598  1.00  0.00     0.219 HD
ENDBRANCH   6   7
BRANCH   6   9
HETATM    9  C14 UNL     1      15.760 -11.987  20.999  1.00  0.00     0.261 C 
BRANCH   9  10
HETATM   10  N4  UNL     1      16.302 -12.603  22.179  1.00  0.00    -0.067 N 
ATOM     11  H43 UNL     1      17.136 -12.094  22.469  1.00  0.00     0.275 HD
ATOM     12  H42 UNL     1      15.680 -12.421  22.967  1.00  0.00     0.275 HD
ATOM     13  H41 UNL     1      16.513 -13.600  22.142  1.00  0.00     0.275 HD
ENDBRANCH   9  10
BRANCH   9  14
HETATM   14  C15 UNL     1      16.870 -11.731  19.987  1.00  0.00     0.079 C 
BRANCH  14  15
HETATM   15  C16 UNL     1      16.452 -12.107  18.633  1.00  0.00    -0.056 A 
HETATM   16  C17 UNL     1      15.653 -13.220  18.414  1.00  0.00     0.007 A 
HETATM   17  C18 UNL     1      15.287 -13.556  17.146  1.00  0.00     0.001 A 
HETATM   18  C19 UNL     1      15.686 -12.821  16.049  1.00  0.00     0.000 A 
HETATM   19  C20 UNL     1      16.479 -11.714  16.243  1.00  0.00     0.001 A 
HETATM   20  C21 UNL     1      16.844 -11.381  17.519  1.00  0.00     0.007 A 
ENDBRANCH  14  15
ENDBRANCH   9  14
ENDBRANCH   6   9
ENDBRANCH   5   6
BRANCH   1  21
HETATM   21  C8  UNL     1      12.627 -12.788  21.470  1.00  0.00     0.240 C 
HETATM   22  N2  UNL     1      12.890 -14.123  21.944  1.00  0.00    -0.354 N 
ATOM     23  H2  UNL     1      13.224 -14.259  22.897  1.00  0.00     0.162 HD
HETATM   24  O1  UNL     1      12.220 -12.696  20.298  1.00  0.00    -0.271 OA
BRANCH  22  25
HETATM   25  C7  UNL     1      12.691 -15.257  21.104  1.00  0.00     0.179 C 
BRANCH  25  26
HETATM   26  C6  UNL     1      13.929 -15.835  20.528  1.00  0.00     0.028 A 
HETATM   27  N1  UNL     1      13.907 -16.357  19.287  1.00  0.00    -0.363 N 
HETATM   28  C1  UNL     1      12.639 -16.331  18.569  1.00  0.00     0.155 C 
HETATM   29  C2  UNL     1      15.018 -16.893  18.706  1.00  0.00     0.090 A 
HETATM   30  C3  UNL     1      16.235 -16.939  19.347  1.00  0.00     0.017 A 
HETATM   31  C4  UNL     1      16.285 -16.407  20.628  1.00  0.00     0.003 A 
HETATM   32  C5  UNL     1      15.138 -15.868  21.190  1.00  0.00     0.027 A 
ENDBRANCH  25  26
ENDBRANCH  22  25
ENDBRANCH   1  21
TORSDOF 9
ENDMDL
