MODEL 1
REMARK VINA RESULT: -8.976291502      0.000      0.000
REMARK  9 active torsions:
REMARK  status: ('A' for Active; 'I' for Inactive)
REMARK    1  A    between atoms: C6_7  and  C7_8 
REMARK    2  A    between atoms: C7_8  and  N2_9 
REMARK       I    between atoms: N2_9  and  C8_11 
REMARK    3  A    between atoms: C8_11  and  C9_13 
REMARK    4  A    between atoms: N3_17  and  C13_18 
REMARK    5  A    between atoms: C13_18  and  O2_19 
REMARK    6  A    between atoms: C13_18  and  C14_21 
REMARK    7  A    between atoms: C14_21  and  N4_22 
REMARK    8  A    between atoms: C14_21  and  C15_26 
REMARK    9  A    between atoms: C15_26  and  C16_27 
ROOT
HETATM    1  C9  UNL     1      17.995 -11.581  20.707  1.00  0.00     0.178 C 
HETATM    2  C10 UNL     1      18.896 -11.705  19.479  1.00  0.00     0.037 C 
HETATM    3  C11 UNL     1      20.220 -11.974  20.127  1.00  0.00     0.022 C 
HETATM    4  C12 UNL     1      19.794 -13.032  21.161  1.00  0.00     0.126 C 
HETATM    5  N3  UNL     1      18.409 -12.677  21.520  1.00  0.00    -0.350 N 
ENDROOT
BRANCH   5   6
HETATM    6  C13 UNL     1      17.659 -13.317  22.523  1.00  0.00     0.145 C 
BRANCH   6   7
HETATM    7  O2  UNL     1      16.475 -12.807  22.738  1.00  0.00    -0.348 OA
ATOM      8  H2  UNL     1      16.475 -11.925  23.089  1.00  0.00     0.219 HD
ENDBRANCH   6   7
BRANCH   6   9
HETATM    9  C14 UNL     1      17.988 -14.457  23.364  1.00  0.00     0.261 C 
BRANCH   9  10
HETATM   10  N4  UNL     1      17.001 -15.490  23.513  1.00  0.00    -0.067 N 
ATOM     11  H43 UNL     1      17.118 -16.176  22.768  1.00  0.00     0.275 HD
ATOM     12  H42 UNL     1      17.227 -16.054  24.332  1.00  0.00     0.275 HD
ATOM     13  H41 UNL     1      16.021 -15.210  23.559  1.00  0.00     0.275 HD
ENDBRANCH   9  10
BRANCH   9  14
HETATM   14  C15 UNL     1      18.468 -13.993  24.734  1.00  0.00     0.079 C 
BRANCH  14  15
HETATM   15  C16 UNL     1      19.907 -13.711  24.726  1.00  0.00    -0.056 A 
HETATM   16  C17 UNL     1      20.396 -12.470  25.109  1.00  0.00     0.007 A 
HETATM   17  C18 UNL     1      21.736 -12.230  25.082  1.00  0.00     0.001 A 
HETATM   18  C19 UNL     1      22.646 -13.187  24.683  1.00  0.00     0.000 A 
HETATM   19  C20 UNL     1      22.183 -14.424  24.299  1.00  0.00     0.001 A 
HETATM   20  C21 UNL     1      20.835 -14.660  24.327  1.00  0.00     0.007 A 
ENDBRANCH  14  15
ENDBRANCH   9  14
ENDBRANCH   6   9
ENDBRANCH   5   6
BRANCH   1  21
HETATM   21  C8  UNL     1      16.597 -11.488  20.309  1.00  0.00     0.240 C 
HETATM   22  N2  UNL     1      15.737 -10.442  20.802  1.00  0.00    -0.354 N 
ATOM     23  H2  UNL     1      16.114  -9.745  21.443  1.00  0.00     0.162 HD
HETATM   24  O1  UNL     1      16.073 -12.302  19.528  1.00  0.00    -0.271 OA
BRANCH  22  25
HETATM   25  C7  UNL     1      14.369 -10.365  20.408  1.00  0.00     0.179 C 
BRANCH  25  26
HETATM   26  C6  UNL     1      13.402 -10.250  21.525  1.00  0.00     0.028 A 
HETATM   27  N1  UNL     1      12.623 -11.301  21.845  1.00  0.00    -0.363 N 
HETATM   28  C1  UNL     1      12.773 -12.514  21.050  1.00  0.00     0.155 C 
HETATM   29  C2  UNL     1      11.723 -11.253  22.868  1.00  0.00     0.090 A 
HETATM   30  C3  UNL     1      11.548 -10.129  23.642  1.00  0.00     0.017 A 
HETATM   31  C4  UNL     1      12.339  -9.030  23.335  1.00  0.00     0.003 A 
HETATM   32  C5  UNL     1      13.246  -9.112  22.288  1.00  0.00     0.027 A 
ENDBRANCH  25  26
ENDBRANCH  22  25
ENDBRANCH   1  21
TORSDOF 9
ENDMDL
