MODEL 4
REMARK VINA RESULT: -8.268502989      2.852      5.894
REMARK  9 active torsions:
REMARK  status: ('A' for Active; 'I' for Inactive)
REMARK    1  A    between atoms: C6_7  and  C7_8 
REMARK    2  A    between atoms: C7_8  and  N2_9 
REMARK       I    between atoms: N2_9  and  C8_11 
REMARK    3  A    between atoms: C8_11  and  C9_13 
REMARK    4  A    between atoms: N3_17  and  C13_18 
REMARK    5  A    between atoms: C13_18  and  O2_19 
REMARK    6  A    between atoms: C13_18  and  C14_21 
REMARK    7  A    between atoms: C14_21  and  N4_22 
REMARK    8  A    between atoms: C14_21  and  C15_26 
REMARK    9  A    between atoms: C15_26  and  C16_27 
ROOT
HETATM    1  C9  UNL     1      12.840 -11.770  22.015  1.00  0.00     0.178 C 
HETATM    2  C10 UNL     1      11.744 -10.744  21.728  1.00  0.00     0.037 C 
HETATM    3  C11 UNL     1      12.302  -9.535  22.414  1.00  0.00     0.022 C 
HETATM    4  C12 UNL     1      13.759  -9.602  21.918  1.00  0.00     0.126 C 
HETATM    5  N3  UNL     1      14.037 -11.040  21.752  1.00  0.00    -0.350 N 
ENDROOT
BRANCH   5   6
HETATM    6  C13 UNL     1      15.295 -11.572  21.416  1.00  0.00     0.145 C 
BRANCH   6   7
HETATM    7  O2  UNL     1      15.869 -12.272  22.360  1.00  0.00    -0.348 OA
ATOM      8  H2  UNL     1      16.579 -12.832  22.069  1.00  0.00     0.219 HD
ENDBRANCH   6   7
BRANCH   6   9
HETATM    9  C14 UNL     1      16.065 -11.470  20.186  1.00  0.00     0.261 C 
BRANCH   9  10
HETATM   10  N4  UNL     1      15.395 -10.981  19.013  1.00  0.00    -0.067 N 
ATOM     11  H43 UNL     1      14.387 -11.068  19.142  1.00  0.00     0.275 HD
ATOM     12  H42 UNL     1      15.497  -9.967  18.967  1.00  0.00     0.275 HD
ATOM     13  H41 UNL     1      15.653 -11.385  18.113  1.00  0.00     0.275 HD
ENDBRANCH   9  10
BRANCH   9  14
HETATM   14  C15 UNL     1      16.761 -12.791  19.877  1.00  0.00     0.079 C 
BRANCH  14  15
HETATM   15  C16 UNL     1      18.177 -12.746  20.255  1.00  0.00    -0.056 A 
HETATM   16  C17 UNL     1      18.705 -13.653  21.162  1.00  0.00     0.007 A 
HETATM   17  C18 UNL     1      20.021 -13.585  21.504  1.00  0.00     0.001 A 
HETATM   18  C19 UNL     1      20.868 -12.631  20.977  1.00  0.00     0.000 A 
HETATM   19  C20 UNL     1      20.365 -11.722  20.076  1.00  0.00     0.001 A 
HETATM   20  C21 UNL     1      19.042 -11.795  19.735  1.00  0.00     0.007 A 
ENDBRANCH  14  15
ENDBRANCH   9  14
ENDBRANCH   6   9
ENDBRANCH   5   6
BRANCH   1  21
HETATM   21  C8  UNL     1      12.591 -13.003  21.282  1.00  0.00     0.240 C 
HETATM   22  N2  UNL     1      12.898 -14.294  21.845  1.00  0.00    -0.354 N 
ATOM     23  H2  UNL     1      13.296 -14.349  22.782  1.00  0.00     0.162 HD
HETATM   24  O1  UNL     1      12.106 -13.009  20.137  1.00  0.00    -0.271 OA
BRANCH  22  25
HETATM   25  C7  UNL     1      12.655 -15.494  21.115  1.00  0.00     0.179 C 
BRANCH  25  26
HETATM   26  C6  UNL     1      13.793 -15.969  20.294  1.00  0.00     0.028 A 
HETATM   27  N1  UNL     1      13.590 -16.317  19.010  1.00  0.00    -0.363 N 
HETATM   28  C1  UNL     1      12.231 -16.213  18.492  1.00  0.00     0.155 C 
HETATM   29  C2  UNL     1      14.602 -16.753  18.206  1.00  0.00     0.090 A 
HETATM   30  C3  UNL     1      15.898 -16.868  18.653  1.00  0.00     0.017 A 
HETATM   31  C4  UNL     1      16.136 -16.515  19.975  1.00  0.00     0.003 A 
HETATM   32  C5  UNL     1      15.085 -16.075  20.765  1.00  0.00     0.027 A 
ENDBRANCH  25  26
ENDBRANCH  22  25
ENDBRANCH   1  21
TORSDOF 9
ENDMDL
