MODEL 5
REMARK VINA RESULT: -8.206006086      2.196      4.742
REMARK  9 active torsions:
REMARK  status: ('A' for Active; 'I' for Inactive)
REMARK    1  A    between atoms: C6_7  and  C7_8 
REMARK    2  A    between atoms: C7_8  and  N2_9 
REMARK       I    between atoms: N2_9  and  C8_11 
REMARK    3  A    between atoms: C8_11  and  C9_13 
REMARK    4  A    between atoms: N3_17  and  C13_18 
REMARK    5  A    between atoms: C13_18  and  O2_19 
REMARK    6  A    between atoms: C13_18  and  C14_21 
REMARK    7  A    between atoms: C14_21  and  N4_22 
REMARK    8  A    between atoms: C14_21  and  C15_26 
REMARK    9  A    between atoms: C15_26  and  C16_27 
ROOT
HETATM    1  C9  UNL     1      18.143 -11.662  20.831  1.00  0.00     0.178 C 
HETATM    2  C10 UNL     1      19.189 -11.637  19.717  1.00  0.00     0.037 C 
HETATM    3  C11 UNL     1      20.330 -12.341  20.386  1.00  0.00     0.022 C 
HETATM    4  C12 UNL     1      19.574 -13.524  21.016  1.00  0.00     0.126 C 
HETATM    5  N3  UNL     1      18.231 -12.998  21.323  1.00  0.00    -0.350 N 
ENDROOT
BRANCH   5   6
HETATM    6  C13 UNL     1      17.236 -13.712  22.014  1.00  0.00     0.145 C 
BRANCH   6   7
HETATM    7  O2  UNL     1      16.794 -13.134  23.100  1.00  0.00    -0.348 OA
ATOM      8  H2  UNL     1      16.961 -13.610  23.904  1.00  0.00     0.219 HD
ENDBRANCH   6   7
BRANCH   6   9
HETATM    9  C14 UNL     1      16.617 -14.995  21.717  1.00  0.00     0.261 C 
BRANCH   9  10
HETATM   10  N4  UNL     1      17.302 -16.185  22.139  1.00  0.00    -0.067 N 
ATOM     11  H43 UNL     1      16.800 -16.600  22.923  1.00  0.00     0.275 HD
ATOM     12  H42 UNL     1      17.185 -16.908  21.429  1.00  0.00     0.275 HD
ATOM     13  H41 UNL     1      18.290 -16.108  22.378  1.00  0.00     0.275 HD
ENDBRANCH   9  10
BRANCH   9  14
HETATM   14  C15 UNL     1      16.268 -15.091  20.236  1.00  0.00     0.079 C 
BRANCH  14  15
HETATM   15  C16 UNL     1      14.841 -15.372  20.044  1.00  0.00    -0.056 A 
HETATM   16  C17 UNL     1      14.201 -15.043  18.858  1.00  0.00     0.007 A 
HETATM   17  C18 UNL     1      12.873 -15.304  18.707  1.00  0.00     0.001 A 
HETATM   18  C19 UNL     1      12.123 -15.892  19.705  1.00  0.00     0.000 A 
HETATM   19  C20 UNL     1      12.738 -16.226  20.889  1.00  0.00     0.001 A 
HETATM   20  C21 UNL     1      14.072 -15.961  21.035  1.00  0.00     0.007 A 
ENDBRANCH  14  15
ENDBRANCH   9  14
ENDBRANCH   6   9
ENDBRANCH   5   6
BRANCH   1  21
HETATM   21  C8  UNL     1      16.861 -11.176  20.340  1.00  0.00     0.240 C 
HETATM   22  N2  UNL     1      15.755 -10.926  21.229  1.00  0.00    -0.354 N 
ATOM     23  H2  UNL     1      15.870 -11.090  22.229  1.00  0.00     0.162 HD
HETATM   24  O1  UNL     1      16.652 -10.953  19.134  1.00  0.00    -0.271 OA
BRANCH  22  25
HETATM   25  C7  UNL     1      14.503 -10.455  20.736  1.00  0.00     0.179 C 
BRANCH  25  26
HETATM   26  C6  UNL     1      13.463 -10.242  21.770  1.00  0.00     0.028 A 
HETATM   27  N1  UNL     1      12.629 -11.247  22.094  1.00  0.00    -0.363 N 
HETATM   28  C1  UNL     1      12.793 -12.512  21.389  1.00  0.00     0.155 C 
HETATM   29  C2  UNL     1      11.659 -11.109  23.044  1.00  0.00     0.090 A 
HETATM   30  C3  UNL     1      11.468  -9.933  23.734  1.00  0.00     0.017 A 
HETATM   31  C4  UNL     1      12.316  -8.880  23.419  1.00  0.00     0.003 A 
HETATM   32  C5  UNL     1      13.291  -9.054  22.448  1.00  0.00     0.027 A 
ENDBRANCH  25  26
ENDBRANCH  22  25
ENDBRANCH   1  21
TORSDOF 9
ENDMDL
