MODEL 1
REMARK VINA RESULT: -9.479229691      0.000      0.000
REMARK  12 active torsions:
REMARK  status: ('A' for Active; 'I' for Inactive)
REMARK    1  A    between atoms: C2_2  and  N1_3 
REMARK    2  A    between atoms: C4_5  and  C5_6 
REMARK    3  A    between atoms: C5_6  and  O1_7 
REMARK    4  A    between atoms: O1_7  and  C6_8 
REMARK    5  A    between atoms: C6_8  and  C7_10 
REMARK    6  A    between atoms: C12_15  and  N2_16 
REMARK    7  A    between atoms: C20_26  and  O5_27 
REMARK    8  A    between atoms: C24_31  and  O6_32 
REMARK    9  A    between atoms: C25_34  and  O7_35 
REMARK   10  A    between atoms: C28_38  and  O8_39 
REMARK   11  A    between atoms: C30_42  and  O9_43 
REMARK   12  A    between atoms: C36_49  and  O10_50 
ROOT
HETATM    1  N1  UNL     1     -36.872  -0.459 -20.123  1.00  0.00     0.097 N 
HETATM    2  C3  UNL     1     -37.350  -1.620 -20.847  1.00  0.00     0.285 C 
HETATM    3  C4  UNL     1     -38.030  -2.556 -19.891  1.00  0.00     0.015 C 
HETATM    4  C18 UNL     1     -39.392  -1.905 -19.604  1.00  0.00     0.016 C 
HETATM    5  C19 UNL     1     -39.609  -1.719 -18.145  1.00  0.00     0.034 C 
HETATM    6  C20 UNL     1     -38.473  -0.860 -17.534  1.00  0.00     0.132 C 
HETATM    7  C22 UNL     1     -37.148  -1.429 -17.860  1.00  0.00     0.031 C 
HETATM    8  C23 UNL     1     -36.287  -0.734 -18.848  1.00  0.00     0.274 C 
HETATM    9  C24 UNL     1     -35.157  -1.762 -18.955  1.00  0.00     0.147 C 
HETATM   10  C25 UNL     1     -35.842  -3.106 -19.038  1.00  0.00     0.166 C 
HETATM   11  C27 UNL     1     -37.255  -2.776 -18.619  1.00  0.00     0.044 C 
HETATM   12  C28 UNL     1     -34.257  -1.731 -17.727  1.00  0.00     0.102 C 
HETATM   13  C29 UNL     1     -33.504  -0.459 -17.642  1.00  0.00     0.074 C 
HETATM   14  C30 UNL     1     -33.856   0.484 -16.551  1.00  0.00     0.130 C 
HETATM   15  C32 UNL     1     -34.802  -0.064 -15.526  1.00  0.00     0.044 C 
HETATM   16  C33 UNL     1     -36.220  -0.187 -15.980  1.00  0.00     0.015 C 
HETATM   17  C34 UNL     1     -36.417  -1.564 -16.557  1.00  0.00     0.009 C 
HETATM   18  C35 UNL     1     -35.067  -2.126 -16.550  1.00  0.00     0.058 C 
HETATM   19  C36 UNL     1     -34.430  -1.488 -15.293  1.00  0.00     0.135 C 
ENDROOT
BRANCH   3  20
HETATM   20  C5  UNL     1     -38.378  -3.855 -20.572  1.00  0.00     0.190 C 
BRANCH  20  21
HETATM   21  O1  UNL     1     -38.389  -4.984 -19.749  1.00  0.00    -0.317 OA
BRANCH  21  22
HETATM   22  C6  UNL     1     -39.376  -5.923 -19.806  1.00  0.00     0.295 C 
HETATM   23  O2  UNL     1     -39.657  -6.416 -20.928  1.00  0.00    -0.259 OA
BRANCH  22  24
HETATM   24  C7  UNL     1     -40.125  -6.390 -18.644  1.00  0.00     0.066 A 
HETATM   25  C8  UNL     1     -40.803  -5.513 -17.820  1.00  0.00     0.020 A 
HETATM   26  C9  UNL     1     -41.505  -5.957 -16.710  1.00  0.00     0.001 A 
HETATM   27  C10 UNL     1     -41.537  -7.306 -16.404  1.00  0.00     0.002 A 
HETATM   28  C11 UNL     1     -40.861  -8.169 -17.225  1.00  0.00     0.031 A 
HETATM   29  C12 UNL     1     -40.158  -7.753 -18.333  1.00  0.00     0.061 A 
BRANCH  29  30
HETATM   30  N2  UNL     1     -39.469  -8.667 -19.173  1.00  0.00    -0.251 N 
HETATM   31  C13 UNL     1     -38.079  -8.929 -19.103  1.00  0.00     0.232 C 
HETATM   32  O3  UNL     1     -37.199  -8.366 -18.366  1.00  0.00    -0.273 OA
HETATM   33  C14 UNL     1     -37.695 -10.016 -20.047  1.00  0.00     0.117 C 
HETATM   34  C15 UNL     1     -39.003 -10.529 -20.581  1.00  0.00     0.083 C 
HETATM   35  C16 UNL     1     -38.998 -10.842 -22.041  1.00  0.00     0.020 C 
HETATM   36  C17 UNL     1     -39.999  -9.475 -20.210  1.00  0.00     0.235 C 
HETATM   37  O4  UNL     1     -41.121  -9.365 -20.764  1.00  0.00    -0.272 OA
ENDBRANCH  29  30
ENDBRANCH  22  24
ENDBRANCH  21  22
ENDBRANCH  20  21
ENDBRANCH   3  20
BRANCH   1  38
HETATM   38  C2  UNL     1     -36.070   0.432 -20.911  1.00  0.00     0.268 C 
HETATM   39  C1  UNL     1     -35.666   1.691 -20.160  1.00  0.00     0.037 C 
ENDBRANCH   1  38
BRANCH  10  40
HETATM   40  O7  UNL     1     -35.257  -4.085 -18.300  1.00  0.00    -0.387 OA
HETATM   41  C26 UNL     1     -35.497  -5.383 -18.630  1.00  0.00     0.202 C 
ENDBRANCH  10  40
BRANCH   6  42
HETATM   42  O5  UNL     1     -38.695   0.470 -17.864  1.00  0.00    -0.390 OA
HETATM   43  C21 UNL     1     -39.850   0.989 -17.359  1.00  0.00     0.202 C 
ENDBRANCH   6  42
BRANCH   9  44
HETATM   44  O6  UNL     1     -34.337  -1.549 -20.042  1.00  0.00    -0.382 OA
ATOM     45  H6  UNL     1     -34.681  -1.924 -20.844  1.00  0.00     0.210 HD
ENDBRANCH   9  44
BRANCH  12  46
HETATM   46  O8  UNL     1     -33.336  -2.790 -17.937  1.00  0.00    -0.386 OA
ATOM     47  H8  UNL     1     -33.600  -3.459 -17.317  1.00  0.00     0.210 HD
ENDBRANCH  12  46
BRANCH  19  48
HETATM   48  O10 UNL     1     -33.087  -1.744 -15.216  1.00  0.00    -0.390 OA
HETATM   49  C37 UNL     1     -32.959  -3.052 -14.692  1.00  0.00     0.202 C 
ENDBRANCH  19  48
BRANCH  14  50
HETATM   50  O9  UNL     1     -32.666   0.796 -15.851  1.00  0.00    -0.390 OA
HETATM   51  C31 UNL     1     -32.806   1.886 -15.034  1.00  0.00     0.202 C 
ENDBRANCH  14  50
TORSDOF 12
ENDMDL
