MODEL 3
REMARK VINA RESULT: -9.284696897      4.167      6.669
REMARK  12 active torsions:
REMARK  status: ('A' for Active; 'I' for Inactive)
REMARK    1  A    between atoms: C2_2  and  N1_3 
REMARK    2  A    between atoms: C4_5  and  C5_6 
REMARK    3  A    between atoms: C5_6  and  O1_7 
REMARK    4  A    between atoms: O1_7  and  C6_8 
REMARK    5  A    between atoms: C6_8  and  C7_10 
REMARK    6  A    between atoms: C12_15  and  N2_16 
REMARK    7  A    between atoms: C20_26  and  O5_27 
REMARK    8  A    between atoms: C24_31  and  O6_32 
REMARK    9  A    between atoms: C25_34  and  O7_35 
REMARK   10  A    between atoms: C28_38  and  O8_39 
REMARK   11  A    between atoms: C30_42  and  O9_43 
REMARK   12  A    between atoms: C36_49  and  O10_50 
ROOT
HETATM    1  N1  UNL     1     -35.660  -0.472 -19.500  1.00  0.00     0.097 N 
HETATM    2  C3  UNL     1     -34.905  -1.606 -19.005  1.00  0.00     0.285 C 
HETATM    3  C4  UNL     1     -35.312  -1.895 -17.591  1.00  0.00     0.015 C 
HETATM    4  C18 UNL     1     -36.681  -2.582 -17.706  1.00  0.00     0.016 C 
HETATM    5  C19 UNL     1     -37.711  -1.882 -16.893  1.00  0.00     0.034 C 
HETATM    6  C20 UNL     1     -37.825  -0.399 -17.325  1.00  0.00     0.132 C 
HETATM    7  C22 UNL     1     -36.504   0.264 -17.290  1.00  0.00     0.031 C 
HETATM    8  C23 UNL     1     -35.831   0.599 -18.570  1.00  0.00     0.274 C 
HETATM    9  C24 UNL     1     -34.489   1.089 -18.019  1.00  0.00     0.147 C 
HETATM   10  C25 UNL     1     -34.104   0.093 -16.949  1.00  0.00     0.166 C 
HETATM   11  C27 UNL     1     -35.395  -0.661 -16.731  1.00  0.00     0.044 C 
HETATM   12  C28 UNL     1     -34.613   2.472 -17.396  1.00  0.00     0.102 C 
HETATM   13  C29 UNL     1     -34.915   3.500 -18.419  1.00  0.00     0.074 C 
HETATM   14  C30 UNL     1     -36.260   4.129 -18.395  1.00  0.00     0.130 C 
HETATM   15  C32 UNL     1     -37.089   3.794 -17.192  1.00  0.00     0.044 C 
HETATM   16  C33 UNL     1     -37.652   2.411 -17.181  1.00  0.00     0.015 C 
HETATM   17  C34 UNL     1     -36.680   1.507 -16.469  1.00  0.00     0.009 C 
HETATM   18  C35 UNL     1     -35.528   2.376 -16.233  1.00  0.00     0.058 C 
HETATM   19  C36 UNL     1     -36.175   3.764 -16.016  1.00  0.00     0.135 C 
ENDROOT
BRANCH   3  20
HETATM   20  C5  UNL     1     -34.421  -2.947 -16.982  1.00  0.00     0.190 C 
BRANCH  20  21
HETATM   21  O1  UNL     1     -34.623  -4.251 -17.443  1.00  0.00    -0.317 OA
BRANCH  21  22
HETATM   22  C6  UNL     1     -33.632  -4.987 -18.019  1.00  0.00     0.295 C 
HETATM   23  O2  UNL     1     -33.819  -6.224 -18.156  1.00  0.00    -0.259 OA
BRANCH  22  24
HETATM   24  C7  UNL     1     -32.366  -4.429 -18.486  1.00  0.00     0.066 A 
HETATM   25  C8  UNL     1     -32.234  -3.900 -19.755  1.00  0.00     0.020 A 
HETATM   26  C9  UNL     1     -31.029  -3.381 -20.201  1.00  0.00     0.001 A 
HETATM   27  C10 UNL     1     -29.922  -3.387 -19.371  1.00  0.00     0.002 A 
HETATM   28  C11 UNL     1     -30.061  -3.915 -18.115  1.00  0.00     0.031 A 
HETATM   29  C12 UNL     1     -31.247  -4.436 -17.649  1.00  0.00     0.061 A 
BRANCH  29  30
HETATM   30  N2  UNL     1     -31.368  -4.973 -16.340  1.00  0.00    -0.251 N 
HETATM   31  C13 UNL     1     -31.553  -4.198 -15.169  1.00  0.00     0.232 C 
HETATM   32  O3  UNL     1     -31.566  -2.925 -15.051  1.00  0.00    -0.273 OA
HETATM   33  C14 UNL     1     -31.751  -5.072 -13.979  1.00  0.00     0.117 C 
HETATM   34  C15 UNL     1     -31.850  -6.461 -14.546  1.00  0.00     0.083 C 
HETATM   35  C16 UNL     1     -31.141  -7.508 -13.752  1.00  0.00     0.020 C 
HETATM   36  C17 UNL     1     -31.332  -6.333 -15.944  1.00  0.00     0.235 C 
HETATM   37  O4  UNL     1     -30.937  -7.314 -16.622  1.00  0.00    -0.272 OA
ENDBRANCH  29  30
ENDBRANCH  22  24
ENDBRANCH  21  22
ENDBRANCH  20  21
ENDBRANCH   3  20
BRANCH   1  38
HETATM   38  C2  UNL     1     -35.243  -0.010 -20.792  1.00  0.00     0.268 C 
HETATM   39  C1  UNL     1     -36.008   1.217 -21.263  1.00  0.00     0.037 C 
ENDBRANCH   1  38
BRANCH  10  40
HETATM   40  O7  UNL     1     -33.585   0.646 -15.823  1.00  0.00    -0.387 OA
HETATM   41  C26 UNL     1     -33.601  -0.080 -14.672  1.00  0.00     0.202 C 
ENDBRANCH  10  40
BRANCH   6  42
HETATM   42  O5  UNL     1     -38.540  -0.335 -18.513  1.00  0.00    -0.390 OA
HETATM   43  C21 UNL     1     -39.829  -0.770 -18.417  1.00  0.00     0.202 C 
ENDBRANCH   6  42
BRANCH   9  44
HETATM   44  O6  UNL     1     -33.513   1.186 -18.987  1.00  0.00    -0.382 OA
ATOM     45  H6  UNL     1     -33.124   2.052 -19.036  1.00  0.00     0.210 HD
ENDBRANCH   9  44
BRANCH  12  46
HETATM   46  O8  UNL     1     -33.327   2.735 -16.857  1.00  0.00    -0.386 OA
ATOM     47  H8  UNL     1     -33.494   2.985 -15.957  1.00  0.00     0.210 HD
ENDBRANCH  12  46
BRANCH  19  48
HETATM   48  O10 UNL     1     -35.239   4.762 -15.967  1.00  0.00    -0.390 OA
HETATM   49  C37 UNL     1     -35.603   5.598 -14.886  1.00  0.00     0.202 C 
ENDBRANCH  19  48
BRANCH  14  50
HETATM   50  O9  UNL     1     -36.078   5.531 -18.362  1.00  0.00    -0.390 OA
HETATM   51  C31 UNL     1     -35.694   6.041 -19.574  1.00  0.00     0.202 C 
ENDBRANCH  14  50
TORSDOF 12
ENDMDL
