MODEL 5
REMARK VINA RESULT: -9.079671721      4.544      7.020
REMARK  12 active torsions:
REMARK  status: ('A' for Active; 'I' for Inactive)
REMARK    1  A    between atoms: C2_2  and  N1_3 
REMARK    2  A    between atoms: C4_5  and  C5_6 
REMARK    3  A    between atoms: C5_6  and  O1_7 
REMARK    4  A    between atoms: O1_7  and  C6_8 
REMARK    5  A    between atoms: C6_8  and  C7_10 
REMARK    6  A    between atoms: C12_15  and  N2_16 
REMARK    7  A    between atoms: C20_26  and  O5_27 
REMARK    8  A    between atoms: C24_31  and  O6_32 
REMARK    9  A    between atoms: C25_34  and  O7_35 
REMARK   10  A    between atoms: C28_38  and  O8_39 
REMARK   11  A    between atoms: C30_42  and  O9_43 
REMARK   12  A    between atoms: C36_49  and  O10_50 
ROOT
HETATM    1  N1  UNL     1     -35.762  -0.370 -19.282  1.00  0.00     0.097 N 
HETATM    2  C3  UNL     1     -35.086  -1.502 -18.683  1.00  0.00     0.285 C 
HETATM    3  C4  UNL     1     -35.556  -1.670 -17.268  1.00  0.00     0.015 C 
HETATM    4  C18 UNL     1     -36.954  -2.294 -17.388  1.00  0.00     0.016 C 
HETATM    5  C19 UNL     1     -37.973  -1.488 -16.665  1.00  0.00     0.034 C 
HETATM    6  C20 UNL     1     -37.995  -0.035 -17.202  1.00  0.00     0.132 C 
HETATM    7  C22 UNL     1     -36.643   0.562 -17.163  1.00  0.00     0.031 C 
HETATM    8  C23 UNL     1     -35.909   0.772 -18.435  1.00  0.00     0.274 C 
HETATM    9  C24 UNL     1     -34.563   1.232 -17.868  1.00  0.00     0.147 C 
HETATM   10  C25 UNL     1     -34.269   0.296 -16.719  1.00  0.00     0.166 C 
HETATM   11  C27 UNL     1     -35.603  -0.376 -16.499  1.00  0.00     0.044 C 
HETATM   12  C28 UNL     1     -34.636   2.660 -17.347  1.00  0.00     0.102 C 
HETATM   13  C29 UNL     1     -34.848   3.627 -18.449  1.00  0.00     0.074 C 
HETATM   14  C30 UNL     1     -36.158   4.322 -18.520  1.00  0.00     0.130 C 
HETATM   15  C32 UNL     1     -37.045   4.115 -17.329  1.00  0.00     0.044 C 
HETATM   16  C33 UNL     1     -37.680   2.766 -17.245  1.00  0.00     0.015 C 
HETATM   17  C34 UNL     1     -36.781   1.867 -16.436  1.00  0.00     0.009 C 
HETATM   18  C35 UNL     1     -35.595   2.692 -16.216  1.00  0.00     0.058 C 
HETATM   19  C36 UNL     1     -36.175   4.122 -16.120  1.00  0.00     0.135 C 
ENDROOT
BRANCH   3  20
HETATM   20  C5  UNL     1     -34.743  -2.720 -16.555  1.00  0.00     0.190 C 
BRANCH  20  21
HETATM   21  O1  UNL     1     -33.487  -2.989 -17.106  1.00  0.00    -0.317 OA
BRANCH  21  22
HETATM   22  C6  UNL     1     -32.368  -3.138 -16.343  1.00  0.00     0.295 C 
HETATM   23  O2  UNL     1     -31.882  -2.111 -15.802  1.00  0.00    -0.259 OA
BRANCH  22  24
HETATM   24  C7  UNL     1     -31.698  -4.415 -16.115  1.00  0.00     0.066 A 
HETATM   25  C8  UNL     1     -31.988  -5.197 -15.014  1.00  0.00     0.020 A 
HETATM   26  C9  UNL     1     -31.343  -6.404 -14.793  1.00  0.00     0.001 A 
HETATM   27  C10 UNL     1     -30.383  -6.850 -15.685  1.00  0.00     0.002 A 
HETATM   28  C11 UNL     1     -30.101  -6.068 -16.773  1.00  0.00     0.031 A 
HETATM   29  C12 UNL     1     -30.728  -4.866 -17.014  1.00  0.00     0.061 A 
BRANCH  29  30
HETATM   30  N2  UNL     1     -30.422  -4.075 -18.153  1.00  0.00    -0.251 N 
HETATM   31  C13 UNL     1     -29.398  -3.098 -18.198  1.00  0.00     0.232 C 
HETATM   32  O3  UNL     1     -28.639  -2.696 -17.251  1.00  0.00    -0.273 OA
HETATM   33  C14 UNL     1     -29.268  -2.527 -19.569  1.00  0.00     0.117 C 
HETATM   34  C15 UNL     1     -30.186  -3.367 -20.413  1.00  0.00     0.083 C 
HETATM   35  C16 UNL     1     -30.973  -2.602 -21.424  1.00  0.00     0.020 C 
HETATM   36  C17 UNL     1     -31.045  -4.093 -19.426  1.00  0.00     0.235 C 
HETATM   37  O4  UNL     1     -32.144  -4.620 -19.729  1.00  0.00    -0.272 OA
ENDBRANCH  29  30
ENDBRANCH  22  24
ENDBRANCH  21  22
ENDBRANCH  20  21
ENDBRANCH   3  20
BRANCH   1  38
HETATM   38  C2  UNL     1     -35.277  -0.021 -20.587  1.00  0.00     0.268 C 
HETATM   39  C1  UNL     1     -36.000   1.171 -21.193  1.00  0.00     0.037 C 
ENDBRANCH   1  38
BRANCH  10  40
HETATM   40  O7  UNL     1     -33.760   0.900 -15.614  1.00  0.00    -0.387 OA
HETATM   41  C26 UNL     1     -33.839   0.252 -14.420  1.00  0.00     0.202 C 
ENDBRANCH  10  40
BRANCH   6  42
HETATM   42  O5  UNL     1     -38.663  -0.020 -18.419  1.00  0.00    -0.390 OA
HETATM   43  C21 UNL     1     -39.868  -0.659 -18.405  1.00  0.00     0.202 C 
ENDBRANCH   6  42
BRANCH   9  44
HETATM   44  O6  UNL     1     -33.550   1.211 -18.803  1.00  0.00    -0.382 OA
ATOM     45  H6  UNL     1     -32.723   1.526 -18.459  1.00  0.00     0.210 HD
ENDBRANCH   9  44
BRANCH  12  46
HETATM   46  O8  UNL     1     -33.357   2.895 -16.779  1.00  0.00    -0.386 OA
ATOM     47  H8  UNL     1     -33.484   2.759 -15.848  1.00  0.00     0.210 HD
ENDBRANCH  12  46
BRANCH  19  48
HETATM   48  O10 UNL     1     -35.190   5.073 -16.104  1.00  0.00    -0.390 OA
HETATM   49  C37 UNL     1     -35.546   6.000 -15.096  1.00  0.00     0.202 C 
ENDBRANCH  19  48
BRANCH  14  50
HETATM   50  O9  UNL     1     -35.904   5.713 -18.576  1.00  0.00    -0.390 OA
HETATM   51  C31 UNL     1     -35.580   6.138 -19.837  1.00  0.00     0.202 C 
ENDBRANCH  14  50
TORSDOF 12
ENDMDL
