MODEL 4
REMARK VINA RESULT: -9.135667689      4.045      6.446
REMARK  12 active torsions:
REMARK  status: ('A' for Active; 'I' for Inactive)
REMARK    1  A    between atoms: C2_2  and  N1_3 
REMARK    2  A    between atoms: C4_5  and  C5_6 
REMARK    3  A    between atoms: C5_6  and  O1_7 
REMARK    4  A    between atoms: O1_7  and  C6_8 
REMARK    5  A    between atoms: C6_8  and  C7_10 
REMARK    6  A    between atoms: C12_15  and  N2_16 
REMARK    7  A    between atoms: C20_26  and  O5_27 
REMARK    8  A    between atoms: C24_31  and  O6_32 
REMARK    9  A    between atoms: C25_34  and  O7_35 
REMARK   10  A    between atoms: C28_38  and  O8_39 
REMARK   11  A    between atoms: C30_42  and  O9_43 
REMARK   12  A    between atoms: C36_49  and  O10_50 
ROOT
HETATM    1  N1  UNL     1     -36.243  -0.348 -19.478  1.00  0.00     0.097 N 
HETATM    2  C3  UNL     1     -35.590  -1.576 -19.071  1.00  0.00     0.285 C 
HETATM    3  C4  UNL     1     -35.866  -1.826 -17.618  1.00  0.00     0.015 C 
HETATM    4  C18 UNL     1     -37.317  -2.329 -17.573  1.00  0.00     0.016 C 
HETATM    5  C19 UNL     1     -38.147  -1.511 -16.648  1.00  0.00     0.034 C 
HETATM    6  C20 UNL     1     -38.116  -0.021 -17.069  1.00  0.00     0.132 C 
HETATM    7  C22 UNL     1     -36.725   0.465 -17.189  1.00  0.00     0.031 C 
HETATM    8  C23 UNL     1     -36.165   0.725 -18.538  1.00  0.00     0.274 C 
HETATM    9  C24 UNL     1     -34.716   1.031 -18.147  1.00  0.00     0.147 C 
HETATM   10  C25 UNL     1     -34.345  -0.020 -17.126  1.00  0.00     0.166 C 
HETATM   11  C27 UNL     1     -35.688  -0.603 -16.758  1.00  0.00     0.044 C 
HETATM   12  C28 UNL     1     -34.587   2.411 -17.519  1.00  0.00     0.102 C 
HETATM   13  C29 UNL     1     -34.869   3.481 -18.503  1.00  0.00     0.074 C 
HETATM   14  C30 UNL     1     -36.108   4.278 -18.326  1.00  0.00     0.130 C 
HETATM   15  C32 UNL     1     -36.830   4.040 -17.035  1.00  0.00     0.044 C 
HETATM   16  C33 UNL     1     -37.564   2.741 -16.954  1.00  0.00     0.015 C 
HETATM   17  C34 UNL     1     -36.642   1.711 -16.357  1.00  0.00     0.009 C 
HETATM   18  C35 UNL     1     -35.368   2.420 -16.258  1.00  0.00     0.058 C 
HETATM   19  C36 UNL     1     -35.799   3.877 -15.971  1.00  0.00     0.135 C 
ENDROOT
BRANCH   3  20
HETATM   20  C5  UNL     1     -35.055  -2.993 -17.113  1.00  0.00     0.190 C 
BRANCH  20  21
HETATM   21  O1  UNL     1     -34.219  -3.600 -18.054  1.00  0.00    -0.317 OA
BRANCH  21  22
HETATM   22  C6  UNL     1     -33.919  -4.929 -18.018  1.00  0.00     0.295 C 
HETATM   23  O2  UNL     1     -34.675  -5.722 -18.637  1.00  0.00    -0.259 OA
BRANCH  22  24
HETATM   24  C7  UNL     1     -32.774  -5.488 -17.306  1.00  0.00     0.066 A 
HETATM   25  C8  UNL     1     -32.924  -6.496 -16.374  1.00  0.00     0.020 A 
HETATM   26  C9  UNL     1     -31.837  -7.018 -15.690  1.00  0.00     0.001 A 
HETATM   27  C10 UNL     1     -30.565  -6.528 -15.932  1.00  0.00     0.002 A 
HETATM   28  C11 UNL     1     -30.425  -5.527 -16.856  1.00  0.00     0.031 A 
HETATM   29  C12 UNL     1     -31.489  -4.993 -17.548  1.00  0.00     0.061 A 
BRANCH  29  30
HETATM   30  N2  UNL     1     -31.318  -3.958 -18.506  1.00  0.00    -0.251 N 
HETATM   31  C13 UNL     1     -31.148  -2.590 -18.185  1.00  0.00     0.232 C 
HETATM   32  O3  UNL     1     -31.192  -2.030 -17.036  1.00  0.00    -0.273 OA
HETATM   33  C14 UNL     1     -30.887  -1.785 -19.412  1.00  0.00     0.117 C 
HETATM   34  C15 UNL     1     -30.734  -2.806 -20.505  1.00  0.00     0.083 C 
HETATM   35  C16 UNL     1     -31.378  -2.432 -21.798  1.00  0.00     0.020 C 
HETATM   36  C17 UNL     1     -31.283  -4.068 -19.918  1.00  0.00     0.235 C 
HETATM   37  O4  UNL     1     -31.645  -5.049 -20.616  1.00  0.00    -0.272 OA
ENDBRANCH  29  30
ENDBRANCH  22  24
ENDBRANCH  21  22
ENDBRANCH  20  21
ENDBRANCH   3  20
BRANCH   1  38
HETATM   38  C2  UNL     1     -35.920   0.071 -20.812  1.00  0.00     0.268 C 
HETATM   39  C1  UNL     1     -35.279  -1.028 -21.644  1.00  0.00     0.037 C 
ENDBRANCH   1  38
BRANCH  10  40
HETATM   40  O7  UNL     1     -33.632   0.448 -16.069  1.00  0.00    -0.387 OA
HETATM   41  C26 UNL     1     -33.467  -0.358 -14.985  1.00  0.00     0.202 C 
ENDBRANCH  10  40
BRANCH   6  42
HETATM   42  O5  UNL     1     -38.948   0.149 -18.167  1.00  0.00    -0.390 OA
HETATM   43  C21 UNL     1     -40.219  -0.309 -17.984  1.00  0.00     0.202 C 
ENDBRANCH   6  42
BRANCH   9  44
HETATM   44  O6  UNL     1     -33.854   1.012 -19.222  1.00  0.00    -0.382 OA
ATOM     45  H6  UNL     1     -33.421   1.846 -19.365  1.00  0.00     0.210 HD
ENDBRANCH   9  44
BRANCH  12  46
HETATM   46  O8  UNL     1     -33.225   2.497 -17.133  1.00  0.00    -0.386 OA
ATOM     47  H8  UNL     1     -32.761   2.682 -17.940  1.00  0.00     0.210 HD
ENDBRANCH  12  46
BRANCH  19  48
HETATM   48  O10 UNL     1     -34.742   4.745 -16.034  1.00  0.00    -0.390 OA
HETATM   49  C37 UNL     1     -34.339   4.980 -14.699  1.00  0.00     0.202 C 
ENDBRANCH  19  48
BRANCH  14  50
HETATM   50  O9  UNL     1     -35.743   5.645 -18.319  1.00  0.00    -0.390 OA
HETATM   51  C31 UNL     1     -35.754   6.200 -19.571  1.00  0.00     0.202 C 
ENDBRANCH  14  50
TORSDOF 12
ENDMDL
