MODEL 8
REMARK VINA RESULT: -8.300554970      4.093      8.532
REMARK  13 active torsions:
REMARK  status: ('A' for Active; 'I' for Inactive)
REMARK    1  A    between atoms: S1_2  and  C2_3 
REMARK    2  A    between atoms: C2_3  and  C3_4 
REMARK    3  A    between atoms: C3_4  and  C4_5 
REMARK    4  A    between atoms: C4_5  and  N1_6 
REMARK    5  A    between atoms: C4_5  and  C19_31 
REMARK       I    between atoms: N1_6  and  C5_8 
REMARK       I    between atoms: C5_8  and  N2_10 
REMARK    6  A    between atoms: N2_10  and  C6_12 
REMARK    7  A    between atoms: C6_12  and  C7_13 
REMARK    8  A    between atoms: C6_12  and  C18_28 
REMARK    9  A    between atoms: C7_13  and  C8_14 
REMARK   10  A    between atoms: C8_14  and  C9_15 
REMARK   11  A    between atoms: C9_15  and  C10_16 
REMARK   12  A    between atoms: C10_16  and  N3_17 
REMARK       I    between atoms: N3_17  and  C11_19 
REMARK   13  A    between atoms: C11_19  and  C12_21 
ROOT
HETATM    1  C6  UNL     1      23.693  45.605  44.061  1.00  0.00     0.187 C 
ENDROOT
BRANCH   1   2
HETATM    2  N2  UNL     1      23.063  46.298  45.218  1.00  0.00    -0.329 N 
HETATM    3  C5  UNL     1      23.611  47.492  45.750  1.00  0.00     0.317 C 
HETATM    4  N1  UNL     1      22.987  48.157  46.876  1.00  0.00    -0.329 N 
HETATM    5  O1  UNL     1      24.651  47.948  45.211  1.00  0.00    -0.247 OA
ATOM      6  H1  UNL     1      22.140  47.775  47.298  1.00  0.00     0.165 HD
ATOM      7  H2  UNL     1      22.220  45.905  45.637  1.00  0.00     0.165 HD
BRANCH   4   8
HETATM    8  C4  UNL     1      23.574  49.355  47.387  1.00  0.00     0.188 C 
BRANCH   8   9
HETATM    9  C3  UNL     1      23.028  50.621  46.907  1.00  0.00     0.046 C 
BRANCH   9  10
HETATM   10  C2  UNL     1      22.924  50.869  45.465  1.00  0.00     0.076 C 
BRANCH  10  11
HETATM   11  S1  UNL     1      21.386  50.755  44.625  1.00  0.00    -0.173 SA
HETATM   12  C1  UNL     1      20.644  49.133  44.556  1.00  0.00     0.089 C 
ENDBRANCH  10  11
ENDBRANCH   9  10
ENDBRANCH   8   9
BRANCH   8  13
HETATM   13  C19 UNL     1      23.363  49.268  48.904  1.00  0.00     0.196 C 
HETATM   14  O5  UNL     1      22.525  48.469  49.354  1.00  0.00    -0.646 OA
HETATM   15  O6  UNL     1      24.081  50.057  49.768  1.00  0.00    -0.646 OA
ENDBRANCH   8  13
ENDBRANCH   4   8
ENDBRANCH   1   2
BRANCH   1  16
HETATM   16  C7  UNL     1      23.499  44.135  44.190  1.00  0.00     0.036 C 
BRANCH  16  17
HETATM   17  C8  UNL     1      23.314  43.725  45.622  1.00  0.00     0.004 C 
BRANCH  17  18
HETATM   18  C9  UNL     1      22.293  42.621  45.755  1.00  0.00     0.020 C 
BRANCH  18  19
HETATM   19  C10 UNL     1      21.004  43.191  46.238  1.00  0.00     0.123 C 
BRANCH  19  20
HETATM   20  N3  UNL     1      20.032  43.376  45.198  1.00  0.00    -0.357 N 
HETATM   21  C11 UNL     1      19.669  44.634  44.657  1.00  0.00     0.251 C 
HETATM   22  O2  UNL     1      20.276  45.635  45.160  1.00  0.00    -0.268 OA
ATOM     23  H3  UNL     1      19.571  42.546  44.824  1.00  0.00     0.162 HD
BRANCH  21  24
HETATM   24  C12 UNL     1      18.691  44.841  43.612  1.00  0.00     0.032 A 
HETATM   25  C13 UNL     1      17.612  43.995  43.511  1.00  0.00     0.018 A 
HETATM   26  C14 UNL     1      16.650  44.155  42.530  1.00  0.00     0.019 A 
HETATM   27  C15 UNL     1      16.757  45.180  41.621  1.00  0.00     0.006 A 
HETATM   28  I1  UNL     1      15.309  45.462  40.101  1.00  0.00    -0.045 I 
HETATM   29  C16 UNL     1      17.839  46.051  41.699  1.00  0.00     0.019 A 
HETATM   30  C17 UNL     1      18.784  45.859  42.697  1.00  0.00     0.018 A 
ENDBRANCH  21  24
ENDBRANCH  19  20
ENDBRANCH  18  19
ENDBRANCH  17  18
ENDBRANCH  16  17
ENDBRANCH   1  16
BRANCH   1  31
HETATM   31  C18 UNL     1      23.076  46.101  42.818  1.00  0.00     0.196 C 
HETATM   32  O3  UNL     1      22.153  45.425  42.248  1.00  0.00    -0.646 OA
HETATM   33  O4  UNL     1      23.415  47.273  42.190  1.00  0.00    -0.646 OA
ENDBRANCH   1  31
TORSDOF 13
ENDMDL
