MODEL 2
REMARK VINA RESULT: -10.271292850      0.663      1.112
REMARK  13 active torsions:
REMARK  status: ('A' for Active; 'I' for Inactive)
REMARK    1  A    between atoms: S1_2  and  C2_3 
REMARK    2  A    between atoms: C2_3  and  C3_4 
REMARK    3  A    between atoms: C3_4  and  C4_5 
REMARK    4  A    between atoms: C4_5  and  N1_6 
REMARK    5  A    between atoms: C4_5  and  C19_31 
REMARK       I    between atoms: N1_6  and  C5_8 
REMARK       I    between atoms: C5_8  and  N2_10 
REMARK    6  A    between atoms: N2_10  and  C6_12 
REMARK    7  A    between atoms: C6_12  and  C7_13 
REMARK    8  A    between atoms: C6_12  and  C18_28 
REMARK    9  A    between atoms: C7_13  and  C8_14 
REMARK   10  A    between atoms: C8_14  and  C9_15 
REMARK   11  A    between atoms: C9_15  and  C10_16 
REMARK   12  A    between atoms: C10_16  and  N3_17 
REMARK       I    between atoms: N3_17  and  C11_19 
REMARK   13  A    between atoms: C11_19  and  C12_21 
ROOT
HETATM    1  C6  UNL     1      20.383  44.852  44.443  1.00  0.00     0.187 C 
ENDROOT
BRANCH   1   2
HETATM    2  N2  UNL     1      19.346  45.511  43.603  1.00  0.00    -0.329 N 
HETATM    3  C5  UNL     1      18.344  44.757  42.941  1.00  0.00     0.317 C 
HETATM    4  N1  UNL     1      17.340  45.411  42.128  1.00  0.00    -0.329 N 
HETATM    5  O1  UNL     1      18.361  43.508  43.086  1.00  0.00    -0.247 OA
ATOM      6  H1  UNL     1      17.338  46.427  42.025  1.00  0.00     0.165 HD
ATOM      7  H2  UNL     1      19.356  46.526  43.501  1.00  0.00     0.165 HD
BRANCH   4   8
HETATM    8  C4  UNL     1      16.351  44.615  41.471  1.00  0.00     0.188 C 
BRANCH   8   9
HETATM    9  C3  UNL     1      14.973  45.093  41.517  1.00  0.00     0.046 C 
BRANCH   9  10
HETATM   10  C2  UNL     1      14.706  46.529  41.659  1.00  0.00     0.076 C 
BRANCH  10  11
HETATM   11  S1  UNL     1      14.695  47.600  40.268  1.00  0.00    -0.173 SA
HETATM   12  C1  UNL     1      13.132  47.782  39.425  1.00  0.00     0.089 C 
ENDBRANCH  10  11
ENDBRANCH   9  10
ENDBRANCH   8   9
BRANCH   8  13
HETATM   13  C19 UNL     1      16.809  44.566  40.007  1.00  0.00     0.196 C 
HETATM   14  O5  UNL     1      18.024  44.613  39.751  1.00  0.00    -0.646 OA
HETATM   15  O6  UNL     1      15.902  44.472  38.982  1.00  0.00    -0.646 OA
ENDBRANCH   8  13
ENDBRANCH   4   8
ENDBRANCH   1   2
BRANCH   1  16
HETATM   16  C7  UNL     1      21.729  45.086  43.853  1.00  0.00     0.036 C 
BRANCH  16  17
HETATM   17  C8  UNL     1      21.715  46.223  42.874  1.00  0.00     0.004 C 
BRANCH  17  18
HETATM   18  C9  UNL     1      23.104  46.551  42.385  1.00  0.00     0.020 C 
BRANCH  18  19
HETATM   19  C10 UNL     1      23.443  47.954  42.754  1.00  0.00     0.123 C 
BRANCH  19  20
HETATM   20  N3  UNL     1      23.572  48.162  44.168  1.00  0.00    -0.357 N 
HETATM   21  C11 UNL     1      23.104  49.310  44.854  1.00  0.00     0.251 C 
HETATM   22  O2  UNL     1      22.538  50.184  44.120  1.00  0.00    -0.268 OA
ATOM     23  H3  UNL     1      24.032  47.434  44.716  1.00  0.00     0.162 HD
BRANCH  21  24
HETATM   24  C12 UNL     1      23.226  49.538  46.277  1.00  0.00     0.032 A 
HETATM   25  C13 UNL     1      23.477  48.480  47.118  1.00  0.00     0.018 A 
HETATM   26  C14 UNL     1      23.604  48.650  48.485  1.00  0.00     0.019 A 
HETATM   27  C15 UNL     1      23.480  49.901  49.038  1.00  0.00     0.006 A 
HETATM   28  I1  UNL     1      23.667  50.209  51.125  1.00  0.00    -0.045 I 
HETATM   29  C16 UNL     1      23.226  50.990  48.210  1.00  0.00     0.019 A 
HETATM   30  C17 UNL     1      23.105  50.781  46.844  1.00  0.00     0.018 A 
ENDBRANCH  21  24
ENDBRANCH  19  20
ENDBRANCH  18  19
ENDBRANCH  17  18
ENDBRANCH  16  17
ENDBRANCH   1  16
BRANCH   1  31
HETATM   31  C18 UNL     1      20.311  45.406  45.806  1.00  0.00     0.196 C 
HETATM   32  O3  UNL     1      19.926  44.668  46.777  1.00  0.00    -0.646 OA
HETATM   33  O4  UNL     1      20.636  46.695  46.145  1.00  0.00    -0.646 OA
ENDBRANCH   1  31
TORSDOF 13
ENDMDL
