MODEL 1
REMARK VINA RESULT: -10.441953259      0.000      0.000
REMARK  13 active torsions:
REMARK  status: ('A' for Active; 'I' for Inactive)
REMARK    1  A    between atoms: S1_2  and  C2_3 
REMARK    2  A    between atoms: C2_3  and  C3_4 
REMARK    3  A    between atoms: C3_4  and  C4_5 
REMARK    4  A    between atoms: C4_5  and  N1_6 
REMARK    5  A    between atoms: C4_5  and  C19_31 
REMARK       I    between atoms: N1_6  and  C5_8 
REMARK       I    between atoms: C5_8  and  N2_10 
REMARK    6  A    between atoms: N2_10  and  C6_12 
REMARK    7  A    between atoms: C6_12  and  C7_13 
REMARK    8  A    between atoms: C6_12  and  C18_28 
REMARK    9  A    between atoms: C7_13  and  C8_14 
REMARK   10  A    between atoms: C8_14  and  C9_15 
REMARK   11  A    between atoms: C9_15  and  C10_16 
REMARK   12  A    between atoms: C10_16  and  N3_17 
REMARK       I    between atoms: N3_17  and  C11_19 
REMARK   13  A    between atoms: C11_19  and  C12_21 
ROOT
HETATM    1  C6  UNL     1      19.997  45.362  44.481  1.00  0.00     0.187 C 
ENDROOT
BRANCH   1   2
HETATM    2  N2  UNL     1      18.916  45.846  43.579  1.00  0.00    -0.329 N 
HETATM    3  C5  UNL     1      18.089  44.942  42.867  1.00  0.00     0.317 C 
HETATM    4  N1  UNL     1      17.039  45.427  41.994  1.00  0.00    -0.329 N 
HETATM    5  O1  UNL     1      18.301  43.712  43.020  1.00  0.00    -0.247 OA
ATOM      6  H1  UNL     1      16.878  46.428  41.885  1.00  0.00     0.165 HD
ATOM      7  H2  UNL     1      18.767  46.850  43.472  1.00  0.00     0.165 HD
BRANCH   4   8
HETATM    8  C4  UNL     1      16.233  44.482  41.288  1.00  0.00     0.188 C 
BRANCH   8   9
HETATM    9  C3  UNL     1      14.786  44.672  41.339  1.00  0.00     0.046 C 
BRANCH   9  10
HETATM   10  C2  UNL     1      14.237  45.987  41.690  1.00  0.00     0.076 C 
BRANCH  10  11
HETATM   11  S1  UNL     1      13.737  47.130  40.455  1.00  0.00    -0.173 SA
HETATM   12  C1  UNL     1      14.962  48.324  39.944  1.00  0.00     0.089 C 
ENDBRANCH  10  11
ENDBRANCH   9  10
ENDBRANCH   8   9
BRANCH   8  13
HETATM   13  C19 UNL     1      16.696  44.597  39.829  1.00  0.00     0.196 C 
HETATM   14  O5  UNL     1      17.907  44.729  39.588  1.00  0.00    -0.646 OA
HETATM   15  O6  UNL     1      15.796  44.558  38.793  1.00  0.00    -0.646 OA
ENDBRANCH   8  13
ENDBRANCH   4   8
ENDBRANCH   1   2
BRANCH   1  16
HETATM   16  C7  UNL     1      21.256  45.190  43.706  1.00  0.00     0.036 C 
BRANCH  16  17
HETATM   17  C8  UNL     1      21.581  46.412  42.899  1.00  0.00     0.004 C 
BRANCH  17  18
HETATM   18  C9  UNL     1      23.016  46.403  42.432  1.00  0.00     0.020 C 
BRANCH  18  19
HETATM   19  C10 UNL     1      23.648  47.717  42.741  1.00  0.00     0.123 C 
BRANCH  19  20
HETATM   20  N3  UNL     1      23.769  47.981  44.146  1.00  0.00    -0.357 N 
HETATM   21  C11 UNL     1      23.179  49.087  44.806  1.00  0.00     0.251 C 
HETATM   22  O2  UNL     1      22.507  49.868  44.057  1.00  0.00    -0.268 OA
ATOM     23  H3  UNL     1      24.317  47.328  44.708  1.00  0.00     0.162 HD
BRANCH  21  24
HETATM   24  C12 UNL     1      23.292  49.371  46.220  1.00  0.00     0.032 A 
HETATM   25  C13 UNL     1      23.133  50.660  46.671  1.00  0.00     0.018 A 
HETATM   26  C14 UNL     1      23.229  50.979  48.013  1.00  0.00     0.019 A 
HETATM   27  C15 UNL     1      23.490  49.997  48.938  1.00  0.00     0.006 A 
HETATM   28  I1  UNL     1      23.646  50.440  51.003  1.00  0.00    -0.045 I 
HETATM   29  C16 UNL     1      23.655  48.684  48.510  1.00  0.00     0.019 A 
HETATM   30  C17 UNL     1      23.552  48.402  47.155  1.00  0.00     0.018 A 
ENDBRANCH  21  24
ENDBRANCH  19  20
ENDBRANCH  18  19
ENDBRANCH  17  18
ENDBRANCH  16  17
ENDBRANCH   1  16
BRANCH   1  31
HETATM   31  C18 UNL     1      20.186  46.343  45.564  1.00  0.00     0.196 C 
HETATM   32  O3  UNL     1      21.094  46.156  46.444  1.00  0.00    -0.646 OA
HETATM   33  O4  UNL     1      19.446  47.488  45.722  1.00  0.00    -0.646 OA
ENDBRANCH   1  31
TORSDOF 13
ENDMDL
