MODEL 5
REMARK VINA RESULT: -8.753385486      4.435      9.579
REMARK  13 active torsions:
REMARK  status: ('A' for Active; 'I' for Inactive)
REMARK    1  A    between atoms: S1_2  and  C2_3 
REMARK    2  A    between atoms: C2_3  and  C3_4 
REMARK    3  A    between atoms: C3_4  and  C4_5 
REMARK    4  A    between atoms: C4_5  and  N1_6 
REMARK    5  A    between atoms: C4_5  and  C19_31 
REMARK       I    between atoms: N1_6  and  C5_8 
REMARK       I    between atoms: C5_8  and  N2_10 
REMARK    6  A    between atoms: N2_10  and  C6_12 
REMARK    7  A    between atoms: C6_12  and  C7_13 
REMARK    8  A    between atoms: C6_12  and  C18_28 
REMARK    9  A    between atoms: C7_13  and  C8_14 
REMARK   10  A    between atoms: C8_14  and  C9_15 
REMARK   11  A    between atoms: C9_15  and  C10_16 
REMARK   12  A    between atoms: C10_16  and  N3_17 
REMARK       I    between atoms: N3_17  and  C11_19 
REMARK   13  A    between atoms: C11_19  and  C12_21 
ROOT
HETATM    1  C6  UNL     1      22.289  45.414  44.665  1.00  0.00     0.187 C 
ENDROOT
BRANCH   1   2
HETATM    2  N2  UNL     1      22.962  46.734  44.814  1.00  0.00    -0.329 N 
HETATM    3  C5  UNL     1      22.587  47.641  45.836  1.00  0.00     0.317 C 
HETATM    4  N1  UNL     1      23.252  48.921  45.971  1.00  0.00    -0.329 N 
HETATM    5  O1  UNL     1      21.663  47.295  46.615  1.00  0.00    -0.247 OA
ATOM      6  H1  UNL     1      24.003  49.185  45.333  1.00  0.00     0.165 HD
ATOM      7  H2  UNL     1      23.708  46.990  44.167  1.00  0.00     0.165 HD
BRANCH   4   8
HETATM    8  C4  UNL     1      22.839  49.811  47.011  1.00  0.00     0.188 C 
BRANCH   8   9
HETATM    9  C3  UNL     1      23.658  49.849  48.218  1.00  0.00     0.046 C 
BRANCH   9  10
HETATM   10  C2  UNL     1      23.293  50.750  49.317  1.00  0.00     0.076 C 
BRANCH  10  11
HETATM   11  S1  UNL     1      23.671  50.359  50.986  1.00  0.00    -0.173 SA
HETATM   12  C1  UNL     1      22.625  49.142  51.767  1.00  0.00     0.089 C 
ENDBRANCH  10  11
ENDBRANCH   9  10
ENDBRANCH   8   9
BRANCH   8  13
HETATM   13  C19 UNL     1      22.859  51.200  46.357  1.00  0.00     0.196 C 
HETATM   14  O5  UNL     1      23.886  51.576  45.766  1.00  0.00    -0.646 OA
HETATM   15  O6  UNL     1      21.766  52.028  46.414  1.00  0.00    -0.646 OA
ENDBRANCH   8  13
ENDBRANCH   4   8
ENDBRANCH   1   2
BRANCH   1  16
HETATM   16  C7  UNL     1      21.501  45.393  43.404  1.00  0.00     0.036 C 
BRANCH  16  17
HETATM   17  C8  UNL     1      20.031  45.546  43.666  1.00  0.00     0.004 C 
BRANCH  17  18
HETATM   18  C9  UNL     1      19.593  44.730  44.857  1.00  0.00     0.020 C 
BRANCH  18  19
HETATM   19  C10 UNL     1      18.306  44.046  44.545  1.00  0.00     0.123 C 
BRANCH  19  20
HETATM   20  N3  UNL     1      17.394  44.855  43.786  1.00  0.00    -0.357 N 
HETATM   21  C11 UNL     1      17.068  44.631  42.426  1.00  0.00     0.251 C 
HETATM   22  O2  UNL     1      17.649  43.633  41.888  1.00  0.00    -0.268 OA
ATOM     23  H3  UNL     1      16.952  45.644  44.258  1.00  0.00     0.162 HD
BRANCH  21  24
HETATM   24  C12 UNL     1      16.155  45.435  41.645  1.00  0.00     0.032 A 
HETATM   25  C13 UNL     1      14.815  45.125  41.630  1.00  0.00     0.018 A 
HETATM   26  C14 UNL     1      13.904  45.866  40.899  1.00  0.00     0.019 A 
HETATM   27  C15 UNL     1      14.327  46.945  40.162  1.00  0.00     0.006 A 
HETATM   28  I1  UNL     1      12.967  48.108  39.028  1.00  0.00    -0.045 I 
HETATM   29  C16 UNL     1      15.677  47.282  40.158  1.00  0.00     0.019 A 
HETATM   30  C17 UNL     1      16.561  46.515  40.903  1.00  0.00     0.018 A 
ENDBRANCH  21  24
ENDBRANCH  19  20
ENDBRANCH  18  19
ENDBRANCH  17  18
ENDBRANCH  16  17
ENDBRANCH   1  16
BRANCH   1  31
HETATM   31  C18 UNL     1      23.316  44.357  44.652  1.00  0.00     0.196 C 
HETATM   32  O3  UNL     1      23.878  44.026  43.552  1.00  0.00    -0.646 OA
HETATM   33  O4  UNL     1      23.743  43.667  45.758  1.00  0.00    -0.646 OA
ENDBRANCH   1  31
TORSDOF 13
ENDMDL
