MODEL 6
REMARK VINA RESULT: -8.628198967      4.344      9.537
REMARK  13 active torsions:
REMARK  status: ('A' for Active; 'I' for Inactive)
REMARK    1  A    between atoms: S1_2  and  C2_3 
REMARK    2  A    between atoms: C2_3  and  C3_4 
REMARK    3  A    between atoms: C3_4  and  C4_5 
REMARK    4  A    between atoms: C4_5  and  N1_6 
REMARK    5  A    between atoms: C4_5  and  C19_31 
REMARK       I    between atoms: N1_6  and  C5_8 
REMARK       I    between atoms: C5_8  and  N2_10 
REMARK    6  A    between atoms: N2_10  and  C6_12 
REMARK    7  A    between atoms: C6_12  and  C7_13 
REMARK    8  A    between atoms: C6_12  and  C18_28 
REMARK    9  A    between atoms: C7_13  and  C8_14 
REMARK   10  A    between atoms: C8_14  and  C9_15 
REMARK   11  A    between atoms: C9_15  and  C10_16 
REMARK   12  A    between atoms: C10_16  and  N3_17 
REMARK       I    between atoms: N3_17  and  C11_19 
REMARK   13  A    between atoms: C11_19  and  C12_21 
ROOT
HETATM    1  C6  UNL     1      22.424  45.777  44.263  1.00  0.00     0.187 C 
ENDROOT
BRANCH   1   2
HETATM    2  N2  UNL     1      23.149  47.039  44.577  1.00  0.00    -0.329 N 
HETATM    3  C5  UNL     1      22.684  47.925  45.582  1.00  0.00     0.317 C 
HETATM    4  N1  UNL     1      23.400  49.149  45.878  1.00  0.00    -0.329 N 
HETATM    5  O1  UNL     1      21.636  47.611  46.200  1.00  0.00    -0.247 OA
ATOM      6  H1  UNL     1      24.253  49.387  45.370  1.00  0.00     0.165 HD
ATOM      7  H2  UNL     1      23.996  47.271  44.059  1.00  0.00     0.165 HD
BRANCH   4   8
HETATM    8  C4  UNL     1      22.895  50.019  46.894  1.00  0.00     0.188 C 
BRANCH   8   9
HETATM    9  C3  UNL     1      23.667  50.120  48.128  1.00  0.00     0.046 C 
BRANCH   9  10
HETATM   10  C2  UNL     1      23.559  49.064  49.142  1.00  0.00     0.076 C 
BRANCH  10  11
HETATM   11  S1  UNL     1      23.052  49.420  50.784  1.00  0.00    -0.173 SA
HETATM   12  C1  UNL     1      23.703  50.919  51.503  1.00  0.00     0.089 C 
ENDBRANCH  10  11
ENDBRANCH   9  10
ENDBRANCH   8   9
BRANCH   8  13
HETATM   13  C19 UNL     1      22.849  51.401  46.226  1.00  0.00     0.196 C 
HETATM   14  O5  UNL     1      21.772  51.813  45.763  1.00  0.00    -0.646 OA
HETATM   15  O6  UNL     1      23.974  52.182  46.132  1.00  0.00    -0.646 OA
ENDBRANCH   8  13
ENDBRANCH   4   8
ENDBRANCH   1   2
BRANCH   1  16
HETATM   16  C7  UNL     1      21.438  46.023  43.177  1.00  0.00     0.036 C 
BRANCH  16  17
HETATM   17  C8  UNL     1      20.027  45.862  43.662  1.00  0.00     0.004 C 
BRANCH  17  18
HETATM   18  C9  UNL     1      19.913  44.751  44.677  1.00  0.00     0.020 C 
BRANCH  18  19
HETATM   19  C10 UNL     1      18.581  44.096  44.550  1.00  0.00     0.123 C 
BRANCH  19  20
HETATM   20  N3  UNL     1      17.626  44.873  43.812  1.00  0.00    -0.357 N 
HETATM   21  C11 UNL     1      17.196  44.572  42.495  1.00  0.00     0.251 C 
HETATM   22  O2  UNL     1      17.722  43.531  41.981  1.00  0.00    -0.268 OA
ATOM     23  H3  UNL     1      17.231  45.698  44.264  1.00  0.00     0.162 HD
BRANCH  21  24
HETATM   24  C12 UNL     1      16.238  45.342  41.735  1.00  0.00     0.032 A 
HETATM   25  C13 UNL     1      16.645  46.479  41.078  1.00  0.00     0.018 A 
HETATM   26  C14 UNL     1      15.766  47.247  40.336  1.00  0.00     0.019 A 
HETATM   27  C15 UNL     1      14.445  46.881  40.240  1.00  0.00     0.006 A 
HETATM   28  I1  UNL     1      13.062  48.027  39.116  1.00  0.00    -0.045 I 
HETATM   29  C16 UNL     1      14.005  45.735  40.895  1.00  0.00     0.019 A 
HETATM   30  C17 UNL     1      14.916  44.991  41.629  1.00  0.00     0.018 A 
ENDBRANCH  21  24
ENDBRANCH  19  20
ENDBRANCH  18  19
ENDBRANCH  17  18
ENDBRANCH  16  17
ENDBRANCH   1  16
BRANCH   1  31
HETATM   31  C18 UNL     1      23.405  44.757  43.852  1.00  0.00     0.196 C 
HETATM   32  O3  UNL     1      23.691  44.608  42.614  1.00  0.00    -0.646 OA
HETATM   33  O4  UNL     1      24.068  43.917  44.710  1.00  0.00    -0.646 OA
ENDBRANCH   1  31
TORSDOF 13
ENDMDL
