MODEL 14
REMARK VINA RESULT: -6.866715894      1.784      6.231
REMARK  4 active torsions:
REMARK  status: ('A' for Active; 'I' for Inactive)
REMARK    1  A    between atoms: O1_2  and  C2_3 
REMARK    2  A    between atoms: C5_6  and  C6_7 
REMARK    3  A    between atoms: C6_7  and  O2_8 
REMARK    4  A    between atoms: C12_17  and  C13_18 
ROOT
HETATM    1  C2  UNL     1       1.383  83.900  25.647  1.00  0.00     0.097 A 
HETATM    2  C3  UNL     1       0.734  82.913  26.358  1.00  0.00     0.040 A 
HETATM    3  C4  UNL     1      -0.625  83.075  26.657  1.00  0.00     0.014 A 
HETATM    4  C5  UNL     1      -1.308  84.202  26.251  1.00  0.00    -0.006 A 
HETATM    5  C7  UNL     1      -0.662  85.191  25.540  1.00  0.00     0.071 A 
HETATM    6  N1  UNL     1      -1.345  86.284  25.153  1.00  0.00    -0.352 N 
ATOM      7  H1  UNL     1      -2.334  86.379  25.384  1.00  0.00     0.166 HD
HETATM    8  C8  UNL     1      -0.716  87.250  24.459  1.00  0.00     0.060 A 
HETATM    9  C9  UNL     1      -1.342  88.400  24.024  1.00  0.00     0.032 A 
HETATM   10  C10 UNL     1      -0.678  89.379  23.314  1.00  0.00     0.003 A 
HETATM   11  C11 UNL     1       0.674  89.213  23.019  1.00  0.00     0.021 A 
HETATM   12  C12 UNL     1       1.317  88.071  23.444  1.00  0.00     0.069 A 
HETATM   13  C14 UNL     1       0.643  87.099  24.153  1.00  0.00     0.077 A 
HETATM   14  N2  UNL     1       1.313  86.001  24.549  1.00  0.00    -0.349 N 
ATOM     15  H2  UNL     1       2.302  85.907  24.319  1.00  0.00     0.166 HD
HETATM   16  C15 UNL     1       0.697  85.025  25.243  1.00  0.00     0.094 A 
ENDROOT
BRANCH   4  17
HETATM   17  C6  UNL     1      -2.748  84.351  26.581  1.00  0.00     0.205 C 
BRANCH  17  18
HETATM   18  O2  UNL     1      -3.548  84.421  25.470  1.00  0.00    -0.396 OA
ATOM     19  H2  UNL     1      -4.475  84.434  25.679  1.00  0.00     0.209 HD
ENDBRANCH  17  18
ENDBRANCH   4  17
BRANCH   1  20
HETATM   20  O1  UNL     1       2.729  83.762  25.338  1.00  0.00    -0.354 OA
HETATM   21  C1  UNL     1       3.529  82.700  25.749  1.00  0.00     0.210 C 
ENDBRANCH   1  20
BRANCH  12  22
HETATM   22  C13 UNL     1       2.730  87.855  23.159  1.00  0.00     0.211 C 
HETATM   23  O3  UNL     1       3.246  88.023  22.046  1.00  0.00    -0.644 OA
HETATM   24  O4  UNL     1       3.568  87.432  24.195  1.00  0.00    -0.644 OA
ENDBRANCH  12  22
TORSDOF 4
ENDMDL
