MODEL 4
REMARK VINA RESULT: -7.268319827      1.001      1.235
REMARK  4 active torsions:
REMARK  status: ('A' for Active; 'I' for Inactive)
REMARK    1  A    between atoms: O1_2  and  C2_3 
REMARK    2  A    between atoms: C5_6  and  C6_7 
REMARK    3  A    between atoms: C6_7  and  O2_8 
REMARK    4  A    between atoms: C12_17  and  C13_18 
ROOT
HETATM    1  C2  UNL     1      -1.704  86.924  25.029  1.00  0.00     0.097 A 
HETATM    2  C3  UNL     1      -1.849  88.121  24.360  1.00  0.00     0.040 A 
HETATM    3  C4  UNL     1      -0.755  88.640  23.654  1.00  0.00     0.014 A 
HETATM    4  C5  UNL     1       0.450  87.968  23.625  1.00  0.00    -0.006 A 
HETATM    5  C7  UNL     1       0.597  86.771  24.292  1.00  0.00     0.071 A 
HETATM    6  N1  UNL     1       1.780  86.131  24.252  1.00  0.00    -0.352 N 
ATOM      7  H1  UNL     1       2.561  86.529  23.731  1.00  0.00     0.166 HD
HETATM    8  C8  UNL     1       1.926  84.962  24.903  1.00  0.00     0.060 A 
HETATM    9  C9  UNL     1       3.104  84.243  24.913  1.00  0.00     0.032 A 
HETATM   10  C10 UNL     1       3.232  83.046  25.587  1.00  0.00     0.003 A 
HETATM   11  C11 UNL     1       2.142  82.534  26.288  1.00  0.00     0.021 A 
HETATM   12  C12 UNL     1       0.957  83.238  26.291  1.00  0.00     0.069 A 
HETATM   13  C14 UNL     1       0.840  84.433  25.612  1.00  0.00     0.077 A 
HETATM   14  N2  UNL     1      -0.337  85.086  25.644  1.00  0.00    -0.349 N 
ATOM     15  H2  UNL     1      -1.117  84.688  26.166  1.00  0.00     0.166 HD
HETATM   16  C15 UNL     1      -0.498  86.256  24.998  1.00  0.00     0.094 A 
ENDROOT
BRANCH   4  17
HETATM   17  C6  UNL     1       1.593  88.539  22.869  1.00  0.00     0.205 C 
BRANCH  17  18
HETATM   18  O2  UNL     1       2.675  88.817  23.663  1.00  0.00    -0.396 OA
ATOM     19  H2  UNL     1       3.504  88.604  23.250  1.00  0.00     0.209 HD
ENDBRANCH  17  18
ENDBRANCH   4  17
BRANCH   1  20
HETATM   20  O1  UNL     1      -2.773  86.389  25.736  1.00  0.00    -0.354 OA
HETATM   21  C1  UNL     1      -3.991  87.032  25.928  1.00  0.00     0.210 C 
ENDBRANCH   1  20
BRANCH  12  22
HETATM   22  C13 UNL     1      -0.210  82.742  27.010  1.00  0.00     0.211 C 
HETATM   23  O3  UNL     1      -0.984  81.884  26.566  1.00  0.00    -0.644 OA
HETATM   24  O4  UNL     1      -0.484  83.255  28.281  1.00  0.00    -0.644 OA
ENDBRANCH  12  22
TORSDOF 4
ENDMDL
