MODEL 2
REMARK VINA RESULT: -8.181483667      1.767      6.142
REMARK  4 active torsions:
REMARK  status: ('A' for Active; 'I' for Inactive)
REMARK    1  A    between atoms: O1_2  and  C2_3 
REMARK    2  A    between atoms: C5_6  and  C6_7 
REMARK    3  A    between atoms: C6_7  and  O2_8 
REMARK    4  A    between atoms: C12_17  and  C13_18 
ROOT
HETATM    1  C2  UNL     1       1.237  83.279  26.134  1.00  0.00     0.097 A 
HETATM    2  C3  UNL     1       0.429  82.380  26.798  1.00  0.00     0.040 A 
HETATM    3  C4  UNL     1      -0.940  82.655  26.915  1.00  0.00     0.014 A 
HETATM    4  C5  UNL     1      -1.477  83.807  26.377  1.00  0.00    -0.006 A 
HETATM    5  C7  UNL     1      -0.672  84.708  25.713  1.00  0.00     0.071 A 
HETATM    6  N1  UNL     1      -1.215  85.825  25.196  1.00  0.00    -0.352 N 
ATOM      7  H1  UNL     1      -2.214  86.004  25.295  1.00  0.00     0.166 HD
HETATM    8  C8  UNL     1      -0.431  86.706  24.547  1.00  0.00     0.060 A 
HETATM    9  C9  UNL     1      -0.906  87.875  23.988  1.00  0.00     0.032 A 
HETATM   10  C10 UNL     1      -0.084  88.764  23.327  1.00  0.00     0.003 A 
HETATM   11  C11 UNL     1       1.276  88.486  23.213  1.00  0.00     0.021 A 
HETATM   12  C12 UNL     1       1.771  87.324  23.765  1.00  0.00     0.069 A 
HETATM   13  C14 UNL     1       0.940  86.441  24.423  1.00  0.00     0.077 A 
HETATM   14  N2  UNL     1       1.467  85.319  24.947  1.00  0.00    -0.349 N 
ATOM     15  H2  UNL     1       2.467  85.142  24.850  1.00  0.00     0.166 HD
HETATM   16  C15 UNL     1       0.696  84.429  25.598  1.00  0.00     0.094 A 
ENDROOT
BRANCH   4  17
HETATM   17  C6  UNL     1      -2.931  84.076  26.515  1.00  0.00     0.205 C 
BRANCH  17  18
HETATM   18  O2  UNL     1      -3.249  84.717  27.684  1.00  0.00    -0.396 OA
ATOM     19  H2  UNL     1      -4.157  84.599  27.937  1.00  0.00     0.209 HD
ENDBRANCH  17  18
ENDBRANCH   4  17
BRANCH   1  20
HETATM   20  O1  UNL     1       2.595  83.028  26.004  1.00  0.00    -0.354 OA
HETATM   21  C1  UNL     1       3.282  82.030  26.689  1.00  0.00     0.210 C 
ENDBRANCH   1  20
BRANCH  12  22
HETATM   22  C13 UNL     1       3.187  86.991  23.671  1.00  0.00     0.211 C 
HETATM   23  O3  UNL     1       3.784  86.270  24.480  1.00  0.00    -0.644 OA
HETATM   24  O4  UNL     1       3.929  87.507  22.605  1.00  0.00    -0.644 OA
ENDBRANCH  12  22
TORSDOF 4
ENDMDL
