MODEL 5
REMARK VINA RESULT: -7.223035964      1.786      5.969
REMARK  4 active torsions:
REMARK  status: ('A' for Active; 'I' for Inactive)
REMARK    1  A    between atoms: O1_2  and  C2_3 
REMARK    2  A    between atoms: C5_6  and  C6_7 
REMARK    3  A    between atoms: C6_7  and  O2_8 
REMARK    4  A    between atoms: C12_17  and  C13_18 
ROOT
HETATM    1  C2  UNL     1       0.340  84.017  25.995  1.00  0.00     0.097 A 
HETATM    2  C3  UNL     1      -0.708  83.359  26.604  1.00  0.00     0.040 A 
HETATM    3  C4  UNL     1      -1.986  83.933  26.559  1.00  0.00     0.014 A 
HETATM    4  C5  UNL     1      -2.198  85.135  25.918  1.00  0.00    -0.006 A 
HETATM    5  C7  UNL     1      -1.152  85.795  25.308  1.00  0.00     0.071 A 
HETATM    6  N1  UNL     1      -1.379  86.967  24.687  1.00  0.00    -0.352 N 
ATOM      7  H1  UNL     1      -2.319  87.364  24.669  1.00  0.00     0.166 HD
HETATM    8  C8  UNL     1      -0.360  87.613  24.092  1.00  0.00     0.060 A 
HETATM    9  C9  UNL     1      -0.506  88.817  23.435  1.00  0.00     0.032 A 
HETATM   10  C10 UNL     1       0.553  89.462  22.830  1.00  0.00     0.003 A 
HETATM   11  C11 UNL     1       1.822  88.889  22.878  1.00  0.00     0.021 A 
HETATM   12  C12 UNL     1       1.989  87.686  23.530  1.00  0.00     0.069 A 
HETATM   13  C14 UNL     1       0.923  87.050  24.130  1.00  0.00     0.077 A 
HETATM   14  N2  UNL     1       1.134  85.877  24.755  1.00  0.00    -0.349 N 
ATOM     15  H2  UNL     1       2.073  85.480  24.775  1.00  0.00     0.166 HD
HETATM   16  C15 UNL     1       0.124  85.219  25.355  1.00  0.00     0.094 A 
ENDROOT
BRANCH   4  17
HETATM   17  C6  UNL     1      -3.562  85.722  25.884  1.00  0.00     0.205 C 
BRANCH  17  18
HETATM   18  O2  UNL     1      -3.660  86.891  26.593  1.00  0.00    -0.396 OA
ATOM     19  H2  UNL     1      -4.523  87.285  26.541  1.00  0.00     0.209 HD
ENDBRANCH  17  18
ENDBRANCH   4  17
BRANCH   1  20
HETATM   20  O1  UNL     1       1.615  83.469  26.026  1.00  0.00    -0.354 OA
HETATM   21  C1  UNL     1       2.056  82.549  26.971  1.00  0.00     0.210 C 
ENDBRANCH   1  20
BRANCH  12  22
HETATM   22  C13 UNL     1       3.298  87.048  23.605  1.00  0.00     0.211 C 
HETATM   23  O3  UNL     1       3.608  86.201  24.453  1.00  0.00    -0.644 OA
HETATM   24  O4  UNL     1       4.273  87.402  22.668  1.00  0.00    -0.644 OA
ENDBRANCH  12  22
TORSDOF 4
ENDMDL
