MODEL 1
REMARK VINA RESULT: -8.381909585      0.000      0.000
REMARK  4 active torsions:
REMARK  status: ('A' for Active; 'I' for Inactive)
REMARK    1  A    between atoms: O1_2  and  C2_3 
REMARK    2  A    between atoms: C5_6  and  C6_7 
REMARK    3  A    between atoms: C6_7  and  O2_8 
REMARK    4  A    between atoms: C12_17  and  C13_18 
ROOT
HETATM    1  C2  UNL     1      -0.461  86.870  24.533  1.00  0.00     0.097 A 
HETATM    2  C3  UNL     1      -0.256  88.023  23.805  1.00  0.00     0.040 A 
HETATM    3  C4  UNL     1       1.024  88.286  23.298  1.00  0.00     0.014 A 
HETATM    4  C5  UNL     1       2.066  87.410  23.522  1.00  0.00    -0.006 A 
HETATM    5  C7  UNL     1       1.864  86.257  24.249  1.00  0.00     0.071 A 
HETATM    6  N1  UNL     1       2.893  85.415  24.457  1.00  0.00    -0.352 N 
ATOM      7  H1  UNL     1       3.816  85.630  24.078  1.00  0.00     0.166 HD
HETATM    8  C8  UNL     1       2.698  84.289  25.167  1.00  0.00     0.060 A 
HETATM    9  C9  UNL     1       3.698  83.374  25.425  1.00  0.00     0.032 A 
HETATM   10  C10 UNL     1       3.476  82.224  26.156  1.00  0.00     0.003 A 
HETATM   11  C11 UNL     1       2.202  81.967  26.658  1.00  0.00     0.021 A 
HETATM   12  C12 UNL     1       1.190  82.869  26.411  1.00  0.00     0.069 A 
HETATM   13  C14 UNL     1       1.423  84.014  25.678  1.00  0.00     0.077 A 
HETATM   14  N2  UNL     1       0.404  84.867  25.463  1.00  0.00    -0.349 N 
ATOM     15  H2  UNL     1      -0.518  84.653  25.844  1.00  0.00     0.166 HD
HETATM   16  C15 UNL     1       0.583  85.997  24.755  1.00  0.00     0.094 A 
ENDROOT
BRANCH   4  17
HETATM   17  C6  UNL     1       3.413  87.712  22.974  1.00  0.00     0.205 C 
BRANCH  17  18
HETATM   18  O2  UNL     1       3.507  88.975  22.450  1.00  0.00    -0.396 OA
ATOM     19  H2  UNL     1       4.256  89.459  22.780  1.00  0.00     0.209 HD
ENDBRANCH  17  18
ENDBRANCH   4  17
BRANCH   1  20
HETATM   20  O1  UNL     1      -1.719  86.587  25.046  1.00  0.00    -0.354 OA
HETATM   21  C1  UNL     1      -2.358  87.335  26.030  1.00  0.00     0.210 C 
ENDBRANCH   1  20
BRANCH  12  22
HETATM   22  C13 UNL     1      -0.159  82.642  26.916  1.00  0.00     0.211 C 
HETATM   23  O3  UNL     1      -0.983  81.894  26.375  1.00  0.00    -0.644 OA
HETATM   24  O4  UNL     1      -0.560  83.300  28.082  1.00  0.00    -0.644 OA
ENDBRANCH  12  22
TORSDOF 4
ENDMDL
