MODEL 6
REMARK VINA RESULT: -7.188343801      1.889      3.905
REMARK  4 active torsions:
REMARK  status: ('A' for Active; 'I' for Inactive)
REMARK    1  A    between atoms: O1_2  and  C2_3 
REMARK    2  A    between atoms: C5_6  and  C6_7 
REMARK    3  A    between atoms: C6_7  and  O2_8 
REMARK    4  A    between atoms: C12_17  and  C13_18 
ROOT
HETATM    1  C2  UNL     1       1.811  87.334  23.856  1.00  0.00     0.097 A 
HETATM    2  C3  UNL     1       1.171  88.484  23.445  1.00  0.00     0.040 A 
HETATM    3  C4  UNL     1      -0.189  88.646  23.740  1.00  0.00     0.014 A 
HETATM    4  C5  UNL     1      -0.883  87.673  24.429  1.00  0.00    -0.006 A 
HETATM    5  C7  UNL     1      -0.246  86.522  24.841  1.00  0.00     0.071 A 
HETATM    6  N1  UNL     1      -0.940  85.584  25.512  1.00  0.00    -0.352 N 
ATOM      7  H1  UNL     1      -1.930  85.725  25.714  1.00  0.00     0.166 HD
HETATM    8  C8  UNL     1      -0.321  84.460  25.915  1.00  0.00     0.060 A 
HETATM    9  C9  UNL     1      -0.958  83.450  26.607  1.00  0.00     0.032 A 
HETATM   10  C10 UNL     1      -0.303  82.305  27.011  1.00  0.00     0.003 A 
HETATM   11  C11 UNL     1       1.050  82.148  26.716  1.00  0.00     0.021 A 
HETATM   12  C12 UNL     1       1.704  83.146  26.025  1.00  0.00     0.069 A 
HETATM   13  C14 UNL     1       1.040  84.286  25.627  1.00  0.00     0.077 A 
HETATM   14  N2  UNL     1       1.720  85.233  24.954  1.00  0.00    -0.349 N 
ATOM     15  H2  UNL     1       2.709  85.092  24.751  1.00  0.00     0.166 HD
HETATM   16  C15 UNL     1       1.114  86.364  24.545  1.00  0.00     0.094 A 
ENDROOT
BRANCH   4  17
HETATM   17  C6  UNL     1      -2.324  87.868  24.729  1.00  0.00     0.205 C 
BRANCH  17  18
HETATM   18  O2  UNL     1      -2.582  87.978  26.070  1.00  0.00    -0.396 OA
ATOM     19  H2  UNL     1      -3.496  88.157  26.259  1.00  0.00     0.209 HD
ENDBRANCH  17  18
ENDBRANCH   4  17
BRANCH   1  20
HETATM   20  O1  UNL     1       3.158  87.150  23.577  1.00  0.00    -0.354 OA
HETATM   21  C1  UNL     1       3.928  88.013  22.803  1.00  0.00     0.210 C 
ENDBRANCH   1  20
BRANCH  12  22
HETATM   22  C13 UNL     1       3.119  83.026  25.694  1.00  0.00     0.211 C 
HETATM   23  O3  UNL     1       3.668  83.637  24.769  1.00  0.00    -0.644 OA
HETATM   24  O4  UNL     1       3.919  82.174  26.462  1.00  0.00    -0.644 OA
ENDBRANCH  12  22
TORSDOF 4
ENDMDL
