MODEL 5
REMARK VINA RESULT: -8.731015773      2.083      4.998
REMARK  13 active torsions:
REMARK  status: ('A' for Active; 'I' for Inactive)
REMARK    1  A    between atoms: C2_2  and  C4_4 
REMARK    2  A    between atoms: C4_4  and  N1_5 
REMARK    3  A    between atoms: N1_5  and  C5_6 
REMARK    4  A    between atoms: N1_5  and  S1_28 
REMARK    5  A    between atoms: C5_6  and  C6_7 
REMARK    6  A    between atoms: C6_7  and  O1_8 
REMARK    7  A    between atoms: C6_7  and  C7_10 
REMARK    8  A    between atoms: C7_10  and  C8_11 
REMARK    9  A    between atoms: C7_10  and  N2_18 
REMARK   10  A    between atoms: C8_11  and  C9_12 
REMARK       I    between atoms: N2_18  and  C15_20 
REMARK   11  A    between atoms: C15_20  and  O3_22 
REMARK   12  A    between atoms: O3_22  and  C16_23 
REMARK   13  A    between atoms: S1_28  and  C20_31 
ROOT
HETATM    1  C6  UNL     1      -3.532   2.157   9.202  1.00  0.00     0.160 C 
ENDROOT
BRANCH   1   2
HETATM    2  C5  UNL     1      -3.934   2.926   8.001  1.00  0.00     0.174 C 
BRANCH   2   3
HETATM    3  N1  UNL     1      -5.069   3.764   8.080  1.00  0.00    -0.283 N 
BRANCH   3   4
HETATM    4  C4  UNL     1      -6.286   3.252   7.594  1.00  0.00     0.080 C 
BRANCH   4   5
HETATM    5  C2  UNL     1      -7.342   2.957   8.627  1.00  0.00     0.017 C 
HETATM    6  C1  UNL     1      -6.925   3.147  10.044  1.00  0.00     0.015 C 
HETATM    7  C3  UNL     1      -7.980   1.597   8.389  1.00  0.00     0.015 C 
ENDBRANCH   4   5
ENDBRANCH   3   4
BRANCH   3   8
HETATM    8  S1  UNL     1      -4.808   5.377   7.685  1.00  0.00     0.264 S 
HETATM    9  O5  UNL     1      -5.640   6.284   8.559  1.00  0.00    -0.200 OA
HETATM   10  O6  UNL     1      -3.352   5.750   8.021  1.00  0.00    -0.200 OA
BRANCH   8  11
HETATM   11  C20 UNL     1      -5.090   5.801   6.011  1.00  0.00     0.080 A 
HETATM   12  C21 UNL     1      -4.106   5.810   5.050  1.00  0.00     0.027 A 
HETATM   13  C22 UNL     1      -4.391   6.143   3.728  1.00  0.00     0.028 A 
HETATM   14  C23 UNL     1      -5.666   6.476   3.320  1.00  0.00     0.046 A 
HETATM   15  N3  UNL     1      -5.933   6.812   1.962  1.00  0.00    -0.102 NA
HETATM   16  C24 UNL     1      -6.655   6.467   4.281  1.00  0.00     0.028 A 
HETATM   17  C25 UNL     1      -6.378   6.139   5.589  1.00  0.00     0.027 A 
ENDBRANCH   8  11
ENDBRANCH   3   8
ENDBRANCH   2   3
ENDBRANCH   1   2
BRANCH   1  18
HETATM   18  O1  UNL     1      -2.653   1.116   8.971  1.00  0.00    -0.392 OA
ATOM     19  H1  UNL     1      -2.670   0.418   9.616  1.00  0.00     0.210 HD
ENDBRANCH   1  18
BRANCH   1  20
HETATM   20  C7  UNL     1      -2.865   3.064  10.257  1.00  0.00     0.121 C 
BRANCH  20  21
HETATM   21  C8  UNL     1      -1.521   3.477   9.713  1.00  0.00     0.066 C 
BRANCH  21  22
HETATM   22  C9  UNL     1      -0.701   4.162  10.758  1.00  0.00    -0.056 A 
HETATM   23  C10 UNL     1      -1.186   5.258  11.431  1.00  0.00     0.007 A 
HETATM   24  C11 UNL     1      -0.416   5.898  12.407  1.00  0.00     0.001 A 
HETATM   25  C12 UNL     1       0.838   5.419  12.693  1.00  0.00     0.000 A 
HETATM   26  C13 UNL     1       1.344   4.330  12.038  1.00  0.00     0.001 A 
HETATM   27  C14 UNL     1       0.562   3.715  11.076  1.00  0.00     0.007 A 
ENDBRANCH  21  22
ENDBRANCH  20  21
BRANCH  20  28
HETATM   28  N2  UNL     1      -2.566   2.140  11.365  1.00  0.00    -0.329 N 
HETATM   29  C15 UNL     1      -3.125   2.339  12.642  1.00  0.00     0.361 C 
HETATM   30  O2  UNL     1      -3.881   3.335  12.796  1.00  0.00    -0.238 OA
ATOM     31  H2  UNL     1      -1.946   1.346  11.205  1.00  0.00     0.165 HD
BRANCH  29  32
HETATM   32  O3  UNL     1      -2.885   1.498  13.732  1.00  0.00    -0.296 OA
BRANCH  32  33
HETATM   33  C16 UNL     1      -3.385   1.834  15.022  1.00  0.00     0.159 C 
HETATM   34  C17 UNL     1      -4.374   0.795  15.514  1.00  0.00     0.061 C 
HETATM   35  C18 UNL     1      -3.637   0.079  16.613  1.00  0.00     0.170 C 
HETATM   36  O4  UNL     1      -2.864   1.115  17.159  1.00  0.00    -0.389 OA
HETATM   37  C19 UNL     1      -2.264   1.688  16.023  1.00  0.00     0.200 C 
ENDBRANCH  32  33
ENDBRANCH  29  32
ENDBRANCH  20  28
ENDBRANCH   1  20
TORSDOF 13
ENDMDL
