MODEL 4
REMARK VINA RESULT: -8.794722965      2.066      4.911
REMARK  13 active torsions:
REMARK  status: ('A' for Active; 'I' for Inactive)
REMARK    1  A    between atoms: C2_2  and  C4_4 
REMARK    2  A    between atoms: C4_4  and  N1_5 
REMARK    3  A    between atoms: N1_5  and  C5_6 
REMARK    4  A    between atoms: N1_5  and  S1_28 
REMARK    5  A    between atoms: C5_6  and  C6_7 
REMARK    6  A    between atoms: C6_7  and  O1_8 
REMARK    7  A    between atoms: C6_7  and  C7_10 
REMARK    8  A    between atoms: C7_10  and  C8_11 
REMARK    9  A    between atoms: C7_10  and  N2_18 
REMARK   10  A    between atoms: C8_11  and  C9_12 
REMARK       I    between atoms: N2_18  and  C15_20 
REMARK   11  A    between atoms: C15_20  and  O3_22 
REMARK   12  A    between atoms: O3_22  and  C16_23 
REMARK   13  A    between atoms: S1_28  and  C20_31 
ROOT
HETATM    1  C6  UNL     1      -3.515   2.113   9.254  1.00  0.00     0.160 C 
ENDROOT
BRANCH   1   2
HETATM    2  C5  UNL     1      -3.965   2.878   8.068  1.00  0.00     0.174 C 
BRANCH   2   3
HETATM    3  N1  UNL     1      -5.066   3.754   8.203  1.00  0.00    -0.283 N 
BRANCH   3   4
HETATM    4  C4  UNL     1      -6.328   3.275   7.806  1.00  0.00     0.080 C 
BRANCH   4   5
HETATM    5  C2  UNL     1      -6.976   2.272   8.725  1.00  0.00     0.017 C 
HETATM    6  C1  UNL     1      -8.088   1.481   8.129  1.00  0.00     0.015 C 
HETATM    7  C3  UNL     1      -7.363   2.909  10.050  1.00  0.00     0.015 C 
ENDBRANCH   4   5
ENDBRANCH   3   4
BRANCH   3   8
HETATM    8  S1  UNL     1      -4.780   5.352   7.761  1.00  0.00     0.264 S 
HETATM    9  O5  UNL     1      -5.551   6.298   8.648  1.00  0.00    -0.200 OA
HETATM   10  O6  UNL     1      -3.302   5.692   8.028  1.00  0.00    -0.200 OA
BRANCH   8  11
HETATM   11  C20 UNL     1      -5.122   5.746   6.092  1.00  0.00     0.080 A 
HETATM   12  C21 UNL     1      -6.390   5.954   5.600  1.00  0.00     0.027 A 
HETATM   13  C22 UNL     1      -6.601   6.280   4.263  1.00  0.00     0.028 A 
HETATM   14  C23 UNL     1      -5.556   6.410   3.371  1.00  0.00     0.046 A 
HETATM   15  N3  UNL     1      -5.797   6.743   2.007  1.00  0.00    -0.102 NA
HETATM   16  C24 UNL     1      -4.284   6.202   3.860  1.00  0.00     0.028 A 
HETATM   17  C25 UNL     1      -4.069   5.880   5.182  1.00  0.00     0.027 A 
ENDBRANCH   8  11
ENDBRANCH   3   8
ENDBRANCH   2   3
ENDBRANCH   1   2
BRANCH   1  18
HETATM   18  O1  UNL     1      -2.610   1.100   8.997  1.00  0.00    -0.392 OA
ATOM     19  H1  UNL     1      -1.940   0.976   9.658  1.00  0.00     0.210 HD
ENDBRANCH   1  18
BRANCH   1  20
HETATM   20  C7  UNL     1      -2.852   3.033  10.302  1.00  0.00     0.121 C 
BRANCH  20  21
HETATM   21  C8  UNL     1      -1.503   3.434   9.761  1.00  0.00     0.066 C 
BRANCH  21  22
HETATM   22  C9  UNL     1      -0.696   4.150  10.795  1.00  0.00    -0.056 A 
HETATM   23  C10 UNL     1      -1.199   5.253  11.445  1.00  0.00     0.007 A 
HETATM   24  C11 UNL     1      -0.441   5.922  12.412  1.00  0.00     0.001 A 
HETATM   25  C12 UNL     1       0.818   5.465  12.711  1.00  0.00     0.000 A 
HETATM   26  C13 UNL     1       1.341   4.371  12.079  1.00  0.00     0.001 A 
HETATM   27  C14 UNL     1       0.571   3.726  11.126  1.00  0.00     0.007 A 
ENDBRANCH  21  22
ENDBRANCH  20  21
BRANCH  20  28
HETATM   28  N2  UNL     1      -2.564   2.123  11.424  1.00  0.00    -0.329 N 
HETATM   29  C15 UNL     1      -3.111   2.355  12.700  1.00  0.00     0.361 C 
HETATM   30  O2  UNL     1      -3.848   3.367  12.841  1.00  0.00    -0.238 OA
ATOM     31  H2  UNL     1      -1.959   1.315  11.274  1.00  0.00     0.165 HD
BRANCH  29  32
HETATM   32  O3  UNL     1      -2.880   1.528  13.803  1.00  0.00    -0.296 OA
BRANCH  32  33
HETATM   33  C16 UNL     1      -3.400   1.876  15.083  1.00  0.00     0.159 C 
HETATM   34  C17 UNL     1      -4.640   1.067  15.409  1.00  0.00     0.061 C 
HETATM   35  C18 UNL     1      -4.185   0.117  16.484  1.00  0.00     0.170 C 
HETATM   36  O4  UNL     1      -3.245   0.898  17.174  1.00  0.00    -0.389 OA
HETATM   37  C19 UNL     1      -2.433   1.395  16.138  1.00  0.00     0.200 C 
ENDBRANCH  32  33
ENDBRANCH  29  32
ENDBRANCH  20  28
ENDBRANCH   1  20
TORSDOF 13
ENDMDL
