MODEL 3
REMARK VINA RESULT: -8.816445796      2.225      5.029
REMARK  13 active torsions:
REMARK  status: ('A' for Active; 'I' for Inactive)
REMARK    1  A    between atoms: C2_2  and  C4_4 
REMARK    2  A    between atoms: C4_4  and  N1_5 
REMARK    3  A    between atoms: N1_5  and  C5_6 
REMARK    4  A    between atoms: N1_5  and  S1_28 
REMARK    5  A    between atoms: C5_6  and  C6_7 
REMARK    6  A    between atoms: C6_7  and  O1_8 
REMARK    7  A    between atoms: C6_7  and  C7_10 
REMARK    8  A    between atoms: C7_10  and  C8_11 
REMARK    9  A    between atoms: C7_10  and  N2_18 
REMARK   10  A    between atoms: C8_11  and  C9_12 
REMARK       I    between atoms: N2_18  and  C15_20 
REMARK   11  A    between atoms: C15_20  and  O3_22 
REMARK   12  A    between atoms: O3_22  and  C16_23 
REMARK   13  A    between atoms: S1_28  and  C20_31 
ROOT
HETATM    1  C6  UNL     1      -5.165   2.654  10.770  1.00  0.00     0.160 C 
ENDROOT
BRANCH   1   2
HETATM    2  C5  UNL     1      -5.578   3.900  10.084  1.00  0.00     0.174 C 
BRANCH   2   3
HETATM    3  N1  UNL     1      -5.752   3.877   8.681  1.00  0.00    -0.283 N 
BRANCH   3   4
HETATM    4  C4  UNL     1      -6.525   2.832   8.142  1.00  0.00     0.080 C 
BRANCH   4   5
HETATM    5  C2  UNL     1      -8.014   2.932   8.350  1.00  0.00     0.017 C 
HETATM    6  C1  UNL     1      -8.605   1.909   9.256  1.00  0.00     0.015 C 
HETATM    7  C3  UNL     1      -8.750   3.026   7.023  1.00  0.00     0.015 C 
ENDBRANCH   4   5
ENDBRANCH   3   4
BRANCH   3   8
HETATM    8  S1  UNL     1      -4.385   4.244   7.774  1.00  0.00     0.264 S 
HETATM    9  O5  UNL     1      -3.453   5.142   8.550  1.00  0.00    -0.200 OA
HETATM   10  O6  UNL     1      -3.573   2.956   7.542  1.00  0.00    -0.200 OA
BRANCH   8  11
HETATM   11  C20 UNL     1      -4.687   4.968   6.211  1.00  0.00     0.080 A 
HETATM   12  C21 UNL     1      -5.880   4.854   5.535  1.00  0.00     0.027 A 
HETATM   13  C22 UNL     1      -6.069   5.465   4.298  1.00  0.00     0.028 A 
HETATM   14  C23 UNL     1      -5.077   6.209   3.693  1.00  0.00     0.046 A 
HETATM   15  N3  UNL     1      -5.294   6.824   2.427  1.00  0.00    -0.102 NA
HETATM   16  C24 UNL     1      -3.880   6.325   4.368  1.00  0.00     0.028 A 
HETATM   17  C25 UNL     1      -3.688   5.723   5.592  1.00  0.00     0.027 A 
ENDBRANCH   8  11
ENDBRANCH   3   8
ENDBRANCH   2   3
ENDBRANCH   1   2
BRANCH   1  18
HETATM   18  O1  UNL     1      -4.779   1.620   9.939  1.00  0.00    -0.392 OA
ATOM     19  H1  UNL     1      -5.482   1.202   9.456  1.00  0.00     0.210 HD
ENDBRANCH   1  18
BRANCH   1  20
HETATM   20  C7  UNL     1      -3.985   2.903  11.733  1.00  0.00     0.121 C 
BRANCH  20  21
HETATM   21  C8  UNL     1      -2.722   2.507  11.010  1.00  0.00     0.066 C 
BRANCH  21  22
HETATM   22  C9  UNL     1      -1.702   3.598  11.064  1.00  0.00    -0.056 A 
HETATM   23  C10 UNL     1      -1.769   4.581  12.023  1.00  0.00     0.007 A 
HETATM   24  C11 UNL     1      -0.813   5.601  12.071  1.00  0.00     0.001 A 
HETATM   25  C12 UNL     1       0.201   5.613  11.147  1.00  0.00     0.000 A 
HETATM   26  C13 UNL     1       0.290   4.647  10.183  1.00  0.00     0.001 A 
HETATM   27  C14 UNL     1      -0.668   3.648  10.157  1.00  0.00     0.007 A 
ENDBRANCH  21  22
ENDBRANCH  20  21
BRANCH  20  28
HETATM   28  N2  UNL     1      -4.170   1.880  12.776  1.00  0.00    -0.329 N 
HETATM   29  C15 UNL     1      -4.149   2.227  14.140  1.00  0.00     0.361 C 
HETATM   30  O2  UNL     1      -3.963   3.440  14.427  1.00  0.00    -0.238 OA
ATOM     31  H2  UNL     1      -4.314   0.907  12.506  1.00  0.00     0.165 HD
BRANCH  29  32
HETATM   32  O3  UNL     1      -4.323   1.306  15.177  1.00  0.00    -0.296 OA
BRANCH  32  33
HETATM   33  C16 UNL     1      -3.287   0.383  15.498  1.00  0.00     0.159 C 
HETATM   34  C17 UNL     1      -1.935   1.067  15.539  1.00  0.00     0.061 C 
HETATM   35  C18 UNL     1      -1.583   1.095  17.001  1.00  0.00     0.170 C 
HETATM   36  O4  UNL     1      -2.151  -0.106  17.453  1.00  0.00    -0.389 OA
HETATM   37  C19 UNL     1      -3.458  -0.046  16.936  1.00  0.00     0.200 C 
ENDBRANCH  32  33
ENDBRANCH  29  32
ENDBRANCH  20  28
ENDBRANCH   1  20
TORSDOF 13
ENDMDL
