MODEL 1
REMARK VINA RESULT: -8.970857638      0.000      0.000
REMARK  13 active torsions:
REMARK  status: ('A' for Active; 'I' for Inactive)
REMARK    1  A    between atoms: C2_2  and  C4_4 
REMARK    2  A    between atoms: C4_4  and  N1_5 
REMARK    3  A    between atoms: N1_5  and  C5_6 
REMARK    4  A    between atoms: N1_5  and  S1_28 
REMARK    5  A    between atoms: C5_6  and  C6_7 
REMARK    6  A    between atoms: C6_7  and  O1_8 
REMARK    7  A    between atoms: C6_7  and  C7_10 
REMARK    8  A    between atoms: C7_10  and  C8_11 
REMARK    9  A    between atoms: C7_10  and  N2_18 
REMARK   10  A    between atoms: C8_11  and  C9_12 
REMARK       I    between atoms: N2_18  and  C15_20 
REMARK   11  A    between atoms: C15_20  and  O3_22 
REMARK   12  A    between atoms: O3_22  and  C16_23 
REMARK   13  A    between atoms: S1_28  and  C20_31 
ROOT
HETATM    1  C6  UNL     1      -3.192   2.000  12.170  1.00  0.00     0.160 C 
ENDROOT
BRANCH   1   2
HETATM    2  C5  UNL     1      -4.404   2.851  12.222  1.00  0.00     0.174 C 
BRANCH   2   3
HETATM    3  N1  UNL     1      -4.970   3.302  11.008  1.00  0.00    -0.283 N 
BRANCH   3   4
HETATM    4  C4  UNL     1      -5.140   2.354   9.982  1.00  0.00     0.080 C 
BRANCH   4   5
HETATM    5  C2  UNL     1      -6.547   1.869   9.753  1.00  0.00     0.017 C 
HETATM    6  C1  UNL     1      -6.841   1.375   8.379  1.00  0.00     0.015 C 
HETATM    7  C3  UNL     1      -7.566   2.890  10.233  1.00  0.00     0.015 C 
ENDBRANCH   4   5
ENDBRANCH   3   4
BRANCH   3   8
HETATM    8  S1  UNL     1      -4.424   4.797  10.464  1.00  0.00     0.264 S 
HETATM    9  O5  UNL     1      -5.149   5.919  11.166  1.00  0.00    -0.200 OA
HETATM   10  O6  UNL     1      -2.950   4.975  10.874  1.00  0.00    -0.200 OA
BRANCH   8  11
HETATM   11  C20 UNL     1      -4.529   5.057   8.738  1.00  0.00     0.080 A 
HETATM   12  C21 UNL     1      -5.670   5.484   8.098  1.00  0.00     0.027 A 
HETATM   13  C22 UNL     1      -5.691   5.688   6.720  1.00  0.00     0.028 A 
HETATM   14  C23 UNL     1      -4.578   5.474   5.935  1.00  0.00     0.046 A 
HETATM   15  N3  UNL     1      -4.624   5.688   4.528  1.00  0.00    -0.102 NA
HETATM   16  C24 UNL     1      -3.433   5.045   6.573  1.00  0.00     0.028 A 
HETATM   17  C25 UNL     1      -3.406   4.842   7.935  1.00  0.00     0.027 A 
ENDBRANCH   8  11
ENDBRANCH   3   8
ENDBRANCH   2   3
ENDBRANCH   1   2
BRANCH   1  18
HETATM   18  O1  UNL     1      -2.340   2.247  11.111  1.00  0.00    -0.392 OA
ATOM     19  H1  UNL     1      -2.206   1.517  10.518  1.00  0.00     0.210 HD
ENDBRANCH   1  18
BRANCH   1  20
HETATM   20  C7  UNL     1      -2.346   2.144  13.453  1.00  0.00     0.121 C 
BRANCH  20  21
HETATM   21  C8  UNL     1      -3.294   2.436  14.588  1.00  0.00     0.066 C 
BRANCH  21  22
HETATM   22  C9  UNL     1      -2.927   1.662  15.813  1.00  0.00    -0.056 A 
HETATM   23  C10 UNL     1      -3.641   0.547  16.184  1.00  0.00     0.007 A 
HETATM   24  C11 UNL     1      -3.297  -0.176  17.331  1.00  0.00     0.001 A 
HETATM   25  C12 UNL     1      -2.231   0.240  18.090  1.00  0.00     0.000 A 
HETATM   26  C13 UNL     1      -1.505   1.346  17.744  1.00  0.00     0.001 A 
HETATM   27  C14 UNL     1      -1.866   2.043  16.603  1.00  0.00     0.007 A 
ENDBRANCH  21  22
ENDBRANCH  20  21
BRANCH  20  28
HETATM   28  N2  UNL     1      -1.605   3.398  13.237  1.00  0.00    -0.329 N 
HETATM   29  C15 UNL     1      -0.236   3.492  13.553  1.00  0.00     0.361 C 
HETATM   30  O2  UNL     1       0.321   2.467  14.029  1.00  0.00    -0.238 OA
ATOM     31  H2  UNL     1      -2.090   4.209  12.853  1.00  0.00     0.165 HD
BRANCH  29  32
HETATM   32  O3  UNL     1       0.524   4.650  13.367  1.00  0.00    -0.296 OA
BRANCH  32  33
HETATM   33  C16 UNL     1       1.194   4.879  12.131  1.00  0.00     0.159 C 
HETATM   34  C17 UNL     1       1.166   3.642  11.254  1.00  0.00     0.061 C 
HETATM   35  C18 UNL     1       0.210   3.999  10.149  1.00  0.00     0.170 C 
HETATM   36  O4  UNL     1       0.452   5.373   9.996  1.00  0.00    -0.389 OA
HETATM   37  C19 UNL     1       0.374   5.851  11.317  1.00  0.00     0.200 C 
ENDBRANCH  32  33
ENDBRANCH  29  32
ENDBRANCH  20  28
ENDBRANCH   1  20
TORSDOF 13
ENDMDL
