MODEL 2
REMARK VINA RESULT: -8.841173693      2.770      8.368
REMARK  13 active torsions:
REMARK  status: ('A' for Active; 'I' for Inactive)
REMARK    1  A    between atoms: C2_2  and  C4_4 
REMARK    2  A    between atoms: C4_4  and  N1_5 
REMARK    3  A    between atoms: N1_5  and  C5_6 
REMARK    4  A    between atoms: N1_5  and  S1_28 
REMARK    5  A    between atoms: C5_6  and  C6_7 
REMARK    6  A    between atoms: C6_7  and  O1_8 
REMARK    7  A    between atoms: C6_7  and  C7_10 
REMARK    8  A    between atoms: C7_10  and  C8_11 
REMARK    9  A    between atoms: C7_10  and  N2_18 
REMARK   10  A    between atoms: C8_11  and  C9_12 
REMARK       I    between atoms: N2_18  and  C15_20 
REMARK   11  A    between atoms: C15_20  and  O3_22 
REMARK   12  A    between atoms: O3_22  and  C16_23 
REMARK   13  A    between atoms: S1_28  and  C20_31 
ROOT
HETATM    1  C6  UNL     1      -2.946   4.645   9.212  1.00  0.00     0.160 C 
ENDROOT
BRANCH   1   2
HETATM    2  C5  UNL     1      -3.144   4.850  10.666  1.00  0.00     0.174 C 
BRANCH   2   3
HETATM    3  N1  UNL     1      -2.505   3.970  11.569  1.00  0.00    -0.283 N 
BRANCH   3   4
HETATM    4  C4  UNL     1      -1.112   3.812  11.444  1.00  0.00     0.080 C 
BRANCH   4   5
HETATM    5  C2  UNL     1      -0.280   5.042  11.693  1.00  0.00     0.017 C 
HETATM    6  C1  UNL     1       0.557   5.494  10.548  1.00  0.00     0.015 C 
HETATM    7  C3  UNL     1       0.520   4.914  12.980  1.00  0.00     0.015 C 
ENDBRANCH   4   5
ENDBRANCH   3   4
BRANCH   3   8
HETATM    8  S1  UNL     1      -3.322   2.534  11.884  1.00  0.00     0.264 S 
HETATM    9  O5  UNL     1      -4.811   2.720  11.728  1.00  0.00    -0.200 OA
HETATM   10  O6  UNL     1      -2.949   1.495  10.810  1.00  0.00    -0.200 OA
BRANCH   8  11
HETATM   11  C20 UNL     1      -3.009   1.814  13.447  1.00  0.00     0.080 A 
HETATM   12  C21 UNL     1      -1.805   1.911  14.105  1.00  0.00     0.027 A 
HETATM   13  C22 UNL     1      -1.617   1.329  15.356  1.00  0.00     0.028 A 
HETATM   14  C23 UNL     1      -2.623   0.632  15.994  1.00  0.00     0.046 A 
HETATM   15  N3  UNL     1      -2.406   0.045  17.273  1.00  0.00    -0.102 NA
HETATM   16  C24 UNL     1      -3.831   0.533  15.337  1.00  0.00     0.028 A 
HETATM   17  C25 UNL     1      -4.022   1.107  14.100  1.00  0.00     0.027 A 
ENDBRANCH   8  11
ENDBRANCH   3   8
ENDBRANCH   2   3
ENDBRANCH   1   2
BRANCH   1  18
HETATM   18  O1  UNL     1      -2.275   3.489   8.863  1.00  0.00    -0.392 OA
ATOM     19  H1  UNL     1      -2.282   3.278   7.937  1.00  0.00     0.210 HD
ENDBRANCH   1  18
BRANCH   1  20
HETATM   20  C7  UNL     1      -4.292   4.613   8.458  1.00  0.00     0.121 C 
BRANCH  20  21
HETATM   21  C8  UNL     1      -4.599   3.171   8.145  1.00  0.00     0.066 C 
BRANCH  21  22
HETATM   22  C9  UNL     1      -5.998   2.818   8.536  1.00  0.00    -0.056 A 
HETATM   23  C10 UNL     1      -6.822   3.747   9.126  1.00  0.00     0.007 A 
HETATM   24  C11 UNL     1      -8.131   3.415   9.491  1.00  0.00     0.001 A 
HETATM   25  C12 UNL     1      -8.591   2.144   9.253  1.00  0.00     0.000 A 
HETATM   26  C13 UNL     1      -7.791   1.201   8.667  1.00  0.00     0.001 A 
HETATM   27  C14 UNL     1      -6.500   1.556   8.315  1.00  0.00     0.007 A 
ENDBRANCH  21  22
ENDBRANCH  20  21
BRANCH  20  28
HETATM   28  N2  UNL     1      -3.971   5.229   7.159  1.00  0.00    -0.329 N 
HETATM   29  C15 UNL     1      -4.764   6.270   6.638  1.00  0.00     0.361 C 
HETATM   30  O2  UNL     1      -5.753   6.645   7.324  1.00  0.00    -0.238 OA
ATOM     31  H2  UNL     1      -3.165   4.898   6.629  1.00  0.00     0.165 HD
BRANCH  29  32
HETATM   32  O3  UNL     1      -4.512   6.899   5.416  1.00  0.00    -0.296 OA
BRANCH  32  33
HETATM   33  C16 UNL     1      -4.692   6.191   4.193  1.00  0.00     0.159 C 
HETATM   34  C17 UNL     1      -6.137   5.773   4.009  1.00  0.00     0.061 C 
HETATM   35  C18 UNL     1      -6.638   6.664   2.905  1.00  0.00     0.170 C 
HETATM   36  O4  UNL     1      -5.490   6.805   2.110  1.00  0.00    -0.389 OA
HETATM   37  C19 UNL     1      -4.503   7.158   3.049  1.00  0.00     0.200 C 
ENDBRANCH  32  33
ENDBRANCH  29  32
ENDBRANCH  20  28
ENDBRANCH   1  20
TORSDOF 13
ENDMDL
