MODEL 13
REMARK VINA RESULT: -8.489912318      2.393      5.366
REMARK  13 active torsions:
REMARK  status: ('A' for Active; 'I' for Inactive)
REMARK    1  A    between atoms: C2_2  and  C4_4 
REMARK    2  A    between atoms: C4_4  and  N1_5 
REMARK    3  A    between atoms: N1_5  and  C5_6 
REMARK    4  A    between atoms: N1_5  and  S1_28 
REMARK    5  A    between atoms: C5_6  and  C6_7 
REMARK    6  A    between atoms: C6_7  and  O1_8 
REMARK    7  A    between atoms: C6_7  and  C7_10 
REMARK    8  A    between atoms: C7_10  and  C8_11 
REMARK    9  A    between atoms: C7_10  and  N2_18 
REMARK   10  A    between atoms: C8_11  and  C9_12 
REMARK       I    between atoms: N2_18  and  C15_20 
REMARK   11  A    between atoms: C15_20  and  O3_22 
REMARK   12  A    between atoms: O3_22  and  C16_23 
REMARK   13  A    between atoms: S1_28  and  C20_31 
ROOT
HETATM    1  C6  UNL     1      -4.877   2.696   9.914  1.00  0.00     0.160 C 
ENDROOT
BRANCH   1   2
HETATM    2  C5  UNL     1      -5.651   3.893   9.511  1.00  0.00     0.174 C 
BRANCH   2   3
HETATM    3  N1  UNL     1      -5.984   4.059   8.148  1.00  0.00    -0.283 N 
BRANCH   3   4
HETATM    4  C4  UNL     1      -6.709   3.024   7.528  1.00  0.00     0.080 C 
BRANCH   4   5
HETATM    5  C2  UNL     1      -8.172   2.938   7.875  1.00  0.00     0.017 C 
HETATM    6  C1  UNL     1      -8.568   1.762   8.697  1.00  0.00     0.015 C 
HETATM    7  C3  UNL     1      -9.041   3.100   6.638  1.00  0.00     0.015 C 
ENDBRANCH   4   5
ENDBRANCH   3   4
BRANCH   3   8
HETATM    8  S1  UNL     1      -4.775   4.712   7.178  1.00  0.00     0.264 S 
HETATM    9  O5  UNL     1      -3.922   5.678   7.964  1.00  0.00    -0.200 OA
HETATM   10  O6  UNL     1      -3.803   3.592   6.762  1.00  0.00    -0.200 OA
BRANCH   8  11
HETATM   11  C20 UNL     1      -5.322   5.507   5.720  1.00  0.00     0.080 A 
HETATM   12  C21 UNL     1      -6.628   5.881   5.499  1.00  0.00     0.027 A 
HETATM   13  C22 UNL     1      -7.004   6.525   4.322  1.00  0.00     0.028 A 
HETATM   14  C23 UNL     1      -6.093   6.819   3.329  1.00  0.00     0.046 A 
HETATM   15  N3  UNL     1      -6.503   7.477   2.134  1.00  0.00    -0.102 NA
HETATM   16  C24 UNL     1      -4.784   6.446   3.548  1.00  0.00     0.028 A 
HETATM   17  C25 UNL     1      -4.406   5.809   4.709  1.00  0.00     0.027 A 
ENDBRANCH   8  11
ENDBRANCH   3   8
ENDBRANCH   2   3
ENDBRANCH   1   2
BRANCH   1  18
HETATM   18  O1  UNL     1      -4.465   1.880   8.877  1.00  0.00    -0.392 OA
ATOM     19  H1  UNL     1      -4.446   0.951   9.073  1.00  0.00     0.210 HD
ENDBRANCH   1  18
BRANCH   1  20
HETATM   20  C7  UNL     1      -3.603   3.083  10.696  1.00  0.00     0.121 C 
BRANCH  20  21
HETATM   21  C8  UNL     1      -2.436   2.944   9.753  1.00  0.00     0.066 C 
BRANCH  21  22
HETATM   22  C9  UNL     1      -1.322   3.867  10.130  1.00  0.00    -0.056 A 
HETATM   23  C10 UNL     1      -1.575   5.168  10.492  1.00  0.00     0.007 A 
HETATM   24  C11 UNL     1      -0.532   6.031  10.843  1.00  0.00     0.001 A 
HETATM   25  C12 UNL     1       0.759   5.563  10.825  1.00  0.00     0.000 A 
HETATM   26  C13 UNL     1       1.038   4.272  10.468  1.00  0.00     0.001 A 
HETATM   27  C14 UNL     1      -0.013   3.439  10.125  1.00  0.00     0.007 A 
ENDBRANCH  21  22
ENDBRANCH  20  21
BRANCH  20  28
HETATM   28  N2  UNL     1      -3.449   1.985  11.666  1.00  0.00    -0.329 N 
HETATM   29  C15 UNL     1      -3.359   2.248  13.046  1.00  0.00     0.361 C 
HETATM   30  O2  UNL     1      -3.411   3.452  13.411  1.00  0.00    -0.238 OA
ATOM     31  H2  UNL     1      -3.407   1.021  11.333  1.00  0.00     0.165 HD
BRANCH  29  32
HETATM   32  O3  UNL     1      -3.217   1.252  14.016  1.00  0.00    -0.296 OA
BRANCH  32  33
HETATM   33  C16 UNL     1      -3.378   1.565  15.396  1.00  0.00     0.159 C 
HETATM   34  C17 UNL     1      -4.619   0.906  15.967  1.00  0.00     0.061 C 
HETATM   35  C18 UNL     1      -4.079  -0.176  16.862  1.00  0.00     0.170 C 
HETATM   36  O4  UNL     1      -2.903   0.417  17.347  1.00  0.00    -0.389 OA
HETATM   37  C19 UNL     1      -2.281   0.880  16.173  1.00  0.00     0.200 C 
ENDBRANCH  32  33
ENDBRANCH  29  32
ENDBRANCH  20  28
ENDBRANCH   1  20
TORSDOF 13
ENDMDL
