MODEL 6
REMARK VINA RESULT: -8.684970624      3.799     10.235
REMARK  13 active torsions:
REMARK  status: ('A' for Active; 'I' for Inactive)
REMARK    1  A    between atoms: C2_2  and  C4_4 
REMARK    2  A    between atoms: C4_4  and  N1_5 
REMARK    3  A    between atoms: N1_5  and  C5_6 
REMARK    4  A    between atoms: N1_5  and  S1_28 
REMARK    5  A    between atoms: C5_6  and  C6_7 
REMARK    6  A    between atoms: C6_7  and  O1_8 
REMARK    7  A    between atoms: C6_7  and  C7_10 
REMARK    8  A    between atoms: C7_10  and  C8_11 
REMARK    9  A    between atoms: C7_10  and  N2_18 
REMARK   10  A    between atoms: C8_11  and  C9_12 
REMARK       I    between atoms: N2_18  and  C15_20 
REMARK   11  A    between atoms: C15_20  and  O3_22 
REMARK   12  A    between atoms: O3_22  and  C16_23 
REMARK   13  A    between atoms: S1_28  and  C20_31 
ROOT
HETATM    1  C6  UNL     1      -4.978   3.888   7.311  1.00  0.00     0.160 C 
ENDROOT
BRANCH   1   2
HETATM    2  C5  UNL     1      -4.631   4.966   8.266  1.00  0.00     0.174 C 
BRANCH   2   3
HETATM    3  N1  UNL     1      -3.865   4.641   9.408  1.00  0.00    -0.283 N 
BRANCH   3   4
HETATM    4  C4  UNL     1      -2.818   3.715   9.244  1.00  0.00     0.080 C 
BRANCH   4   5
HETATM    5  C2  UNL     1      -1.421   4.271   9.321  1.00  0.00     0.017 C 
HETATM    6  C1  UNL     1      -0.395   3.354   9.887  1.00  0.00     0.015 C 
HETATM    7  C3  UNL     1      -1.408   5.637   9.989  1.00  0.00     0.015 C 
ENDBRANCH   4   5
ENDBRANCH   3   4
BRANCH   3   8
HETATM    8  S1  UNL     1      -4.736   4.431  10.831  1.00  0.00     0.264 S 
HETATM    9  O5  UNL     1      -5.057   5.762  11.464  1.00  0.00    -0.200 OA
HETATM   10  O6  UNL     1      -6.111   3.823  10.495  1.00  0.00    -0.200 OA
BRANCH   8  11
HETATM   11  C20 UNL     1      -3.984   3.406  12.033  1.00  0.00     0.080 A 
HETATM   12  C21 UNL     1      -2.840   3.746  12.718  1.00  0.00     0.027 A 
HETATM   13  C22 UNL     1      -2.293   2.895  13.676  1.00  0.00     0.028 A 
HETATM   14  C23 UNL     1      -2.868   1.679  13.983  1.00  0.00     0.046 A 
HETATM   15  N3  UNL     1      -2.289   0.826  14.966  1.00  0.00    -0.102 NA
HETATM   16  C24 UNL     1      -4.014   1.336  13.299  1.00  0.00     0.028 A 
HETATM   17  C25 UNL     1      -4.560   2.173  12.351  1.00  0.00     0.027 A 
ENDBRANCH   8  11
ENDBRANCH   3   8
ENDBRANCH   2   3
ENDBRANCH   1   2
BRANCH   1  18
HETATM   18  O1  UNL     1      -5.801   2.897   7.810  1.00  0.00    -0.392 OA
ATOM     19  H1  UNL     1      -6.482   2.598   7.220  1.00  0.00     0.210 HD
ENDBRANCH   1  18
BRANCH   1  20
HETATM   20  C7  UNL     1      -5.682   4.449   6.057  1.00  0.00     0.121 C 
BRANCH  20  21
HETATM   21  C8  UNL     1      -5.554   5.950   6.102  1.00  0.00     0.066 C 
BRANCH  21  22
HETATM   22  C9  UNL     1      -5.833   6.558   4.765  1.00  0.00    -0.056 A 
HETATM   23  C10 UNL     1      -4.883   6.545   3.771  1.00  0.00     0.007 A 
HETATM   24  C11 UNL     1      -5.146   7.115   2.521  1.00  0.00     0.001 A 
HETATM   25  C12 UNL     1      -6.369   7.692   2.292  1.00  0.00     0.000 A 
HETATM   26  C13 UNL     1      -7.332   7.718   3.264  1.00  0.00     0.001 A 
HETATM   27  C14 UNL     1      -7.047   7.147   4.492  1.00  0.00     0.007 A 
ENDBRANCH  21  22
ENDBRANCH  20  21
BRANCH  20  28
HETATM   28  N2  UNL     1      -7.107   4.176   6.313  1.00  0.00    -0.329 N 
HETATM   29  C15 UNL     1      -7.957   3.744   5.277  1.00  0.00     0.361 C 
HETATM   30  O2  UNL     1      -7.451   3.607   4.131  1.00  0.00    -0.238 OA
ATOM     31  H2  UNL     1      -7.483   4.301   7.253  1.00  0.00     0.165 HD
BRANCH  29  32
HETATM   32  O3  UNL     1      -9.314   3.463   5.455  1.00  0.00    -0.296 OA
BRANCH  32  33
HETATM   33  C16 UNL     1     -10.249   4.522   5.636  1.00  0.00     0.159 C 
HETATM   34  C17 UNL     1     -10.186   5.512   4.489  1.00  0.00     0.061 C 
HETATM   35  C18 UNL     1     -11.465   5.276   3.732  1.00  0.00     0.170 C 
HETATM   36  O4  UNL     1     -12.351   4.945   4.768  1.00  0.00    -0.389 OA
HETATM   37  C19 UNL     1     -11.642   3.962   5.482  1.00  0.00     0.200 C 
ENDBRANCH  32  33
ENDBRANCH  29  32
ENDBRANCH  20  28
ENDBRANCH   1  20
TORSDOF 13
ENDMDL
