MODEL 1
REMARK VINA RESULT: -7.399371009      0.000      0.000
REMARK  15 active torsions:
REMARK  status: ('A' for Active; 'I' for Inactive)
REMARK    1  A    between atoms: N2_5  and  C4_6 
REMARK    2  A    between atoms: C4_6  and  C5_7 
REMARK    3  A    between atoms: C5_7  and  C6_8 
REMARK    4  A    between atoms: C6_8  and  N3_9 
REMARK    5  A    between atoms: N3_9  and  C7_11 
REMARK    6  A    between atoms: C7_11  and  O1_12 
REMARK    7  A    between atoms: C7_11  and  C8_14 
REMARK    8  A    between atoms: C9_15  and  C10_16 
REMARK    9  A    between atoms: C16_22  and  C17_23 
REMARK   10  A    between atoms: N4_31  and  C24_32 
REMARK   11  A    between atoms: C24_32  and  C25_33 
REMARK   12  A    between atoms: C25_33  and  C26_34 
REMARK   13  A    between atoms: C26_34  and  O2_35 
REMARK   14  A    between atoms: C26_34  and  C27_37 
REMARK   15  A    between atoms: C27_37  and  O3_38 
ROOT
HETATM    1  C8  UNL     1      31.303  10.767 -25.267  1.00  0.00     0.097 A 
HETATM    2  C9  UNL     1      31.319  12.183 -25.238  1.00  0.00     0.018 A 
HETATM    3  C16 UNL     1      32.556  12.614 -25.632  1.00  0.00     0.003 A 
HETATM    4  C23 UNL     1      33.284  11.496 -25.897  1.00  0.00     0.104 A 
HETATM    5  N4  UNL     1      32.508  10.377 -25.671  1.00  0.00    -0.352 N 
ENDROOT
BRANCH   1   6
HETATM    6  C7  UNL     1      30.152   9.954 -24.942  1.00  0.00     0.164 C 
BRANCH   6   7
HETATM    7  N3  UNL     1      29.779   9.397 -23.720  1.00  0.00    -0.369 N 
ATOM      8  H3  UNL     1      28.839   9.584 -23.370  1.00  0.00     0.161 HD
BRANCH   7   9
HETATM    9  C6  UNL     1      30.665   8.559 -22.913  1.00  0.00     0.123 C 
BRANCH   9  10
HETATM   10  C5  UNL     1      30.649   8.955 -21.457  1.00  0.00     0.050 C 
BRANCH  10  11
HETATM   11  C4  UNL     1      30.571  10.468 -21.405  1.00  0.00     0.274 C 
BRANCH  11  12
HETATM   12  N2  UNL     1      30.124  10.859 -20.087  1.00  0.00     0.091 N 
HETATM   13  C3  UNL     1      30.946  11.931 -19.549  1.00  0.00     0.302 C 
HETATM   14  C2  UNL     1      30.262  13.282 -19.750  1.00  0.00     0.302 C 
HETATM   15  N1  UNL     1      29.082  13.313 -18.910  1.00  0.00     0.087 N 
HETATM   16  C1  UNL     1      28.119  14.248 -19.449  1.00  0.00     0.310 C 
HETATM   17  C29 UNL     1      28.436  12.015 -18.845  1.00  0.00     0.302 C 
HETATM   18  C28 UNL     1      28.759  11.290 -20.140  1.00  0.00     0.302 C 
ENDBRANCH  11  12
ENDBRANCH  10  11
ENDBRANCH   9  10
ENDBRANCH   7   9
ENDBRANCH   6   7
BRANCH   6  19
HETATM   19  O1  UNL     1      29.318   9.683 -25.903  1.00  0.00    -0.345 OA
ATOM     20  H1  UNL     1      29.240   8.753 -26.078  1.00  0.00     0.219 HD
ENDBRANCH   6  19
ENDBRANCH   1   6
BRANCH   2  21
HETATM   21  C10 UNL     1      30.183  12.968 -24.846  1.00  0.00    -0.023 A 
HETATM   22  C11 UNL     1      29.243  13.405 -25.792  1.00  0.00     0.012 A 
HETATM   23  C12 UNL     1      28.151  14.157 -25.434  1.00  0.00     0.001 A 
HETATM   24  C13 UNL     1      27.944  14.510 -24.122  1.00  0.00     0.000 A 
HETATM   25  C14 UNL     1      28.861  14.091 -23.168  1.00  0.00     0.001 A 
HETATM   26  C15 UNL     1      29.952  13.336 -23.536  1.00  0.00     0.012 A 
ENDBRANCH   2  21
BRANCH   5  27
HETATM   27  C24 UNL     1      33.086   9.079 -25.908  1.00  0.00     0.131 C 
BRANCH  27  28
HETATM   28  C25 UNL     1      33.416   8.848 -27.347  1.00  0.00     0.054 C 
BRANCH  28  29
HETATM   29  C26 UNL     1      34.777   8.222 -27.535  1.00  0.00     0.143 C 
BRANCH  29  30
HETATM   30  O2  UNL     1      35.065   8.304 -28.908  1.00  0.00    -0.393 OA
ATOM     31  H2  UNL     1      35.899   7.867 -29.034  1.00  0.00     0.210 HD
ENDBRANCH  29  30
BRANCH  29  32
HETATM   32  C27 UNL     1      34.811   6.774 -27.095  1.00  0.00     0.195 C 
BRANCH  32  33
HETATM   33  O3  UNL     1      35.844   6.650 -26.140  1.00  0.00    -0.398 OA
ATOM     34  H3  UNL     1      35.879   5.737 -25.879  1.00  0.00     0.209 HD
ENDBRANCH  32  33
ENDBRANCH  29  32
ENDBRANCH  28  29
ENDBRANCH  27  28
ENDBRANCH   5  27
BRANCH   3  35
HETATM   35  C17 UNL     1      32.983  14.020 -25.737  1.00  0.00    -0.024 A 
HETATM   36  C18 UNL     1      32.881  14.693 -26.932  1.00  0.00     0.014 A 
HETATM   37  C19 UNL     1      33.282  15.999 -27.010  1.00  0.00     0.024 A 
HETATM   38  C20 UNL     1      33.797  16.707 -25.939  1.00  0.00     0.034 A 
HETATM   39 CL1  UNL     1      34.299  18.381 -26.085  1.00  0.00    -0.084 Cl
HETATM   40  C21 UNL     1      33.885  16.000 -24.759  1.00  0.00     0.024 A 
HETATM   41  C22 UNL     1      33.491  14.695 -24.655  1.00  0.00     0.014 A 
ENDBRANCH   3  35
TORSDOF 15
ENDMDL
