MODEL 3
REMARK VINA RESULT: -7.220876436      3.278      7.520
REMARK  15 active torsions:
REMARK  status: ('A' for Active; 'I' for Inactive)
REMARK    1  A    between atoms: N2_5  and  C4_6 
REMARK    2  A    between atoms: C4_6  and  C5_7 
REMARK    3  A    between atoms: C5_7  and  C6_8 
REMARK    4  A    between atoms: C6_8  and  N3_9 
REMARK    5  A    between atoms: N3_9  and  C7_11 
REMARK    6  A    between atoms: C7_11  and  O1_12 
REMARK    7  A    between atoms: C7_11  and  C8_14 
REMARK    8  A    between atoms: C9_15  and  C10_16 
REMARK    9  A    between atoms: C16_22  and  C17_23 
REMARK   10  A    between atoms: N4_31  and  C24_32 
REMARK   11  A    between atoms: C24_32  and  C25_33 
REMARK   12  A    between atoms: C25_33  and  C26_34 
REMARK   13  A    between atoms: C26_34  and  O2_35 
REMARK   14  A    between atoms: C26_34  and  C27_37 
REMARK   15  A    between atoms: C27_37  and  O3_38 
ROOT
HETATM    1  C8  UNL     1      31.071  11.739 -24.468  1.00  0.00     0.097 A 
HETATM    2  C9  UNL     1      30.388  11.665 -23.229  1.00  0.00     0.018 A 
HETATM    3  C16 UNL     1      30.274  12.928 -22.717  1.00  0.00     0.003 A 
HETATM    4  C23 UNL     1      30.870  13.760 -23.614  1.00  0.00     0.104 A 
HETATM    5  N4  UNL     1      31.351  13.022 -24.677  1.00  0.00    -0.352 N 
ENDROOT
BRANCH   1   6
HETATM    6  C7  UNL     1      31.351  10.603 -25.319  1.00  0.00     0.164 C 
BRANCH   6   7
HETATM    7  N3  UNL     1      32.493   9.806 -25.383  1.00  0.00    -0.369 N 
ATOM      8  H3  UNL     1      32.438   8.853 -25.024  1.00  0.00     0.161 HD
BRANCH   7   9
HETATM    9  C6  UNL     1      33.765  10.265 -25.938  1.00  0.00     0.123 C 
BRANCH   9  10
HETATM   10  C5  UNL     1      33.944   9.839 -27.375  1.00  0.00     0.050 C 
BRANCH  10  11
HETATM   11  C4  UNL     1      34.588   8.467 -27.358  1.00  0.00     0.274 C 
BRANCH  11  12
HETATM   12  N2  UNL     1      33.851   7.603 -28.254  1.00  0.00     0.091 N 
HETATM   13  C3  UNL     1      33.211   6.517 -27.531  1.00  0.00     0.302 C 
HETATM   14  C2  UNL     1      31.741   6.842 -27.270  1.00  0.00     0.302 C 
HETATM   15  N1  UNL     1      31.053   6.843 -28.545  1.00  0.00     0.087 N 
HETATM   16  C1  UNL     1      29.869   7.670 -28.462  1.00  0.00     0.310 C 
HETATM   17  C29 UNL     1      31.886   7.385 -29.603  1.00  0.00     0.302 C 
HETATM   18  C28 UNL     1      32.855   8.359 -28.954  1.00  0.00     0.302 C 
ENDBRANCH  11  12
ENDBRANCH  10  11
ENDBRANCH   9  10
ENDBRANCH   7   9
ENDBRANCH   6   7
BRANCH   6  19
HETATM   19  O1  UNL     1      30.426  10.240 -26.158  1.00  0.00    -0.345 OA
ATOM     20  H1  UNL     1      29.558  10.226 -25.774  1.00  0.00     0.219 HD
ENDBRANCH   6  19
ENDBRANCH   1   6
BRANCH   2  21
HETATM   21  C10 UNL     1      29.923  10.429 -22.668  1.00  0.00    -0.023 A 
HETATM   22  C11 UNL     1      30.814   9.526 -22.067  1.00  0.00     0.012 A 
HETATM   23  C12 UNL     1      30.385   8.338 -21.525  1.00  0.00     0.001 A 
HETATM   24  C13 UNL     1      29.054   7.995 -21.555  1.00  0.00     0.000 A 
HETATM   25  C14 UNL     1      28.154   8.873 -22.145  1.00  0.00     0.001 A 
HETATM   26  C15 UNL     1      28.593  10.060 -22.684  1.00  0.00     0.012 A 
ENDBRANCH   2  21
BRANCH   5  27
HETATM   27  C24 UNL     1      32.009  13.716 -25.755  1.00  0.00     0.131 C 
BRANCH  27  28
HETATM   28  C25 UNL     1      32.232  15.162 -25.459  1.00  0.00     0.054 C 
BRANCH  28  29
HETATM   29  C26 UNL     1      33.698  15.524 -25.410  1.00  0.00     0.143 C 
BRANCH  29  30
HETATM   30  O2  UNL     1      34.221  14.903 -24.263  1.00  0.00    -0.393 OA
ATOM     31  H2  UNL     1      34.120  15.525 -23.552  1.00  0.00     0.210 HD
ENDBRANCH  29  30
BRANCH  29  32
HETATM   32  C27 UNL     1      33.920  17.018 -25.324  1.00  0.00     0.195 C 
BRANCH  32  33
HETATM   33  O3  UNL     1      33.473  17.580 -26.541  1.00  0.00    -0.398 OA
ATOM     34  H3  UNL     1      32.587  17.891 -26.399  1.00  0.00     0.209 HD
ENDBRANCH  32  33
ENDBRANCH  29  32
ENDBRANCH  28  29
ENDBRANCH  27  28
ENDBRANCH   5  27
BRANCH   3  35
HETATM   35  C17 UNL     1      29.629  13.284 -21.442  1.00  0.00    -0.024 A 
HETATM   36  C18 UNL     1      30.273  13.062 -20.248  1.00  0.00     0.014 A 
HETATM   37  C19 UNL     1      29.658  13.400 -19.073  1.00  0.00     0.024 A 
HETATM   38  C20 UNL     1      28.397  13.965 -19.004  1.00  0.00     0.034 A 
HETATM   39 CL1  UNL     1      27.646  14.383 -17.475  1.00  0.00    -0.084 Cl
HETATM   40  C21 UNL     1      27.782  14.172 -20.221  1.00  0.00     0.024 A 
HETATM   41  C22 UNL     1      28.375  13.842 -21.408  1.00  0.00     0.014 A 
ENDBRANCH   3  35
TORSDOF 15
ENDMDL
