MODEL 2
REMARK VINA RESULT: -7.355413807      4.004      7.873
REMARK  15 active torsions:
REMARK  status: ('A' for Active; 'I' for Inactive)
REMARK    1  A    between atoms: N2_5  and  C4_6 
REMARK    2  A    between atoms: C4_6  and  C5_7 
REMARK    3  A    between atoms: C5_7  and  C6_8 
REMARK    4  A    between atoms: C6_8  and  N3_9 
REMARK    5  A    between atoms: N3_9  and  C7_11 
REMARK    6  A    between atoms: C7_11  and  O1_12 
REMARK    7  A    between atoms: C7_11  and  C8_14 
REMARK    8  A    between atoms: C9_15  and  C10_16 
REMARK    9  A    between atoms: C16_22  and  C17_23 
REMARK   10  A    between atoms: N4_31  and  C24_32 
REMARK   11  A    between atoms: C24_32  and  C25_33 
REMARK   12  A    between atoms: C25_33  and  C26_34 
REMARK   13  A    between atoms: C26_34  and  O2_35 
REMARK   14  A    between atoms: C26_34  and  C27_37 
REMARK   15  A    between atoms: C27_37  and  O3_38 
ROOT
HETATM    1  C8  UNL     1      29.606  10.931 -21.470  1.00  0.00     0.097 A 
HETATM    2  C9  UNL     1      28.350  10.929 -20.814  1.00  0.00     0.018 A 
HETATM    3  C16 UNL     1      27.716   9.749 -21.089  1.00  0.00     0.003 A 
HETATM    4  C23 UNL     1      28.555   9.041 -21.892  1.00  0.00     0.104 A 
HETATM    5  N4  UNL     1      29.704   9.773 -22.116  1.00  0.00    -0.352 N 
ENDROOT
BRANCH   1   6
HETATM    6  C7  UNL     1      30.573  12.004 -21.387  1.00  0.00     0.164 C 
BRANCH   6   7
HETATM    7  N3  UNL     1      30.808  13.053 -22.274  1.00  0.00    -0.369 N 
ATOM      8  H3  UNL     1      31.691  13.559 -22.201  1.00  0.00     0.161 HD
BRANCH   7   9
HETATM    9  C6  UNL     1      29.855  13.466 -23.304  1.00  0.00     0.123 C 
BRANCH   9  10
HETATM   10  C5  UNL     1      30.512  14.286 -24.387  1.00  0.00     0.050 C 
BRANCH  10  11
HETATM   11  C4  UNL     1      31.889  13.696 -24.624  1.00  0.00     0.274 C 
BRANCH  11  12
HETATM   12  N2  UNL     1      32.868  14.751 -24.493  1.00  0.00     0.091 N 
HETATM   13  C3  UNL     1      34.218  14.241 -24.671  1.00  0.00     0.302 C 
HETATM   14  C2  UNL     1      34.706  14.504 -26.095  1.00  0.00     0.302 C 
HETATM   15  N1  UNL     1      34.867  15.935 -26.252  1.00  0.00     0.087 N 
HETATM   16  C1  UNL     1      34.758  16.290 -27.650  1.00  0.00     0.310 C 
HETATM   17  C29 UNL     1      33.841  16.672 -25.537  1.00  0.00     0.302 C 
HETATM   18  C28 UNL     1      32.617  15.776 -25.463  1.00  0.00     0.302 C 
ENDBRANCH  11  12
ENDBRANCH  10  11
ENDBRANCH   9  10
ENDBRANCH   7   9
ENDBRANCH   6   7
BRANCH   6  19
HETATM   19  O1  UNL     1      31.352  12.030 -20.346  1.00  0.00    -0.345 OA
ATOM     20  H1  UNL     1      30.897  11.839 -19.535  1.00  0.00     0.219 HD
ENDBRANCH   6  19
ENDBRANCH   1   6
BRANCH   2  21
HETATM   21  C10 UNL     1      27.888  12.025 -20.011  1.00  0.00    -0.023 A 
HETATM   22  C11 UNL     1      27.231  13.121 -20.590  1.00  0.00     0.012 A 
HETATM   23  C12 UNL     1      26.783  14.178 -19.835  1.00  0.00     0.001 A 
HETATM   24  C13 UNL     1      26.967  14.194 -18.473  1.00  0.00     0.000 A 
HETATM   25  C14 UNL     1      27.616  13.120 -17.877  1.00  0.00     0.001 A 
HETATM   26  C15 UNL     1      28.060  12.066 -18.642  1.00  0.00     0.012 A 
ENDBRANCH   2  21
BRANCH   5  27
HETATM   27  C24 UNL     1      30.739   9.196 -22.935  1.00  0.00     0.131 C 
BRANCH  27  28
HETATM   28  C25 UNL     1      30.888   9.886 -24.250  1.00  0.00     0.054 C 
BRANCH  28  29
HETATM   29  C26 UNL     1      31.497   8.995 -25.306  1.00  0.00     0.143 C 
BRANCH  29  30
HETATM   30  O2  UNL     1      31.528   7.700 -24.762  1.00  0.00    -0.393 OA
ATOM     31  H2  UNL     1      32.410   7.372 -24.902  1.00  0.00     0.210 HD
ENDBRANCH  29  30
BRANCH  29  32
HETATM   32  C27 UNL     1      32.900   9.422 -25.682  1.00  0.00     0.195 C 
BRANCH  32  33
HETATM   33  O3  UNL     1      33.685   8.251 -25.771  1.00  0.00    -0.398 OA
ATOM     34  H3  UNL     1      33.813   8.068 -26.694  1.00  0.00     0.209 HD
ENDBRANCH  32  33
ENDBRANCH  29  32
ENDBRANCH  28  29
ENDBRANCH  27  28
ENDBRANCH   5  27
BRANCH   3  35
HETATM   35  C17 UNL     1      26.385   9.354 -20.597  1.00  0.00    -0.024 A 
HETATM   36  C18 UNL     1      25.283  10.132 -20.864  1.00  0.00     0.014 A 
HETATM   37  C19 UNL     1      24.054   9.749 -20.399  1.00  0.00     0.024 A 
HETATM   38  C20 UNL     1      23.840   8.599 -19.659  1.00  0.00     0.034 A 
HETATM   39 CL1  UNL     1      22.247   8.145 -19.084  1.00  0.00    -0.084 Cl
HETATM   40  C21 UNL     1      24.967   7.845 -19.412  1.00  0.00     0.024 A 
HETATM   41  C22 UNL     1      26.206   8.207 -19.864  1.00  0.00     0.014 A 
ENDBRANCH   3  35
TORSDOF 15
ENDMDL
