MODEL 7
REMARK VINA RESULT: -8.437237124      4.153      5.323
REMARK  11 active torsions:
REMARK  status: ('A' for Active; 'I' for Inactive)
REMARK    1  A    between atoms: N1_2  and  C2_4 
REMARK    2  A    between atoms: N5_15  and  C7_16 
REMARK    3  A    between atoms: C8_18  and  C9_19 
REMARK    4  A    between atoms: C9_19  and  S1_20 
REMARK    5  A    between atoms: S1_20  and  C10_21 
REMARK    6  A    between atoms: C10_21  and  C11_22 
REMARK    7  A    between atoms: C11_22  and  C12_23 
REMARK    8  A    between atoms: C12_23  and  N6_24 
REMARK    9  A    between atoms: C12_23  and  C13_28 
REMARK   10  A    between atoms: C14_31  and  O4_32 
REMARK   11  A    between atoms: C15_34  and  O5_35 
ROOT
HETATM    1  C7  UNL     1      44.720  51.159   5.885  1.00  0.00     0.262 C 
HETATM    2  O1  UNL     1      45.933  51.783   5.617  1.00  0.00    -0.355 OA
HETATM    3  C8  UNL     1      45.838  52.421   4.404  1.00  0.00     0.165 C 
HETATM    4  C14 UNL     1      44.371  52.613   4.085  1.00  0.00     0.180 C 
HETATM    5  C15 UNL     1      43.733  52.242   5.427  1.00  0.00     0.198 C 
ENDROOT
BRANCH   1   6
HETATM    6  N5  UNL     1      44.538  50.862   7.267  1.00  0.00    -0.297 N 
HETATM    7  C4  UNL     1      44.651  49.672   7.879  1.00  0.00     0.142 A 
HETATM    8  N3  UNL     1      44.950  48.423   7.478  1.00  0.00    -0.336 N 
HETATM    9  C5  UNL     1      44.385  49.864   9.231  1.00  0.00     0.122 A 
HETATM   10  C3  UNL     1      44.988  47.397   8.364  1.00  0.00     0.183 A 
ATOM     11  H3  UNL     1      45.150  48.245   6.494  1.00  0.00     0.168 HD
HETATM   12  N2  UNL     1      44.725  47.606   9.675  1.00  0.00    -0.337 N 
HETATM   13  C2  UNL     1      44.421  48.828  10.137  1.00  0.00     0.132 A 
ATOM     14  H2  UNL     1      44.759  46.820  10.324  1.00  0.00     0.168 HD
HETATM   15  N4  UNL     1      44.114  51.169   9.412  1.00  0.00    -0.346 N 
HETATM   16  C6  UNL     1      44.212  51.755   8.215  1.00  0.00     0.188 A 
ATOM     17  H4  UNL     1      43.880  51.624  10.295  1.00  0.00     0.167 HD
BRANCH  13  18
HETATM   18  N1  UNL     1      44.143  49.056  11.521  1.00  0.00    -0.379 N 
HETATM   19  C1  UNL     1      44.631  48.121  12.500  1.00  0.00     0.147 C 
ATOM     20  H1  UNL     1      43.604  49.872  11.812  1.00  0.00     0.160 HD
ENDBRANCH  13  18
ENDBRANCH   1   6
BRANCH   5  21
HETATM   21  O5  UNL     1      42.455  51.761   5.290  1.00  0.00    -0.388 OA
ATOM     22  H5  UNL     1      41.822  52.271   5.780  1.00  0.00     0.210 HD
ENDBRANCH   5  21
BRANCH   3  23
HETATM   23  C9  UNL     1      46.489  53.775   4.375  1.00  0.00     0.108 C 
BRANCH  23  24
HETATM   24  S1  UNL     1      48.241  53.750   4.751  1.00  0.00    -0.166 SA
BRANCH  24  25
HETATM   25  C10 UNL     1      48.741  55.467   5.133  1.00  0.00     0.076 C 
BRANCH  25  26
HETATM   26  C11 UNL     1      49.766  55.929   4.123  1.00  0.00     0.054 C 
BRANCH  26  27
HETATM   27  C12 UNL     1      49.372  57.179   3.418  1.00  0.00     0.284 C 
BRANCH  27  28
HETATM   28  N6  UNL     1      48.527  58.048   4.192  1.00  0.00    -0.065 N 
ATOM     29  H63 UNL     1      47.901  58.575   3.582  1.00  0.00     0.275 HD
ATOM     30  H62 UNL     1      47.841  57.506   4.717  1.00  0.00     0.275 HD
ATOM     31  H61 UNL     1      49.035  58.679   4.813  1.00  0.00     0.275 HD
ENDBRANCH  27  28
BRANCH  27  32
HETATM   32  C13 UNL     1      48.634  56.801   2.186  1.00  0.00     0.204 C 
HETATM   33  O2  UNL     1      49.278  56.663   1.117  1.00  0.00    -0.646 OA
HETATM   34  O3  UNL     1      47.265  56.588   2.141  1.00  0.00    -0.646 OA
ENDBRANCH  27  32
ENDBRANCH  26  27
ENDBRANCH  25  26
ENDBRANCH  24  25
ENDBRANCH  23  24
ENDBRANCH   3  23
BRANCH   4  35
HETATM   35  O4  UNL     1      43.947  51.655   3.177  1.00  0.00    -0.390 OA
ATOM     36  H4  UNL     1      43.987  51.998   2.292  1.00  0.00     0.210 HD
ENDBRANCH   4  35
TORSDOF 11
ENDMDL
