MODEL 4
REMARK VINA RESULT: -8.648126885      0.915      1.921
REMARK  11 active torsions:
REMARK  status: ('A' for Active; 'I' for Inactive)
REMARK    1  A    between atoms: N1_2  and  C2_4 
REMARK    2  A    between atoms: N5_15  and  C7_16 
REMARK    3  A    between atoms: C8_18  and  C9_19 
REMARK    4  A    between atoms: C9_19  and  S1_20 
REMARK    5  A    between atoms: S1_20  and  C10_21 
REMARK    6  A    between atoms: C10_21  and  C11_22 
REMARK    7  A    between atoms: C11_22  and  C12_23 
REMARK    8  A    between atoms: C12_23  and  N6_24 
REMARK    9  A    between atoms: C12_23  and  C13_28 
REMARK   10  A    between atoms: C14_31  and  O4_32 
REMARK   11  A    between atoms: C15_34  and  O5_35 
ROOT
HETATM    1  C7  UNL     1      44.017  48.864   7.799  1.00  0.00     0.262 C 
HETATM    2  O1  UNL     1      44.603  49.259   6.601  1.00  0.00    -0.355 OA
HETATM    3  C8  UNL     1      44.584  50.631   6.537  1.00  0.00     0.165 C 
HETATM    4  C14 UNL     1      44.402  51.168   7.940  1.00  0.00     0.180 C 
HETATM    5  C15 UNL     1      44.616  49.895   8.766  1.00  0.00     0.198 C 
ENDROOT
BRANCH   1   6
HETATM    6  N5  UNL     1      44.375  47.540   8.187  1.00  0.00    -0.297 N 
HETATM    7  C4  UNL     1      45.604  47.052   8.422  1.00  0.00     0.142 A 
HETATM    8  N3  UNL     1      46.849  47.559   8.390  1.00  0.00    -0.336 N 
HETATM    9  C5  UNL     1      45.467  45.713   8.772  1.00  0.00     0.122 A 
HETATM   10  C3  UNL     1      47.924  46.788   8.690  1.00  0.00     0.183 A 
ATOM     11  H3  UNL     1      46.988  48.538   8.136  1.00  0.00     0.168 HD
HETATM   12  N2  UNL     1      47.768  45.487   9.028  1.00  0.00    -0.337 N 
HETATM   13  C2  UNL     1      46.553  44.923   9.078  1.00  0.00     0.132 A 
ATOM     14  H2  UNL     1      48.590  44.926   9.249  1.00  0.00     0.168 HD
HETATM   15  N4  UNL     1      44.156  45.414   8.743  1.00  0.00    -0.346 N 
HETATM   16  C6  UNL     1      43.513  46.531   8.387  1.00  0.00     0.188 A 
ATOM     17  H4  UNL     1      43.733  44.510   8.951  1.00  0.00     0.167 HD
BRANCH  13  18
HETATM   18  N1  UNL     1      46.381  43.548   9.435  1.00  0.00    -0.379 N 
HETATM   19  C1  UNL     1      47.352  42.917  10.288  1.00  0.00     0.147 C 
ATOM     20  H1  UNL     1      45.579  43.021   9.088  1.00  0.00     0.160 HD
ENDBRANCH  13  18
ENDBRANCH   1   6
BRANCH   5  21
HETATM   21  O5  UNL     1      43.957  49.929   9.968  1.00  0.00    -0.388 OA
ATOM     22  H5  UNL     1      44.521  50.201  10.682  1.00  0.00     0.210 HD
ENDBRANCH   5  21
BRANCH   3  23
HETATM   23  C9  UNL     1      45.843  51.233   5.980  1.00  0.00     0.108 C 
BRANCH  23  24
HETATM   24  S1  UNL     1      45.562  52.463   4.707  1.00  0.00    -0.166 SA
BRANCH  24  25
HETATM   25  C10 UNL     1      43.763  52.507   4.381  1.00  0.00     0.076 C 
BRANCH  25  26
HETATM   26  C11 UNL     1      43.524  52.606   2.891  1.00  0.00     0.054 C 
BRANCH  26  27
HETATM   27  C12 UNL     1      42.095  52.427   2.515  1.00  0.00     0.284 C 
BRANCH  27  28
HETATM   28  N6  UNL     1      41.867  51.373   1.563  1.00  0.00    -0.065 N 
ATOM     29  H63 UNL     1      40.867  51.206   1.447  1.00  0.00     0.275 HD
ATOM     30  H62 UNL     1      42.101  51.685   0.621  1.00  0.00     0.275 HD
ATOM     31  H61 UNL     1      42.351  50.502   1.781  1.00  0.00     0.275 HD
ENDBRANCH  27  28
BRANCH  27  32
HETATM   32  C13 UNL     1      41.613  53.698   1.915  1.00  0.00     0.204 C 
HETATM   33  O2  UNL     1      40.876  54.447   2.603  1.00  0.00    -0.646 OA
HETATM   34  O3  UNL     1      41.927  54.113   0.630  1.00  0.00    -0.646 OA
ENDBRANCH  27  32
ENDBRANCH  26  27
ENDBRANCH  25  26
ENDBRANCH  24  25
ENDBRANCH  23  24
ENDBRANCH   3  23
BRANCH   4  35
HETATM   35  O4  UNL     1      43.084  51.545   8.144  1.00  0.00    -0.390 OA
ATOM     36  H4  UNL     1      42.721  51.083   8.891  1.00  0.00     0.210 HD
ENDBRANCH   4  35
TORSDOF 11
ENDMDL
