MODEL 6
REMARK VINA RESULT: -8.449514906      4.530      5.656
REMARK  11 active torsions:
REMARK  status: ('A' for Active; 'I' for Inactive)
REMARK    1  A    between atoms: N1_2  and  C2_4 
REMARK    2  A    between atoms: N5_15  and  C7_16 
REMARK    3  A    between atoms: C8_18  and  C9_19 
REMARK    4  A    between atoms: C9_19  and  S1_20 
REMARK    5  A    between atoms: S1_20  and  C10_21 
REMARK    6  A    between atoms: C10_21  and  C11_22 
REMARK    7  A    between atoms: C11_22  and  C12_23 
REMARK    8  A    between atoms: C12_23  and  N6_24 
REMARK    9  A    between atoms: C12_23  and  C13_28 
REMARK   10  A    between atoms: C14_31  and  O4_32 
REMARK   11  A    between atoms: C15_34  and  O5_35 
ROOT
HETATM    1  C7  UNL     1      44.730  51.201   5.870  1.00  0.00     0.262 C 
HETATM    2  O1  UNL     1      45.943  51.829   5.610  1.00  0.00    -0.355 OA
HETATM    3  C8  UNL     1      45.853  52.467   4.397  1.00  0.00     0.165 C 
HETATM    4  C14 UNL     1      44.388  52.655   4.069  1.00  0.00     0.180 C 
HETATM    5  C15 UNL     1      43.743  52.281   5.407  1.00  0.00     0.198 C 
ENDROOT
BRANCH   1   6
HETATM    6  N5  UNL     1      44.541  50.903   7.252  1.00  0.00    -0.297 N 
HETATM    7  C4  UNL     1      44.672  49.716   7.867  1.00  0.00     0.142 A 
HETATM    8  N3  UNL     1      45.000  48.473   7.471  1.00  0.00    -0.336 N 
HETATM    9  C5  UNL     1      44.389  49.905   9.215  1.00  0.00     0.122 A 
HETATM   10  C3  UNL     1      45.050  47.450   8.359  1.00  0.00     0.183 A 
ATOM     11  H3  UNL     1      45.213  48.297   6.489  1.00  0.00     0.168 HD
HETATM   12  N2  UNL     1      44.770  47.655   9.667  1.00  0.00    -0.337 N 
HETATM   13  C2  UNL     1      44.438  48.872  10.123  1.00  0.00     0.132 A 
ATOM     14  H2  UNL     1      44.814  46.871  10.318  1.00  0.00     0.168 HD
HETATM   15  N4  UNL     1      44.090  51.204   9.392  1.00  0.00    -0.346 N 
HETATM   16  C6  UNL     1      44.188  51.790   8.194  1.00  0.00     0.188 A 
ATOM     17  H4  UNL     1      43.838  51.656  10.271  1.00  0.00     0.167 HD
BRANCH  13  18
HETATM   18  N1  UNL     1      44.141  49.096  11.505  1.00  0.00    -0.379 N 
HETATM   19  C1  UNL     1      44.553  48.122  12.480  1.00  0.00     0.147 C 
ATOM     20  H1  UNL     1      43.643  49.937  11.795  1.00  0.00     0.160 HD
ENDBRANCH  13  18
ENDBRANCH   1   6
BRANCH   5  21
HETATM   21  O5  UNL     1      42.468  51.796   5.262  1.00  0.00    -0.388 OA
ATOM     22  H5  UNL     1      42.439  51.007   4.734  1.00  0.00     0.210 HD
ENDBRANCH   5  21
BRANCH   3  23
HETATM   23  C9  UNL     1      46.501  53.823   4.372  1.00  0.00     0.108 C 
BRANCH  23  24
HETATM   24  S1  UNL     1      48.262  53.796   4.699  1.00  0.00    -0.166 SA
BRANCH  24  25
HETATM   25  C10 UNL     1      48.771  55.511   5.082  1.00  0.00     0.076 C 
BRANCH  25  26
HETATM   26  C11 UNL     1      49.723  56.003   4.016  1.00  0.00     0.054 C 
BRANCH  26  27
HETATM   27  C12 UNL     1      49.124  57.036   3.128  1.00  0.00     0.284 C 
BRANCH  27  28
HETATM   28  N6  UNL     1      48.136  56.524   2.215  1.00  0.00    -0.065 N 
ATOM     29  H63 UNL     1      48.170  55.505   2.187  1.00  0.00     0.275 HD
ATOM     30  H62 UNL     1      47.198  56.656   2.593  1.00  0.00     0.275 HD
ATOM     31  H61 UNL     1      48.200  56.909   1.273  1.00  0.00     0.275 HD
ENDBRANCH  27  28
BRANCH  27  32
HETATM   32  C13 UNL     1      50.216  57.645   2.326  1.00  0.00     0.204 C 
HETATM   33  O2  UNL     1      50.344  57.302   1.125  1.00  0.00    -0.646 OA
HETATM   34  O3  UNL     1      51.111  58.578   2.826  1.00  0.00    -0.646 OA
ENDBRANCH  27  32
ENDBRANCH  26  27
ENDBRANCH  25  26
ENDBRANCH  24  25
ENDBRANCH  23  24
ENDBRANCH   3  23
BRANCH   4  35
HETATM   35  O4  UNL     1      43.972  51.696   3.158  1.00  0.00    -0.390 OA
ATOM     36  H4  UNL     1      43.990  50.833   3.556  1.00  0.00     0.210 HD
ENDBRANCH   4  35
TORSDOF 11
ENDMDL
