MODEL 1
REMARK VINA RESULT: -8.945480008      0.000      0.000
REMARK  11 active torsions:
REMARK  status: ('A' for Active; 'I' for Inactive)
REMARK    1  A    between atoms: N1_2  and  C2_4 
REMARK    2  A    between atoms: N5_15  and  C7_16 
REMARK    3  A    between atoms: C8_18  and  C9_19 
REMARK    4  A    between atoms: C9_19  and  S1_20 
REMARK    5  A    between atoms: S1_20  and  C10_21 
REMARK    6  A    between atoms: C10_21  and  C11_22 
REMARK    7  A    between atoms: C11_22  and  C12_23 
REMARK    8  A    between atoms: C12_23  and  N6_24 
REMARK    9  A    between atoms: C12_23  and  C13_28 
REMARK   10  A    between atoms: C14_31  and  O4_32 
REMARK   11  A    between atoms: C15_34  and  O5_35 
ROOT
HETATM    1  C7  UNL     1      44.219  49.054   7.834  1.00  0.00     0.262 C 
HETATM    2  O1  UNL     1      44.839  49.411   6.642  1.00  0.00    -0.355 OA
HETATM    3  C8  UNL     1      44.632  50.752   6.427  1.00  0.00     0.165 C 
HETATM    4  C14 UNL     1      44.263  51.392   7.748  1.00  0.00     0.180 C 
HETATM    5  C15 UNL     1      44.586  50.252   8.720  1.00  0.00     0.198 C 
ENDROOT
BRANCH   1   6
HETATM    6  N5  UNL     1      44.728  47.842   8.387  1.00  0.00    -0.297 N 
HETATM    7  C4  UNL     1      44.188  46.615   8.327  1.00  0.00     0.142 A 
HETATM    8  N3  UNL     1      43.074  46.093   7.781  1.00  0.00    -0.336 N 
HETATM    9  C5  UNL     1      45.035  45.746   9.007  1.00  0.00     0.122 A 
HETATM   10  C3  UNL     1      42.797  44.771   7.894  1.00  0.00     0.183 A 
ATOM     11  H3  UNL     1      42.429  46.701   7.275  1.00  0.00     0.168 HD
HETATM   12  N2  UNL     1      43.634  43.943   8.560  1.00  0.00    -0.337 N 
HETATM   13  C2  UNL     1      44.760  44.402   9.126  1.00  0.00     0.132 A 
ATOM     14  H2  UNL     1      43.406  42.952   8.633  1.00  0.00     0.168 HD
HETATM   15  N4  UNL     1      46.074  46.465   9.467  1.00  0.00    -0.346 N 
HETATM   16  C6  UNL     1      45.870  47.729   9.083  1.00  0.00     0.188 A 
ATOM     17  H4  UNL     1      46.865  46.113  10.007  1.00  0.00     0.167 HD
BRANCH  13  18
HETATM   18  N1  UNL     1      45.650  43.532   9.832  1.00  0.00    -0.379 N 
HETATM   19  C1  UNL     1      46.954  43.267   9.286  1.00  0.00     0.147 C 
ATOM     20  H1  UNL     1      45.363  43.104  10.712  1.00  0.00     0.160 HD
ENDBRANCH  13  18
ENDBRANCH   1   6
BRANCH   5  21
HETATM   21  O5  UNL     1      43.832  50.306   9.865  1.00  0.00    -0.388 OA
ATOM     22  H5  UNL     1      43.168  50.984   9.830  1.00  0.00     0.210 HD
ENDBRANCH   5  21
BRANCH   3  23
HETATM   23  C9  UNL     1      45.835  51.477   5.892  1.00  0.00     0.108 C 
BRANCH  23  24
HETATM   24  S1  UNL     1      45.453  52.692   4.631  1.00  0.00    -0.166 SA
BRANCH  24  25
HETATM   25  C10 UNL     1      43.665  52.558   4.270  1.00  0.00     0.076 C 
BRANCH  25  26
HETATM   26  C11 UNL     1      43.454  52.552   2.773  1.00  0.00     0.054 C 
BRANCH  26  27
HETATM   27  C12 UNL     1      42.023  52.426   2.384  1.00  0.00     0.284 C 
BRANCH  27  28
HETATM   28  N6  UNL     1      41.773  51.429   1.378  1.00  0.00    -0.065 N 
ATOM     29  H63 UNL     1      42.569  51.352   0.744  1.00  0.00     0.275 HD
ATOM     30  H62 UNL     1      41.788  50.495   1.789  1.00  0.00     0.275 HD
ATOM     31  H61 UNL     1      40.911  51.574   0.852  1.00  0.00     0.275 HD
ENDBRANCH  27  28
BRANCH  27  32
HETATM   32  C13 UNL     1      41.572  53.737   1.851  1.00  0.00     0.204 C 
HETATM   33  O2  UNL     1      41.922  54.068   0.691  1.00  0.00    -0.646 OA
HETATM   34  O3  UNL     1      40.782  54.628   2.561  1.00  0.00    -0.646 OA
ENDBRANCH  27  32
ENDBRANCH  26  27
ENDBRANCH  25  26
ENDBRANCH  24  25
ENDBRANCH  23  24
ENDBRANCH   3  23
BRANCH   4  35
HETATM   35  O4  UNL     1      42.892  51.586   7.821  1.00  0.00    -0.390 OA
ATOM     36  H4  UNL     1      42.555  51.880   6.983  1.00  0.00     0.210 HD
ENDBRANCH   4  35
TORSDOF 11
ENDMDL
