MODEL 5
REMARK VINA RESULT: -8.576042764      1.040      1.134
REMARK  11 active torsions:
REMARK  status: ('A' for Active; 'I' for Inactive)
REMARK    1  A    between atoms: N1_2  and  C2_4 
REMARK    2  A    between atoms: N5_15  and  C7_16 
REMARK    3  A    between atoms: C8_18  and  C9_19 
REMARK    4  A    between atoms: C9_19  and  S1_20 
REMARK    5  A    between atoms: S1_20  and  C10_21 
REMARK    6  A    between atoms: C10_21  and  C11_22 
REMARK    7  A    between atoms: C11_22  and  C12_23 
REMARK    8  A    between atoms: C12_23  and  N6_24 
REMARK    9  A    between atoms: C12_23  and  C13_28 
REMARK   10  A    between atoms: C14_31  and  O4_32 
REMARK   11  A    between atoms: C15_34  and  O5_35 
ROOT
HETATM    1  C7  UNL     1      44.223  49.092   8.128  1.00  0.00     0.262 C 
HETATM    2  O1  UNL     1      44.578  49.374   6.813  1.00  0.00    -0.355 OA
HETATM    3  C8  UNL     1      44.275  50.688   6.552  1.00  0.00     0.165 C 
HETATM    4  C14 UNL     1      44.150  51.417   7.871  1.00  0.00     0.180 C 
HETATM    5  C15 UNL     1      44.709  50.365   8.836  1.00  0.00     0.198 C 
ENDROOT
BRANCH   1   6
HETATM    6  N5  UNL     1      44.884  47.942   8.650  1.00  0.00    -0.297 N 
HETATM    7  C4  UNL     1      44.482  46.662   8.595  1.00  0.00     0.142 A 
HETATM    8  N3  UNL     1      43.415  46.023   8.082  1.00  0.00    -0.336 N 
HETATM    9  C5  UNL     1      45.444  45.888   9.236  1.00  0.00     0.122 A 
HETATM   10  C3  UNL     1      43.292  44.677   8.189  1.00  0.00     0.183 A 
ATOM     11  H3  UNL     1      42.690  46.558   7.605  1.00  0.00     0.168 HD
HETATM   12  N2  UNL     1      44.239  43.943   8.817  1.00  0.00    -0.337 N 
HETATM   13  C2  UNL     1      45.326  44.521   9.350  1.00  0.00     0.132 A 
ATOM     14  H2  UNL     1      44.125  42.932   8.887  1.00  0.00     0.168 HD
HETATM   15  N4  UNL     1      46.412  46.716   9.669  1.00  0.00    -0.346 N 
HETATM   16  C6  UNL     1      46.055  47.952   9.305  1.00  0.00     0.188 A 
ATOM     17  H4  UNL     1      47.256  46.451  10.177  1.00  0.00     0.167 HD
BRANCH  13  18
HETATM   18  N1  UNL     1      46.332  43.752  10.015  1.00  0.00    -0.379 N 
HETATM   19  C1  UNL     1      47.569  43.476   9.336  1.00  0.00     0.147 C 
ATOM     20  H1  UNL     1      46.173  43.403  10.960  1.00  0.00     0.160 HD
ENDBRANCH  13  18
ENDBRANCH   1   6
BRANCH   5  21
HETATM   21  O5  UNL     1      44.197  50.486  10.103  1.00  0.00    -0.388 OA
ATOM     22  H5  UNL     1      43.539  51.169  10.164  1.00  0.00     0.210 HD
ENDBRANCH   5  21
BRANCH   3  23
HETATM   23  C9  UNL     1      45.315  51.403   5.736  1.00  0.00     0.108 C 
BRANCH  23  24
HETATM   24  S1  UNL     1      44.674  52.173   4.249  1.00  0.00    -0.166 SA
BRANCH  24  25
HETATM   25  C10 UNL     1      43.211  53.157   4.734  1.00  0.00     0.076 C 
BRANCH  25  26
HETATM   26  C11 UNL     1      41.997  52.655   3.987  1.00  0.00     0.054 C 
BRANCH  26  27
HETATM   27  C12 UNL     1      41.356  53.699   3.142  1.00  0.00     0.284 C 
BRANCH  27  28
HETATM   28  N6  UNL     1      39.939  53.836   3.351  1.00  0.00    -0.065 N 
ATOM     29  H63 UNL     1      39.429  53.626   2.493  1.00  0.00     0.275 HD
ATOM     30  H62 UNL     1      39.592  53.086   3.948  1.00  0.00     0.275 HD
ATOM     31  H61 UNL     1      39.659  54.745   3.719  1.00  0.00     0.275 HD
ENDBRANCH  27  28
BRANCH  27  32
HETATM   32  C13 UNL     1      41.576  53.340   1.717  1.00  0.00     0.204 C 
HETATM   33  O2  UNL     1      41.455  52.138   1.374  1.00  0.00    -0.646 OA
HETATM   34  O3  UNL     1      41.912  54.257   0.734  1.00  0.00    -0.646 OA
ENDBRANCH  27  32
ENDBRANCH  26  27
ENDBRANCH  25  26
ENDBRANCH  24  25
ENDBRANCH  23  24
ENDBRANCH   3  23
BRANCH   4  35
HETATM   35  O4  UNL     1      42.815  51.579   8.207  1.00  0.00    -0.390 OA
ATOM     36  H4  UNL     1      42.619  52.498   8.349  1.00  0.00     0.210 HD
ENDBRANCH   4  35
TORSDOF 11
ENDMDL
