MODEL 10
REMARK VINA RESULT: -7.663659248      4.143      5.419
REMARK  11 active torsions:
REMARK  status: ('A' for Active; 'I' for Inactive)
REMARK    1  A    between atoms: N1_2  and  C2_4 
REMARK    2  A    between atoms: N5_15  and  C7_16 
REMARK    3  A    between atoms: C8_18  and  C9_19 
REMARK    4  A    between atoms: C9_19  and  S1_20 
REMARK    5  A    between atoms: S1_20  and  C10_21 
REMARK    6  A    between atoms: C10_21  and  C11_22 
REMARK    7  A    between atoms: C11_22  and  C12_23 
REMARK    8  A    between atoms: C12_23  and  N6_24 
REMARK    9  A    between atoms: C12_23  and  C13_28 
REMARK   10  A    between atoms: C14_31  and  O4_32 
REMARK   11  A    between atoms: C15_34  and  O5_35 
ROOT
HETATM    1  C7  UNL     1      44.713  50.726   5.738  1.00  0.00     0.262 C 
HETATM    2  O1  UNL     1      45.874  51.421   5.415  1.00  0.00    -0.355 OA
HETATM    3  C8  UNL     1      45.561  52.390   4.493  1.00  0.00     0.165 C 
HETATM    4  C14 UNL     1      44.071  52.645   4.562  1.00  0.00     0.180 C 
HETATM    5  C15 UNL     1      43.707  51.881   5.840  1.00  0.00     0.198 C 
ENDROOT
BRANCH   1   6
HETATM    6  N5  UNL     1      44.807  50.028   6.977  1.00  0.00    -0.297 N 
HETATM    7  C4  UNL     1      44.316  50.394   8.172  1.00  0.00     0.142 A 
HETATM    8  N3  UNL     1      43.617  51.449   8.627  1.00  0.00    -0.336 N 
HETATM    9  C5  UNL     1      44.650  49.403   9.089  1.00  0.00     0.122 A 
HETATM   10  C3  UNL     1      43.255  51.534   9.932  1.00  0.00     0.183 A 
ATOM     11  H3  UNL     1      43.355  52.196   7.984  1.00  0.00     0.168 HD
HETATM   12  N2  UNL     1      43.591  50.559  10.808  1.00  0.00    -0.337 N 
HETATM   13  C2  UNL     1      44.287  49.482  10.414  1.00  0.00     0.132 A 
ATOM     14  H2  UNL     1      43.309  50.644  11.784  1.00  0.00     0.168 HD
HETATM   15  N4  UNL     1      45.338  48.453   8.431  1.00  0.00    -0.346 N 
HETATM   16  C6  UNL     1      45.423  48.849   7.157  1.00  0.00     0.188 A 
ATOM     17  H4  UNL     1      45.723  47.596   8.828  1.00  0.00     0.167 HD
BRANCH  13  18
HETATM   18  N1  UNL     1      44.645  48.447  11.335  1.00  0.00    -0.379 N 
HETATM   19  C1  UNL     1      44.170  48.516  12.690  1.00  0.00     0.147 C 
ATOM     20  H1  UNL     1      45.231  47.668  11.033  1.00  0.00     0.160 HD
ENDBRANCH  13  18
ENDBRANCH   1   6
BRANCH   5  21
HETATM   21  O5  UNL     1      42.406  51.443   5.839  1.00  0.00    -0.388 OA
ATOM     22  H5  UNL     1      41.861  51.928   5.233  1.00  0.00     0.210 HD
ENDBRANCH   5  21
BRANCH   3  23
HETATM   23  C9  UNL     1      46.257  53.701   4.727  1.00  0.00     0.108 C 
BRANCH  23  24
HETATM   24  S1  UNL     1      48.045  53.586   4.736  1.00  0.00    -0.166 SA
BRANCH  24  25
HETATM   25  C10 UNL     1      48.695  55.244   5.156  1.00  0.00     0.076 C 
BRANCH  25  26
HETATM   26  C11 UNL     1      49.674  55.684   4.091  1.00  0.00     0.054 C 
BRANCH  26  27
HETATM   27  C12 UNL     1      49.336  57.005   3.495  1.00  0.00     0.284 C 
BRANCH  27  28
HETATM   28  N6  UNL     1      48.516  57.836   4.335  1.00  0.00    -0.065 N 
ATOM     29  H63 UNL     1      47.859  57.267   4.869  1.00  0.00     0.275 HD
ATOM     30  H62 UNL     1      49.067  58.227   5.099  1.00  0.00     0.275 HD
ATOM     31  H61 UNL     1      48.022  58.576   3.835  1.00  0.00     0.275 HD
ENDBRANCH  27  28
BRANCH  27  32
HETATM   32  C13 UNL     1      48.599  56.764   2.228  1.00  0.00     0.204 C 
HETATM   33  O2  UNL     1      49.243  56.750   1.150  1.00  0.00    -0.646 OA
HETATM   34  O3  UNL     1      47.230  56.553   2.161  1.00  0.00    -0.646 OA
ENDBRANCH  27  32
ENDBRANCH  26  27
ENDBRANCH  25  26
ENDBRANCH  24  25
ENDBRANCH  23  24
ENDBRANCH   3  23
BRANCH   4  35
HETATM   35  O4  UNL     1      43.423  51.994   3.524  1.00  0.00    -0.390 OA
ATOM     36  H4  UNL     1      42.548  51.737   3.791  1.00  0.00     0.210 HD
ENDBRANCH   4  35
TORSDOF 11
ENDMDL
