MODEL 17
REMARK VINA RESULT: -9.099263352      2.555      4.565
REMARK  15 active torsions:
REMARK  status: ('A' for Active; 'I' for Inactive)
REMARK    1  A    between atoms: O1_2  and  C2_3 
REMARK    2  A    between atoms: C5_6  and  S1_7 
REMARK    3  A    between atoms: S1_7  and  N1_10 
REMARK    4  A    between atoms: N1_10  and  C6_11 
REMARK    5  A    between atoms: N1_10  and  C10_15 
REMARK    6  A    between atoms: C6_11  and  C7_12 
REMARK    7  A    between atoms: C10_15  and  C11_16 
REMARK    8  A    between atoms: C11_16  and  O4_17 
REMARK    9  A    between atoms: C11_16  and  C12_19 
REMARK   10  A    between atoms: C12_19  and  C13_20 
REMARK   11  A    between atoms: C12_19  and  N2_27 
REMARK   12  A    between atoms: C13_20  and  C14_21 
REMARK       I    between atoms: N2_27  and  C20_29 
REMARK   13  A    between atoms: C20_29  and  O6_31 
REMARK   14  A    between atoms: O6_31  and  C21_32 
REMARK   15  A    between atoms: C25_37  and  O8_38 
ROOT
HETATM    1  C12 UNL     1      14.498  22.475  17.305  1.00  0.00     0.121 C 
ENDROOT
BRANCH   1   2
HETATM    2  C11 UNL     1      14.968  23.628  18.195  1.00  0.00     0.160 C 
BRANCH   2   3
HETATM    3  C10 UNL     1      16.025  24.397  17.492  1.00  0.00     0.174 C 
BRANCH   3   4
HETATM    4  N1  UNL     1      17.353  23.930  17.571  1.00  0.00    -0.283 N 
BRANCH   4   5
HETATM    5  S1  UNL     1      18.132  23.635  16.129  1.00  0.00     0.264 S 
HETATM    6  O2  UNL     1      17.042  23.365  15.086  1.00  0.00    -0.200 OA
HETATM    7  O3  UNL     1      18.925  22.329  16.118  1.00  0.00    -0.200 OA
BRANCH   5   8
HETATM    8  C5  UNL     1      19.083  24.936  15.474  1.00  0.00     0.080 A 
HETATM    9  C4  UNL     1      20.475  24.832  15.351  1.00  0.00     0.028 A 
HETATM   10  C3  UNL     1      21.250  25.836  14.824  1.00  0.00     0.038 A 
HETATM   11  C2  UNL     1      20.687  27.014  14.382  1.00  0.00     0.068 A 
HETATM   12  C29 UNL     1      19.319  27.143  14.490  1.00  0.00     0.038 A 
HETATM   13  C28 UNL     1      18.551  26.127  15.022  1.00  0.00     0.028 A 
BRANCH  11  14
HETATM   14  O1  UNL     1      21.496  28.009  13.853  1.00  0.00    -0.356 OA
HETATM   15  C1  UNL     1      22.539  28.626  14.541  1.00  0.00     0.210 C 
ENDBRANCH  11  14
ENDBRANCH   5   8
ENDBRANCH   4   5
BRANCH   4  16
HETATM   16  C6  UNL     1      18.059  24.004  18.766  1.00  0.00     0.080 C 
BRANCH  16  17
HETATM   17  C7  UNL     1      18.687  22.791  19.319  1.00  0.00     0.017 C 
HETATM   18  C8  UNL     1      19.289  23.098  20.696  1.00  0.00     0.015 C 
HETATM   19  C9  UNL     1      17.710  21.655  19.526  1.00  0.00     0.015 C 
ENDBRANCH  16  17
ENDBRANCH   4  16
ENDBRANCH   3   4
ENDBRANCH   2   3
BRANCH   2  20
HETATM   20  O4  UNL     1      13.874  24.502  18.411  1.00  0.00    -0.392 OA
ATOM     21  H4  UNL     1      14.217  25.386  18.454  1.00  0.00     0.210 HD
ENDBRANCH   2  20
ENDBRANCH   1   2
BRANCH   1  22
HETATM   22  C13 UNL     1      13.896  23.010  16.060  1.00  0.00     0.066 C 
BRANCH  22  23
HETATM   23  C14 UNL     1      13.465  21.977  15.089  1.00  0.00    -0.056 A 
HETATM   24  C15 UNL     1      12.126  21.841  14.780  1.00  0.00     0.007 A 
HETATM   25  C16 UNL     1      11.715  20.893  13.877  1.00  0.00     0.001 A 
HETATM   26  C17 UNL     1      12.631  20.061  13.265  1.00  0.00     0.000 A 
HETATM   27  C18 UNL     1      13.964  20.201  13.577  1.00  0.00     0.001 A 
HETATM   28  C19 UNL     1      14.382  21.149  14.481  1.00  0.00     0.007 A 
ENDBRANCH  22  23
ENDBRANCH   1  22
BRANCH   1  29
HETATM   29  N2  UNL     1      13.674  21.541  18.012  1.00  0.00    -0.329 N 
HETATM   30  C20 UNL     1      14.039  20.191  18.251  1.00  0.00     0.361 C 
HETATM   31  O5  UNL     1      15.157  19.814  17.806  1.00  0.00    -0.238 OA
ATOM     32  H2  UNL     1      12.773  21.865  18.364  1.00  0.00     0.165 HD
BRANCH  30  33
HETATM   33  O6  UNL     1      13.259  19.267  18.933  1.00  0.00    -0.299 OA
BRANCH  33  34
HETATM   34  C21 UNL     1      11.982  18.949  18.477  1.00  0.00     0.136 C 
HETATM   35  C22 UNL     1      11.868  18.905  16.969  1.00  0.00     0.065 C 
HETATM   36  C23 UNL     1      10.455  18.329  16.816  1.00  0.00     0.130 C 
HETATM   37  O7  UNL     1      10.263  17.718  15.606  1.00  0.00    -0.383 OA
HETATM   38  C26 UNL     1      10.467  17.234  17.847  1.00  0.00     0.048 C 
HETATM   39  C24 UNL     1      10.773  16.446  15.639  1.00  0.00     0.200 C 
HETATM   40  C25 UNL     1      11.066  16.074  17.055  1.00  0.00     0.148 C 
HETATM   41  C27 UNL     1      11.442  17.636  18.929  1.00  0.00     0.042 C 
BRANCH  40  42
HETATM   42  O8  UNL     1      10.475  14.877  17.441  1.00  0.00    -0.393 OA
ATOM     43  H8  UNL     1      10.990  14.113  17.211  1.00  0.00     0.210 HD
ENDBRANCH  40  42
ENDBRANCH  33  34
ENDBRANCH  30  33
ENDBRANCH   1  29
TORSDOF 15
ENDMDL
