MODEL 18
REMARK VINA RESULT: -9.073630507      2.149      3.432
REMARK  15 active torsions:
REMARK  status: ('A' for Active; 'I' for Inactive)
REMARK    1  A    between atoms: O1_2  and  C2_3 
REMARK    2  A    between atoms: C5_6  and  S1_7 
REMARK    3  A    between atoms: S1_7  and  N1_10 
REMARK    4  A    between atoms: N1_10  and  C6_11 
REMARK    5  A    between atoms: N1_10  and  C10_15 
REMARK    6  A    between atoms: C6_11  and  C7_12 
REMARK    7  A    between atoms: C10_15  and  C11_16 
REMARK    8  A    between atoms: C11_16  and  O4_17 
REMARK    9  A    between atoms: C11_16  and  C12_19 
REMARK   10  A    between atoms: C12_19  and  C13_20 
REMARK   11  A    between atoms: C12_19  and  N2_27 
REMARK   12  A    between atoms: C13_20  and  C14_21 
REMARK       I    between atoms: N2_27  and  C20_29 
REMARK   13  A    between atoms: C20_29  and  O6_31 
REMARK   14  A    between atoms: O6_31  and  C21_32 
REMARK   15  A    between atoms: C25_37  and  O8_38 
ROOT
HETATM    1  C12 UNL     1      15.559  22.498  17.834  1.00  0.00     0.121 C 
ENDROOT
BRANCH   1   2
HETATM    2  C11 UNL     1      16.624  23.174  18.700  1.00  0.00     0.160 C 
BRANCH   2   3
HETATM    3  C10 UNL     1      17.954  23.018  18.059  1.00  0.00     0.174 C 
BRANCH   3   4
HETATM    4  N1  UNL     1      18.709  24.180  17.799  1.00  0.00    -0.283 N 
BRANCH   4   5
HETATM    5  S1  UNL     1      18.525  24.873  16.296  1.00  0.00     0.264 S 
HETATM    6  O2  UNL     1      17.298  25.788  16.379  1.00  0.00    -0.200 OA
HETATM    7  O3  UNL     1      18.118  23.879  15.209  1.00  0.00    -0.200 OA
BRANCH   5   8
HETATM    8  C5  UNL     1      19.822  25.892  15.741  1.00  0.00     0.080 A 
HETATM    9  C4  UNL     1      19.749  27.287  15.846  1.00  0.00     0.028 A 
HETATM   10  C3  UNL     1      20.763  28.116  15.431  1.00  0.00     0.038 A 
HETATM   11  C2  UNL     1      21.921  27.607  14.883  1.00  0.00     0.068 A 
HETATM   12  C29 UNL     1      22.019  26.237  14.768  1.00  0.00     0.038 A 
HETATM   13  C28 UNL     1      20.993  25.415  15.188  1.00  0.00     0.028 A 
BRANCH  11  14
HETATM   14  O1  UNL     1      22.928  28.470  14.474  1.00  0.00    -0.356 OA
HETATM   15  C1  UNL     1      23.867  29.044  15.328  1.00  0.00     0.210 C 
ENDBRANCH  11  14
ENDBRANCH   5   8
ENDBRANCH   4   5
BRANCH   4  16
HETATM   16  C6  UNL     1      19.330  24.868  18.835  1.00  0.00     0.080 C 
BRANCH  16  17
HETATM   17  C7  UNL     1      20.742  24.591  19.151  1.00  0.00     0.017 C 
HETATM   18  C8  UNL     1      21.588  25.845  18.896  1.00  0.00     0.015 C 
HETATM   19  C9  UNL     1      20.966  24.215  20.600  1.00  0.00     0.015 C 
ENDBRANCH  16  17
ENDBRANCH   4  16
ENDBRANCH   3   4
ENDBRANCH   2   3
BRANCH   2  20
HETATM   20  O4  UNL     1      16.338  24.561  18.760  1.00  0.00    -0.392 OA
ATOM     21  H4  UNL     1      16.156  24.777  19.667  1.00  0.00     0.210 HD
ENDBRANCH   2  20
ENDBRANCH   1   2
BRANCH   1  22
HETATM   22  C13 UNL     1      14.902  23.503  16.963  1.00  0.00     0.066 C 
BRANCH  22  23
HETATM   23  C14 UNL     1      14.515  23.000  15.624  1.00  0.00    -0.056 A 
HETATM   24  C15 UNL     1      15.285  22.037  15.002  1.00  0.00     0.007 A 
HETATM   25  C16 UNL     1      14.934  21.558  13.765  1.00  0.00     0.001 A 
HETATM   26  C17 UNL     1      13.807  22.032  13.123  1.00  0.00     0.000 A 
HETATM   27  C18 UNL     1      13.043  22.991  13.746  1.00  0.00     0.001 A 
HETATM   28  C19 UNL     1      13.390  23.474  14.986  1.00  0.00     0.007 A 
ENDBRANCH  22  23
ENDBRANCH   1  22
BRANCH   1  29
HETATM   29  N2  UNL     1      14.656  21.697  18.606  1.00  0.00    -0.329 N 
HETATM   30  C20 UNL     1      14.758  20.287  18.725  1.00  0.00     0.361 C 
HETATM   31  O5  UNL     1      15.705  19.729  18.106  1.00  0.00    -0.238 OA
ATOM     32  H2  UNL     1      13.897  22.167  19.098  1.00  0.00     0.165 HD
BRANCH  30  33
HETATM   33  O6  UNL     1      13.898  19.489  19.466  1.00  0.00    -0.299 OA
BRANCH  33  34
HETATM   34  C21 UNL     1      12.551  19.397  19.124  1.00  0.00     0.136 C 
HETATM   35  C22 UNL     1      12.300  19.403  17.631  1.00  0.00     0.065 C 
HETATM   36  C23 UNL     1      10.802  19.074  17.603  1.00  0.00     0.130 C 
HETATM   37  O7  UNL     1      10.407  18.529  16.411  1.00  0.00    -0.383 OA
HETATM   38  C26 UNL     1      10.721  17.972  18.623  1.00  0.00     0.048 C 
HETATM   39  C24 UNL     1      10.697  17.188  16.392  1.00  0.00     0.200 C 
HETATM   40  C25 UNL     1      11.045  16.745  17.774  1.00  0.00     0.148 C 
HETATM   41  C27 UNL     1      11.840  18.183  19.616  1.00  0.00     0.042 C 
BRANCH  40  42
HETATM   42  O8  UNL     1      10.297  15.655  18.205  1.00  0.00    -0.393 OA
ATOM     43  H8  UNL     1       9.473  15.902  18.609  1.00  0.00     0.210 HD
ENDBRANCH  40  42
ENDBRANCH  33  34
ENDBRANCH  30  33
ENDBRANCH   1  29
TORSDOF 15
ENDMDL
