MODEL 6
REMARK VINA RESULT: -9.358737210      3.089      5.600
REMARK  15 active torsions:
REMARK  status: ('A' for Active; 'I' for Inactive)
REMARK    1  A    between atoms: O1_2  and  C2_3 
REMARK    2  A    between atoms: C5_6  and  S1_7 
REMARK    3  A    between atoms: S1_7  and  N1_10 
REMARK    4  A    between atoms: N1_10  and  C6_11 
REMARK    5  A    between atoms: N1_10  and  C10_15 
REMARK    6  A    between atoms: C6_11  and  C7_12 
REMARK    7  A    between atoms: C10_15  and  C11_16 
REMARK    8  A    between atoms: C11_16  and  O4_17 
REMARK    9  A    between atoms: C11_16  and  C12_19 
REMARK   10  A    between atoms: C12_19  and  C13_20 
REMARK   11  A    between atoms: C12_19  and  N2_27 
REMARK   12  A    between atoms: C13_20  and  C14_21 
REMARK       I    between atoms: N2_27  and  C20_29 
REMARK   13  A    between atoms: C20_29  and  O6_31 
REMARK   14  A    between atoms: O6_31  and  C21_32 
REMARK   15  A    between atoms: C25_37  and  O8_38 
ROOT
HETATM    1  C12 UNL     1      16.474  24.379  16.438  1.00  0.00     0.121 C 
ENDROOT
BRANCH   1   2
HETATM    2  C11 UNL     1      16.246  24.550  17.941  1.00  0.00     0.160 C 
BRANCH   2   3
HETATM    3  C10 UNL     1      17.488  24.199  18.673  1.00  0.00     0.174 C 
BRANCH   3   4
HETATM    4  N1  UNL     1      17.540  22.959  19.342  1.00  0.00    -0.283 N 
BRANCH   4   5
HETATM    5  S1  UNL     1      18.933  22.623  20.192  1.00  0.00     0.264 S 
HETATM    6  O2  UNL     1      19.631  21.472  19.458  1.00  0.00    -0.200 OA
HETATM    7  O3  UNL     1      18.677  22.023  21.573  1.00  0.00    -0.200 OA
BRANCH   5   8
HETATM    8  C5  UNL     1      20.118  23.894  20.285  1.00  0.00     0.080 A 
HETATM    9  C4  UNL     1      21.250  23.897  19.460  1.00  0.00     0.028 A 
HETATM   10  C3  UNL     1      22.194  24.894  19.500  1.00  0.00     0.038 A 
HETATM   11  C2  UNL     1      22.071  25.959  20.367  1.00  0.00     0.068 A 
HETATM   12  C29 UNL     1      20.965  25.980  21.190  1.00  0.00     0.038 A 
HETATM   13  C28 UNL     1      20.024  24.972  21.141  1.00  0.00     0.028 A 
BRANCH  11  14
HETATM   14  O1  UNL     1      23.040  26.951  20.383  1.00  0.00    -0.356 OA
HETATM   15  C1  UNL     1      24.303  26.829  19.808  1.00  0.00     0.210 C 
ENDBRANCH  11  14
ENDBRANCH   5   8
ENDBRANCH   4   5
BRANCH   4  16
HETATM   16  C6  UNL     1      16.388  22.205  19.527  1.00  0.00     0.080 C 
BRANCH  16  17
HETATM   17  C7  UNL     1      16.303  20.849  18.958  1.00  0.00     0.017 C 
HETATM   18  C8  UNL     1      14.838  20.397  18.905  1.00  0.00     0.015 C 
HETATM   19  C9  UNL     1      16.824  20.764  17.540  1.00  0.00     0.015 C 
ENDBRANCH  16  17
ENDBRANCH   4  16
ENDBRANCH   3   4
ENDBRANCH   2   3
BRANCH   2  20
HETATM   20  O4  UNL     1      15.967  25.915  18.199  1.00  0.00    -0.392 OA
ATOM     21  H4  UNL     1      16.323  26.123  19.055  1.00  0.00     0.210 HD
ENDBRANCH   2  20
ENDBRANCH   1   2
BRANCH   1  22
HETATM   22  C13 UNL     1      17.007  25.636  15.860  1.00  0.00     0.066 C 
BRANCH  22  23
HETATM   23  C14 UNL     1      18.417  25.560  15.411  1.00  0.00    -0.056 A 
HETATM   24  C15 UNL     1      18.959  26.591  14.670  1.00  0.00     0.007 A 
HETATM   25  C16 UNL     1      20.266  26.536  14.254  1.00  0.00     0.001 A 
HETATM   26  C17 UNL     1      21.057  25.450  14.569  1.00  0.00     0.000 A 
HETATM   27  C18 UNL     1      20.513  24.425  15.308  1.00  0.00     0.001 A 
HETATM   28  C19 UNL     1      19.205  24.475  15.728  1.00  0.00     0.007 A 
ENDBRANCH  22  23
ENDBRANCH   1  22
BRANCH   1  29
HETATM   29  N2  UNL     1      15.322  23.857  15.767  1.00  0.00    -0.329 N 
HETATM   30  C20 UNL     1      15.372  22.809  14.811  1.00  0.00     0.361 C 
HETATM   31  O5  UNL     1      16.509  22.326  14.554  1.00  0.00    -0.238 OA
ATOM     32  H2  UNL     1      14.412  24.261  15.988  1.00  0.00     0.165 HD
BRANCH  30  33
HETATM   33  O6  UNL     1      14.271  22.284  14.149  1.00  0.00    -0.299 OA
BRANCH  33  34
HETATM   34  C21 UNL     1      13.674  21.108  14.597  1.00  0.00     0.136 C 
HETATM   35  C22 UNL     1      12.839  21.288  15.847  1.00  0.00     0.065 C 
HETATM   36  C23 UNL     1      12.171  19.909  15.932  1.00  0.00     0.130 C 
HETATM   37  O7  UNL     1      11.007  19.933  16.651  1.00  0.00    -0.383 OA
HETATM   38  C26 UNL     1      11.781  19.679  14.498  1.00  0.00     0.048 C 
HETATM   39  C24 UNL     1       9.978  20.376  15.859  1.00  0.00     0.200 C 
HETATM   40  C25 UNL     1      10.424  20.374  14.434  1.00  0.00     0.148 C 
HETATM   41  C27 UNL     1      12.757  20.440  13.631  1.00  0.00     0.042 C 
BRANCH  40  42
HETATM   42  O8  UNL     1       9.568  19.673  13.593  1.00  0.00    -0.393 OA
ATOM     43  H8  UNL     1       9.914  18.830  13.323  1.00  0.00     0.210 HD
ENDBRANCH  40  42
ENDBRANCH  33  34
ENDBRANCH  30  33
ENDBRANCH   1  29
TORSDOF 15
ENDMDL
