MODEL 5
REMARK VINA RESULT: -9.363101069      2.523      9.970
REMARK  15 active torsions:
REMARK  status: ('A' for Active; 'I' for Inactive)
REMARK    1  A    between atoms: O1_2  and  C2_3 
REMARK    2  A    between atoms: C5_6  and  S1_7 
REMARK    3  A    between atoms: S1_7  and  N1_10 
REMARK    4  A    between atoms: N1_10  and  C6_11 
REMARK    5  A    between atoms: N1_10  and  C10_15 
REMARK    6  A    between atoms: C6_11  and  C7_12 
REMARK    7  A    between atoms: C10_15  and  C11_16 
REMARK    8  A    between atoms: C11_16  and  O4_17 
REMARK    9  A    between atoms: C11_16  and  C12_19 
REMARK   10  A    between atoms: C12_19  and  C13_20 
REMARK   11  A    between atoms: C12_19  and  N2_27 
REMARK   12  A    between atoms: C13_20  and  C14_21 
REMARK       I    between atoms: N2_27  and  C20_29 
REMARK   13  A    between atoms: C20_29  and  O6_31 
REMARK   14  A    between atoms: O6_31  and  C21_32 
REMARK   15  A    between atoms: C25_37  and  O8_38 
ROOT
HETATM    1  C12 UNL     1      18.537  24.565  16.139  1.00  0.00     0.121 C 
ENDROOT
BRANCH   1   2
HETATM    2  C11 UNL     1      17.225  24.008  15.583  1.00  0.00     0.160 C 
BRANCH   2   3
HETATM    3  C10 UNL     1      17.206  22.533  15.746  1.00  0.00     0.174 C 
BRANCH   3   4
HETATM    4  N1  UNL     1      15.990  21.919  16.111  1.00  0.00    -0.283 N 
BRANCH   4   5
HETATM    5  S1  UNL     1      15.847  21.422  17.694  1.00  0.00     0.264 S 
HETATM    6  O2  UNL     1      15.369  22.637  18.497  1.00  0.00    -0.200 OA
HETATM    7  O3  UNL     1      17.185  21.098  18.357  1.00  0.00    -0.200 OA
BRANCH   5   8
HETATM    8  C5  UNL     1      14.683  20.170  18.018  1.00  0.00     0.080 A 
HETATM    9  C4  UNL     1      15.071  18.831  18.158  1.00  0.00     0.028 A 
HETATM   10  C3  UNL     1      14.177  17.824  18.429  1.00  0.00     0.038 A 
HETATM   11  C2  UNL     1      12.832  18.086  18.579  1.00  0.00     0.068 A 
HETATM   12  C29 UNL     1      12.423  19.395  18.446  1.00  0.00     0.038 A 
HETATM   13  C28 UNL     1      13.330  20.398  18.174  1.00  0.00     0.028 A 
BRANCH  11  14
HETATM   14  O1  UNL     1      11.954  17.048  18.854  1.00  0.00    -0.356 OA
HETATM   15  C1  UNL     1      11.071  16.497  17.927  1.00  0.00     0.210 C 
ENDBRANCH  11  14
ENDBRANCH   5   8
ENDBRANCH   4   5
BRANCH   4  16
HETATM   16  C6  UNL     1      14.878  22.001  15.281  1.00  0.00     0.080 C 
BRANCH  16  17
HETATM   17  C7  UNL     1      14.811  21.170  14.067  1.00  0.00     0.017 C 
HETATM   18  C8  UNL     1      13.437  20.495  13.972  1.00  0.00     0.015 C 
HETATM   19  C9  UNL     1      14.982  21.965  12.790  1.00  0.00     0.015 C 
ENDBRANCH  16  17
ENDBRANCH   4  16
ENDBRANCH   3   4
ENDBRANCH   2   3
BRANCH   2  20
HETATM   20  O4  UNL     1      16.155  24.538  16.346  1.00  0.00    -0.392 OA
ATOM     21  H4  UNL     1      16.500  25.252  16.867  1.00  0.00     0.210 HD
ENDBRANCH   2  20
ENDBRANCH   1   2
BRANCH   1  22
HETATM   22  C13 UNL     1      19.558  24.627  15.065  1.00  0.00     0.066 C 
BRANCH  22  23
HETATM   23  C14 UNL     1      20.168  25.963  14.869  1.00  0.00    -0.056 A 
HETATM   24  C15 UNL     1      21.542  26.099  14.886  1.00  0.00     0.007 A 
HETATM   25  C16 UNL     1      22.120  27.330  14.698  1.00  0.00     0.001 A 
HETATM   26  C17 UNL     1      21.338  28.449  14.491  1.00  0.00     0.000 A 
HETATM   27  C18 UNL     1      19.970  28.307  14.474  1.00  0.00     0.001 A 
HETATM   28  C19 UNL     1      19.385  27.077  14.662  1.00  0.00     0.007 A 
ENDBRANCH  22  23
ENDBRANCH   1  22
BRANCH   1  29
HETATM   29  N2  UNL     1      18.961  23.882  17.325  1.00  0.00    -0.329 N 
HETATM   30  C20 UNL     1      18.562  24.255  18.635  1.00  0.00     0.361 C 
HETATM   31  O5  UNL     1      17.791  25.248  18.736  1.00  0.00    -0.238 OA
ATOM     32  H2  UNL     1      19.584  23.082  17.222  1.00  0.00     0.165 HD
BRANCH  30  33
HETATM   33  O6  UNL     1      18.957  23.610  19.799  1.00  0.00    -0.299 OA
BRANCH  33  34
HETATM   34  C21 UNL     1      20.137  23.976  20.441  1.00  0.00     0.136 C 
HETATM   35  C22 UNL     1      21.350  23.972  19.535  1.00  0.00     0.065 C 
HETATM   36  C23 UNL     1      22.389  24.613  20.464  1.00  0.00     0.130 C 
HETATM   37  O7  UNL     1      23.423  25.189  19.777  1.00  0.00    -0.383 OA
HETATM   38  C26 UNL     1      21.596  25.742  21.063  1.00  0.00     0.048 C 
HETATM   39  C24 UNL     1      23.055  26.435  19.337  1.00  0.00     0.200 C 
HETATM   40  C25 UNL     1      21.793  26.841  20.023  1.00  0.00     0.148 C 
HETATM   41  C27 UNL     1      20.142  25.329  21.064  1.00  0.00     0.042 C 
BRANCH  40  42
HETATM   42  O8  UNL     1      21.882  28.079  20.647  1.00  0.00    -0.393 OA
ATOM     43  H8  UNL     1      21.036  28.492  20.784  1.00  0.00     0.210 HD
ENDBRANCH  40  42
ENDBRANCH  33  34
ENDBRANCH  30  33
ENDBRANCH   1  29
TORSDOF 15
ENDMDL
