MODEL 2
REMARK VINA RESULT: -9.565330021      2.169      9.283
REMARK  15 active torsions:
REMARK  status: ('A' for Active; 'I' for Inactive)
REMARK    1  A    between atoms: O1_2  and  C2_3 
REMARK    2  A    between atoms: C5_6  and  S1_7 
REMARK    3  A    between atoms: S1_7  and  N1_10 
REMARK    4  A    between atoms: N1_10  and  C6_11 
REMARK    5  A    between atoms: N1_10  and  C10_15 
REMARK    6  A    between atoms: C6_11  and  C7_12 
REMARK    7  A    between atoms: C10_15  and  C11_16 
REMARK    8  A    between atoms: C11_16  and  O4_17 
REMARK    9  A    between atoms: C11_16  and  C12_19 
REMARK   10  A    between atoms: C12_19  and  C13_20 
REMARK   11  A    between atoms: C12_19  and  N2_27 
REMARK   12  A    between atoms: C13_20  and  C14_21 
REMARK       I    between atoms: N2_27  and  C20_29 
REMARK   13  A    between atoms: C20_29  and  O6_31 
REMARK   14  A    between atoms: O6_31  and  C21_32 
REMARK   15  A    between atoms: C25_37  and  O8_38 
ROOT
HETATM    1  C12 UNL     1      17.236  24.332  15.740  1.00  0.00     0.121 C 
ENDROOT
BRANCH   1   2
HETATM    2  C11 UNL     1      17.132  24.484  17.259  1.00  0.00     0.160 C 
BRANCH   2   3
HETATM    3  C10 UNL     1      18.461  24.238  17.873  1.00  0.00     0.174 C 
BRANCH   3   4
HETATM    4  N1  UNL     1      18.508  23.859  19.230  1.00  0.00    -0.283 N 
BRANCH   4   5
HETATM    5  S1  UNL     1      18.108  22.280  19.583  1.00  0.00     0.264 S 
HETATM    6  O2  UNL     1      17.917  22.202  21.102  1.00  0.00    -0.200 OA
HETATM    7  O3  UNL     1      19.249  21.293  19.345  1.00  0.00    -0.200 OA
BRANCH   5   8
HETATM    8  C5  UNL     1      16.625  21.679  18.901  1.00  0.00     0.080 A 
HETATM    9  C4  UNL     1      16.612  20.573  18.041  1.00  0.00     0.028 A 
HETATM   10  C3  UNL     1      15.456  20.067  17.500  1.00  0.00     0.038 A 
HETATM   11  C2  UNL     1      14.230  20.631  17.783  1.00  0.00     0.068 A 
HETATM   12  C29 UNL     1      14.213  21.720  18.627  1.00  0.00     0.038 A 
HETATM   13  C28 UNL     1      15.382  22.220  19.164  1.00  0.00     0.028 A 
BRANCH  11  14
HETATM   14  O1  UNL     1      13.079  20.096  17.223  1.00  0.00    -0.356 OA
HETATM   15  C1  UNL     1      11.906  19.836  17.929  1.00  0.00     0.210 C 
ENDBRANCH  11  14
ENDBRANCH   5   8
ENDBRANCH   4   5
BRANCH   4  16
HETATM   16  C6  UNL     1      19.138  24.666  20.170  1.00  0.00     0.080 C 
BRANCH  16  17
HETATM   17  C7  UNL     1      20.448  25.263  19.857  1.00  0.00     0.017 C 
HETATM   18  C8  UNL     1      20.833  26.273  20.945  1.00  0.00     0.015 C 
HETATM   19  C9  UNL     1      21.569  24.248  19.805  1.00  0.00     0.015 C 
ENDBRANCH  16  17
ENDBRANCH   4  16
ENDBRANCH   3   4
ENDBRANCH   2   3
BRANCH   2  20
HETATM   20  O4  UNL     1      16.765  25.821  17.552  1.00  0.00    -0.392 OA
ATOM     21  H4  UNL     1      15.910  25.974  17.169  1.00  0.00     0.210 HD
ENDBRANCH   2  20
ENDBRANCH   1   2
BRANCH   1  22
HETATM   22  C13 UNL     1      16.914  22.940  15.346  1.00  0.00     0.066 C 
BRANCH  22  23
HETATM   23  C14 UNL     1      15.569  22.762  14.750  1.00  0.00    -0.056 A 
HETATM   24  C15 UNL     1      15.426  22.050  13.576  1.00  0.00     0.007 A 
HETATM   25  C16 UNL     1      14.185  21.872  13.018  1.00  0.00     0.001 A 
HETATM   26  C17 UNL     1      13.062  22.402  13.621  1.00  0.00     0.000 A 
HETATM   27  C18 UNL     1      13.209  23.110  14.791  1.00  0.00     0.001 A 
HETATM   28  C19 UNL     1      14.450  23.292  15.355  1.00  0.00     0.007 A 
ENDBRANCH  22  23
ENDBRANCH   1  22
BRANCH   1  29
HETATM   29  N2  UNL     1      18.480  24.824  15.227  1.00  0.00    -0.329 N 
HETATM   30  C20 UNL     1      18.659  26.136  14.717  1.00  0.00     0.361 C 
HETATM   31  O5  UNL     1      17.652  26.894  14.725  1.00  0.00    -0.238 OA
ATOM     32  H2  UNL     1      19.283  24.195  15.229  1.00  0.00     0.165 HD
BRANCH  30  33
HETATM   33  O6  UNL     1      19.853  26.637  14.216  1.00  0.00    -0.299 OA
BRANCH  33  34
HETATM   34  C21 UNL     1      20.646  27.477  14.994  1.00  0.00     0.136 C 
HETATM   35  C22 UNL     1      20.866  26.973  16.404  1.00  0.00     0.065 C 
HETATM   36  C23 UNL     1      21.920  27.975  16.893  1.00  0.00     0.130 C 
HETATM   37  O7  UNL     1      22.667  27.487  17.931  1.00  0.00    -0.383 OA
HETATM   38  C26 UNL     1      22.839  28.044  15.704  1.00  0.00     0.048 C 
HETATM   39  C24 UNL     1      23.665  26.680  17.450  1.00  0.00     0.200 C 
HETATM   40  C25 UNL     1      23.776  26.869  15.973  1.00  0.00     0.148 C 
HETATM   41  C27 UNL     1      22.018  27.736  14.473  1.00  0.00     0.042 C 
BRANCH  40  42
HETATM   42  O8  UNL     1      25.064  27.181  15.555  1.00  0.00    -0.393 OA
ATOM     43  H8  UNL     1      25.335  28.059  15.797  1.00  0.00     0.210 HD
ENDBRANCH  40  42
ENDBRANCH  33  34
ENDBRANCH  30  33
ENDBRANCH   1  29
TORSDOF 15
ENDMDL
