MODEL 2
REMARK VINA RESULT: -9.861934775      3.199      4.749
REMARK  10 active torsions:
REMARK  status: ('A' for Active; 'I' for Inactive)
REMARK       I    between atoms: N1_2  and  C2_4 
REMARK    1  A    between atoms: C2_4  and  C3_6 
REMARK    2  A    between atoms: C9_12  and  N2_13 
REMARK    3  A    between atoms: N2_13  and  C10_15 
REMARK    4  A    between atoms: C11_18  and  N4_19 
REMARK    5  A    between atoms: N5_22  and  C14_23 
REMARK    6  A    between atoms: C22_34  and  N7_35 
REMARK    7  A    between atoms: C25_39  and  C26_40 
REMARK       I    between atoms: C26_40  and  N8_42 
REMARK    8  A    between atoms: N8_42  and  C27_44 
REMARK    9  A    between atoms: C27_44  and  C28_45 
REMARK       I    between atoms: C28_45  and  N9_47 
REMARK   10  A    between atoms: N9_47  and  O4_49 
ROOT
HETATM    1  C10 UNL     1      23.537  -8.165   8.533  1.00  0.00     0.711 A 
HETATM    2  N3  UNL     1      23.088  -8.322   7.280  1.00  0.00    -0.021 N 
ATOM      3  H3  UNL     1      22.683  -9.221   7.016  1.00  0.00     0.203 HD
HETATM    4  C11 UNL     1      23.145  -7.351   6.356  1.00  0.00     0.709 A 
HETATM    5  N6  UNL     1      23.686  -6.184   6.741  1.00  0.00    -0.021 N 
ATOM      6  H6  UNL     1      23.737  -5.436   6.050  1.00  0.00     0.203 HD
HETATM    7  C22 UNL     1      24.165  -5.927   7.971  1.00  0.00     0.710 A 
HETATM    8  N10 UNL     1      24.063  -6.983   8.856  1.00  0.00    -0.021 N 
ATOM      9  H10 UNL     1      24.407  -6.851   9.807  1.00  0.00     0.203 HD
ENDROOT
BRANCH   7  10
HETATM   10  N7  UNL     1      24.764  -4.742   8.406  1.00  0.00    -0.194 N 
HETATM   11  C23 UNL     1      24.283  -3.996   9.586  1.00  0.00     0.216 C 
HETATM   12  S1  UNL     1      25.893  -3.862  10.481  1.00  0.00    -0.146 SA
HETATM   13  C24 UNL     1      26.980  -4.298   9.052  1.00  0.00     0.111 C 
HETATM   14  C25 UNL     1      25.908  -4.038   7.955  1.00  0.00     0.204 C 
BRANCH  14  15
HETATM   15  C26 UNL     1      26.405  -4.188   6.622  1.00  0.00     0.242 C 
HETATM   16  O2  UNL     1      25.587  -4.108   5.641  1.00  0.00    -0.271 OA
HETATM   17  N8  UNL     1      27.756  -4.428   6.307  1.00  0.00    -0.350 N 
ATOM     18  H8  UNL     1      28.437  -4.497   7.063  1.00  0.00     0.163 HD
BRANCH  17  19
HETATM   19  C27 UNL     1      28.210  -4.580   4.923  1.00  0.00     0.227 C 
BRANCH  19  20
HETATM   20  C28 UNL     1      29.335  -3.696   4.622  1.00  0.00     0.258 C 
HETATM   21  O3  UNL     1      30.407  -4.222   4.206  1.00  0.00    -0.270 OA
HETATM   22  N9  UNL     1      29.266  -2.298   4.775  1.00  0.00    -0.236 N 
ATOM     23  H9  UNL     1      28.398  -1.874   5.104  1.00  0.00     0.197 HD
BRANCH  22  24
HETATM   24  O4  UNL     1      30.333  -1.495   4.492  1.00  0.00    -0.287 OA
ATOM     25  H4  UNL     1      31.222  -1.758   4.699  1.00  0.00     0.244 HD
ENDBRANCH  22  24
ENDBRANCH  19  20
ENDBRANCH  17  19
ENDBRANCH  14  15
ENDBRANCH   7  10
BRANCH   4  26
HETATM   26  N4  UNL     1      22.641  -7.560   5.029  1.00  0.00    -0.214 N 
HETATM   27  C12 UNL     1      23.064  -6.652   4.009  1.00  0.00     0.161 C 
HETATM   28  C13 UNL     1      21.989  -6.337   2.993  1.00  0.00     0.143 C 
HETATM   29  N5  UNL     1      20.812  -7.162   3.182  1.00  0.00    -0.376 N 
HETATM   30  C20 UNL     1      20.850  -8.518   3.623  1.00  0.00     0.143 C 
HETATM   31  C21 UNL     1      21.747  -8.672   4.815  1.00  0.00     0.161 C 
BRANCH  29  32
HETATM   32  C14 UNL     1      19.556  -6.549   2.905  1.00  0.00     0.052 A 
HETATM   33  C15 UNL     1      19.025  -6.486   1.634  1.00  0.00     0.031 A 
HETATM   34  C16 UNL     1      17.810  -5.894   1.361  1.00  0.00     0.002 A 
HETATM   35  C17 UNL     1      17.078  -5.336   2.383  1.00  0.00     0.002 A 
HETATM   36  C18 UNL     1      17.589  -5.385   3.672  1.00  0.00     0.026 A 
HETATM   37  C19 UNL     1      18.815  -5.987   3.921  1.00  0.00     0.060 A 
HETATM   38 CL1  UNL     1      19.392  -6.010   5.590  1.00  0.00    -0.082 Cl
ENDBRANCH  29  32
ENDBRANCH   4  26
BRANCH   1  39
HETATM   39  N2  UNL     1      23.435  -9.264   9.428  1.00  0.00    -0.189 N 
ATOM     40  H2  UNL     1      24.061  -9.330  10.230  1.00  0.00     0.184 HD
BRANCH  39  41
HETATM   41  C9  UNL     1      22.464 -10.265   9.203  1.00  0.00     0.070 A 
HETATM   42  C3  UNL     1      22.882 -11.472   8.676  1.00  0.00     0.059 A 
HETATM   43  C4  UNL     1      21.953 -12.451   8.444  1.00  0.00     0.019 A 
HETATM   44  C5  UNL     1      20.609 -12.183   8.755  1.00  0.00     0.002 A 
HETATM   45  C6  UNL     1      20.233 -10.969   9.279  1.00  0.00     0.009 A 
HETATM   46  C7  UNL     1      21.158  -9.970   9.519  1.00  0.00    -0.034 A 
HETATM   47  C8  UNL     1      20.772  -8.651  10.087  1.00  0.00     0.050 C 
BRANCH  42  48
HETATM   48  C2  UNL     1      24.290 -11.648   8.397  1.00  0.00     0.253 C 
HETATM   49  N1  UNL     1      25.126 -12.365   9.303  1.00  0.00    -0.361 N 
HETATM   50  C1  UNL     1      26.562 -12.532   9.000  1.00  0.00     0.149 C 
ATOM     51  H1  UNL     1      24.734 -12.761  10.157  1.00  0.00     0.162 HD
HETATM   52  O1  UNL     1      24.849 -11.190   7.363  1.00  0.00    -0.268 OA
ENDBRANCH  42  48
ENDBRANCH  39  41
ENDBRANCH   1  39
TORSDOF 10
ENDMDL
