MODEL 12
REMARK VINA RESULT: -9.124782722      3.818      8.276
REMARK  10 active torsions:
REMARK  status: ('A' for Active; 'I' for Inactive)
REMARK       I    between atoms: N1_2  and  C2_4 
REMARK    1  A    between atoms: C2_4  and  C3_6 
REMARK    2  A    between atoms: C9_12  and  N2_13 
REMARK    3  A    between atoms: N2_13  and  C10_15 
REMARK    4  A    between atoms: C11_18  and  N4_19 
REMARK    5  A    between atoms: N5_22  and  C14_23 
REMARK    6  A    between atoms: C22_34  and  N7_35 
REMARK    7  A    between atoms: C25_39  and  C26_40 
REMARK       I    between atoms: C26_40  and  N8_42 
REMARK    8  A    between atoms: N8_42  and  C27_44 
REMARK    9  A    between atoms: C27_44  and  C28_45 
REMARK       I    between atoms: C28_45  and  N9_47 
REMARK   10  A    between atoms: N9_47  and  O4_49 
ROOT
HETATM    1  C10 UNL     1      24.768  -7.138   7.376  1.00  0.00     0.711 A 
HETATM    2  N3  UNL     1      24.172  -7.033   6.179  1.00  0.00    -0.021 N 
ATOM      3  H3  UNL     1      24.647  -6.509   5.443  1.00  0.00     0.203 HD
HETATM    4  C11 UNL     1      22.981  -7.584   5.906  1.00  0.00     0.709 A 
HETATM    5  N6  UNL     1      22.387  -8.263   6.901  1.00  0.00    -0.021 N 
ATOM      6  H6  UNL     1      21.481  -8.687   6.708  1.00  0.00     0.203 HD
HETATM    7  C22 UNL     1      22.900  -8.425   8.133  1.00  0.00     0.710 A 
HETATM    8  N10 UNL     1      24.130  -7.825   8.323  1.00  0.00    -0.021 N 
ATOM      9  H10 UNL     1      24.574  -7.913   9.238  1.00  0.00     0.203 HD
ENDROOT
BRANCH   7  10
HETATM   10  N7  UNL     1      22.305  -9.093   9.206  1.00  0.00    -0.194 N 
HETATM   11  C23 UNL     1      21.655  -8.378  10.324  1.00  0.00     0.216 C 
HETATM   12  S1  UNL     1      20.033  -9.261  10.284  1.00  0.00    -0.146 SA
HETATM   13  C24 UNL     1      20.580 -10.689   9.247  1.00  0.00     0.111 C 
HETATM   14  C25 UNL     1      22.104 -10.470   9.471  1.00  0.00     0.204 C 
BRANCH  14  15
HETATM   15  C26 UNL     1      22.921 -11.478   8.869  1.00  0.00     0.242 C 
HETATM   16  O2  UNL     1      22.463 -12.138   7.873  1.00  0.00    -0.271 OA
HETATM   17  N8  UNL     1      24.219 -11.805   9.307  1.00  0.00    -0.350 N 
ATOM     18  H8  UNL     1      24.618 -11.299  10.097  1.00  0.00     0.163 HD
BRANCH  17  19
HETATM   19  C27 UNL     1      25.012 -12.851   8.658  1.00  0.00     0.227 C 
BRANCH  19  20
HETATM   20  C28 UNL     1      26.433 -12.728   8.975  1.00  0.00     0.258 C 
HETATM   21  O3  UNL     1      27.204 -12.280   8.078  1.00  0.00    -0.270 OA
HETATM   22  N9  UNL     1      26.967 -13.084  10.229  1.00  0.00    -0.236 N 
ATOM     23  H9  UNL     1      26.343 -13.439  10.954  1.00  0.00     0.197 HD
BRANCH  22  24
HETATM   24  O4  UNL     1      28.301 -12.966  10.497  1.00  0.00    -0.287 OA
ATOM     25  H4  UNL     1      28.678 -13.303  11.301  1.00  0.00     0.244 HD
ENDBRANCH  22  24
ENDBRANCH  19  20
ENDBRANCH  17  19
ENDBRANCH  14  15
ENDBRANCH   7  10
BRANCH   4  26
HETATM   26  N4  UNL     1      22.386  -7.454   4.606  1.00  0.00    -0.214 N 
HETATM   27  C12 UNL     1      22.605  -6.234   3.895  1.00  0.00     0.161 C 
HETATM   28  C13 UNL     1      21.412  -5.781   3.082  1.00  0.00     0.143 C 
HETATM   29  N5  UNL     1      20.361  -6.780   3.068  1.00  0.00    -0.376 N 
HETATM   30  C20 UNL     1      20.597  -8.187   3.067  1.00  0.00     0.143 C 
HETATM   31  C21 UNL     1      21.611  -8.564   4.106  1.00  0.00     0.161 C 
BRANCH  29  32
HETATM   32  C14 UNL     1      19.023  -6.292   3.059  1.00  0.00     0.052 A 
HETATM   33  C15 UNL     1      18.354  -5.984   1.893  1.00  0.00     0.031 A 
HETATM   34  C16 UNL     1      17.058  -5.512   1.878  1.00  0.00     0.002 A 
HETATM   35  C17 UNL     1      16.384  -5.333   3.063  1.00  0.00     0.002 A 
HETATM   36  C18 UNL     1      17.034  -5.636   4.252  1.00  0.00     0.026 A 
HETATM   37  C19 UNL     1      18.339  -6.109   4.239  1.00  0.00     0.060 A 
HETATM   38 CL1  UNL     1      19.092  -6.473   5.795  1.00  0.00    -0.082 Cl
ENDBRANCH  29  32
ENDBRANCH   4  26
BRANCH   1  39
HETATM   39  N2  UNL     1      26.028  -6.506   7.559  1.00  0.00    -0.189 N 
ATOM     40  H2  UNL     1      26.881  -7.064   7.580  1.00  0.00     0.184 HD
BRANCH  39  41
HETATM   41  C9  UNL     1      26.094  -5.103   7.714  1.00  0.00     0.070 A 
HETATM   42  C3  UNL     1      26.323  -4.334   6.590  1.00  0.00     0.059 A 
HETATM   43  C4  UNL     1      26.398  -2.972   6.723  1.00  0.00     0.019 A 
HETATM   44  C5  UNL     1      26.237  -2.417   8.003  1.00  0.00     0.002 A 
HETATM   45  C6  UNL     1      26.009  -3.217   9.098  1.00  0.00     0.009 A 
HETATM   46  C7  UNL     1      25.931  -4.593   8.982  1.00  0.00    -0.034 A 
HETATM   47  C8  UNL     1      25.684  -5.476  10.152  1.00  0.00     0.050 C 
BRANCH  42  48
HETATM   48  C2  UNL     1      26.469  -5.005   5.317  1.00  0.00     0.253 C 
HETATM   49  N1  UNL     1      27.715  -5.590   4.943  1.00  0.00    -0.361 N 
HETATM   50  C1  UNL     1      27.844  -6.269   3.638  1.00  0.00     0.149 C 
ATOM     51  H1  UNL     1      28.514  -5.540   5.575  1.00  0.00     0.162 HD
HETATM   52  O1  UNL     1      25.529  -5.111   4.484  1.00  0.00    -0.268 OA
ENDBRANCH  42  48
ENDBRANCH  39  41
ENDBRANCH   1  39
TORSDOF 10
ENDMDL
