MODEL 13
REMARK VINA RESULT: -9.115914203      2.919      6.641
REMARK  10 active torsions:
REMARK  status: ('A' for Active; 'I' for Inactive)
REMARK       I    between atoms: N1_2  and  C2_4 
REMARK    1  A    between atoms: C2_4  and  C3_6 
REMARK    2  A    between atoms: C9_12  and  N2_13 
REMARK    3  A    between atoms: N2_13  and  C10_15 
REMARK    4  A    between atoms: C11_18  and  N4_19 
REMARK    5  A    between atoms: N5_22  and  C14_23 
REMARK    6  A    between atoms: C22_34  and  N7_35 
REMARK    7  A    between atoms: C25_39  and  C26_40 
REMARK       I    between atoms: C26_40  and  N8_42 
REMARK    8  A    between atoms: N8_42  and  C27_44 
REMARK    9  A    between atoms: C27_44  and  C28_45 
REMARK       I    between atoms: C28_45  and  N9_47 
REMARK   10  A    between atoms: N9_47  and  O4_49 
ROOT
HETATM    1  C10 UNL     1      24.099  -7.159   5.367  1.00  0.00     0.711 A 
HETATM    2  N3  UNL     1      23.414  -8.058   6.089  1.00  0.00    -0.021 N 
ATOM      3  H3  UNL     1      23.035  -8.877   5.614  1.00  0.00     0.203 HD
HETATM    4  C11 UNL     1      23.205  -7.928   7.407  1.00  0.00     0.709 A 
HETATM    5  N6  UNL     1      23.719  -6.836   7.995  1.00  0.00    -0.021 N 
ATOM      6  H6  UNL     1      23.568  -6.724   8.998  1.00  0.00     0.203 HD
HETATM    7  C22 UNL     1      24.418  -5.879   7.361  1.00  0.00     0.710 A 
HETATM    8  N10 UNL     1      24.585  -6.096   6.007  1.00  0.00    -0.021 N 
ATOM      9  H10 UNL     1      25.109  -5.405   5.468  1.00  0.00     0.203 HD
ENDROOT
BRANCH   7  10
HETATM   10  N7  UNL     1      24.941  -4.712   7.924  1.00  0.00    -0.194 N 
HETATM   11  C23 UNL     1      24.355  -4.076   9.121  1.00  0.00     0.216 C 
HETATM   12  S1  UNL     1      25.897  -3.959  10.131  1.00  0.00    -0.146 SA
HETATM   13  C24 UNL     1      27.091  -4.244   8.750  1.00  0.00     0.111 C 
HETATM   14  C25 UNL     1      26.084  -3.936   7.606  1.00  0.00     0.204 C 
BRANCH  14  15
HETATM   15  C26 UNL     1      26.671  -3.964   6.302  1.00  0.00     0.242 C 
HETATM   16  O2  UNL     1      26.102  -3.327   5.349  1.00  0.00    -0.271 OA
HETATM   17  N8  UNL     1      27.852  -4.662   5.985  1.00  0.00    -0.350 N 
ATOM     18  H8  UNL     1      28.334  -5.181   6.719  1.00  0.00     0.163 HD
BRANCH  17  19
HETATM   19  C27 UNL     1      28.408  -4.663   4.630  1.00  0.00     0.227 C 
BRANCH  19  20
HETATM   20  C28 UNL     1      29.475  -3.676   4.482  1.00  0.00     0.258 C 
HETATM   21  O3  UNL     1      30.629  -4.092   4.173  1.00  0.00    -0.270 OA
HETATM   22  N9  UNL     1      29.266  -2.295   4.665  1.00  0.00    -0.236 N 
ATOM     23  H9  UNL     1      28.333  -1.960   4.908  1.00  0.00     0.197 HD
BRANCH  22  24
HETATM   24  O4  UNL     1      30.283  -1.394   4.527  1.00  0.00    -0.287 OA
ATOM     25  H4  UNL     1      30.113  -0.463   4.440  1.00  0.00     0.244 HD
ENDBRANCH  22  24
ENDBRANCH  19  20
ENDBRANCH  17  19
ENDBRANCH  14  15
ENDBRANCH   7  10
BRANCH   4  26
HETATM   26  N4  UNL     1      22.475  -8.921   8.142  1.00  0.00    -0.214 N 
HETATM   27  C12 UNL     1      21.340  -9.515   7.508  1.00  0.00     0.161 C 
HETATM   28  C13 UNL     1      20.200  -9.812   8.456  1.00  0.00     0.143 C 
HETATM   29  N5  UNL     1      20.576  -9.584   9.837  1.00  0.00    -0.376 N 
HETATM   30  C20 UNL     1      21.880  -9.832  10.361  1.00  0.00     0.143 C 
HETATM   31  C21 UNL     1      22.938  -9.255   9.468  1.00  0.00     0.161 C 
BRANCH  29  32
HETATM   32  C14 UNL     1      19.559  -9.079  10.697  1.00  0.00     0.052 A 
HETATM   33  C15 UNL     1      19.714  -7.920  11.427  1.00  0.00     0.031 A 
HETATM   34  C16 UNL     1      18.732  -7.425  12.260  1.00  0.00     0.002 A 
HETATM   35  C17 UNL     1      17.540  -8.099  12.384  1.00  0.00     0.002 A 
HETATM   36  C18 UNL     1      17.358  -9.269  11.660  1.00  0.00     0.026 A 
HETATM   37  C19 UNL     1      18.362  -9.746  10.828  1.00  0.00     0.060 A 
HETATM   38 CL1  UNL     1      18.049 -11.240   9.940  1.00  0.00    -0.082 Cl
ENDBRANCH  29  32
ENDBRANCH   4  26
BRANCH   1  39
HETATM   39  N2  UNL     1      24.253  -7.391   3.973  1.00  0.00    -0.189 N 
ATOM     40  H2  UNL     1      25.062  -7.015   3.478  1.00  0.00     0.184 HD
BRANCH  39  41
HETATM   41  C9  UNL     1      23.281  -8.143   3.275  1.00  0.00     0.070 A 
HETATM   42  C3  UNL     1      23.574  -9.457   2.966  1.00  0.00     0.059 A 
HETATM   43  C4  UNL     1      22.647 -10.199   2.282  1.00  0.00     0.019 A 
HETATM   44  C5  UNL     1      21.434  -9.586   1.925  1.00  0.00     0.002 A 
HETATM   45  C6  UNL     1      21.180  -8.275   2.252  1.00  0.00     0.009 A 
HETATM   46  C7  UNL     1      22.105  -7.512   2.942  1.00  0.00    -0.034 A 
HETATM   47  C8  UNL     1      21.850  -6.094   3.306  1.00  0.00     0.050 C 
BRANCH  42  48
HETATM   48  C2  UNL     1      24.850  -9.994   3.385  1.00  0.00     0.253 C 
HETATM   49  N1  UNL     1      24.935 -10.874   4.504  1.00  0.00    -0.361 N 
HETATM   50  C1  UNL     1      26.249 -11.410   4.917  1.00  0.00     0.149 C 
ATOM     51  H1  UNL     1      24.093 -11.133   5.017  1.00  0.00     0.162 HD
HETATM   52  O1  UNL     1      25.935  -9.723   2.802  1.00  0.00    -0.268 OA
ENDBRANCH  42  48
ENDBRANCH  39  41
ENDBRANCH   1  39
TORSDOF 10
ENDMDL
