MODEL 7
REMARK VINA RESULT: -9.382845593      3.836      7.359
REMARK  10 active torsions:
REMARK  status: ('A' for Active; 'I' for Inactive)
REMARK       I    between atoms: N1_2  and  C2_4 
REMARK    1  A    between atoms: C2_4  and  C3_6 
REMARK    2  A    between atoms: C9_12  and  N2_13 
REMARK    3  A    between atoms: N2_13  and  C10_15 
REMARK    4  A    between atoms: C11_18  and  N4_19 
REMARK    5  A    between atoms: N5_22  and  C14_23 
REMARK    6  A    between atoms: C22_34  and  N7_35 
REMARK    7  A    between atoms: C25_39  and  C26_40 
REMARK       I    between atoms: C26_40  and  N8_42 
REMARK    8  A    between atoms: N8_42  and  C27_44 
REMARK    9  A    between atoms: C27_44  and  C28_45 
REMARK       I    between atoms: C28_45  and  N9_47 
REMARK   10  A    between atoms: N9_47  and  O4_49 
ROOT
HETATM    1  C10 UNL     1      22.508 -10.724   6.275  1.00  0.00     0.711 A 
HETATM    2  N3  UNL     1      22.924  -9.479   5.998  1.00  0.00    -0.021 N 
ATOM      3  H3  UNL     1      22.457  -8.696   6.456  1.00  0.00     0.203 HD
HETATM    4  C11 UNL     1      23.925  -9.216   5.146  1.00  0.00     0.709 A 
HETATM    5  N6  UNL     1      24.513 -10.273   4.562  1.00  0.00    -0.021 N 
ATOM      6  H6  UNL     1      25.276 -10.089   3.911  1.00  0.00     0.203 HD
HETATM    7  C22 UNL     1      24.171 -11.556   4.772  1.00  0.00     0.710 A 
HETATM    8  N10 UNL     1      23.132 -11.731   5.665  1.00  0.00    -0.021 N 
ATOM      9  H10 UNL     1      22.825 -12.683   5.868  1.00  0.00     0.203 HD
ENDROOT
BRANCH   7  10
HETATM   10  N7  UNL     1      24.730 -12.683   4.163  1.00  0.00    -0.194 N 
HETATM   11  C23 UNL     1      23.907 -13.753   3.565  1.00  0.00     0.216 C 
HETATM   12  S1  UNL     1      24.710 -13.798   1.903  1.00  0.00    -0.146 SA
HETATM   13  C24 UNL     1      26.234 -12.860   2.365  1.00  0.00     0.111 C 
HETATM   14  C25 UNL     1      26.074 -13.049   3.900  1.00  0.00     0.204 C 
BRANCH  14  15
HETATM   15  C26 UNL     1      27.160 -12.511   4.659  1.00  0.00     0.242 C 
HETATM   16  O2  UNL     1      27.402 -11.256   4.596  1.00  0.00    -0.271 OA
HETATM   17  N8  UNL     1      28.002 -13.281   5.485  1.00  0.00    -0.350 N 
ATOM     18  H8  UNL     1      27.838 -14.285   5.561  1.00  0.00     0.163 HD
BRANCH  17  19
HETATM   19  C27 UNL     1      29.106 -12.681   6.236  1.00  0.00     0.227 C 
BRANCH  19  20
HETATM   20  C28 UNL     1      30.298 -12.515   5.407  1.00  0.00     0.258 C 
HETATM   21  O3  UNL     1      30.998 -11.475   5.576  1.00  0.00    -0.270 OA
HETATM   22  N9  UNL     1      30.692 -13.463   4.442  1.00  0.00    -0.236 N 
ATOM     23  H9  UNL     1      30.131 -14.305   4.312  1.00  0.00     0.197 HD
BRANCH  22  24
HETATM   24  O4  UNL     1      31.808 -13.281   3.677  1.00  0.00    -0.287 OA
ATOM     25  H4  UNL     1      31.997 -13.841   2.932  1.00  0.00     0.244 HD
ENDBRANCH  22  24
ENDBRANCH  19  20
ENDBRANCH  17  19
ENDBRANCH  14  15
ENDBRANCH   7  10
BRANCH   4  26
HETATM   26  N4  UNL     1      24.344  -7.869   4.888  1.00  0.00    -0.214 N 
HETATM   27  C12 UNL     1      25.735  -7.641   4.646  1.00  0.00     0.161 C 
HETATM   28  C13 UNL     1      26.246  -6.337   5.217  1.00  0.00     0.143 C 
HETATM   29  N5  UNL     1      25.168  -5.520   5.740  1.00  0.00    -0.376 N 
HETATM   30  C20 UNL     1      23.861  -5.462   5.170  1.00  0.00     0.143 C 
HETATM   31  C21 UNL     1      23.335  -6.837   4.886  1.00  0.00     0.161 C 
BRANCH  29  32
HETATM   32  C14 UNL     1      25.464  -4.744   6.897  1.00  0.00     0.052 A 
HETATM   33  C15 UNL     1      26.068  -3.507   6.825  1.00  0.00     0.031 A 
HETATM   34  C16 UNL     1      26.356  -2.751   7.943  1.00  0.00     0.002 A 
HETATM   35  C17 UNL     1      26.037  -3.230   9.191  1.00  0.00     0.002 A 
HETATM   36  C18 UNL     1      25.428  -4.473   9.292  1.00  0.00     0.026 A 
HETATM   37  C19 UNL     1      25.148  -5.215   8.152  1.00  0.00     0.060 A 
HETATM   38 CL1  UNL     1      24.370  -6.785   8.367  1.00  0.00    -0.082 Cl
ENDBRANCH  29  32
ENDBRANCH   4  26
BRANCH   1  39
HETATM   39  N2  UNL     1      21.431 -10.887   7.188  1.00  0.00    -0.189 N 
ATOM     40  H2  UNL     1      20.707 -11.582   7.006  1.00  0.00     0.184 HD
BRANCH  39  41
HETATM   41  C9  UNL     1      21.366 -10.083   8.348  1.00  0.00     0.070 A 
HETATM   42  C3  UNL     1      22.316 -10.278   9.330  1.00  0.00     0.059 A 
HETATM   43  C4  UNL     1      22.263  -9.513  10.466  1.00  0.00     0.019 A 
HETATM   44  C5  UNL     1      21.239  -8.558  10.579  1.00  0.00     0.002 A 
HETATM   45  C6  UNL     1      20.311  -8.393   9.578  1.00  0.00     0.009 A 
HETATM   46  C7  UNL     1      20.350  -9.157   8.426  1.00  0.00    -0.034 A 
HETATM   47  C8  UNL     1      19.358  -8.994   7.331  1.00  0.00     0.050 C 
BRANCH  42  48
HETATM   48  C2  UNL     1      23.332 -11.284   9.112  1.00  0.00     0.253 C 
HETATM   49  N1  UNL     1      24.707 -10.917   9.010  1.00  0.00    -0.361 N 
HETATM   50  C1  UNL     1      25.729 -11.960   8.785  1.00  0.00     0.149 C 
ATOM     51  H1  UNL     1      24.983  -9.940   9.091  1.00  0.00     0.162 HD
HETATM   52  O1  UNL     1      23.071 -12.513   9.003  1.00  0.00    -0.268 OA
ENDBRANCH  42  48
ENDBRANCH  39  41
ENDBRANCH   1  39
TORSDOF 10
ENDMDL
