MODEL 6
REMARK VINA RESULT: -4.638291459      4.390      5.326
REMARK  4 active torsions:
REMARK  status: ('A' for Active; 'I' for Inactive)
REMARK    1  A    between atoms: C5_8  and  C6_9 
REMARK    2  A    between atoms: C6_9  and  O2_10 
REMARK    3  A    between atoms: C7_12  and  O3_13 
REMARK    4  A    between atoms: C8_15  and  O4_16 
ROOT
HETATM    1  C1  UNL     1      40.615  22.121 -15.936  1.00  0.00     0.076 C 
HETATM    2  C2  UNL     1      40.404  20.682 -15.556  1.00  0.00     0.041 C 
HETATM    3  N1  UNL     1      39.661  19.828 -16.049  1.00  0.00    -0.378 N 
ATOM      4  H1  UNL     1      39.078  20.096 -16.842  1.00  0.00     0.160 HD
HETATM    5  C3  UNL     1      39.575  18.543 -15.591  1.00  0.00     0.152 C 
HETATM    6  C4  UNL     1      40.569  18.216 -14.536  1.00  0.00     0.214 C 
HETATM    7  O1  UNL     1      40.082  17.639 -13.400  1.00  0.00    -0.363 OA
HETATM    8  C5  UNL     1      39.321  16.532 -13.736  1.00  0.00     0.178 C 
HETATM    9  C7  UNL     1      38.114  16.890 -14.584  1.00  0.00     0.180 C 
HETATM   10  C8  UNL     1      38.194  18.366 -14.927  1.00  0.00     0.175 C 
HETATM   11  S1  UNL     1      41.263  19.879 -14.210  1.00  0.00    -0.083 SA
ENDROOT
BRANCH   8  12
HETATM   12  C6  UNL     1      40.200  15.502 -14.406  1.00  0.00     0.198 C 
BRANCH  12  13
HETATM   13  O2  UNL     1      39.660  14.205 -14.242  1.00  0.00    -0.398 OA
ATOM     14  H2  UNL     1      40.350  13.552 -14.258  1.00  0.00     0.209 HD
ENDBRANCH  12  13
ENDBRANCH   8  12
BRANCH   9  15
HETATM   15  O3  UNL     1      36.924  16.557 -13.977  1.00  0.00    -0.390 OA
ATOM     16  H3  UNL     1      36.620  17.229 -13.379  1.00  0.00     0.210 HD
ENDBRANCH   9  15
BRANCH  10  17
HETATM   17  O4  UNL     1      37.175  18.783 -15.742  1.00  0.00    -0.391 OA
ATOM     18  H4  UNL     1      36.401  19.024 -15.248  1.00  0.00     0.210 HD
ENDBRANCH  10  17
TORSDOF 4
ENDMDL
