MODEL 4
REMARK VINA RESULT: -5.293372631      2.930      4.767
REMARK  4 active torsions:
REMARK  status: ('A' for Active; 'I' for Inactive)
REMARK    1  A    between atoms: C5_8  and  C6_9 
REMARK    2  A    between atoms: C6_9  and  O2_10 
REMARK    3  A    between atoms: C7_12  and  O3_13 
REMARK    4  A    between atoms: C8_15  and  O4_16 
ROOT
HETATM    1  C1  UNL     1      40.947  19.027 -14.875  1.00  0.00     0.076 C 
HETATM    2  C2  UNL     1      39.597  18.378 -15.004  1.00  0.00     0.041 C 
HETATM    3  N1  UNL     1      38.693  18.573 -15.823  1.00  0.00    -0.378 N 
ATOM      4  H1  UNL     1      38.842  19.277 -16.546  1.00  0.00     0.160 HD
HETATM    5  C3  UNL     1      37.506  17.897 -15.815  1.00  0.00     0.152 C 
HETATM    6  C4  UNL     1      37.450  16.795 -14.820  1.00  0.00     0.214 C 
HETATM    7  O1  UNL     1      36.368  16.779 -13.991  1.00  0.00    -0.363 OA
HETATM    8  C5  UNL     1      35.208  16.835 -14.746  1.00  0.00     0.178 C 
HETATM    9  C7  UNL     1      35.104  18.112 -15.559  1.00  0.00     0.180 C 
HETATM   10  C8  UNL     1      36.399  18.887 -15.398  1.00  0.00     0.175 C 
HETATM   11  S1  UNL     1      39.005  17.100 -13.903  1.00  0.00    -0.083 SA
ENDROOT
BRANCH   8  12
HETATM   12  C6  UNL     1      35.113  15.601 -15.612  1.00  0.00     0.198 C 
BRANCH  12  13
HETATM   13  O2  UNL     1      34.729  15.947 -16.930  1.00  0.00    -0.398 OA
ATOM     14  H2  UNL     1      33.839  15.665 -17.103  1.00  0.00     0.209 HD
ENDBRANCH  12  13
ENDBRANCH   8  12
BRANCH   9  15
HETATM   15  O3  UNL     1      33.999  18.863 -15.225  1.00  0.00    -0.390 OA
ATOM     16  H3  UNL     1      33.233  18.632 -15.738  1.00  0.00     0.210 HD
ENDBRANCH   9  15
BRANCH  10  17
HETATM   17  O4  UNL     1      36.431  20.037 -16.141  1.00  0.00    -0.391 OA
ATOM     18  H4  UNL     1      36.362  19.861 -17.071  1.00  0.00     0.210 HD
ENDBRANCH  10  17
TORSDOF 4
ENDMDL
