MODEL 3
REMARK VINA RESULT: -5.524766398      2.704      4.808
REMARK  4 active torsions:
REMARK  status: ('A' for Active; 'I' for Inactive)
REMARK    1  A    between atoms: C5_8  and  C6_9 
REMARK    2  A    between atoms: C6_9  and  O2_10 
REMARK    3  A    between atoms: C7_12  and  O3_13 
REMARK    4  A    between atoms: C8_15  and  O4_16 
ROOT
HETATM    1  C1  UNL     1      40.452  18.347 -14.108  1.00  0.00     0.076 C 
HETATM    2  C2  UNL     1      39.129  17.979 -14.720  1.00  0.00     0.041 C 
HETATM    3  N1  UNL     1      38.499  18.511 -15.639  1.00  0.00    -0.378 N 
ATOM      4  H1  UNL     1      38.903  19.336 -16.084  1.00  0.00     0.160 HD
HETATM    5  C3  UNL     1      37.293  18.058 -16.094  1.00  0.00     0.152 C 
HETATM    6  C4  UNL     1      36.868  16.772 -15.484  1.00  0.00     0.214 C 
HETATM    7  O1  UNL     1      35.607  16.732 -14.966  1.00  0.00    -0.363 OA
HETATM    8  C5  UNL     1      34.702  17.159 -15.923  1.00  0.00     0.178 C 
HETATM    9  C7  UNL     1      34.943  18.595 -16.352  1.00  0.00     0.180 C 
HETATM   10  C8  UNL     1      36.216  19.084 -15.687  1.00  0.00     0.175 C 
HETATM   11  S1  UNL     1      38.144  16.586 -14.184  1.00  0.00    -0.083 SA
ENDROOT
BRANCH   8  12
HETATM   12  C6  UNL     1      34.723  16.205 -17.095  1.00  0.00     0.198 C 
BRANCH  12  13
HETATM   13  O2  UNL     1      34.749  16.919 -18.317  1.00  0.00    -0.398 OA
ATOM     14  H2  UNL     1      35.010  16.349 -19.030  1.00  0.00     0.209 HD
ENDBRANCH  12  13
ENDBRANCH   8  12
BRANCH   9  15
HETATM   15  O3  UNL     1      33.866  19.412 -16.089  1.00  0.00    -0.390 OA
ATOM     16  H3  UNL     1      33.054  19.069 -16.441  1.00  0.00     0.210 HD
ENDBRANCH   9  15
BRANCH  10  17
HETATM   17  O4  UNL     1      36.556  20.359 -16.055  1.00  0.00    -0.391 OA
ATOM     18  H4  UNL     1      37.448  20.574 -15.810  1.00  0.00     0.210 HD
ENDBRANCH  10  17
TORSDOF 4
ENDMDL
