MODEL 1
REMARK VINA RESULT: -6.450541153      0.000      0.000
REMARK  4 active torsions:
REMARK  status: ('A' for Active; 'I' for Inactive)
REMARK    1  A    between atoms: C5_8  and  C6_9 
REMARK    2  A    between atoms: C6_9  and  O2_10 
REMARK    3  A    between atoms: C7_12  and  O3_13 
REMARK    4  A    between atoms: C8_15  and  O4_16 
ROOT
HETATM    1  C1  UNL     1      32.194  20.653 -18.182  1.00  0.00     0.076 C 
HETATM    2  C2  UNL     1      33.326  19.906 -17.533  1.00  0.00     0.041 C 
HETATM    3  N1  UNL     1      34.028  18.988 -17.968  1.00  0.00    -0.378 N 
ATOM      4  H1  UNL     1      33.848  18.650 -18.914  1.00  0.00     0.160 HD
HETATM    5  C3  UNL     1      35.033  18.399 -17.254  1.00  0.00     0.152 C 
HETATM    6  C4  UNL     1      35.310  19.061 -15.953  1.00  0.00     0.214 C 
HETATM    7  O1  UNL     1      35.353  18.252 -14.856  1.00  0.00    -0.363 OA
HETATM    8  C5  UNL     1      36.234  17.208 -15.088  1.00  0.00     0.178 C 
HETATM    9  C7  UNL     1      35.803  16.331 -16.250  1.00  0.00     0.180 C 
HETATM   10  C8  UNL     1      34.588  16.965 -16.901  1.00  0.00     0.175 C 
HETATM   11  S1  UNL     1      33.910  20.237 -15.876  1.00  0.00    -0.083 SA
ENDROOT
BRANCH   8  12
HETATM   12  C6  UNL     1      37.627  17.759 -15.279  1.00  0.00     0.198 C 
BRANCH  12  13
HETATM   13  O2  UNL     1      38.403  17.565 -14.111  1.00  0.00    -0.398 OA
ATOM     14  H2  UNL     1      38.996  16.833 -14.222  1.00  0.00     0.209 HD
ENDBRANCH  12  13
ENDBRANCH   8  12
BRANCH   9  15
HETATM   15  O3  UNL     1      35.574  15.027 -15.870  1.00  0.00    -0.390 OA
ATOM     16  H3  UNL     1      34.958  14.584 -16.441  1.00  0.00     0.210 HD
ENDBRANCH   9  15
BRANCH  10  17
HETATM   17  O4  UNL     1      34.151  16.277 -18.002  1.00  0.00    -0.391 OA
ATOM     18  H4  UNL     1      33.838  16.859 -18.684  1.00  0.00     0.210 HD
ENDBRANCH  10  17
TORSDOF 4
ENDMDL
