MODEL 1
REMARK VINA RESULT: -6.034273929      0.000      0.000
REMARK  4 active torsions:
REMARK  status: ('A' for Active; 'I' for Inactive)
REMARK    1  A    between atoms: C5_9  and  C6_10 
REMARK    2  A    between atoms: C6_10  and  O2_11 
REMARK    3  A    between atoms: C7_13  and  O3_14 
REMARK    4  A    between atoms: C8_16  and  O4_17 
ROOT
HETATM    1  C1  UNL     1     -32.584 -20.631 -17.886  1.00  0.00     0.052 C 
HETATM    2  C2  UNL     1     -32.918 -19.299 -17.207  1.00  0.00     0.246 C 
HETATM    3  N1  UNL     1     -33.830 -18.608 -18.050  1.00  0.00    -0.052 N 
ATOM      4  H11 UNL     1     -34.178 -19.209 -18.796  1.00  0.00     0.279 HD
ATOM      5  H12 UNL     1     -33.353 -17.908 -18.620  1.00  0.00     0.279 HD
HETATM    6  C3  UNL     1     -34.893 -18.036 -17.307  1.00  0.00     0.257 C 
HETATM    7  C4  UNL     1     -35.450 -19.031 -16.358  1.00  0.00     0.218 C 
HETATM    8  O1  UNL     1     -36.287 -18.610 -15.433  1.00  0.00    -0.363 OA
HETATM    9  C5  UNL     1     -36.217 -17.378 -14.902  1.00  0.00     0.178 C 
HETATM   10  C7  UNL     1     -35.280 -16.395 -15.447  1.00  0.00     0.180 C 
HETATM   11  C8  UNL     1     -34.422 -16.819 -16.585  1.00  0.00     0.183 C 
HETATM   12  S1  UNL     1     -33.890 -19.756 -15.713  1.00  0.00    -0.102 SA
ENDROOT
BRANCH   9  13
HETATM   13  C6  UNL     1     -37.653 -16.819 -14.941  1.00  0.00     0.198 C 
BRANCH  13  14
HETATM   14  O2  UNL     1     -37.847 -15.848 -13.988  1.00  0.00    -0.398 OA
ATOM     15  H2  UNL     1     -38.283 -15.084 -14.347  1.00  0.00     0.209 HD
ENDBRANCH  13  14
ENDBRANCH   9  13
BRANCH  10  16
HETATM   16  O3  UNL     1     -35.977 -15.232 -15.857  1.00  0.00    -0.390 OA
ATOM     17  H3  UNL     1     -35.710 -14.489 -15.330  1.00  0.00     0.210 HD
ENDBRANCH  10  16
BRANCH  11  18
HETATM   18  O4  UNL     1     -34.282 -15.797 -17.530  1.00  0.00    -0.391 OA
ATOM     19  H4  UNL     1     -33.551 -15.254 -17.258  1.00  0.00     0.210 HD
ENDBRANCH  11  18
TORSDOF 4
ENDMDL
