MODEL 5
REMARK VINA RESULT: -4.566598069      2.743      5.082
REMARK  4 active torsions:
REMARK  status: ('A' for Active; 'I' for Inactive)
REMARK    1  A    between atoms: C5_9  and  C6_10 
REMARK    2  A    between atoms: C6_10  and  O2_11 
REMARK    3  A    between atoms: C7_13  and  O3_14 
REMARK    4  A    between atoms: C8_16  and  O4_17 
ROOT
HETATM    1  C1  UNL     1     -39.963 -15.843 -13.592  1.00  0.00     0.052 C 
HETATM    2  C2  UNL     1     -38.936 -16.959 -13.804  1.00  0.00     0.246 C 
HETATM    3  N1  UNL     1     -39.063 -17.405 -15.147  1.00  0.00    -0.052 N 
ATOM      4  H11 UNL     1     -39.661 -16.784 -15.692  1.00  0.00     0.279 HD
ATOM      5  H12 UNL     1     -39.624 -18.256 -15.207  1.00  0.00     0.279 HD
HETATM    6  C3  UNL     1     -37.797 -17.575 -15.761  1.00  0.00     0.257 C 
HETATM    7  C4  UNL     1     -36.939 -16.392 -15.506  1.00  0.00     0.218 C 
HETATM    8  O1  UNL     1     -35.660 -16.473 -15.805  1.00  0.00    -0.363 OA
HETATM    9  C5  UNL     1     -34.974 -17.626 -15.741  1.00  0.00     0.178 C 
HETATM   10  C7  UNL     1     -35.674 -18.883 -15.469  1.00  0.00     0.180 C 
HETATM   11  C8  UNL     1     -37.144 -18.821 -15.264  1.00  0.00     0.183 C 
HETATM   12  S1  UNL     1     -37.298 -16.124 -13.724  1.00  0.00    -0.102 SA
ENDROOT
BRANCH   9  13
HETATM   13  C6  UNL     1     -34.196 -17.730 -17.067  1.00  0.00     0.198 C 
BRANCH  13  14
HETATM   14  O2  UNL     1     -34.932 -17.259 -18.128  1.00  0.00    -0.398 OA
ATOM     15  H2  UNL     1     -35.011 -16.312 -18.108  1.00  0.00     0.209 HD
ENDBRANCH  13  14
ENDBRANCH   9  13
BRANCH  10  16
HETATM   16  O3  UNL     1     -35.434 -19.810 -16.513  1.00  0.00    -0.390 OA
ATOM     17  H3  UNL     1     -36.069 -20.515 -16.475  1.00  0.00     0.210 HD
ENDBRANCH  10  16
BRANCH  11  18
HETATM   18  O4  UNL     1     -37.793 -19.905 -15.867  1.00  0.00    -0.391 OA
ATOM     19  H4  UNL     1     -37.376 -20.055 -16.707  1.00  0.00     0.210 HD
ENDBRANCH  11  18
TORSDOF 4
ENDMDL
