MODEL 4
REMARK VINA RESULT: -4.873375833      2.573      4.655
REMARK  4 active torsions:
REMARK  status: ('A' for Active; 'I' for Inactive)
REMARK    1  A    between atoms: C5_9  and  C6_10 
REMARK    2  A    between atoms: C6_10  and  O2_11 
REMARK    3  A    between atoms: C7_13  and  O3_14 
REMARK    4  A    between atoms: C8_16  and  O4_17 
ROOT
HETATM    1  C1  UNL     1     -39.456 -17.156 -13.835  1.00  0.00     0.052 C 
HETATM    2  C2  UNL     1     -38.062 -17.692 -14.175  1.00  0.00     0.246 C 
HETATM    3  N1  UNL     1     -38.126 -18.250 -15.480  1.00  0.00    -0.052 N 
ATOM      4  H11 UNL     1     -39.003 -18.014 -15.944  1.00  0.00     0.279 HD
ATOM      5  H12 UNL     1     -38.232 -19.264 -15.449  1.00  0.00     0.279 HD
HETATM    6  C3  UNL     1     -37.007 -17.869 -16.263  1.00  0.00     0.257 C 
HETATM    7  C4  UNL     1     -36.772 -16.408 -16.147  1.00  0.00     0.218 C 
HETATM    8  O1  UNL     1     -35.647 -15.919 -16.621  1.00  0.00    -0.363 OA
HETATM    9  C5  UNL     1     -34.502 -16.623 -16.639  1.00  0.00     0.178 C 
HETATM   10  C7  UNL     1     -34.503 -18.035 -16.254  1.00  0.00     0.180 C 
HETATM   11  C8  UNL     1     -35.799 -18.636 -15.845  1.00  0.00     0.183 C 
HETATM   12  S1  UNL     1     -37.002 -16.198 -14.337  1.00  0.00    -0.102 SA
ENDROOT
BRANCH   9  13
HETATM   13  C6  UNL     1     -33.927 -16.461 -18.059  1.00  0.00     0.198 C 
BRANCH  13  14
HETATM   14  O2  UNL     1     -33.807 -15.139 -18.413  1.00  0.00    -0.398 OA
ATOM     15  H2  UNL     1     -34.460 -14.886 -19.057  1.00  0.00     0.209 HD
ENDBRANCH  13  14
ENDBRANCH   9  13
BRANCH  10  16
HETATM   16  O3  UNL     1     -33.986 -18.827 -17.309  1.00  0.00    -0.390 OA
ATOM     17  H3  UNL     1     -33.206 -18.421 -17.669  1.00  0.00     0.210 HD
ENDBRANCH  10  16
BRANCH  11  18
HETATM   18  O4  UNL     1     -35.938 -19.939 -16.336  1.00  0.00    -0.391 OA
ATOM     19  H4  UNL     1     -36.789 -19.998 -16.754  1.00  0.00     0.210 HD
ENDBRANCH  11  18
TORSDOF 4
ENDMDL
