MODEL 6
REMARK VINA RESULT: -4.390152238      3.892      6.035
REMARK  4 active torsions:
REMARK  status: ('A' for Active; 'I' for Inactive)
REMARK    1  A    between atoms: C5_9  and  C6_10 
REMARK    2  A    between atoms: C6_10  and  O2_11 
REMARK    3  A    between atoms: C7_13  and  O3_14 
REMARK    4  A    between atoms: C8_16  and  O4_17 
ROOT
HETATM    1  C1  UNL     1     -42.671 -17.488 -13.096  1.00  0.00     0.052 C 
HETATM    2  C2  UNL     1     -41.264 -18.037 -13.354  1.00  0.00     0.246 C 
HETATM    3  N1  UNL     1     -41.126 -18.212 -14.757  1.00  0.00    -0.052 N 
ATOM      4  H11 UNL     1     -41.899 -17.782 -15.265  1.00  0.00     0.279 HD
ATOM      5  H12 UNL     1     -41.281 -19.184 -15.029  1.00  0.00     0.279 HD
HETATM    6  C3  UNL     1     -39.873 -17.738 -15.220  1.00  0.00     0.257 C 
HETATM    7  C4  UNL     1     -39.597 -16.391 -14.662  1.00  0.00     0.218 C 
HETATM    8  O1  UNL     1     -38.386 -15.895 -14.801  1.00  0.00    -0.363 OA
HETATM    9  C5  UNL     1     -37.288 -16.669 -14.839  1.00  0.00     0.178 C 
HETATM   10  C7  UNL     1     -37.418 -18.127 -14.872  1.00  0.00     0.180 C 
HETATM   11  C8  UNL     1     -38.790 -18.696 -14.854  1.00  0.00     0.183 C 
HETATM   12  S1  UNL     1     -40.126 -16.657 -12.924  1.00  0.00    -0.102 SA
ENDROOT
BRANCH   9  13
HETATM   13  C6  UNL     1     -36.469 -16.183 -16.052  1.00  0.00     0.198 C 
BRANCH  13  14
HETATM   14  O2  UNL     1     -35.380 -15.440 -15.665  1.00  0.00    -0.398 OA
ATOM     15  H2  UNL     1     -34.630 -15.990 -15.471  1.00  0.00     0.209 HD
ENDBRANCH  13  14
ENDBRANCH   9  13
BRANCH  10  16
HETATM   16  O3  UNL     1     -36.762 -18.648 -16.015  1.00  0.00    -0.390 OA
ATOM     17  H3  UNL     1     -36.048 -18.076 -16.270  1.00  0.00     0.210 HD
ENDBRANCH  10  16
BRANCH  11  18
HETATM   18  O4  UNL     1     -38.900 -19.800 -15.707  1.00  0.00    -0.391 OA
ATOM     19  H4  UNL     1     -38.786 -20.581 -15.179  1.00  0.00     0.210 HD
ENDBRANCH  11  18
TORSDOF 4
ENDMDL
