MODEL 3
REMARK VINA RESULT: -6.424222564      2.470      3.214
REMARK  9 active torsions:
REMARK  status: ('A' for Active; 'I' for Inactive)
REMARK       I    between atoms: C2_2  and  N1_4 
REMARK    1  A    between atoms: N1_4  and  C3_6 
REMARK    2  A    between atoms: C4_7  and  N2_8 
REMARK    3  A    between atoms: N2_8  and  O2_9 
REMARK    4  A    between atoms: O2_9  and  C5_10 
REMARK       I    between atoms: C5_10  and  N3_12 
REMARK    5  A    between atoms: N3_12  and  C6_14 
REMARK    6  A    between atoms: C12_21  and  C13_22 
REMARK    7  A    between atoms: C13_22  and  O5_23 
REMARK    8  A    between atoms: C14_25  and  O6_26 
REMARK    9  A    between atoms: C15_28  and  O7_29 
ROOT
HETATM    1  C3  UNL     1      41.897 -18.239  13.637  1.00  0.00     0.162 C 
HETATM    2  C4  UNL     1      40.791 -18.149  14.644  1.00  0.00     0.267 C 
HETATM    3  O4  UNL     1      39.970 -19.242  14.695  1.00  0.00    -0.355 OA
HETATM    4  C12 UNL     1      40.601 -20.457  14.698  1.00  0.00     0.178 C 
HETATM    5  C14 UNL     1      42.080 -20.286  14.929  1.00  0.00     0.180 C 
HETATM    6  C15 UNL     1      42.614 -19.591  13.691  1.00  0.00     0.176 C 
ENDROOT
BRANCH   2   7
HETATM    7  N2  UNL     1      39.955 -17.002  14.250  1.00  0.00    -0.055 NA
BRANCH   7   8
HETATM    8  O2  UNL     1      38.870 -17.412  13.514  1.00  0.00    -0.186 OA
BRANCH   8   9
HETATM    9  C5  UNL     1      37.605 -17.459  14.118  1.00  0.00     0.383 C 
HETATM   10  O3  UNL     1      36.674 -16.915  13.510  1.00  0.00    -0.236 OA
HETATM   11  N3  UNL     1      37.399 -18.093  15.363  1.00  0.00    -0.302 N 
ATOM     12  H3  UNL     1      38.215 -18.519  15.802  1.00  0.00     0.171 HD
BRANCH  11  13
HETATM   13  C6  UNL     1      36.174 -18.197  16.059  1.00  0.00     0.036 A 
HETATM   14  C7  UNL     1      35.511 -19.435  16.000  1.00  0.00     0.029 A 
HETATM   15  C8  UNL     1      34.321 -19.654  16.637  1.00  0.00     0.002 A 
HETATM   16  C9  UNL     1      33.731 -18.656  17.362  1.00  0.00     0.000 A 
HETATM   17  C10 UNL     1      34.352 -17.439  17.439  1.00  0.00     0.002 A 
HETATM   18  C11 UNL     1      35.568 -17.216  16.787  1.00  0.00     0.029 A 
ENDBRANCH  11  13
ENDBRANCH   8   9
ENDBRANCH   7   8
ENDBRANCH   2   7
BRANCH   1  19
HETATM   19  N1  UNL     1      41.431 -17.960  12.291  1.00  0.00    -0.350 N 
HETATM   20  C2  UNL     1      42.301 -17.408  11.333  1.00  0.00     0.214 C 
HETATM   21  C1  UNL     1      41.894 -17.097   9.938  1.00  0.00     0.117 C 
HETATM   22  O1  UNL     1      43.505 -17.151  11.652  1.00  0.00    -0.274 OA
ATOM     23  H1  UNL     1      40.465 -18.167  12.037  1.00  0.00     0.163 HD
ENDBRANCH   1  19
BRANCH   6  24
HETATM   24  O7  UNL     1      43.980 -19.459  13.694  1.00  0.00    -0.391 OA
ATOM     25  H7  UNL     1      44.425 -20.298  13.689  1.00  0.00     0.210 HD
ENDBRANCH   6  24
BRANCH   4  26
HETATM   26  C13 UNL     1      39.974 -21.450  15.648  1.00  0.00     0.198 C 
BRANCH  26  27
HETATM   27  O5  UNL     1      38.639 -21.041  15.823  1.00  0.00    -0.398 OA
ATOM     28  H5  UNL     1      38.116 -21.834  15.830  1.00  0.00     0.209 HD
ENDBRANCH  26  27
ENDBRANCH   4  26
BRANCH   5  29
HETATM   29  O6  UNL     1      42.722 -21.500  15.149  1.00  0.00    -0.390 OA
ATOM     30  H6  UNL     1      42.657 -22.081  14.400  1.00  0.00     0.210 HD
ENDBRANCH   5  29
TORSDOF 9
ENDMDL
