MODEL 2
REMARK VINA RESULT: -6.430953423      2.178      3.291
REMARK  9 active torsions:
REMARK  status: ('A' for Active; 'I' for Inactive)
REMARK       I    between atoms: C2_2  and  N1_4 
REMARK    1  A    between atoms: N1_4  and  C3_6 
REMARK    2  A    between atoms: C4_7  and  N2_8 
REMARK    3  A    between atoms: N2_8  and  O2_9 
REMARK    4  A    between atoms: O2_9  and  C5_10 
REMARK       I    between atoms: C5_10  and  N3_12 
REMARK    5  A    between atoms: N3_12  and  C6_14 
REMARK    6  A    between atoms: C12_21  and  C13_22 
REMARK    7  A    between atoms: C13_22  and  O5_23 
REMARK    8  A    between atoms: C14_25  and  O6_26 
REMARK    9  A    between atoms: C15_28  and  O7_29 
ROOT
HETATM    1  C3  UNL     1      41.928 -18.727  13.541  1.00  0.00     0.162 C 
HETATM    2  C4  UNL     1      41.512 -17.361  13.089  1.00  0.00     0.267 C 
HETATM    3  O4  UNL     1      41.760 -16.357  13.986  1.00  0.00    -0.355 OA
HETATM    4  C12 UNL     1      43.000 -16.377  14.566  1.00  0.00     0.178 C 
HETATM    5  C14 UNL     1      43.903 -17.351  13.857  1.00  0.00     0.180 C 
HETATM    6  C15 UNL     1      43.334 -18.727  14.147  1.00  0.00     0.176 C 
ENDROOT
BRANCH   2   7
HETATM    7  N2  UNL     1      40.053 -17.408  12.891  1.00  0.00    -0.055 NA
BRANCH   7   8
HETATM    8  O2  UNL     1      39.410 -16.556  13.755  1.00  0.00    -0.186 OA
BRANCH   8   9
HETATM    9  C5  UNL     1      38.458 -17.068  14.648  1.00  0.00     0.383 C 
HETATM   10  O3  UNL     1      38.876 -17.803  15.552  1.00  0.00    -0.236 OA
HETATM   11  N3  UNL     1      37.085 -16.763  14.524  1.00  0.00    -0.302 N 
ATOM     12  H3  UNL     1      36.818 -16.150  13.755  1.00  0.00     0.171 HD
BRANCH  11  13
HETATM   13  C6  UNL     1      36.044 -17.223  15.362  1.00  0.00     0.036 A 
HETATM   14  C7  UNL     1      35.439 -18.443  15.014  1.00  0.00     0.029 A 
HETATM   15  C8  UNL     1      34.425 -18.988  15.752  1.00  0.00     0.002 A 
HETATM   16  C9  UNL     1      33.961 -18.350  16.869  1.00  0.00     0.000 A 
HETATM   17  C10 UNL     1      34.530 -17.161  17.234  1.00  0.00     0.002 A 
HETATM   18  C11 UNL     1      35.567 -16.604  16.480  1.00  0.00     0.029 A 
ENDBRANCH  11  13
ENDBRANCH   8   9
ENDBRANCH   7   8
ENDBRANCH   2   7
BRANCH   1  19
HETATM   19  N1  UNL     1      40.972 -19.308  14.466  1.00  0.00    -0.350 N 
HETATM   20  C2  UNL     1      40.856 -20.705  14.590  1.00  0.00     0.214 C 
HETATM   21  C1  UNL     1      39.901 -21.369  15.514  1.00  0.00     0.117 C 
HETATM   22  O1  UNL     1      41.596 -21.462  13.884  1.00  0.00    -0.274 OA
ATOM     23  H1  UNL     1      40.381 -18.699  15.030  1.00  0.00     0.163 HD
ENDBRANCH   1  19
BRANCH   6  24
HETATM   24  O7  UNL     1      44.114 -19.746  13.659  1.00  0.00    -0.391 OA
ATOM     25  H7  UNL     1      44.610 -19.488  12.891  1.00  0.00     0.210 HD
ENDBRANCH   6  24
BRANCH   4  26
HETATM   26  C13 UNL     1      43.615 -15.003  14.700  1.00  0.00     0.198 C 
BRANCH  26  27
HETATM   27  O5  UNL     1      42.874 -14.155  13.855  1.00  0.00    -0.398 OA
ATOM     28  H5  UNL     1      41.990 -14.138  14.203  1.00  0.00     0.209 HD
ENDBRANCH  26  27
ENDBRANCH   4  26
BRANCH   5  29
HETATM   29  O6  UNL     1      45.225 -17.247  14.280  1.00  0.00    -0.390 OA
ATOM     30  H6  UNL     1      45.741 -18.006  14.036  1.00  0.00     0.210 HD
ENDBRANCH   5  29
TORSDOF 9
ENDMDL
