MODEL 1
REMARK VINA RESULT: -6.799320816      0.000      0.000
REMARK  9 active torsions:
REMARK  status: ('A' for Active; 'I' for Inactive)
REMARK       I    between atoms: C2_2  and  N1_4 
REMARK    1  A    between atoms: N1_4  and  C3_6 
REMARK    2  A    between atoms: C4_7  and  N2_8 
REMARK    3  A    between atoms: N2_8  and  O2_9 
REMARK    4  A    between atoms: O2_9  and  C5_10 
REMARK       I    between atoms: C5_10  and  N3_12 
REMARK    5  A    between atoms: N3_12  and  C6_14 
REMARK    6  A    between atoms: C12_21  and  C13_22 
REMARK    7  A    between atoms: C13_22  and  O5_23 
REMARK    8  A    between atoms: C14_25  and  O6_26 
REMARK    9  A    between atoms: C15_28  and  O7_29 
ROOT
HETATM    1  C3  UNL     1      41.884 -16.142  14.052  1.00  0.00     0.162 C 
HETATM    2  C4  UNL     1      41.433 -16.939  15.237  1.00  0.00     0.267 C 
HETATM    3  O4  UNL     1      42.396 -17.732  15.798  1.00  0.00    -0.355 OA
HETATM    4  C12 UNL     1      43.616 -17.140  15.982  1.00  0.00     0.178 C 
HETATM    5  C14 UNL     1      43.520 -15.650  15.778  1.00  0.00     0.180 C 
HETATM    6  C15 UNL     1      43.229 -15.455  14.302  1.00  0.00     0.176 C 
ENDROOT
BRANCH   2   7
HETATM    7  N2  UNL     1      40.364 -17.833  14.761  1.00  0.00    -0.055 NA
BRANCH   7   8
HETATM    8  O2  UNL     1      39.369 -17.123  14.134  1.00  0.00    -0.186 OA
BRANCH   8   9
HETATM    9  C5  UNL     1      38.031 -17.360  14.477  1.00  0.00     0.383 C 
HETATM   10  O3  UNL     1      37.185 -17.184  13.590  1.00  0.00    -0.236 OA
HETATM   11  N3  UNL     1      37.659 -17.779  15.774  1.00  0.00    -0.302 N 
ATOM     12  H3  UNL     1      38.413 -17.902  16.449  1.00  0.00     0.171 HD
BRANCH  11  13
HETATM   13  C6  UNL     1      36.348 -18.043  16.226  1.00  0.00     0.036 A 
HETATM   14  C7  UNL     1      35.824 -19.319  15.953  1.00  0.00     0.029 A 
HETATM   15  C8  UNL     1      34.568 -19.689  16.345  1.00  0.00     0.002 A 
HETATM   16  C9  UNL     1      33.769 -18.812  17.026  1.00  0.00     0.000 A 
HETATM   17  C10 UNL     1      34.250 -17.562  17.307  1.00  0.00     0.002 A 
HETATM   18  C11 UNL     1      35.534 -17.185  16.907  1.00  0.00     0.029 A 
ENDBRANCH  11  13
ENDBRANCH   8   9
ENDBRANCH   7   8
ENDBRANCH   2   7
BRANCH   1  19
HETATM   19  N1  UNL     1      41.935 -16.944  12.844  1.00  0.00    -0.350 N 
HETATM   20  C2  UNL     1      41.687 -16.362  11.587  1.00  0.00     0.214 C 
HETATM   21  C1  UNL     1      41.721 -17.121  10.311  1.00  0.00     0.117 C 
HETATM   22  O1  UNL     1      41.415 -15.121  11.513  1.00  0.00    -0.274 OA
ATOM     23  H1  UNL     1      42.153 -17.938  12.906  1.00  0.00     0.163 HD
ENDBRANCH   1  19
BRANCH   6  24
HETATM   24  O7  UNL     1      43.222 -14.135  13.924  1.00  0.00    -0.391 OA
ATOM     25  H7  UNL     1      43.334 -14.025  12.988  1.00  0.00     0.210 HD
ENDBRANCH   6  24
BRANCH   4  26
HETATM   26  C13 UNL     1      44.262 -17.506  17.299  1.00  0.00     0.198 C 
BRANCH  26  27
HETATM   27  O5  UNL     1      43.656 -16.693  18.275  1.00  0.00    -0.398 OA
ATOM     28  H5  UNL     1      43.460 -15.866  17.850  1.00  0.00     0.209 HD
ENDBRANCH  26  27
ENDBRANCH   4  26
BRANCH   5  29
HETATM   29  O6  UNL     1      44.683 -14.990  16.160  1.00  0.00    -0.390 OA
ATOM     30  H6  UNL     1      44.656 -14.064  15.950  1.00  0.00     0.210 HD
ENDBRANCH   5  29
TORSDOF 9
ENDMDL
