MODEL 3
REMARK VINA RESULT: -6.643284001      2.844      6.888
REMARK  9 active torsions:
REMARK  status: ('A' for Active; 'I' for Inactive)
REMARK       I    between atoms: C2_2  and  N1_4 
REMARK    1  A    between atoms: N1_4  and  C3_6 
REMARK    2  A    between atoms: C4_7  and  N2_8 
REMARK    3  A    between atoms: N2_8  and  O2_9 
REMARK    4  A    between atoms: O2_9  and  C5_10 
REMARK       I    between atoms: C5_10  and  N3_12 
REMARK    5  A    between atoms: N3_12  and  C6_14 
REMARK    6  A    between atoms: C12_21  and  C13_22 
REMARK    7  A    between atoms: C13_22  and  O5_23 
REMARK    8  A    between atoms: C14_25  and  O6_26 
REMARK    9  A    between atoms: C15_28  and  O7_29 
ROOT
HETATM    1  C3  UNL     1      41.636  18.584 -13.519  1.00  0.00     0.162 C 
HETATM    2  C4  UNL     1      40.980  17.260 -13.193  1.00  0.00     0.267 C 
HETATM    3  O4  UNL     1      41.171  16.431 -14.279  1.00  0.00    -0.355 OA
HETATM    4  C12 UNL     1      42.465  16.019 -14.441  1.00  0.00     0.178 C 
HETATM    5  C14 UNL     1      43.509  16.992 -14.041  1.00  0.00     0.180 C 
HETATM    6  C15 UNL     1      43.072  18.404 -13.916  1.00  0.00     0.176 C 
ENDROOT
BRANCH   2   7
HETATM    7  N2  UNL     1      39.557  17.459 -13.007  1.00  0.00    -0.055 NA
BRANCH   7   8
HETATM    8  O2  UNL     1      38.808  16.687 -13.865  1.00  0.00    -0.186 OA
BRANCH   8   9
HETATM    9  C5  UNL     1      37.937  17.271 -14.794  1.00  0.00     0.383 C 
HETATM   10  O3  UNL     1      38.460  17.928 -15.692  1.00  0.00    -0.236 OA
HETATM   11  N3  UNL     1      36.544  17.125 -14.716  1.00  0.00    -0.302 N 
ATOM     12  H3  UNL     1      36.191  16.561 -13.943  1.00  0.00     0.171 HD
BRANCH  11  13
HETATM   13  C6  UNL     1      35.571  17.671 -15.589  1.00  0.00     0.036 A 
HETATM   14  C7  UNL     1      35.062  18.947 -15.252  1.00  0.00     0.029 A 
HETATM   15  C8  UNL     1      34.129  19.528 -16.066  1.00  0.00     0.002 A 
HETATM   16  C9  UNL     1      33.681  18.880 -17.211  1.00  0.00     0.000 A 
HETATM   17  C10 UNL     1      34.184  17.650 -17.523  1.00  0.00     0.002 A 
HETATM   18  C11 UNL     1      35.142  17.025 -16.709  1.00  0.00     0.029 A 
ENDBRANCH  11  13
ENDBRANCH   8   9
ENDBRANCH   7   8
ENDBRANCH   2   7
BRANCH   1  19
HETATM   19  N1  UNL     1      40.867  19.199 -14.593  1.00  0.00    -0.350 N 
HETATM   20  C2  UNL     1      40.805  20.593 -14.808  1.00  0.00     0.214 C 
HETATM   21  C1  UNL     1      39.998  21.185 -15.932  1.00  0.00     0.117 C 
HETATM   22  O1  UNL     1      41.446  21.352 -14.037  1.00  0.00    -0.274 OA
ATOM     23  H1  UNL     1      40.346  18.591 -15.224  1.00  0.00     0.163 HD
ENDBRANCH   1  19
BRANCH   6  24
HETATM   24  O7  UNL     1      43.854  19.022 -12.934  1.00  0.00    -0.391 OA
ATOM     25  H7  UNL     1      43.760  19.961 -13.049  1.00  0.00     0.210 HD
ENDBRANCH   6  24
BRANCH   4  26
HETATM   26  C13 UNL     1      42.691  14.735 -13.633  1.00  0.00     0.198 C 
BRANCH  26  27
HETATM   27  O5  UNL     1      43.532  13.941 -14.438  1.00  0.00    -0.398 OA
ATOM     28  H5  UNL     1      44.330  13.836 -13.932  1.00  0.00     0.209 HD
ENDBRANCH  26  27
ENDBRANCH   4  26
BRANCH   5  29
HETATM   29  O6  UNL     1      44.173  16.584 -12.862  1.00  0.00    -0.390 OA
ATOM     30  H6  UNL     1      44.406  17.328 -12.318  1.00  0.00     0.210 HD
ENDBRANCH   5  29
TORSDOF 9
ENDMDL
