MODEL 2
REMARK VINA RESULT: -6.657596777      2.953      6.198
REMARK  9 active torsions:
REMARK  status: ('A' for Active; 'I' for Inactive)
REMARK       I    between atoms: C2_2  and  N1_4 
REMARK    1  A    between atoms: N1_4  and  C3_6 
REMARK    2  A    between atoms: C4_7  and  N2_8 
REMARK    3  A    between atoms: N2_8  and  O2_9 
REMARK    4  A    between atoms: O2_9  and  C5_10 
REMARK       I    between atoms: C5_10  and  N3_12 
REMARK    5  A    between atoms: N3_12  and  C6_14 
REMARK    6  A    between atoms: C12_21  and  C13_22 
REMARK    7  A    between atoms: C13_22  and  O5_23 
REMARK    8  A    between atoms: C14_25  and  O6_26 
REMARK    9  A    between atoms: C15_28  and  O7_29 
ROOT
HETATM    1  C3  UNL     1      42.065  18.247 -13.499  1.00  0.00     0.162 C 
HETATM    2  C4  UNL     1      40.879  18.174 -14.436  1.00  0.00     0.267 C 
HETATM    3  O4  UNL     1      40.130  19.314 -14.237  1.00  0.00    -0.355 OA
HETATM    4  C12 UNL     1      40.724  20.456 -14.699  1.00  0.00     0.178 C 
HETATM    5  C14 UNL     1      42.202  20.498 -14.607  1.00  0.00     0.180 C 
HETATM    6  C15 UNL     1      42.827  19.528 -13.675  1.00  0.00     0.176 C 
ENDROOT
BRANCH   2   7
HETATM    7  N2  UNL     1      40.068  17.021 -14.097  1.00  0.00    -0.055 NA
BRANCH   7   8
HETATM    8  O2  UNL     1      38.899  17.378 -13.465  1.00  0.00    -0.186 OA
BRANCH   8   9
HETATM    9  C5  UNL     1      37.669  17.331 -14.135  1.00  0.00     0.383 C 
HETATM   10  O3  UNL     1      36.821  16.575 -13.664  1.00  0.00    -0.236 OA
HETATM   11  N3  UNL     1      37.404  18.097 -15.280  1.00  0.00    -0.302 N 
ATOM     12  H3  UNL     1      38.159  18.702 -15.603  1.00  0.00     0.171 HD
BRANCH  11  13
HETATM   13  C6  UNL     1      36.208  18.127 -16.037  1.00  0.00     0.036 A 
HETATM   14  C7  UNL     1      35.441  19.314 -15.965  1.00  0.00     0.029 A 
HETATM   15  C8  UNL     1      34.282  19.402 -16.686  1.00  0.00     0.002 A 
HETATM   16  C9  UNL     1      33.856  18.346 -17.482  1.00  0.00     0.000 A 
HETATM   17  C10 UNL     1      34.609  17.208 -17.542  1.00  0.00     0.002 A 
HETATM   18  C11 UNL     1      35.803  17.084 -16.815  1.00  0.00     0.029 A 
ENDBRANCH  11  13
ENDBRANCH   8   9
ENDBRANCH   7   8
ENDBRANCH   2   7
BRANCH   1  19
HETATM   19  N1  UNL     1      41.556  18.122 -12.139  1.00  0.00    -0.350 N 
HETATM   20  C2  UNL     1      42.276  17.510 -11.091  1.00  0.00     0.214 C 
HETATM   21  C1  UNL     1      41.710  17.403  -9.700  1.00  0.00     0.117 C 
HETATM   22  O1  UNL     1      43.419  17.045 -11.334  1.00  0.00    -0.274 OA
ATOM     23  H1  UNL     1      40.630  18.497 -11.934  1.00  0.00     0.163 HD
ENDBRANCH   1  19
BRANCH   6  24
HETATM   24  O7  UNL     1      44.092  19.192 -14.171  1.00  0.00    -0.391 OA
ATOM     25  H7  UNL     1      44.555  20.006 -14.336  1.00  0.00     0.210 HD
ENDBRANCH   6  24
BRANCH   4  26
HETATM   26  C13 UNL     1      40.343  20.664 -16.170  1.00  0.00     0.198 C 
BRANCH  26  27
HETATM   27  O5  UNL     1      38.937  20.570 -16.199  1.00  0.00    -0.398 OA
ATOM     28  H5  UNL     1      38.646  21.368 -16.624  1.00  0.00     0.209 HD
ENDBRANCH  26  27
ENDBRANCH   4  26
BRANCH   5  29
HETATM   29  O6  UNL     1      42.804  20.401 -15.883  1.00  0.00    -0.390 OA
ATOM     30  H6  UNL     1      42.749  19.517 -16.228  1.00  0.00     0.210 HD
ENDBRANCH   5  29
TORSDOF 9
ENDMDL
