MODEL 1
REMARK VINA RESULT: -6.752088257      0.000      0.000
REMARK  9 active torsions:
REMARK  status: ('A' for Active; 'I' for Inactive)
REMARK       I    between atoms: C2_2  and  N1_4 
REMARK    1  A    between atoms: N1_4  and  C3_6 
REMARK    2  A    between atoms: C4_7  and  N2_8 
REMARK    3  A    between atoms: N2_8  and  O2_9 
REMARK    4  A    between atoms: O2_9  and  C5_10 
REMARK       I    between atoms: C5_10  and  N3_12 
REMARK    5  A    between atoms: N3_12  and  C6_14 
REMARK    6  A    between atoms: C12_21  and  C13_22 
REMARK    7  A    between atoms: C13_22  and  O5_23 
REMARK    8  A    between atoms: C14_25  and  O6_26 
REMARK    9  A    between atoms: C15_28  and  O7_29 
ROOT
HETATM    1  C3  UNL     1      37.511  17.643 -14.252  1.00  0.00     0.162 C 
HETATM    2  C4  UNL     1      37.481  18.544 -15.467  1.00  0.00     0.267 C 
HETATM    3  O4  UNL     1      36.970  17.805 -16.513  1.00  0.00    -0.355 OA
HETATM    4  C12 UNL     1      35.636  17.525 -16.394  1.00  0.00     0.178 C 
HETATM    5  C14 UNL     1      35.137  17.327 -15.013  1.00  0.00     0.180 C 
HETATM    6  C15 UNL     1      36.163  17.039 -13.982  1.00  0.00     0.176 C 
ENDROOT
BRANCH   2   7
HETATM    7  N2  UNL     1      38.832  18.947 -15.802  1.00  0.00    -0.055 NA
BRANCH   7   8
HETATM    8  O2  UNL     1      39.278  19.977 -15.006  1.00  0.00    -0.186 OA
BRANCH   8   9
HETATM    9  C5  UNL     1      39.617  21.222 -15.552  1.00  0.00     0.383 C 
HETATM   10  O3  UNL     1      40.671  21.720 -15.160  1.00  0.00    -0.236 OA
HETATM   11  N3  UNL     1      38.810  21.876 -16.494  1.00  0.00    -0.302 N 
ATOM     12  H3  UNL     1      37.955  21.394 -16.770  1.00  0.00     0.171 HD
BRANCH  11  13
HETATM   13  C6  UNL     1      39.047  23.131 -17.107  1.00  0.00     0.036 A 
HETATM   14  C7  UNL     1      39.857  23.127 -18.268  1.00  0.00     0.029 A 
HETATM   15  C8  UNL     1      40.109  24.310 -18.907  1.00  0.00     0.002 A 
HETATM   16  C9  UNL     1      39.581  25.504 -18.430  1.00  0.00     0.000 A 
HETATM   17  C10 UNL     1      38.801  25.490 -17.310  1.00  0.00     0.002 A 
HETATM   18  C11 UNL     1      38.522  24.294 -16.629  1.00  0.00     0.029 A 
ENDBRANCH  11  13
ENDBRANCH   8   9
ENDBRANCH   7   8
ENDBRANCH   2   7
BRANCH   1  19
HETATM   19  N1  UNL     1      38.510  16.611 -14.497  1.00  0.00    -0.350 N 
HETATM   20  C2  UNL     1      39.733  16.529 -13.797  1.00  0.00     0.214 C 
HETATM   21  C1  UNL     1      40.737  15.444 -14.084  1.00  0.00     0.117 C 
HETATM   22  O1  UNL     1      39.982  17.387 -12.912  1.00  0.00    -0.274 OA
ATOM     23  H1  UNL     1      38.315  15.911 -15.213  1.00  0.00     0.163 HD
ENDBRANCH   1  19
BRANCH   6  24
HETATM   24  O7  UNL     1      35.716  17.552 -12.759  1.00  0.00    -0.391 OA
ATOM     25  H7  UNL     1      36.110  17.026 -12.073  1.00  0.00     0.210 HD
ENDBRANCH   6  24
BRANCH   4  26
HETATM   26  C13 UNL     1      34.824  18.664 -17.024  1.00  0.00     0.198 C 
BRANCH  26  27
HETATM   27  O5  UNL     1      33.754  18.028 -17.683  1.00  0.00    -0.398 OA
ATOM     28  H5  UNL     1      33.017  18.620 -17.584  1.00  0.00     0.209 HD
ENDBRANCH  26  27
ENDBRANCH   4  26
BRANCH   5  29
HETATM   29  O6  UNL     1      34.322  18.404 -14.597  1.00  0.00    -0.390 OA
ATOM     30  H6  UNL     1      33.400  18.177 -14.631  1.00  0.00     0.210 HD
ENDBRANCH   5  29
TORSDOF 9
ENDMDL
