MODEL 2
REMARK VINA RESULT: -5.844325130      1.501      1.899
REMARK  5 active torsions:
REMARK  status: ('A' for Active; 'I' for Inactive)
REMARK       I    between atoms: C2_2  and  N1_4 
REMARK    1  A    between atoms: N1_4  and  C3_6 
REMARK    2  A    between atoms: C5_11  and  C6_12 
REMARK    3  A    between atoms: C6_12  and  O2_13 
REMARK    4  A    between atoms: C7_15  and  O3_16 
REMARK    5  A    between atoms: C8_18  and  O4_19 
ROOT
HETATM    1  C3  UNL     1      36.999  17.293 -16.190  1.00  0.00     0.141 C 
HETATM    2  C4  UNL     1      36.082  16.523 -17.066  1.00  0.00     0.260 C 
HETATM    3  N2  UNL     1      34.950  17.254 -17.554  1.00  0.00    -0.064 N 
ATOM      4  H21 UNL     1      34.357  16.651 -18.124  1.00  0.00     0.277 HD
ATOM      5  H22 UNL     1      35.242  17.931 -18.258  1.00  0.00     0.277 HD
HETATM    6  C5  UNL     1      34.176  17.896 -16.537  1.00  0.00     0.240 C 
HETATM    7  C7  UNL     1      34.919  18.161 -15.270  1.00  0.00     0.181 C 
HETATM    8  C8  UNL     1      36.365  18.486 -15.524  1.00  0.00     0.173 C 
ENDROOT
BRANCH   1   9
HETATM    9  N1  UNL     1      37.546  16.374 -15.193  1.00  0.00    -0.353 N 
HETATM   10  C2  UNL     1      38.909  16.393 -14.800  1.00  0.00     0.214 C 
HETATM   11  C1  UNL     1      39.409  15.441 -13.790  1.00  0.00     0.117 C 
HETATM   12  O1  UNL     1      39.655  17.244 -15.347  1.00  0.00    -0.274 OA
ATOM     13  H1  UNL     1      36.922  15.692 -14.763  1.00  0.00     0.163 HD
ENDBRANCH   1   9
BRANCH   8  14
HETATM   14  O4  UNL     1      36.518  19.654 -16.263  1.00  0.00    -0.391 OA
ATOM     15  H4  UNL     1      37.424  19.829 -16.486  1.00  0.00     0.210 HD
ENDBRANCH   8  14
BRANCH   7  16
HETATM   16  O3  UNL     1      34.847  17.103 -14.375  1.00  0.00    -0.391 OA
ATOM     17  H3  UNL     1      34.213  17.249 -13.683  1.00  0.00     0.210 HD
ENDBRANCH   7  16
BRANCH   6  18
HETATM   18  C6  UNL     1      33.652  19.206 -17.137  1.00  0.00     0.199 C 
BRANCH  18  19
HETATM   19  O2  UNL     1      34.430  19.532 -18.254  1.00  0.00    -0.399 OA
ATOM     20  H2  UNL     1      34.041  20.282 -18.689  1.00  0.00     0.209 HD
ENDBRANCH  18  19
ENDBRANCH   6  18
TORSDOF 5
ENDMDL
