MODEL 5
REMARK VINA RESULT: -5.250207375      1.859      2.463
REMARK  5 active torsions:
REMARK  status: ('A' for Active; 'I' for Inactive)
REMARK       I    between atoms: C2_2  and  N1_4 
REMARK    1  A    between atoms: N1_4  and  C3_6 
REMARK    2  A    between atoms: C5_11  and  C6_12 
REMARK    3  A    between atoms: C6_12  and  O2_13 
REMARK    4  A    between atoms: C7_15  and  O3_16 
REMARK    5  A    between atoms: C8_18  and  O4_19 
ROOT
HETATM    1  C3  UNL     1      37.158  16.466 -14.459  1.00  0.00     0.141 C 
HETATM    2  C4  UNL     1      35.979  17.045 -13.767  1.00  0.00     0.260 C 
HETATM    3  N2  UNL     1      34.830  17.254 -14.596  1.00  0.00    -0.064 N 
ATOM      4  H21 UNL     1      34.075  17.676 -14.057  1.00  0.00     0.277 HD
ATOM      5  H22 UNL     1      34.397  16.361 -14.835  1.00  0.00     0.277 HD
HETATM    6  C5  UNL     1      35.082  18.016 -15.780  1.00  0.00     0.240 C 
HETATM    7  C7  UNL     1      36.506  18.004 -16.230  1.00  0.00     0.181 C 
HETATM    8  C8  UNL     1      37.172  16.685 -15.950  1.00  0.00     0.173 C 
ENDROOT
BRANCH   1   9
HETATM    9  N1  UNL     1      38.359  17.024 -13.842  1.00  0.00    -0.353 N 
HETATM   10  C2  UNL     1      39.565  16.288 -13.711  1.00  0.00     0.214 C 
HETATM   11  C1  UNL     1      40.750  16.899 -13.079  1.00  0.00     0.117 C 
HETATM   12  O1  UNL     1      39.573  15.110 -14.151  1.00  0.00    -0.274 OA
ATOM     13  H1  UNL     1      38.330  17.981 -13.492  1.00  0.00     0.163 HD
ENDBRANCH   1   9
BRANCH   8  14
HETATM   14  O4  UNL     1      36.580  15.639 -16.649  1.00  0.00    -0.391 OA
ATOM     15  H4  UNL     1      35.946  15.940 -17.289  1.00  0.00     0.210 HD
ENDBRANCH   8  14
BRANCH   7  16
HETATM   16  O3  UNL     1      37.259  19.018 -15.657  1.00  0.00    -0.391 OA
ATOM     17  H3  UNL     1      37.784  19.490 -16.293  1.00  0.00     0.210 HD
ENDBRANCH   7  16
BRANCH   6  18
HETATM   18  C6  UNL     1      34.167  17.456 -16.875  1.00  0.00     0.199 C 
BRANCH  18  19
HETATM   19  O2  UNL     1      34.834  17.534 -18.103  1.00  0.00    -0.399 OA
ATOM     20  H2  UNL     1      34.188  17.592 -18.798  1.00  0.00     0.209 HD
ENDBRANCH  18  19
ENDBRANCH   6  18
TORSDOF 5
ENDMDL
