MODEL 4
REMARK VINA RESULT: -5.370240988      1.473      4.931
REMARK  5 active torsions:
REMARK  status: ('A' for Active; 'I' for Inactive)
REMARK       I    between atoms: C2_2  and  N1_4 
REMARK    1  A    between atoms: N1_4  and  C3_6 
REMARK    2  A    between atoms: C5_11  and  C6_12 
REMARK    3  A    between atoms: C6_12  and  O2_13 
REMARK    4  A    between atoms: C7_15  and  O3_16 
REMARK    5  A    between atoms: C8_18  and  O4_19 
ROOT
HETATM    1  C3  UNL     1      35.109  17.737 -16.576  1.00  0.00     0.141 C 
HETATM    2  C4  UNL     1      36.166  18.702 -16.181  1.00  0.00     0.260 C 
HETATM    3  N2  UNL     1      37.210  18.159 -15.364  1.00  0.00    -0.064 N 
ATOM      4  H21 UNL     1      37.880  18.886 -15.114  1.00  0.00     0.277 HD
ATOM      5  H22 UNL     1      37.812  17.548 -15.916  1.00  0.00     0.277 HD
HETATM    6  C5  UNL     1      36.753  17.479 -14.191  1.00  0.00     0.240 C 
HETATM    7  C7  UNL     1      35.348  16.983 -14.273  1.00  0.00     0.181 C 
HETATM    8  C8  UNL     1      34.988  16.543 -15.666  1.00  0.00     0.173 C 
ENDROOT
BRANCH   1   9
HETATM    9  N1  UNL     1      33.843  18.463 -16.649  1.00  0.00    -0.353 N 
HETATM   10  C2  UNL     1      33.600  19.486 -17.602  1.00  0.00     0.214 C 
HETATM   11  C1  UNL     1      32.303  20.188 -17.631  1.00  0.00     0.117 C 
HETATM   12  O1  UNL     1      34.529  19.758 -18.404  1.00  0.00    -0.274 OA
ATOM     13  H1  UNL     1      33.104  18.225 -15.988  1.00  0.00     0.163 HD
ENDBRANCH   1   9
BRANCH   8  14
HETATM   14  O4  UNL     1      35.759  15.467 -16.092  1.00  0.00    -0.391 OA
ATOM     15  H4  UNL     1      36.590  15.410 -15.635  1.00  0.00     0.210 HD
ENDBRANCH   8  14
BRANCH   7  16
HETATM   16  O3  UNL     1      34.421  17.923 -13.846  1.00  0.00    -0.391 OA
ATOM     17  H3  UNL     1      34.404  18.019 -12.901  1.00  0.00     0.210 HD
ENDBRANCH   7  16
BRANCH   6  18
HETATM   18  C6  UNL     1      37.721  16.315 -13.946  1.00  0.00     0.199 C 
BRANCH  18  19
HETATM   19  O2  UNL     1      38.383  16.020 -15.143  1.00  0.00    -0.399 OA
ATOM     20  H2  UNL     1      38.017  15.221 -15.505  1.00  0.00     0.209 HD
ENDBRANCH  18  19
ENDBRANCH   6  18
TORSDOF 5
ENDMDL
