MODEL 1
REMARK VINA RESULT: -6.100270019      0.000      0.000
REMARK  5 active torsions:
REMARK  status: ('A' for Active; 'I' for Inactive)
REMARK       I    between atoms: C2_2  and  N1_4 
REMARK    1  A    between atoms: N1_4  and  C3_6 
REMARK    2  A    between atoms: C5_11  and  C6_12 
REMARK    3  A    between atoms: C6_12  and  O2_13 
REMARK    4  A    between atoms: C7_15  and  O3_16 
REMARK    5  A    between atoms: C8_18  and  O4_19 
ROOT
HETATM    1  C3  UNL     1      36.744  17.401 -14.582  1.00  0.00     0.141 C 
HETATM    2  C4  UNL     1      37.127  18.123 -15.821  1.00  0.00     0.260 C 
HETATM    3  N2  UNL     1      36.048  18.774 -16.503  1.00  0.00    -0.064 N 
ATOM      4  H21 UNL     1      36.386  19.223 -17.354  1.00  0.00     0.277 HD
ATOM      5  H22 UNL     1      35.741  19.595 -15.981  1.00  0.00     0.277 HD
HETATM    6  C5  UNL     1      34.934  17.926 -16.796  1.00  0.00     0.240 C 
HETATM    7  C7  UNL     1      34.827  16.722 -15.920  1.00  0.00     0.181 C 
HETATM    8  C8  UNL     1      35.292  17.005 -14.518  1.00  0.00     0.173 C 
ENDROOT
BRANCH   1   9
HETATM    9  N1  UNL     1      37.607  16.227 -14.462  1.00  0.00    -0.353 N 
HETATM   10  C2  UNL     1      38.931  16.297 -13.959  1.00  0.00     0.214 C 
HETATM   11  C1  UNL     1      39.760  15.081 -13.860  1.00  0.00     0.117 C 
HETATM   12  O1  UNL     1      39.355  17.428 -13.608  1.00  0.00    -0.274 OA
ATOM     13  H1  UNL     1      37.241  15.320 -14.753  1.00  0.00     0.163 HD
ENDBRANCH   1   9
BRANCH   8  14
HETATM   14  O4  UNL     1      34.505  17.962 -13.887  1.00  0.00    -0.391 OA
ATOM     15  H4  UNL     1      34.087  17.630 -13.102  1.00  0.00     0.210 HD
ENDBRANCH   8  14
BRANCH   7  16
HETATM   16  O3  UNL     1      35.530  15.633 -16.416  1.00  0.00    -0.391 OA
ATOM     17  H3  UNL     1      35.382  14.841 -15.913  1.00  0.00     0.210 HD
ENDBRANCH   7  16
BRANCH   6  18
HETATM   18  C6  UNL     1      33.673  18.791 -16.679  1.00  0.00     0.199 C 
BRANCH  18  19
HETATM   19  O2  UNL     1      33.955  19.888 -15.857  1.00  0.00    -0.399 OA
ATOM     20  H2  UNL     1      33.172  20.421 -15.781  1.00  0.00     0.209 HD
ENDBRANCH  18  19
ENDBRANCH   6  18
TORSDOF 5
ENDMDL
