MODEL 4
REMARK VINA RESULT: -5.404792206      2.016      5.387
REMARK  4 active torsions:
REMARK  status: ('A' for Active; 'I' for Inactive)
REMARK       I    between atoms: C2_2  and  N1_4 
REMARK    1  A    between atoms: N1_4  and  C3_6 
REMARK    2  A    between atoms: C7_11  and  O2_12 
REMARK    3  A    between atoms: C9_15  and  O3_16 
REMARK    4  A    between atoms: C10_18  and  O4_19 
ROOT
HETATM    1  C3  UNL     1      38.745  16.119 -14.168  1.00  0.00     0.144 C 
HETATM    2  C4  UNL     1      37.491  16.819 -13.788  1.00  0.00     0.300 C 
HETATM    3  N2  UNL     1      36.415  16.547 -14.708  1.00  0.00     0.100 N 
HETATM    4  C5  UNL     1      35.270  17.374 -14.512  1.00  0.00     0.275 C 
HETATM    5  C6  UNL     1      34.545  17.224 -15.853  1.00  0.00     0.064 C 
HETATM    6  C7  UNL     1      35.668  17.107 -16.880  1.00  0.00     0.155 C 
HETATM    7  C8  UNL     1      36.874  17.003 -16.030  1.00  0.00     0.282 C 
HETATM    8  C9  UNL     1      37.894  16.011 -16.485  1.00  0.00     0.184 C 
HETATM    9  C10 UNL     1      39.118  16.237 -15.614  1.00  0.00     0.173 C 
ENDROOT
BRANCH   1  10
HETATM   10  N1  UNL     1      39.816  16.632 -13.337  1.00  0.00    -0.352 N 
HETATM   11  C2  UNL     1      40.818  15.822 -12.740  1.00  0.00     0.214 C 
HETATM   12  C1  UNL     1      41.907  16.390 -11.891  1.00  0.00     0.117 C 
HETATM   13  O1  UNL     1      40.735  14.574 -12.971  1.00  0.00    -0.274 OA
ATOM     14  H1  UNL     1      39.853  17.638 -13.172  1.00  0.00     0.163 HD
ENDBRANCH   1  10
BRANCH   9  15
HETATM   15  O4  UNL     1      40.137  15.350 -15.913  1.00  0.00    -0.391 OA
ATOM     16  H4  UNL     1      40.476  14.965 -15.113  1.00  0.00     0.210 HD
ENDBRANCH   9  15
BRANCH   8  17
HETATM   17  O3  UNL     1      38.183  16.059 -17.824  1.00  0.00    -0.391 OA
ATOM     18  H3  UNL     1      39.048  16.393 -18.032  1.00  0.00     0.210 HD
ENDBRANCH   8  17
BRANCH   6  19
HETATM   19  O2  UNL     1      35.472  16.069 -17.751  1.00  0.00    -0.393 OA
ATOM     20  H2  UNL     1      36.147  16.024 -18.419  1.00  0.00     0.210 HD
ENDBRANCH   6  19
TORSDOF 4
ENDMDL
