MODEL 5
REMARK VINA RESULT: -5.400981841      1.814      2.783
REMARK  4 active torsions:
REMARK  status: ('A' for Active; 'I' for Inactive)
REMARK       I    between atoms: C2_2  and  N1_4 
REMARK    1  A    between atoms: N1_4  and  C3_6 
REMARK    2  A    between atoms: C7_11  and  O2_12 
REMARK    3  A    between atoms: C9_15  and  O3_16 
REMARK    4  A    between atoms: C10_18  and  O4_19 
ROOT
HETATM    1  C3  UNL     1      35.247  18.190 -16.812  1.00  0.00     0.144 C 
HETATM    2  C4  UNL     1      36.193  19.092 -16.107  1.00  0.00     0.300 C 
HETATM    3  N2  UNL     1      37.498  18.500 -15.951  1.00  0.00     0.100 N 
HETATM    4  C5  UNL     1      38.361  19.233 -15.084  1.00  0.00     0.275 C 
HETATM    5  C6  UNL     1      39.413  18.179 -14.730  1.00  0.00     0.064 C 
HETATM    6  C7  UNL     1      38.635  16.868 -14.672  1.00  0.00     0.155 C 
HETATM    7  C8  UNL     1      37.302  17.262 -15.179  1.00  0.00     0.282 C 
HETATM    8  C9  UNL     1      36.657  16.286 -16.108  1.00  0.00     0.184 C 
HETATM    9  C10 UNL     1      35.233  16.778 -16.311  1.00  0.00     0.173 C 
ENDROOT
BRANCH   1  10
HETATM   10  N1  UNL     1      33.919  18.763 -16.713  1.00  0.00    -0.352 N 
HETATM   11  C2  UNL     1      33.424  19.777 -17.574  1.00  0.00     0.214 C 
HETATM   12  C1  UNL     1      32.048  20.341 -17.438  1.00  0.00     0.117 C 
HETATM   13  O1  UNL     1      34.225  20.183 -18.475  1.00  0.00    -0.274 OA
ATOM     14  H1  UNL     1      33.302  18.416 -15.979  1.00  0.00     0.163 HD
ENDBRANCH   1  10
BRANCH   9  15
HETATM   15  O4  UNL     1      34.528  15.973 -17.188  1.00  0.00    -0.391 OA
ATOM     16  H4  UNL     1      34.937  15.118 -17.242  1.00  0.00     0.210 HD
ENDBRANCH   9  15
BRANCH   8  17
HETATM   17  O3  UNL     1      36.710  14.980 -15.695  1.00  0.00    -0.391 OA
ATOM     18  H3  UNL     1      37.067  14.375 -16.335  1.00  0.00     0.210 HD
ENDBRANCH   8  17
BRANCH   6  19
HETATM   19  O2  UNL     1      39.252  15.862 -15.366  1.00  0.00    -0.393 OA
ATOM     20  H2  UNL     1      38.987  15.000 -15.068  1.00  0.00     0.210 HD
ENDBRANCH   6  19
TORSDOF 4
ENDMDL
