MODEL 6
REMARK VINA RESULT: -5.319092306      1.451      1.969
REMARK  4 active torsions:
REMARK  status: ('A' for Active; 'I' for Inactive)
REMARK       I    between atoms: C2_2  and  N1_4 
REMARK    1  A    between atoms: N1_4  and  C3_6 
REMARK    2  A    between atoms: C7_11  and  O2_12 
REMARK    3  A    between atoms: C9_15  and  O3_16 
REMARK    4  A    between atoms: C10_18  and  O4_19 
ROOT
HETATM    1  C3  UNL     1      38.789  17.016 -15.183  1.00  0.00     0.144 C 
HETATM    2  C4  UNL     1      39.277  18.346 -14.735  1.00  0.00     0.300 C 
HETATM    3  N2  UNL     1      40.714  18.440 -14.771  1.00  0.00     0.100 N 
HETATM    4  C5  UNL     1      41.229  19.609 -14.136  1.00  0.00     0.275 C 
HETATM    5  C6  UNL     1      42.689  19.214 -13.895  1.00  0.00     0.064 C 
HETATM    6  C7  UNL     1      42.634  17.719 -13.592  1.00  0.00     0.155 C 
HETATM    7  C8  UNL     1      41.221  17.384 -13.880  1.00  0.00     0.282 C 
HETATM    8  C9  UNL     1      41.004  16.091 -14.595  1.00  0.00     0.184 C 
HETATM    9  C10 UNL     1      39.504  15.848 -14.576  1.00  0.00     0.173 C 
ENDROOT
BRANCH   1  10
HETATM   10  N1  UNL     1      37.371  16.934 -14.890  1.00  0.00    -0.352 N 
HETATM   11  C2  UNL     1      36.402  16.425 -15.793  1.00  0.00     0.214 C 
HETATM   12  C1  UNL     1      34.949  16.357 -15.454  1.00  0.00     0.117 C 
HETATM   13  O1  UNL     1      36.842  16.027 -16.918  1.00  0.00    -0.274 OA
ATOM     14  H1  UNL     1      37.051  17.262 -13.980  1.00  0.00     0.163 HD
ENDBRANCH   1  10
BRANCH   9  15
HETATM   15  O4  UNL     1      39.160  14.685 -15.243  1.00  0.00    -0.391 OA
ATOM     16  H4  UNL     1      38.595  14.153 -14.696  1.00  0.00     0.210 HD
ENDBRANCH   9  15
BRANCH   8  17
HETATM   17  O3  UNL     1      41.717  15.032 -14.095  1.00  0.00    -0.391 OA
ATOM     18  H3  UNL     1      42.229  14.558 -14.740  1.00  0.00     0.210 HD
ENDBRANCH   8  17
BRANCH   6  19
HETATM   19  O2  UNL     1      43.562  17.008 -14.304  1.00  0.00    -0.393 OA
ATOM     20  H2  UNL     1      43.521  16.076 -14.122  1.00  0.00     0.210 HD
ENDBRANCH   6  19
TORSDOF 4
ENDMDL
