MODEL 3
REMARK VINA RESULT: -5.729080899      1.338      1.608
REMARK  4 active torsions:
REMARK  status: ('A' for Active; 'I' for Inactive)
REMARK       I    between atoms: C2_2  and  N1_4 
REMARK    1  A    between atoms: N1_4  and  C3_6 
REMARK    2  A    between atoms: C7_11  and  O2_12 
REMARK    3  A    between atoms: C9_15  and  O3_16 
REMARK    4  A    between atoms: C10_18  and  O4_19 
ROOT
HETATM    1  C3  UNL     1      36.474  18.065 -16.346  1.00  0.00     0.144 C 
HETATM    2  C4  UNL     1      37.450  18.690 -15.418  1.00  0.00     0.300 C 
HETATM    3  N2  UNL     1      38.745  18.061 -15.484  1.00  0.00     0.100 N 
HETATM    4  C5  UNL     1      39.638  18.477 -14.452  1.00  0.00     0.275 C 
HETATM    5  C6  UNL     1      40.676  17.351 -14.469  1.00  0.00     0.064 C 
HETATM    6  C7  UNL     1      39.872  16.097 -14.804  1.00  0.00     0.155 C 
HETATM    7  C8  UNL     1      38.538  16.647 -15.132  1.00  0.00     0.282 C 
HETATM    8  C9  UNL     1      37.857  16.018 -16.303  1.00  0.00     0.184 C 
HETATM    9  C10 UNL     1      36.440  16.568 -16.310  1.00  0.00     0.173 C 
ENDROOT
BRANCH   1  10
HETATM   10  N1  UNL     1      35.159  18.596 -16.042  1.00  0.00    -0.352 N 
HETATM   11  C2  UNL     1      34.389  19.376 -16.944  1.00  0.00     0.214 C 
HETATM   12  C1  UNL     1      33.037  19.905 -16.593  1.00  0.00     0.117 C 
HETATM   13  O1  UNL     1      34.918  19.603 -18.078  1.00  0.00    -0.274 OA
ATOM     14  H1  UNL     1      34.763  18.397 -15.124  1.00  0.00     0.163 HD
ENDBRANCH   1  10
BRANCH   9  15
HETATM   15  O4  UNL     1      35.704  16.086 -17.377  1.00  0.00    -0.391 OA
ATOM     16  H4  UNL     1      35.750  15.137 -17.400  1.00  0.00     0.210 HD
ENDBRANCH   9  15
BRANCH   8  17
HETATM   17  O3  UNL     1      37.892  14.648 -16.318  1.00  0.00    -0.391 OA
ATOM     18  H3  UNL     1      37.193  14.239 -16.815  1.00  0.00     0.210 HD
ENDBRANCH   8  17
BRANCH   6  19
HETATM   19  O2  UNL     1      40.457  15.350 -15.790  1.00  0.00    -0.393 OA
ATOM     20  H2  UNL     1      40.437  14.419 -15.600  1.00  0.00     0.210 HD
ENDBRANCH   6  19
TORSDOF 4
ENDMDL
