MODEL 2
REMARK VINA RESULT: -5.792222376      1.567      5.153
REMARK  4 active torsions:
REMARK  status: ('A' for Active; 'I' for Inactive)
REMARK       I    between atoms: C2_2  and  N1_4 
REMARK    1  A    between atoms: N1_4  and  C3_6 
REMARK    2  A    between atoms: C7_11  and  O2_12 
REMARK    3  A    between atoms: C9_15  and  O3_16 
REMARK    4  A    between atoms: C10_18  and  O4_19 
ROOT
HETATM    1  C3  UNL     1      38.660  18.414 -15.265  1.00  0.00     0.144 C 
HETATM    2  C4  UNL     1      37.515  19.252 -15.704  1.00  0.00     0.300 C 
HETATM    3  N2  UNL     1      36.269  18.528 -15.684  1.00  0.00     0.100 N 
HETATM    4  C5  UNL     1      35.193  19.221 -16.313  1.00  0.00     0.275 C 
HETATM    5  C6  UNL     1      34.202  18.083 -16.575  1.00  0.00     0.064 C 
HETATM    6  C7  UNL     1      35.083  16.877 -16.892  1.00  0.00     0.155 C 
HETATM    7  C8  UNL     1      36.441  17.382 -16.592  1.00  0.00     0.282 C 
HETATM    8  C9  UNL     1      37.340  16.420 -15.887  1.00  0.00     0.184 C 
HETATM    9  C10 UNL     1      38.720  17.055 -15.892  1.00  0.00     0.173 C 
ENDROOT
BRANCH   1  10
HETATM   10  N1  UNL     1      39.883  19.141 -15.541  1.00  0.00    -0.352 N 
HETATM   11  C2  UNL     1      41.002  19.177 -14.668  1.00  0.00     0.214 C 
HETATM   12  C1  UNL     1      42.245  19.938 -14.990  1.00  0.00     0.117 C 
HETATM   13  O1  UNL     1      40.884  18.520 -13.585  1.00  0.00    -0.274 OA
ATOM     14  H1  UNL     1      39.945  19.658 -16.418  1.00  0.00     0.163 HD
ENDBRANCH   1  10
BRANCH   9  15
HETATM   15  O4  UNL     1      39.652  16.272 -15.232  1.00  0.00    -0.391 OA
ATOM     16  H4  UNL     1      39.209  15.637 -14.681  1.00  0.00     0.210 HD
ENDBRANCH   9  15
BRANCH   8  17
HETATM   17  O3  UNL     1      37.340  15.151 -16.406  1.00  0.00    -0.391 OA
ATOM     18  H3  UNL     1      37.964  15.010 -17.109  1.00  0.00     0.210 HD
ENDBRANCH   8  17
BRANCH   6  19
HETATM   19  O2  UNL     1      34.706  15.759 -16.199  1.00  0.00    -0.393 OA
ATOM     20  H2  UNL     1      35.388  15.447 -15.615  1.00  0.00     0.210 HD
ENDBRANCH   6  19
TORSDOF 4
ENDMDL
