MODEL 3
REMARK VINA RESULT: -9.141781529      0.981      1.133
REMARK  9 active torsions:
REMARK  status: ('A' for Active; 'I' for Inactive)
REMARK    1  A    between atoms: N1_1  and  C1_5 
REMARK    2  A    between atoms: C1_5  and  C2_6 
REMARK    3  A    between atoms: C1_5  and  C9_13 
REMARK    4  A    between atoms: C2_6  and  C3_7 
REMARK    5  A    between atoms: C9_13  and  O1_14 
REMARK    6  A    between atoms: C9_13  and  N2_16 
REMARK    7  A    between atoms: C13_20  and  C14_21 
REMARK       I    between atoms: C14_21  and  N3_23 
REMARK    8  A    between atoms: N3_23  and  C15_25 
REMARK    9  A    between atoms: C15_25  and  C16_26 
ROOT
HETATM    1  N2  UNL     1      18.146 -12.295  21.451  1.00  0.00    -0.350 N 
HETATM    2  C10 UNL     1      19.664 -12.169  21.576  1.00  0.00     0.126 C 
HETATM    3  C11 UNL     1      20.016 -12.408  20.126  1.00  0.00     0.022 C 
HETATM    4  C12 UNL     1      18.784 -11.991  19.301  1.00  0.00     0.037 C 
HETATM    5  C13 UNL     1      17.941 -11.356  20.410  1.00  0.00     0.178 C 
ENDROOT
BRANCH   1   6
HETATM    6  C9  UNL     1      17.452 -13.190  22.270  1.00  0.00     0.145 C 
BRANCH   6   7
HETATM    7  C1  UNL     1      17.849 -14.483  22.813  1.00  0.00     0.261 C 
BRANCH   7   8
HETATM    8  N1  UNL     1      16.689 -15.398  22.787  1.00  0.00    -0.067 N 
ATOM      9  H13 UNL     1      16.807 -16.206  22.176  1.00  0.00     0.275 HD
ATOM     10  H12 UNL     1      16.556 -15.928  23.648  1.00  0.00     0.275 HD
ATOM     11  H11 UNL     1      15.903 -14.797  22.539  1.00  0.00     0.275 HD
ENDBRANCH   7   8
BRANCH   7  12
HETATM   12  C2  UNL     1      18.254 -14.439  24.273  1.00  0.00     0.079 C 
BRANCH  12  13
HETATM   13  C3  UNL     1      19.633 -13.928  24.451  1.00  0.00    -0.056 A 
HETATM   14  C4  UNL     1      20.720 -14.548  23.862  1.00  0.00     0.007 A 
HETATM   15  C5  UNL     1      22.017 -14.078  24.017  1.00  0.00     0.001 A 
HETATM   16  C6  UNL     1      22.255 -12.938  24.795  1.00  0.00     0.000 A 
HETATM   17  C7  UNL     1      21.183 -12.328  25.377  1.00  0.00     0.001 A 
HETATM   18  C8  UNL     1      19.905 -12.810  25.210  1.00  0.00     0.007 A 
ENDBRANCH  12  13
ENDBRANCH   7  12
ENDBRANCH   6   7
BRANCH   6  19
HETATM   19  O1  UNL     1      16.245 -12.793  22.603  1.00  0.00    -0.348 OA
ATOM     20  H1  UNL     1      15.611 -12.790  21.894  1.00  0.00     0.219 HD
ENDBRANCH   6  19
ENDBRANCH   1   6
BRANCH   5  21
HETATM   21  C14 UNL     1      16.650 -10.887  20.011  1.00  0.00     0.240 C 
HETATM   22  O2  UNL     1      16.264 -10.835  18.836  1.00  0.00    -0.271 OA
HETATM   23  N3  UNL     1      15.673 -10.427  20.977  1.00  0.00    -0.355 N 
ATOM     24  H3  UNL     1      15.918 -10.438  21.967  1.00  0.00     0.162 HD
BRANCH  23  25
HETATM   25  C15 UNL     1      14.384  -9.960  20.593  1.00  0.00     0.161 C 
BRANCH  25  26
HETATM   26  C16 UNL     1      13.292 -10.460  21.432  1.00  0.00    -0.038 A 
HETATM   27  C17 UNL     1      12.785 -11.721  21.254  1.00  0.00     0.025 A 
HETATM   28  C18 UNL     1      11.761 -12.149  22.062  1.00  0.00     0.088 A 
HETATM   29  N4  UNL     1      11.270 -11.335  23.007  1.00  0.00    -0.375 N 
HETATM   30  C19 UNL     1      11.718 -10.089  23.236  1.00  0.00     0.088 A 
ATOM     31  H4  UNL     1      10.510 -11.685  23.590  1.00  0.00     0.164 HD
HETATM   32  C20 UNL     1      12.761  -9.662  22.409  1.00  0.00     0.025 A 
ENDBRANCH  25  26
ENDBRANCH  23  25
ENDBRANCH   5  21
TORSDOF 9
ENDMDL
