MODEL 5
REMARK VINA RESULT: -8.475785547      1.156      1.576
REMARK  9 active torsions:
REMARK  status: ('A' for Active; 'I' for Inactive)
REMARK    1  A    between atoms: N1_1  and  C1_5 
REMARK    2  A    between atoms: C1_5  and  C2_6 
REMARK    3  A    between atoms: C1_5  and  C9_13 
REMARK    4  A    between atoms: C2_6  and  C3_7 
REMARK    5  A    between atoms: C9_13  and  O1_14 
REMARK    6  A    between atoms: C9_13  and  N2_16 
REMARK    7  A    between atoms: C13_20  and  C14_21 
REMARK       I    between atoms: C14_21  and  N3_23 
REMARK    8  A    between atoms: N3_23  and  C15_25 
REMARK    9  A    between atoms: C15_25  and  C16_26 
ROOT
HETATM    1  N2  UNL     1      17.401 -12.904  21.027  1.00  0.00    -0.350 N 
HETATM    2  C10 UNL     1      18.617 -12.095  20.572  1.00  0.00     0.126 C 
HETATM    3  C11 UNL     1      18.122 -11.731  19.191  1.00  0.00     0.022 C 
HETATM    4  C12 UNL     1      16.584 -11.760  19.253  1.00  0.00     0.037 C 
HETATM    5  C13 UNL     1      16.396 -11.941  20.761  1.00  0.00     0.178 C 
ENDROOT
BRANCH   1   6
HETATM    6  C9  UNL     1      17.570 -14.205  21.505  1.00  0.00     0.145 C 
BRANCH   6   7
HETATM    7  C1  UNL     1      17.988 -14.688  22.815  1.00  0.00     0.261 C 
BRANCH   7   8
HETATM    8  N1  UNL     1      16.946 -15.584  23.358  1.00  0.00    -0.067 N 
ATOM      9  H13 UNL     1      17.141 -16.577  23.233  1.00  0.00     0.275 HD
ATOM     10  H12 UNL     1      16.904 -15.606  24.377  1.00  0.00     0.275 HD
ATOM     11  H11 UNL     1      16.087 -15.268  22.909  1.00  0.00     0.275 HD
ENDBRANCH   7   8
BRANCH   7  12
HETATM   12  C2  UNL     1      18.122 -13.598  23.860  1.00  0.00     0.079 C 
BRANCH  12  13
HETATM   13  C3  UNL     1      19.538 -13.304  24.176  1.00  0.00    -0.056 A 
HETATM   14  C4  UNL     1      20.523 -13.336  23.206  1.00  0.00     0.007 A 
HETATM   15  C5  UNL     1      21.854 -13.059  23.487  1.00  0.00     0.001 A 
HETATM   16  C6  UNL     1      22.234 -12.733  24.796  1.00  0.00     0.000 A 
HETATM   17  C7  UNL     1      21.263 -12.702  25.753  1.00  0.00     0.001 A 
HETATM   18  C8  UNL     1      19.949 -12.981  25.452  1.00  0.00     0.007 A 
ENDBRANCH  12  13
ENDBRANCH   7  12
ENDBRANCH   6   7
BRANCH   6  19
HETATM   19  O1  UNL     1      17.305 -15.143  20.624  1.00  0.00    -0.348 OA
ATOM     20  H1  UNL     1      16.909 -14.837  19.816  1.00  0.00     0.219 HD
ENDBRANCH   6  19
ENDBRANCH   1   6
BRANCH   5  21
HETATM   21  C14 UNL     1      15.041 -12.070  21.203  1.00  0.00     0.240 C 
HETATM   22  O2  UNL     1      14.680 -12.817  22.122  1.00  0.00    -0.271 OA
HETATM   23  N3  UNL     1      13.965 -11.318  20.592  1.00  0.00    -0.355 N 
ATOM     24  H3  UNL     1      14.183 -10.681  19.826  1.00  0.00     0.162 HD
BRANCH  23  25
HETATM   25  C15 UNL     1      12.613 -11.437  21.024  1.00  0.00     0.161 C 
BRANCH  25  26
HETATM   26  C16 UNL     1      12.284 -10.616  22.193  1.00  0.00    -0.038 A 
HETATM   27  C17 UNL     1      12.718  -9.320  22.290  1.00  0.00     0.025 A 
HETATM   28  C18 UNL     1      12.388  -8.587  23.404  1.00  0.00     0.088 A 
HETATM   29  N4  UNL     1      11.652  -9.143  24.376  1.00  0.00    -0.375 N 
HETATM   30  C19 UNL     1      11.195 -10.406  24.346  1.00  0.00     0.088 A 
ATOM     31  H4  UNL     1      11.424  -8.571  25.189  1.00  0.00     0.164 HD
HETATM   32  C20 UNL     1      11.535 -11.145  23.210  1.00  0.00     0.025 A 
ENDBRANCH  25  26
ENDBRANCH  23  25
ENDBRANCH   5  21
TORSDOF 9
ENDMDL
