MODEL 1
REMARK VINA RESULT: -9.544545222      0.000      0.000
REMARK  9 active torsions:
REMARK  status: ('A' for Active; 'I' for Inactive)
REMARK    1  A    between atoms: N1_1  and  C1_5 
REMARK    2  A    between atoms: C1_5  and  C2_6 
REMARK    3  A    between atoms: C1_5  and  C9_13 
REMARK    4  A    between atoms: C2_6  and  C3_7 
REMARK    5  A    between atoms: C9_13  and  O1_14 
REMARK    6  A    between atoms: C9_13  and  N2_16 
REMARK    7  A    between atoms: C13_20  and  C14_21 
REMARK       I    between atoms: C14_21  and  N3_23 
REMARK    8  A    between atoms: N3_23  and  C15_25 
REMARK    9  A    between atoms: C15_25  and  C16_26 
ROOT
HETATM    1  N2  UNL     1      17.277 -11.951  21.182  1.00  0.00    -0.350 N 
HETATM    2  C10 UNL     1      18.762 -11.621  21.025  1.00  0.00     0.126 C 
HETATM    3  C11 UNL     1      18.878 -11.876  19.540  1.00  0.00     0.022 C 
HETATM    4  C12 UNL     1      17.474 -11.662  18.946  1.00  0.00     0.037 C 
HETATM    5  C13 UNL     1      16.763 -11.094  20.178  1.00  0.00     0.178 C 
ENDROOT
BRANCH   1   6
HETATM    6  C9  UNL     1      16.870 -12.891  22.132  1.00  0.00     0.145 C 
BRANCH   6   7
HETATM    7  C1  UNL     1      17.587 -14.014  22.725  1.00  0.00     0.261 C 
BRANCH   7   8
HETATM    8  N1  UNL     1      16.701 -15.195  22.754  1.00  0.00    -0.067 N 
ATOM      9  H13 UNL     1      17.176 -16.069  22.981  1.00  0.00     0.275 HD
ATOM     10  H12 UNL     1      16.053 -15.212  23.541  1.00  0.00     0.275 HD
ATOM     11  H11 UNL     1      16.250 -15.192  21.839  1.00  0.00     0.275 HD
ENDBRANCH   7   8
BRANCH   7  12
HETATM   12  C2  UNL     1      17.972 -13.802  24.175  1.00  0.00     0.079 C 
BRANCH  12  13
HETATM   13  C3  UNL     1      19.397 -13.428  24.323  1.00  0.00    -0.056 A 
HETATM   14  C4  UNL     1      20.284 -13.508  23.264  1.00  0.00     0.007 A 
HETATM   15  C5  UNL     1      21.622 -13.158  23.387  1.00  0.00     0.001 A 
HETATM   16  C6  UNL     1      22.111 -12.703  24.619  1.00  0.00     0.000 A 
HETATM   17  C7  UNL     1      21.236 -12.624  25.662  1.00  0.00     0.001 A 
HETATM   18  C8  UNL     1      19.913 -12.978  25.519  1.00  0.00     0.007 A 
ENDBRANCH  12  13
ENDBRANCH   7  12
ENDBRANCH   6   7
BRANCH   6  19
HETATM   19  O1  UNL     1      15.639 -12.729  22.559  1.00  0.00    -0.348 OA
ATOM     20  H1  UNL     1      15.310 -11.838  22.514  1.00  0.00     0.219 HD
ENDBRANCH   6  19
ENDBRANCH   1   6
BRANCH   5  21
HETATM   21  C14 UNL     1      15.369 -10.817  20.013  1.00  0.00     0.240 C 
HETATM   22  O2  UNL     1      14.736 -11.045  18.974  1.00  0.00    -0.271 OA
HETATM   23  N3  UNL     1      14.576 -10.235  21.076  1.00  0.00    -0.355 N 
ATOM     24  H3  UNL     1      15.028 -10.017  21.964  1.00  0.00     0.162 HD
BRANCH  23  25
HETATM   25  C15 UNL     1      13.188  -9.956  20.924  1.00  0.00     0.161 C 
BRANCH  25  26
HETATM   26  C16 UNL     1      12.408 -10.114  22.155  1.00  0.00    -0.038 A 
HETATM   27  C17 UNL     1      11.857 -11.323  22.492  1.00  0.00     0.025 A 
HETATM   28  C18 UNL     1      11.132 -11.425  23.654  1.00  0.00     0.088 A 
HETATM   29  N4  UNL     1      10.974 -10.352  24.440  1.00  0.00    -0.375 N 
HETATM   30  C19 UNL     1      11.485  -9.139  24.171  1.00  0.00     0.088 A 
ATOM     31  H4  UNL     1      10.430 -10.463  25.296  1.00  0.00     0.164 HD
HETATM   32  C20 UNL     1      12.221  -9.043  22.987  1.00  0.00     0.025 A 
ENDBRANCH  25  26
ENDBRANCH  23  25
ENDBRANCH   5  21
TORSDOF 9
ENDMDL
