MODEL 4
REMARK VINA RESULT: -9.102798159      0.991      1.671
REMARK  9 active torsions:
REMARK  status: ('A' for Active; 'I' for Inactive)
REMARK    1  A    between atoms: N1_1  and  C1_5 
REMARK    2  A    between atoms: C1_5  and  C2_6 
REMARK    3  A    between atoms: C1_5  and  C9_13 
REMARK    4  A    between atoms: C2_6  and  C3_7 
REMARK    5  A    between atoms: C9_13  and  O1_14 
REMARK    6  A    between atoms: C9_13  and  N2_16 
REMARK    7  A    between atoms: C13_20  and  C14_21 
REMARK       I    between atoms: C14_21  and  N3_23 
REMARK    8  A    between atoms: N3_23  and  C15_25 
REMARK    9  A    between atoms: C15_25  and  C16_26 
ROOT
HETATM    1  N2  UNL     1      18.147 -12.296  21.457  1.00  0.00    -0.350 N 
HETATM    2  C10 UNL     1      19.665 -12.176  21.590  1.00  0.00     0.126 C 
HETATM    3  C11 UNL     1      20.023 -12.414  20.141  1.00  0.00     0.022 C 
HETATM    4  C12 UNL     1      18.797 -11.991  19.311  1.00  0.00     0.037 C 
HETATM    5  C13 UNL     1      17.951 -11.354  20.416  1.00  0.00     0.178 C 
ENDROOT
BRANCH   1   6
HETATM    6  C9  UNL     1      17.445 -13.188  22.271  1.00  0.00     0.145 C 
BRANCH   6   7
HETATM    7  C1  UNL     1      17.835 -14.481  22.819  1.00  0.00     0.261 C 
BRANCH   7   8
HETATM    8  N1  UNL     1      16.673 -15.392  22.791  1.00  0.00    -0.067 N 
ATOM      9  H13 UNL     1      16.539 -15.927  23.649  1.00  0.00     0.275 HD
ATOM     10  H12 UNL     1      15.770 -14.918  22.812  1.00  0.00     0.275 HD
ATOM     11  H11 UNL     1      16.826 -15.966  21.961  1.00  0.00     0.275 HD
ENDBRANCH   7   8
BRANCH   7  12
HETATM   12  C2  UNL     1      18.235 -14.435  24.281  1.00  0.00     0.079 C 
BRANCH  12  13
HETATM   13  C3  UNL     1      19.616 -13.932  24.463  1.00  0.00    -0.056 A 
HETATM   14  C4  UNL     1      19.888 -12.814  25.230  1.00  0.00     0.007 A 
HETATM   15  C5  UNL     1      21.178 -12.333  25.412  1.00  0.00     0.001 A 
HETATM   16  C6  UNL     1      22.256 -12.989  24.805  1.00  0.00     0.000 A 
HETATM   17  C7  UNL     1      21.987 -14.091  24.048  1.00  0.00     0.001 A 
HETATM   18  C8  UNL     1      20.701 -14.551  23.880  1.00  0.00     0.007 A 
ENDBRANCH  12  13
ENDBRANCH   7  12
ENDBRANCH   6   7
BRANCH   6  19
HETATM   19  O1  UNL     1      16.236 -12.788  22.595  1.00  0.00    -0.348 OA
ATOM     20  H1  UNL     1      15.561 -12.990  21.957  1.00  0.00     0.219 HD
ENDBRANCH   6  19
ENDBRANCH   1   6
BRANCH   5  21
HETATM   21  C14 UNL     1      16.664 -10.879  20.012  1.00  0.00     0.240 C 
HETATM   22  O2  UNL     1      16.287 -10.816  18.835  1.00  0.00    -0.271 OA
HETATM   23  N3  UNL     1      15.681 -10.426  20.975  1.00  0.00    -0.355 N 
ATOM     24  H3  UNL     1      15.918 -10.446  21.966  1.00  0.00     0.162 HD
BRANCH  23  25
HETATM   25  C15 UNL     1      14.395  -9.952  20.585  1.00  0.00     0.161 C 
BRANCH  25  26
HETATM   26  C16 UNL     1      13.300 -10.431  21.432  1.00  0.00    -0.038 A 
HETATM   27  C17 UNL     1      12.759  -9.632  22.405  1.00  0.00     0.025 A 
HETATM   28  C18 UNL     1      11.734 -10.122  23.177  1.00  0.00     0.088 A 
HETATM   29  N4  UNL     1      11.278 -11.365  22.973  1.00  0.00    -0.375 N 
HETATM   30  C19 UNL     1      11.761 -12.201  22.038  1.00  0.00     0.088 A 
ATOM     31  H4  UNL     1      10.515 -11.697  23.563  1.00  0.00     0.164 HD
HETATM   32  C20 UNL     1      12.803 -11.695  21.257  1.00  0.00     0.025 A 
ENDBRANCH  25  26
ENDBRANCH  23  25
ENDBRANCH   5  21
TORSDOF 9
ENDMDL
