MODEL 2
REMARK VINA RESULT: -9.503378494      0.096      1.312
REMARK  9 active torsions:
REMARK  status: ('A' for Active; 'I' for Inactive)
REMARK    1  A    between atoms: N1_1  and  C1_5 
REMARK    2  A    between atoms: C1_5  and  C2_6 
REMARK    3  A    between atoms: C1_5  and  C9_13 
REMARK    4  A    between atoms: C2_6  and  C3_7 
REMARK    5  A    between atoms: C9_13  and  O1_14 
REMARK    6  A    between atoms: C9_13  and  N2_16 
REMARK    7  A    between atoms: C13_20  and  C14_21 
REMARK       I    between atoms: C14_21  and  N3_23 
REMARK    8  A    between atoms: N3_23  and  C15_25 
REMARK    9  A    between atoms: C15_25  and  C16_26 
ROOT
HETATM    1  N2  UNL     1      17.258 -11.943  21.152  1.00  0.00    -0.350 N 
HETATM    2  C10 UNL     1      18.733 -11.578  20.983  1.00  0.00     0.126 C 
HETATM    3  C11 UNL     1      18.850 -11.855  19.502  1.00  0.00     0.022 C 
HETATM    4  C12 UNL     1      17.439 -11.688  18.911  1.00  0.00     0.037 C 
HETATM    5  C13 UNL     1      16.718 -11.118  20.136  1.00  0.00     0.178 C 
ENDROOT
BRANCH   1   6
HETATM    6  C9  UNL     1      16.879 -12.877  22.120  1.00  0.00     0.145 C 
BRANCH   6   7
HETATM    7  C1  UNL     1      17.613 -13.997  22.697  1.00  0.00     0.261 C 
BRANCH   7   8
HETATM    8  N1  UNL     1      16.744 -15.192  22.711  1.00  0.00    -0.067 N 
ATOM      9  H13 UNL     1      17.250 -16.077  22.734  1.00  0.00     0.275 HD
ATOM     10  H12 UNL     1      16.238 -15.330  23.586  1.00  0.00     0.275 HD
ATOM     11  H11 UNL     1      16.144 -15.074  21.894  1.00  0.00     0.275 HD
ENDBRANCH   7   8
BRANCH   7  12
HETATM   12  C2  UNL     1      17.995 -13.799  24.150  1.00  0.00     0.079 C 
BRANCH  12  13
HETATM   13  C3  UNL     1      19.418 -13.416  24.302  1.00  0.00    -0.056 A 
HETATM   14  C4  UNL     1      19.923 -12.953  25.504  1.00  0.00     0.007 A 
HETATM   15  C5  UNL     1      21.254 -12.593  25.662  1.00  0.00     0.001 A 
HETATM   16  C6  UNL     1      22.135 -12.695  24.577  1.00  0.00     0.000 A 
HETATM   17  C7  UNL     1      21.636 -13.150  23.392  1.00  0.00     0.001 A 
HETATM   18  C8  UNL     1      20.312 -13.501  23.257  1.00  0.00     0.007 A 
ENDBRANCH  12  13
ENDBRANCH   7  12
ENDBRANCH   6   7
BRANCH   6  19
HETATM   19  O1  UNL     1      15.661 -12.711  22.583  1.00  0.00    -0.348 OA
ATOM     20  H1  UNL     1      15.013 -12.464  21.933  1.00  0.00     0.219 HD
ENDBRANCH   6  19
ENDBRANCH   1   6
BRANCH   5  21
HETATM   21  C14 UNL     1      15.317 -10.879  19.972  1.00  0.00     0.240 C 
HETATM   22  O2  UNL     1      14.708 -11.033  18.905  1.00  0.00    -0.271 OA
HETATM   23  N3  UNL     1      14.486 -10.430  21.070  1.00  0.00    -0.355 N 
ATOM     24  H3  UNL     1      14.916 -10.279  21.982  1.00  0.00     0.162 HD
BRANCH  23  25
HETATM   25  C15 UNL     1      13.090 -10.191  20.920  1.00  0.00     0.161 C 
BRANCH  25  26
HETATM   26  C16 UNL     1      12.341 -10.213  22.179  1.00  0.00    -0.038 A 
HETATM   27  C17 UNL     1      12.224  -9.087  22.950  1.00  0.00     0.025 A 
HETATM   28  C18 UNL     1      11.514  -9.152  24.124  1.00  0.00     0.088 A 
HETATM   29  N4  UNL     1      10.948 -10.307  24.499  1.00  0.00    -0.375 N 
HETATM   30  C19 UNL     1      11.023 -11.448  23.793  1.00  0.00     0.088 A 
ATOM     31  H4  UNL     1      10.427 -10.321  25.376  1.00  0.00     0.164 HD
HETATM   32  C20 UNL     1      11.747 -11.373  22.600  1.00  0.00     0.025 A 
ENDBRANCH  25  26
ENDBRANCH  23  25
ENDBRANCH   5  21
TORSDOF 9
ENDMDL
