MODEL 7
REMARK VINA RESULT: -8.267050387      1.951      7.533
REMARK  9 active torsions:
REMARK  status: ('A' for Active; 'I' for Inactive)
REMARK    1  A    between atoms: N1_1  and  C1_5 
REMARK    2  A    between atoms: C1_5  and  C2_6 
REMARK    3  A    between atoms: C1_5  and  C9_13 
REMARK    4  A    between atoms: C2_6  and  C3_7 
REMARK    5  A    between atoms: C9_13  and  O1_14 
REMARK    6  A    between atoms: C9_13  and  N2_16 
REMARK    7  A    between atoms: C13_20  and  C14_21 
REMARK       I    between atoms: C14_21  and  N3_23 
REMARK    8  A    between atoms: N3_23  and  C15_25 
REMARK    9  A    between atoms: C15_25  and  C16_26 
ROOT
HETATM    1  N2  UNL     1      16.914 -12.071  20.229  1.00  0.00    -0.350 N 
HETATM    2  C10 UNL     1      17.369 -11.931  18.776  1.00  0.00     0.126 C 
HETATM    3  C11 UNL     1      18.824 -11.619  19.039  1.00  0.00     0.022 C 
HETATM    4  C12 UNL     1      19.164 -12.236  20.408  1.00  0.00     0.037 C 
HETATM    5  C13 UNL     1      17.873 -13.021  20.659  1.00  0.00     0.178 C 
ENDROOT
BRANCH   1   6
HETATM    6  C9  UNL     1      15.831 -11.321  20.695  1.00  0.00     0.145 C 
BRANCH   6   7
HETATM    7  C1  UNL     1      14.701 -11.705  21.532  1.00  0.00     0.261 C 
BRANCH   7   8
HETATM    8  N1  UNL     1      14.497 -13.164  21.434  1.00  0.00    -0.067 N 
ATOM      9  H13 UNL     1      13.522 -13.456  21.504  1.00  0.00     0.275 HD
ATOM     10  H12 UNL     1      14.661 -13.547  20.503  1.00  0.00     0.275 HD
ATOM     11  H11 UNL     1      15.102 -13.551  22.158  1.00  0.00     0.275 HD
ENDBRANCH   7   8
BRANCH   7  12
HETATM   12  C2  UNL     1      13.378 -11.114  21.089  1.00  0.00     0.079 C 
BRANCH  12  13
HETATM   13  C3  UNL     1      12.643 -10.493  22.214  1.00  0.00    -0.056 A 
HETATM   14  C4  UNL     1      11.758 -11.217  22.994  1.00  0.00     0.007 A 
HETATM   15  C5  UNL     1      11.065 -10.649  24.054  1.00  0.00     0.001 A 
HETATM   16  C6  UNL     1      11.253  -9.296  24.362  1.00  0.00     0.000 A 
HETATM   17  C7  UNL     1      12.125  -8.582  23.593  1.00  0.00     0.001 A 
HETATM   18  C8  UNL     1      12.802  -9.165  22.546  1.00  0.00     0.007 A 
ENDBRANCH  12  13
ENDBRANCH   7  12
ENDBRANCH   6   7
BRANCH   6  19
HETATM   19  O1  UNL     1      15.842 -10.064  20.315  1.00  0.00    -0.348 OA
ATOM     20  H1  UNL     1      16.652  -9.771  19.914  1.00  0.00     0.219 HD
ENDBRANCH   6  19
ENDBRANCH   1   6
BRANCH   5  21
HETATM   21  C14 UNL     1      17.801 -13.705  21.914  1.00  0.00     0.240 C 
HETATM   22  O2  UNL     1      17.035 -14.649  22.145  1.00  0.00    -0.271 OA
HETATM   23  N3  UNL     1      18.640 -13.333  23.034  1.00  0.00    -0.355 N 
ATOM     24  H3  UNL     1      19.297 -12.561  22.922  1.00  0.00     0.162 HD
BRANCH  23  25
HETATM   25  C15 UNL     1      18.578 -14.007  24.287  1.00  0.00     0.161 C 
BRANCH  25  26
HETATM   26  C16 UNL     1      19.843 -14.009  25.028  1.00  0.00    -0.038 A 
HETATM   27  C17 UNL     1      20.279 -12.889  25.685  1.00  0.00     0.025 A 
HETATM   28  C18 UNL     1      21.470 -12.934  26.365  1.00  0.00     0.088 A 
HETATM   29  N4  UNL     1      22.189 -14.065  26.379  1.00  0.00    -0.375 N 
HETATM   30  C19 UNL     1      21.823 -15.199  25.758  1.00  0.00     0.088 A 
ATOM     31  H4  UNL     1      23.070 -14.065  26.895  1.00  0.00     0.164 HD
HETATM   32  C20 UNL     1      20.609 -15.144  25.068  1.00  0.00     0.025 A 
ENDBRANCH  25  26
ENDBRANCH  23  25
ENDBRANCH   5  21
TORSDOF 9
ENDMDL
