MODEL 8
REMARK VINA RESULT: -8.232131880      1.930      7.458
REMARK  9 active torsions:
REMARK  status: ('A' for Active; 'I' for Inactive)
REMARK    1  A    between atoms: N1_1  and  C1_5 
REMARK    2  A    between atoms: C1_5  and  C2_6 
REMARK    3  A    between atoms: C1_5  and  C9_13 
REMARK    4  A    between atoms: C2_6  and  C3_7 
REMARK    5  A    between atoms: C9_13  and  O1_14 
REMARK    6  A    between atoms: C9_13  and  N2_16 
REMARK    7  A    between atoms: C13_20  and  C14_21 
REMARK       I    between atoms: C14_21  and  N3_23 
REMARK    8  A    between atoms: N3_23  and  C15_25 
REMARK    9  A    between atoms: C15_25  and  C16_26 
ROOT
HETATM    1  N2  UNL     1      16.893 -12.062  20.201  1.00  0.00    -0.350 N 
HETATM    2  C10 UNL     1      17.335 -11.927  18.743  1.00  0.00     0.126 C 
HETATM    3  C11 UNL     1      18.798 -11.639  18.993  1.00  0.00     0.022 C 
HETATM    4  C12 UNL     1      19.141 -12.264  20.357  1.00  0.00     0.037 C 
HETATM    5  C13 UNL     1      17.841 -13.027  20.621  1.00  0.00     0.178 C 
ENDROOT
BRANCH   1   6
HETATM    6  C9  UNL     1      15.827 -11.295  20.678  1.00  0.00     0.145 C 
BRANCH   6   7
HETATM    7  C1  UNL     1      14.694 -11.663  21.517  1.00  0.00     0.261 C 
BRANCH   7   8
HETATM    8  N1  UNL     1      14.462 -13.118  21.409  1.00  0.00    -0.067 N 
ATOM      9  H13 UNL     1      13.757 -13.380  20.720  1.00  0.00     0.275 HD
ATOM     10  H12 UNL     1      15.232 -13.633  20.983  1.00  0.00     0.275 HD
ATOM     11  H11 UNL     1      14.242 -13.407  22.362  1.00  0.00     0.275 HD
ENDBRANCH   7   8
BRANCH   7  12
HETATM   12  C2  UNL     1      13.380 -11.045  21.083  1.00  0.00     0.079 C 
BRANCH  12  13
HETATM   13  C3  UNL     1      12.636 -10.463  22.225  1.00  0.00    -0.056 A 
HETATM   14  C4  UNL     1      12.790  -9.139  22.595  1.00  0.00     0.007 A 
HETATM   15  C5  UNL     1      12.097  -8.580  23.660  1.00  0.00     0.001 A 
HETATM   16  C6  UNL     1      11.206  -9.368  24.400  1.00  0.00     0.000 A 
HETATM   17  C7  UNL     1      11.056 -10.674  24.035  1.00  0.00     0.001 A 
HETATM   18  C8  UNL     1      11.753 -11.208  22.975  1.00  0.00     0.007 A 
ENDBRANCH  12  13
ENDBRANCH   7  12
ENDBRANCH   6   7
BRANCH   6  19
HETATM   19  O1  UNL     1      15.861 -10.034  20.309  1.00  0.00    -0.348 OA
ATOM     20  H1  UNL     1      15.569  -9.867  19.421  1.00  0.00     0.219 HD
ENDBRANCH   6  19
ENDBRANCH   1   6
BRANCH   5  21
HETATM   21  C14 UNL     1      17.770 -13.711  21.875  1.00  0.00     0.240 C 
HETATM   22  O2  UNL     1      17.032 -14.680  22.096  1.00  0.00    -0.271 OA
HETATM   23  N3  UNL     1      18.578 -13.311  23.009  1.00  0.00    -0.355 N 
ATOM     24  H3  UNL     1      19.212 -12.519  22.906  1.00  0.00     0.162 HD
BRANCH  23  25
HETATM   25  C15 UNL     1      18.518 -13.985  24.262  1.00  0.00     0.161 C 
BRANCH  25  26
HETATM   26  C16 UNL     1      19.792 -14.018  24.985  1.00  0.00    -0.038 A 
HETATM   27  C17 UNL     1      20.572 -15.145  24.989  1.00  0.00     0.025 A 
HETATM   28  C18 UNL     1      21.758 -15.133  25.682  1.00  0.00     0.088 A 
HETATM   29  N4  UNL     1      22.137 -14.028  26.340  1.00  0.00    -0.375 N 
HETATM   30  C19 UNL     1      21.422 -12.891  26.378  1.00  0.00     0.088 A 
ATOM     31  H4  UNL     1      23.024 -14.053  26.843  1.00  0.00     0.164 HD
HETATM   32  C20 UNL     1      20.216 -12.912  25.672  1.00  0.00     0.025 A 
ENDBRANCH  25  26
ENDBRANCH  23  25
ENDBRANCH   5  21
TORSDOF 9
ENDMDL
