MODEL 18
REMARK VINA RESULT: -7.821376169      3.146      4.885
REMARK  9 active torsions:
REMARK  status: ('A' for Active; 'I' for Inactive)
REMARK    1  A    between atoms: N1_1  and  C1_5 
REMARK    2  A    between atoms: C1_5  and  C2_6 
REMARK    3  A    between atoms: C1_5  and  C9_13 
REMARK    4  A    between atoms: C2_6  and  C3_7 
REMARK    5  A    between atoms: C9_13  and  O1_14 
REMARK    6  A    between atoms: C9_13  and  N2_16 
REMARK    7  A    between atoms: C13_20  and  C14_21 
REMARK       I    between atoms: C14_21  and  N3_23 
REMARK    8  A    between atoms: N3_23  and  C15_25 
REMARK    9  A    between atoms: C15_25  and  C16_26 
ROOT
HETATM    1  N2  UNL     1      18.242 -12.880  21.298  1.00  0.00    -0.350 N 
HETATM    2  C10 UNL     1      19.697 -12.787  21.759  1.00  0.00     0.126 C 
HETATM    3  C11 UNL     1      20.333 -12.557  20.407  1.00  0.00     0.022 C 
HETATM    4  C12 UNL     1      19.253 -11.912  19.519  1.00  0.00     0.037 C 
HETATM    5  C13 UNL     1      18.172 -11.663  20.575  1.00  0.00     0.178 C 
ENDROOT
BRANCH   1   6
HETATM    6  C9  UNL     1      17.471 -13.991  21.647  1.00  0.00     0.145 C 
BRANCH   6   7
HETATM    7  C1  UNL     1      16.467 -14.725  20.887  1.00  0.00     0.261 C 
BRANCH   7   8
HETATM    8  N1  UNL     1      15.190 -14.714  21.631  1.00  0.00    -0.067 N 
ATOM      9  H13 UNL     1      14.963 -15.598  22.088  1.00  0.00     0.275 HD
ATOM     10  H12 UNL     1      15.208 -14.151  22.482  1.00  0.00     0.275 HD
ATOM     11  H11 UNL     1      14.502 -14.411  20.942  1.00  0.00     0.275 HD
ENDBRANCH   7   8
BRANCH   7  12
HETATM   12  C2  UNL     1      16.781 -16.198  20.713  1.00  0.00     0.079 C 
BRANCH  12  13
HETATM   13  C3  UNL     1      15.885 -16.843  19.726  1.00  0.00    -0.056 A 
HETATM   14  C4  UNL     1      15.073 -17.910  20.068  1.00  0.00     0.007 A 
HETATM   15  C5  UNL     1      14.226 -18.522  19.154  1.00  0.00     0.001 A 
HETATM   16  C6  UNL     1      14.177 -18.058  17.833  1.00  0.00     0.000 A 
HETATM   17  C7  UNL     1      14.978 -17.008  17.496  1.00  0.00     0.001 A 
HETATM   18  C8  UNL     1      15.811 -16.415  18.418  1.00  0.00     0.007 A 
ENDBRANCH  12  13
ENDBRANCH   7  12
ENDBRANCH   6   7
BRANCH   6  19
HETATM   19  O1  UNL     1      17.695 -14.445  22.859  1.00  0.00    -0.348 OA
ATOM     20  H1  UNL     1      18.583 -14.325  23.177  1.00  0.00     0.219 HD
ENDBRANCH   6  19
ENDBRANCH   1   6
BRANCH   5  21
HETATM   21  C14 UNL     1      16.950 -11.103  20.086  1.00  0.00     0.240 C 
HETATM   22  O2  UNL     1      16.715 -10.889  18.890  1.00  0.00    -0.271 OA
HETATM   23  N3  UNL     1      15.869 -10.737  20.978  1.00  0.00    -0.355 N 
ATOM     24  H3  UNL     1      15.988 -10.882  21.981  1.00  0.00     0.162 HD
BRANCH  23  25
HETATM   25  C15 UNL     1      14.647 -10.180  20.504  1.00  0.00     0.161 C 
BRANCH  25  26
HETATM   26  C16 UNL     1      13.489 -10.469  21.354  1.00  0.00    -0.038 A 
HETATM   27  C17 UNL     1      12.859 -11.685  21.301  1.00  0.00     0.025 A 
HETATM   28  C18 UNL     1      11.777 -11.913  22.114  1.00  0.00     0.088 A 
HETATM   29  N4  UNL     1      11.350 -10.951  22.944  1.00  0.00    -0.375 N 
HETATM   30  C19 UNL     1      11.918  -9.738  23.047  1.00  0.00     0.088 A 
ATOM     31  H4  UNL     1      10.543 -11.153  23.535  1.00  0.00     0.164 HD
HETATM   32  C20 UNL     1      13.019  -9.514  22.216  1.00  0.00     0.025 A 
ENDBRANCH  25  26
ENDBRANCH  23  25
ENDBRANCH   5  21
TORSDOF 9
ENDMDL
