MODEL 20
REMARK VINA RESULT: -5.732356184      3.133      4.114
REMARK  6 active torsions:
REMARK  status: ('A' for Active; 'I' for Inactive)
REMARK    1  A    between atoms: C1_2  and  N1_3 
REMARK    2  A    between atoms: N1_3  and  O2_4 
REMARK    3  A    between atoms: N1_3  and  C2_6 
REMARK    4  A    between atoms: C2_6  and  C3_7 
REMARK    5  A    between atoms: C3_7  and  N2_8 
REMARK       I    between atoms: N2_8  and  C4_10 
REMARK    6  A    between atoms: C4_10  and  C5_12 
ROOT
HETATM    1  N2  UNL     1      24.331  -5.768   8.693  1.00  0.00    -0.355 N 
ATOM      2  H2  UNL     1      24.406  -5.640   9.702  1.00  0.00     0.162 HD
HETATM    3  C4  UNL     1      23.043  -6.093   8.186  1.00  0.00     0.253 C 
HETATM    4  O3  UNL     1      22.881  -6.286   6.964  1.00  0.00    -0.268 OA
ENDROOT
BRANCH   3   5
HETATM    5  C5  UNL     1      21.924  -6.196   9.120  1.00  0.00     0.055 A 
HETATM    6  C6  UNL     1      21.228  -5.110   9.587  1.00  0.00     0.019 A 
HETATM    7  C7  UNL     1      20.178  -5.255  10.468  1.00  0.00     0.003 A 
HETATM    8  C8  UNL     1      19.795  -6.512  10.909  1.00  0.00     0.026 A 
HETATM    9  C9  UNL     1      20.477  -7.611  10.454  1.00  0.00     0.056 A 
HETATM   10 CL1  UNL     1      19.993  -9.214  11.012  1.00  0.00    -0.083 Cl
HETATM   11  C10 UNL     1      21.524  -7.445   9.573  1.00  0.00     0.071 A 
HETATM   12 CL2  UNL     1      22.403  -8.851   8.987  1.00  0.00    -0.081 Cl
ENDBRANCH   3   5
BRANCH   1  13
HETATM   13  C3  UNL     1      25.522  -5.604   7.941  1.00  0.00     0.145 C 
BRANCH  13  14
HETATM   14  C2  UNL     1      26.479  -4.555   8.390  1.00  0.00     0.178 C 
BRANCH  14  15
HETATM   15  N1  UNL     1      26.691  -3.424   7.555  1.00  0.00    -0.234 N 
BRANCH  15  16
HETATM   16  C1  UNL     1      27.066  -3.521   6.193  1.00  0.00     0.376 C 
HETATM   17  O1  UNL     1      26.345  -3.121   5.249  1.00  0.00    -0.281 OA
ENDBRANCH  15  16
BRANCH  15  18
HETATM   18  O2  UNL     1      26.588  -2.168   8.097  1.00  0.00    -0.285 OA
ATOM     19  H2  UNL     1      27.211  -1.512   7.806  1.00  0.00     0.245 HD
ENDBRANCH  15  18
ENDBRANCH  14  15
ENDBRANCH  13  14
ENDBRANCH   1  13
TORSDOF 6
ENDMDL
