MODEL 3
REMARK VINA RESULT: -6.479262225      1.974      2.224
REMARK  6 active torsions:
REMARK  status: ('A' for Active; 'I' for Inactive)
REMARK    1  A    between atoms: C1_2  and  N1_3 
REMARK    2  A    between atoms: N1_3  and  O2_4 
REMARK    3  A    between atoms: N1_3  and  C2_6 
REMARK    4  A    between atoms: C2_6  and  C3_7 
REMARK    5  A    between atoms: C3_7  and  N2_8 
REMARK       I    between atoms: N2_8  and  C4_10 
REMARK    6  A    between atoms: C4_10  and  C5_12 
ROOT
HETATM    1  N2  UNL     1      27.064  -6.452   5.332  1.00  0.00    -0.355 N 
ATOM      2  H2  UNL     1      27.712  -6.848   6.013  1.00  0.00     0.162 HD
HETATM    3  C4  UNL     1      25.829  -5.960   5.839  1.00  0.00     0.253 C 
HETATM    4  O3  UNL     1      24.979  -5.482   5.062  1.00  0.00    -0.268 OA
ENDROOT
BRANCH   3   5
HETATM    5  C5  UNL     1      25.582  -6.027   7.277  1.00  0.00     0.055 A 
HETATM    6  C6  UNL     1      25.062  -7.132   7.903  1.00  0.00     0.019 A 
HETATM    7  C7  UNL     1      24.846  -7.151   9.265  1.00  0.00     0.003 A 
HETATM    8  C8  UNL     1      25.151  -6.045  10.043  1.00  0.00     0.026 A 
HETATM    9  C9  UNL     1      25.672  -4.931   9.438  1.00  0.00     0.056 A 
HETATM   10 CL1  UNL     1      26.062  -3.520  10.424  1.00  0.00    -0.083 Cl
HETATM   11  C10 UNL     1      25.881  -4.931   8.075  1.00  0.00     0.071 A 
HETATM   12 CL2  UNL     1      26.548  -3.505   7.293  1.00  0.00    -0.081 Cl
ENDBRANCH   3   5
BRANCH   1  13
HETATM   13  C3  UNL     1      27.486  -6.449   3.979  1.00  0.00     0.145 C 
BRANCH  13  14
HETATM   14  C2  UNL     1      27.670  -5.126   3.318  1.00  0.00     0.178 C 
BRANCH  14  15
HETATM   15  N1  UNL     1      27.908  -3.986   4.132  1.00  0.00    -0.234 N 
BRANCH  15  16
HETATM   16  C1  UNL     1      29.162  -3.700   4.725  1.00  0.00     0.376 C 
HETATM   17  O1  UNL     1      30.257  -3.867   4.137  1.00  0.00    -0.281 OA
ENDBRANCH  15  16
BRANCH  15  18
HETATM   18  O2  UNL     1      26.865  -3.140   4.414  1.00  0.00    -0.285 OA
ATOM     19  H2  UNL     1      26.639  -2.488   3.761  1.00  0.00     0.245 HD
ENDBRANCH  15  18
ENDBRANCH  14  15
ENDBRANCH  13  14
ENDBRANCH   1  13
TORSDOF 6
ENDMDL
