MODEL 1
REMARK VINA RESULT: -6.769961040      0.000      0.000
REMARK  6 active torsions:
REMARK  status: ('A' for Active; 'I' for Inactive)
REMARK    1  A    between atoms: O1_2  and  C2_3 
REMARK    2  A    between atoms: C2_3  and  C3_4 
REMARK    3  A    between atoms: C3_4  and  N1_5 
REMARK    4  A    between atoms: C9_13  and  C10_14 
REMARK    5  A    between atoms: C10_14  and  N3_15 
REMARK    6  A    between atoms: C11_19  and  C12_20 
ROOT
HETATM    1  N1  UNL     1      51.922  50.205  35.042  1.00  0.00    -0.340 N 
HETATM    2  C4  UNL     1      50.943  50.103  36.075  1.00  0.00     0.168 A 
HETATM    3  C5  UNL     1      49.668  50.578  35.424  1.00  0.00     0.004 A 
HETATM    4  C6  UNL     1      49.980  51.010  34.169  1.00  0.00     0.110 A 
HETATM    5  N2  UNL     1      49.042  51.579  33.444  1.00  0.00    -0.354 N 
ATOM      6  H2  UNL     1      49.298  51.907  32.513  1.00  0.00     0.166 HD
HETATM    7  C7  UNL     1      47.782  51.759  33.836  1.00  0.00     0.014 A 
HETATM    8  C8  UNL     1      46.862  52.460  32.938  1.00  0.00     0.068 C 
HETATM    9  C9  UNL     1      47.442  51.295  35.124  1.00  0.00     0.001 A 
HETATM   10  C11 UNL     1      48.340  50.707  35.934  1.00  0.00    -0.004 A 
HETATM   11  C18 UNL     1      51.390  50.778  33.876  1.00  0.00     0.271 A 
HETATM   12  O2  UNL     1      52.016  51.033  32.808  1.00  0.00    -0.266 OA
ENDROOT
BRANCH  10  13
HETATM   13  C12 UNL     1      48.166  50.175  37.271  1.00  0.00    -0.003 A 
HETATM   14  C13 UNL     1      47.555  48.902  37.373  1.00  0.00     0.016 A 
HETATM   15  C14 UNL     1      47.362  48.364  38.622  1.00  0.00     0.025 A 
HETATM   16  C15 UNL     1      47.753  49.037  39.707  1.00  0.00     0.035 A 
HETATM   17 CL1  UNL     1      47.443  48.340  41.292  1.00  0.00    -0.084 Cl
HETATM   18  C16 UNL     1      48.367  50.309  39.657  1.00  0.00     0.048 A 
HETATM   19  C17 UNL     1      48.534  50.803  38.401  1.00  0.00     0.046 A 
HETATM   20 CL2  UNL     1      49.139  52.458  38.210  1.00  0.00    -0.083 Cl
ENDBRANCH  10  13
BRANCH   9  21
HETATM   21  C10 UNL     1      46.040  51.570  35.523  1.00  0.00     0.271 C 
BRANCH  21  22
HETATM   22  N3  UNL     1      45.844  52.649  36.468  1.00  0.00    -0.075 N 
ATOM     23  H33 UNL     1      44.899  53.020  36.375  1.00  0.00     0.274 HD
ATOM     24  H32 UNL     1      45.804  52.274  37.415  1.00  0.00     0.274 HD
ATOM     25  H31 UNL     1      46.520  53.412  36.428  1.00  0.00     0.274 HD
ENDBRANCH  21  22
ENDBRANCH   9  21
BRANCH   1  26
HETATM   26  C3  UNL     1      53.272  49.639  35.189  1.00  0.00     0.152 C 
BRANCH  26  27
HETATM   27  C2  UNL     1      53.970  50.644  36.106  1.00  0.00     0.187 C 
BRANCH  27  28
HETATM   28  O1  UNL     1      55.183  51.096  35.698  1.00  0.00    -0.394 OA
HETATM   29  C1  UNL     1      55.229  52.453  36.107  1.00  0.00     0.201 C 
ENDBRANCH  27  28
ENDBRANCH  26  27
ENDBRANCH   1  26
TORSDOF 6
ENDMDL
