MODEL 2
REMARK VINA RESULT: -6.739346342      4.453      6.290
REMARK  6 active torsions:
REMARK  status: ('A' for Active; 'I' for Inactive)
REMARK    1  A    between atoms: O1_2  and  C2_3 
REMARK    2  A    between atoms: C2_3  and  C3_4 
REMARK    3  A    between atoms: C3_4  and  N1_5 
REMARK    4  A    between atoms: C9_13  and  C10_14 
REMARK    5  A    between atoms: C10_14  and  N3_15 
REMARK    6  A    between atoms: C11_19  and  C12_20 
ROOT
HETATM    1  N1  UNL     1      47.374  50.241  36.497  1.00  0.00    -0.340 N 
HETATM    2  C4  UNL     1      47.760  49.448  35.376  1.00  0.00     0.168 A 
HETATM    3  C5  UNL     1      46.768  49.819  34.301  1.00  0.00     0.004 A 
HETATM    4  C6  UNL     1      45.853  50.665  34.858  1.00  0.00     0.110 A 
HETATM    5  N2  UNL     1      44.818  51.037  34.138  1.00  0.00    -0.354 N 
ATOM      6  H2  UNL     1      44.138  51.660  34.576  1.00  0.00     0.166 HD
HETATM    7  C7  UNL     1      44.590  50.663  32.881  1.00  0.00     0.014 A 
HETATM    8  C8  UNL     1      43.361  51.116  32.226  1.00  0.00     0.068 C 
HETATM    9  C9  UNL     1      45.542  49.806  32.288  1.00  0.00     0.001 A 
HETATM   10  C11 UNL     1      46.627  49.371  32.953  1.00  0.00    -0.004 A 
HETATM   11  C18 UNL     1      46.206  50.974  36.238  1.00  0.00     0.271 A 
HETATM   12  O2  UNL     1      45.599  51.735  37.045  1.00  0.00    -0.266 OA
ENDROOT
BRANCH  10  13
HETATM   13  C12 UNL     1      47.695  48.501  32.504  1.00  0.00    -0.003 A 
HETATM   14  C13 UNL     1      47.532  47.116  32.748  1.00  0.00     0.016 A 
HETATM   15  C14 UNL     1      48.525  46.256  32.348  1.00  0.00     0.025 A 
HETATM   16  C15 UNL     1      49.613  46.730  31.736  1.00  0.00     0.035 A 
HETATM   17 CL1  UNL     1      50.887  45.605  31.284  1.00  0.00    -0.084 Cl
HETATM   18  C16 UNL     1      49.822  48.103  31.469  1.00  0.00     0.048 A 
HETATM   19  C17 UNL     1      48.815  48.916  31.887  1.00  0.00     0.046 A 
HETATM   20 CL2  UNL     1      49.030  50.671  31.761  1.00  0.00    -0.083 Cl
ENDBRANCH  10  13
BRANCH   9  21
HETATM   21  C10 UNL     1      45.207  49.383  30.907  1.00  0.00     0.271 C 
BRANCH  21  22
HETATM   22  N3  UNL     1      45.883  50.089  29.840  1.00  0.00    -0.075 N 
ATOM     23  H33 UNL     1      45.272  50.815  29.466  1.00  0.00     0.274 HD
ATOM     24  H32 UNL     1      46.634  50.659  30.226  1.00  0.00     0.274 HD
ATOM     25  H31 UNL     1      46.243  49.515  29.077  1.00  0.00     0.274 HD
ENDBRANCH  21  22
ENDBRANCH   9  21
BRANCH   1  26
HETATM   26  C3  UNL     1      48.212  50.346  37.702  1.00  0.00     0.152 C 
BRANCH  26  27
HETATM   27  C2  UNL     1      47.810  49.112  38.510  1.00  0.00     0.187 C 
BRANCH  27  28
HETATM   28  O1  UNL     1      48.611  48.783  39.555  1.00  0.00    -0.394 OA
HETATM   29  C1  UNL     1      47.748  48.718  40.678  1.00  0.00     0.201 C 
ENDBRANCH  27  28
ENDBRANCH  26  27
ENDBRANCH   1  26
TORSDOF 6
ENDMDL
