MODEL 4
REMARK VINA RESULT: -6.655980648      6.148      9.107
REMARK  6 active torsions:
REMARK  status: ('A' for Active; 'I' for Inactive)
REMARK    1  A    between atoms: O1_2  and  C2_3 
REMARK    2  A    between atoms: C2_3  and  C3_4 
REMARK    3  A    between atoms: C3_4  and  N1_5 
REMARK    4  A    between atoms: C9_13  and  C10_14 
REMARK    5  A    between atoms: C10_14  and  N3_15 
REMARK    6  A    between atoms: C11_19  and  C12_20 
ROOT
HETATM    1  N1  UNL     1      58.470  47.473  35.092  1.00  0.00    -0.340 N 
HETATM    2  C4  UNL     1      57.367  48.374  35.154  1.00  0.00     0.168 A 
HETATM    3  C5  UNL     1      57.990  49.736  34.974  1.00  0.00     0.004 A 
HETATM    4  C6  UNL     1      59.343  49.569  34.936  1.00  0.00     0.110 A 
HETATM    5  N2  UNL     1      60.111  50.636  34.899  1.00  0.00    -0.354 N 
ATOM      6  H2  UNL     1      61.121  50.491  34.884  1.00  0.00     0.166 HD
HETATM    7  C7  UNL     1      59.668  51.892  34.879  1.00  0.00     0.014 A 
HETATM    8  C8  UNL     1      60.647  52.981  34.893  1.00  0.00     0.068 C 
HETATM    9  C9  UNL     1      58.269  52.076  34.895  1.00  0.00     0.001 A 
HETATM   10  C11 UNL     1      57.411  51.041  34.939  1.00  0.00    -0.004 A 
HETATM   11  C18 UNL     1      59.693  48.154  34.989  1.00  0.00     0.271 A 
HETATM   12  O2  UNL     1      60.845  47.635  34.954  1.00  0.00    -0.266 OA
ENDROOT
BRANCH  10  13
HETATM   13  C12 UNL     1      55.962  51.046  34.958  1.00  0.00    -0.003 A 
HETATM   14  C13 UNL     1      55.344  51.057  36.232  1.00  0.00     0.016 A 
HETATM   15  C14 UNL     1      53.972  51.052  36.296  1.00  0.00     0.025 A 
HETATM   16  C15 UNL     1      53.250  51.044  35.173  1.00  0.00     0.035 A 
HETATM   17 CL1  UNL     1      51.497  50.986  35.295  1.00  0.00    -0.084 Cl
HETATM   18  C16 UNL     1      53.820  51.033  33.879  1.00  0.00     0.048 A 
HETATM   19  C17 UNL     1      55.180  51.034  33.865  1.00  0.00     0.046 A 
HETATM   20 CL2  UNL     1      56.016  50.854  32.312  1.00  0.00    -0.083 Cl
ENDBRANCH  10  13
BRANCH   9  21
HETATM   21  C10 UNL     1      57.839  53.495  34.924  1.00  0.00     0.271 C 
BRANCH  21  22
HETATM   22  N3  UNL     1      57.427  54.064  33.660  1.00  0.00    -0.075 N 
ATOM     23  H33 UNL     1      58.159  53.924  32.964  1.00  0.00     0.274 HD
ATOM     24  H32 UNL     1      56.679  53.502  33.256  1.00  0.00     0.274 HD
ATOM     25  H31 UNL     1      57.149  55.046  33.676  1.00  0.00     0.274 HD
ENDBRANCH  21  22
ENDBRANCH   9  21
BRANCH   1  26
HETATM   26  C3  UNL     1      58.283  46.016  35.011  1.00  0.00     0.152 C 
BRANCH  26  27
HETATM   27  C2  UNL     1      58.270  45.587  36.478  1.00  0.00     0.187 C 
BRANCH  27  28
HETATM   28  O1  UNL     1      57.051  45.414  37.049  1.00  0.00    -0.394 OA
HETATM   29  C1  UNL     1      56.231  44.889  36.019  1.00  0.00     0.201 C 
ENDBRANCH  27  28
ENDBRANCH  26  27
ENDBRANCH   1  26
TORSDOF 6
ENDMDL
