MODEL 3
REMARK VINA RESULT: -6.725490479      5.105      7.778
REMARK  6 active torsions:
REMARK  status: ('A' for Active; 'I' for Inactive)
REMARK    1  A    between atoms: O1_2  and  C2_3 
REMARK    2  A    between atoms: C2_3  and  C3_4 
REMARK    3  A    between atoms: C3_4  and  N1_5 
REMARK    4  A    between atoms: C9_13  and  C10_14 
REMARK    5  A    between atoms: C10_14  and  N3_15 
REMARK    6  A    between atoms: C11_19  and  C12_20 
ROOT
HETATM    1  N1  UNL     1      44.425  50.180  30.878  1.00  0.00    -0.340 N 
HETATM    2  C4  UNL     1      45.567  49.398  31.223  1.00  0.00     0.168 A 
HETATM    3  C5  UNL     1      45.792  49.697  32.685  1.00  0.00     0.004 A 
HETATM    4  C6  UNL     1      44.898  50.660  33.052  1.00  0.00     0.110 A 
HETATM    5  N2  UNL     1      44.978  51.168  34.262  1.00  0.00    -0.354 N 
ATOM      6  H2  UNL     1      44.309  51.896  34.514  1.00  0.00     0.166 HD
HETATM    7  C7  UNL     1      45.868  50.803  35.184  1.00  0.00     0.014 A 
HETATM    8  C8  UNL     1      45.870  51.500  36.471  1.00  0.00     0.068 C 
HETATM    9  C9  UNL     1      46.783  49.792  34.822  1.00  0.00     0.001 A 
HETATM   10  C11 UNL     1      46.776  49.222  33.604  1.00  0.00    -0.004 A 
HETATM   11  C18 UNL     1      44.001  50.984  31.949  1.00  0.00     0.271 A 
HETATM   12  O2  UNL     1      43.045  51.809  31.939  1.00  0.00    -0.266 OA
ENDROOT
BRANCH  10  13
HETATM   13  C12 UNL     1      47.630  48.180  33.069  1.00  0.00    -0.003 A 
HETATM   14  C13 UNL     1      47.198  46.845  33.256  1.00  0.00     0.016 A 
HETATM   15  C14 UNL     1      47.982  45.826  32.773  1.00  0.00     0.025 A 
HETATM   16  C15 UNL     1      49.123  46.105  32.138  1.00  0.00     0.035 A 
HETATM   17 CL1  UNL     1      50.126  44.773  31.578  1.00  0.00    -0.084 Cl
HETATM   18  C16 UNL     1      49.597  47.420  31.926  1.00  0.00     0.048 A 
HETATM   19  C17 UNL     1      48.790  48.395  32.424  1.00  0.00     0.046 A 
HETATM   20 CL2  UNL     1      49.352  50.075  32.370  1.00  0.00    -0.083 Cl
ENDBRANCH  10  13
BRANCH   9  21
HETATM   21  C10 UNL     1      47.781  49.466  35.870  1.00  0.00     0.271 C 
BRANCH  21  22
HETATM   22  N3  UNL     1      49.059  50.137  35.767  1.00  0.00    -0.075 N 
ATOM     23  H33 UNL     1      48.950  51.009  35.250  1.00  0.00     0.274 HD
ATOM     24  H32 UNL     1      49.335  50.496  36.680  1.00  0.00     0.274 HD
ATOM     25  H31 UNL     1      49.823  49.592  35.366  1.00  0.00     0.274 HD
ENDBRANCH  21  22
ENDBRANCH   9  21
BRANCH   1  26
HETATM   26  C3  UNL     1      43.732  50.022  29.590  1.00  0.00     0.152 C 
BRANCH  26  27
HETATM   27  C2  UNL     1      44.328  51.143  28.738  1.00  0.00     0.187 C 
BRANCH  27  28
HETATM   28  O1  UNL     1      43.452  51.889  28.018  1.00  0.00    -0.394 OA
HETATM   29  C1  UNL     1      42.985  51.025  26.995  1.00  0.00     0.201 C 
ENDBRANCH  27  28
ENDBRANCH  26  27
ENDBRANCH   1  26
TORSDOF 6
ENDMDL
