MODEL 5
REMARK VINA RESULT: -8.499578850      3.618      6.356
REMARK  4 active torsions:
REMARK  status: ('A' for Active; 'I' for Inactive)
REMARK    1  A    between atoms: C2_2  and  O1_3 
REMARK    2  A    between atoms: O1_3  and  C3_4 
REMARK    3  A    between atoms: C8_9  and  C9_10 
REMARK    4  A    between atoms: N2_13  and  C10_14 
ROOT
HETATM    1  C9  UNL     1      24.329  18.002  61.889  1.00  0.00     0.076 A 
HETATM    2  N1  UNL     1      24.662  19.234  62.371  1.00  0.00    -0.295 N 
ATOM      3  H1  UNL     1      24.243  19.672  63.191  1.00  0.00     0.187 HD
HETATM    4  N2  UNL     1      25.601  19.777  61.628  1.00  0.00    -0.271 N 
HETATM    5  C13 UNL     1      25.943  18.951  60.623  1.00  0.00     0.139 A 
HETATM    6  N3  UNL     1      26.815  19.017  59.602  1.00  0.00    -0.337 N 
ATOM      7  H3  UNL     1      27.394  19.852  59.505  1.00  0.00     0.168 HD
HETATM    8  C14 UNL     1      26.956  18.029  58.706  1.00  0.00     0.183 A 
HETATM    9  N4  UNL     1      26.182  16.945  58.857  1.00  0.00    -0.340 N 
ATOM     10  H4  UNL     1      26.269  16.179  58.189  1.00  0.00     0.167 HD
HETATM   11  C15 UNL     1      25.289  16.834  59.868  1.00  0.00     0.133 A 
HETATM   12  N5  UNL     1      24.459  15.665  59.978  1.00  0.00    -0.082 NA
HETATM   13  C16 UNL     1      25.131  17.821  60.789  1.00  0.00     0.080 A 
ENDROOT
BRANCH   1  14
HETATM   14  C8  UNL     1      23.313  17.105  62.437  1.00  0.00    -0.006 A 
HETATM   15  C7  UNL     1      21.969  17.423  62.358  1.00  0.00     0.026 A 
HETATM   16  C6  UNL     1      21.030  16.573  62.912  1.00  0.00    -0.025 A 
HETATM   17  C5  UNL     1      19.680  16.925  62.814  1.00  0.00     0.015 A 
HETATM   18  C19 UNL     1      21.381  15.404  63.550  1.00  0.00    -0.023 A 
HETATM   19  C4  UNL     1      18.707  16.112  63.349  1.00  0.00     0.037 A 
HETATM   20  C3  UNL     1      19.038  14.938  63.991  1.00  0.00     0.069 A 
HETATM   21  C20 UNL     1      20.376  14.622  64.069  1.00  0.00     0.049 A 
HETATM   22  C18 UNL     1      22.717  15.074  63.636  1.00  0.00     0.013 A 
HETATM   23  C17 UNL     1      23.650  15.935  63.077  1.00  0.00     0.014 A 
BRANCH  20  24
HETATM   24  O1  UNL     1      18.049  14.142  64.517  1.00  0.00    -0.351 OA
BRANCH  24  25
HETATM   25  C2  UNL     1      17.459  14.324  65.772  1.00  0.00     0.171 C 
HETATM   26  C1  UNL     1      16.142  15.033  65.654  1.00  0.00     0.034 C 
ENDBRANCH  24  25
ENDBRANCH  20  24
ENDBRANCH   1  14
BRANCH   4  27
HETATM   27  C10 UNL     1      26.244  21.085  61.792  1.00  0.00     0.102 C 
HETATM   28  C11 UNL     1      25.265  22.118  62.269  1.00  0.00     0.034 C 
HETATM   29  C12 UNL     1      27.478  20.994  62.638  1.00  0.00     0.034 C 
ENDBRANCH   4  27
TORSDOF 4
ENDMDL
