MODEL 1
REMARK VINA RESULT: -10.318108013      0.000      0.000
REMARK  4 active torsions:
REMARK  status: ('A' for Active; 'I' for Inactive)
REMARK    1  A    between atoms: C2_2  and  O1_3 
REMARK    2  A    between atoms: O1_3  and  C3_4 
REMARK    3  A    between atoms: C8_9  and  C9_10 
REMARK    4  A    between atoms: N2_13  and  C10_14 
ROOT
HETATM    1  C9  UNL     1      19.385  15.817  63.709  1.00  0.00     0.076 A 
HETATM    2  N1  UNL     1      20.144  16.941  63.557  1.00  0.00    -0.295 N 
ATOM      3  H1  UNL     1      19.787  17.895  63.598  1.00  0.00     0.187 HD
HETATM    4  N2  UNL     1      21.401  16.618  63.351  1.00  0.00    -0.271 N 
HETATM    5  C13 UNL     1      21.551  15.281  63.353  1.00  0.00     0.139 A 
HETATM    6  N3  UNL     1      22.593  14.447  63.184  1.00  0.00    -0.337 N 
ATOM      7  H3  UNL     1      23.517  14.845  63.021  1.00  0.00     0.168 HD
HETATM    8  C14 UNL     1      22.464  13.113  63.223  1.00  0.00     0.183 A 
HETATM    9  N4  UNL     1      21.237  12.618  63.439  1.00  0.00    -0.340 N 
ATOM     10  H4  UNL     1      21.112  11.606  63.473  1.00  0.00     0.167 HD
HETATM   11  C15 UNL     1      20.159  13.417  63.613  1.00  0.00     0.133 A 
HETATM   12  N5  UNL     1      18.856  12.845  63.815  1.00  0.00    -0.082 NA
HETATM   13  C16 UNL     1      20.265  14.771  63.580  1.00  0.00     0.080 A 
ENDROOT
BRANCH   1  14
HETATM   14  C8  UNL     1      17.941  15.773  63.935  1.00  0.00    -0.006 A 
HETATM   15  C7  UNL     1      17.419  15.182  65.072  1.00  0.00     0.026 A 
HETATM   16  C6  UNL     1      16.049  15.124  65.246  1.00  0.00    -0.025 A 
HETATM   17  C5  UNL     1      15.555  14.520  66.408  1.00  0.00     0.015 A 
HETATM   18  C19 UNL     1      15.167  15.638  64.322  1.00  0.00    -0.023 A 
HETATM   19  C4  UNL     1      14.199  14.439  66.628  1.00  0.00     0.037 A 
HETATM   20  C3  UNL     1      13.300  14.947  65.715  1.00  0.00     0.069 A 
HETATM   21  C20 UNL     1      13.821  15.534  64.583  1.00  0.00     0.049 A 
HETATM   22  C18 UNL     1      15.673  16.230  63.184  1.00  0.00     0.013 A 
HETATM   23  C17 UNL     1      17.050  16.281  63.019  1.00  0.00     0.014 A 
BRANCH  20  24
HETATM   24  O1  UNL     1      11.951  14.854  65.957  1.00  0.00    -0.351 OA
BRANCH  24  25
HETATM   25  C2  UNL     1      11.028  14.227  65.112  1.00  0.00     0.171 C 
HETATM   26  C1  UNL     1       9.628  14.384  65.627  1.00  0.00     0.034 C 
ENDBRANCH  24  25
ENDBRANCH  20  24
ENDBRANCH   1  14
BRANCH   4  27
HETATM   27  C10 UNL     1      22.544  17.512  63.140  1.00  0.00     0.102 C 
HETATM   28  C11 UNL     1      22.824  17.704  61.677  1.00  0.00     0.034 C 
HETATM   29  C12 UNL     1      22.389  18.798  63.893  1.00  0.00     0.034 C 
ENDBRANCH   4  27
TORSDOF 4
ENDMDL
