MODEL 2
REMARK VINA RESULT: -9.956977766      1.041      1.737
REMARK  4 active torsions:
REMARK  status: ('A' for Active; 'I' for Inactive)
REMARK    1  A    between atoms: C2_2  and  O1_3 
REMARK    2  A    between atoms: O1_3  and  C3_4 
REMARK    3  A    between atoms: C8_9  and  C9_10 
REMARK    4  A    between atoms: N2_13  and  C10_14 
ROOT
HETATM    1  C9  UNL     1      18.705  15.963  63.927  1.00  0.00     0.076 A 
HETATM    2  N1  UNL     1      19.100  17.207  63.532  1.00  0.00    -0.295 N 
ATOM      3  H1  UNL     1      18.526  18.048  63.597  1.00  0.00     0.187 HD
HETATM    4  N2  UNL     1      20.324  17.168  63.056  1.00  0.00    -0.271 N 
HETATM    5  C13 UNL     1      20.809  15.914  63.105  1.00  0.00     0.139 A 
HETATM    6  N3  UNL     1      21.970  15.336  62.748  1.00  0.00    -0.337 N 
ATOM      7  H3  UNL     1      22.704  15.919  62.347  1.00  0.00     0.168 HD
HETATM    8  C14 UNL     1      22.199  14.023  62.898  1.00  0.00     0.183 A 
HETATM    9  N4  UNL     1      21.216  13.282  63.426  1.00  0.00    -0.340 N 
ATOM     10  H4  UNL     1      21.365  12.281  63.551  1.00  0.00     0.167 HD
HETATM   11  C15 UNL     1      20.031  13.819  63.800  1.00  0.00     0.133 A 
HETATM   12  N5  UNL     1      18.992  12.983  64.337  1.00  0.00    -0.082 NA
HETATM   13  C16 UNL     1      19.776  15.146  63.659  1.00  0.00     0.080 A 
ENDROOT
BRANCH   1  14
HETATM   14  C8  UNL     1      17.402  15.606  64.489  1.00  0.00    -0.006 A 
HETATM   15  C7  UNL     1      16.238  15.827  63.775  1.00  0.00     0.026 A 
HETATM   16  C6  UNL     1      15.017  15.510  64.341  1.00  0.00    -0.025 A 
HETATM   17  C5  UNL     1      13.860  15.746  63.591  1.00  0.00     0.015 A 
HETATM   18  C19 UNL     1      14.909  14.976  65.606  1.00  0.00    -0.023 A 
HETATM   19  C4  UNL     1      12.621  15.447  64.110  1.00  0.00     0.037 A 
HETATM   20  C3  UNL     1      12.491  14.912  65.373  1.00  0.00     0.069 A 
HETATM   21  C20 UNL     1      13.651  14.693  66.084  1.00  0.00     0.049 A 
HETATM   22  C18 UNL     1      16.061  14.751  66.329  1.00  0.00     0.013 A 
HETATM   23  C17 UNL     1      17.280  15.073  65.751  1.00  0.00     0.014 A 
BRANCH  20  24
HETATM   24  O1  UNL     1      11.243  14.621  65.870  1.00  0.00    -0.351 OA
BRANCH  24  25
HETATM   25  C2  UNL     1      10.037  14.938  65.237  1.00  0.00     0.171 C 
HETATM   26  C1  UNL     1       8.908  15.003  66.223  1.00  0.00     0.034 C 
ENDBRANCH  24  25
ENDBRANCH  20  24
ENDBRANCH   1  14
BRANCH   4  27
HETATM   27  C10 UNL     1      21.127  18.276  62.527  1.00  0.00     0.102 C 
HETATM   28  C11 UNL     1      20.335  19.114  61.566  1.00  0.00     0.034 C 
HETATM   29  C12 UNL     1      21.768  19.069  63.625  1.00  0.00     0.034 C 
ENDBRANCH   4  27
TORSDOF 4
ENDMDL
