MODEL 6
REMARK VINA RESULT: -8.435307391      3.581      8.235
REMARK  4 active torsions:
REMARK  status: ('A' for Active; 'I' for Inactive)
REMARK    1  A    between atoms: C2_2  and  O1_3 
REMARK    2  A    between atoms: O1_3  and  C3_4 
REMARK    3  A    between atoms: C8_9  and  C9_10 
REMARK    4  A    between atoms: N2_13  and  C10_14 
ROOT
HETATM    1  C9  UNL     1      16.354  15.688  63.875  1.00  0.00     0.076 A 
HETATM    2  N1  UNL     1      15.210  15.976  63.189  1.00  0.00    -0.295 N 
ATOM      3  H1  UNL     1      15.178  16.425  62.274  1.00  0.00     0.187 HD
HETATM    4  N2  UNL     1      14.157  15.591  63.874  1.00  0.00    -0.271 N 
HETATM    5  C13 UNL     1      14.531  15.033  65.040  1.00  0.00     0.139 A 
HETATM    6  N3  UNL     1      13.875  14.498  66.084  1.00  0.00    -0.337 N 
ATOM      7  H3  UNL     1      12.856  14.465  66.057  1.00  0.00     0.168 HD
HETATM    8  C14 UNL     1      14.507  14.007  67.161  1.00  0.00     0.183 A 
HETATM    9  N4  UNL     1      15.846  14.065  67.169  1.00  0.00    -0.340 N 
ATOM     10  H4  UNL     1      16.351  13.698  67.976  1.00  0.00     0.167 HD
HETATM   11  C15 UNL     1      16.550  14.594  66.142  1.00  0.00     0.133 A 
HETATM   12  N5  UNL     1      17.984  14.662  66.203  1.00  0.00    -0.082 NA
HETATM   13  C16 UNL     1      15.932  15.096  65.040  1.00  0.00     0.080 A 
ENDROOT
BRANCH   1  14
HETATM   14  C8  UNL     1      17.720  15.983  63.444  1.00  0.00    -0.006 A 
HETATM   15  C7  UNL     1      18.108  17.280  63.159  1.00  0.00     0.026 A 
HETATM   16  C6  UNL     1      19.396  17.529  62.722  1.00  0.00    -0.025 A 
HETATM   17  C5  UNL     1      19.756  18.852  62.444  1.00  0.00     0.015 A 
HETATM   18  C19 UNL     1      20.323  16.524  62.555  1.00  0.00    -0.023 A 
HETATM   19  C4  UNL     1      21.026  19.151  62.007  1.00  0.00     0.037 A 
HETATM   20  C3  UNL     1      21.969  18.161  61.834  1.00  0.00     0.069 A 
HETATM   21  C20 UNL     1      21.580  16.870  62.117  1.00  0.00     0.049 A 
HETATM   22  C18 UNL     1      19.950  15.227  62.835  1.00  0.00     0.013 A 
HETATM   23  C17 UNL     1      18.655  14.989  63.272  1.00  0.00     0.014 A 
BRANCH  20  24
HETATM   24  O1  UNL     1      23.230  18.484  61.396  1.00  0.00    -0.351 OA
BRANCH  24  25
HETATM   25  C2  UNL     1      24.302  17.589  61.313  1.00  0.00     0.171 C 
HETATM   26  C1  UNL     1      24.479  17.083  59.912  1.00  0.00     0.034 C 
ENDBRANCH  24  25
ENDBRANCH  20  24
ENDBRANCH   1  14
BRANCH   4  27
HETATM   27  C10 UNL     1      12.742  15.709  63.505  1.00  0.00     0.102 C 
HETATM   28  C11 UNL     1      12.258  14.475  62.801  1.00  0.00     0.034 C 
HETATM   29  C12 UNL     1      11.895  16.101  64.678  1.00  0.00     0.034 C 
ENDBRANCH   4  27
TORSDOF 4
ENDMDL
