MODEL 13
REMARK VINA RESULT: -3.939410711      1.303      2.502
REMARK  1 active torsions:
REMARK  status: ('A' for Active; 'I' for Inactive)
REMARK    1  A    between atoms: C1_2  and  P1_4 
ROOT
HETATM    1  P1  UNL     1       0.823  32.134  20.781  1.00  0.00     0.364 P 
HETATM    2  O3  UNL     1       1.607  31.569  22.094  1.00  0.00    -0.632 OA
HETATM    3  O4  UNL     1       0.664  33.564  21.323  1.00  0.00    -0.632 OA
HETATM    4  O5  UNL     1       0.895  30.815  19.990  1.00  0.00    -0.632 OA
ENDROOT
BRANCH   1   5
HETATM    5  C1  UNL     1      -0.938  31.980  20.764  1.00  0.00     0.307 C 
HETATM    6  O1  UNL     1      -1.435  31.181  19.976  1.00  0.00    -0.637 OA
HETATM    7  O2  UNL     1      -1.643  32.750  21.620  1.00  0.00    -0.637 OA
ENDBRANCH   1   5
TORSDOF 1
ENDMDL
