MODEL 17
REMARK VINA RESULT: -3.882248511      7.187      8.545
REMARK  1 active torsions:
REMARK  status: ('A' for Active; 'I' for Inactive)
REMARK    1  A    between atoms: C1_2  and  P1_4 
ROOT
HETATM    1  P1  UNL     1       0.628  27.114  15.124  1.00  0.00     0.364 P 
HETATM    2  O3  UNL     1       1.736  26.942  16.308  1.00  0.00    -0.632 OA
HETATM    3  O4  UNL     1      -0.419  27.800  16.017  1.00  0.00    -0.632 OA
HETATM    4  O5  UNL     1       1.505  26.506  14.015  1.00  0.00    -0.632 OA
ENDROOT
BRANCH   1   5
HETATM    5  C1  UNL     1      -0.504  25.778  14.879  1.00  0.00     0.307 C 
HETATM    6  O1  UNL     1      -1.679  25.960  15.186  1.00  0.00    -0.637 OA
HETATM    7  O2  UNL     1      -0.016  24.628  14.367  1.00  0.00    -0.637 OA
ENDBRANCH   1   5
TORSDOF 1
ENDMDL
