MODEL 1
REMARK VINA RESULT: -4.240740205      0.000      0.000
REMARK  1 active torsions:
REMARK  status: ('A' for Active; 'I' for Inactive)
REMARK    1  A    between atoms: C1_2  and  P1_4 
ROOT
HETATM    1  P1  UNL     1      -0.205  31.694  20.172  1.00  0.00     0.364 P 
HETATM    2  O3  UNL     1      -1.364  30.697  19.605  1.00  0.00    -0.632 OA
HETATM    3  O4  UNL     1       0.019  30.913  21.477  1.00  0.00    -0.632 OA
HETATM    4  O5  UNL     1      -0.193  32.618  18.940  1.00  0.00    -0.632 OA
ENDROOT
BRANCH   1   5
HETATM    5  C1  UNL     1      -0.734  33.081  21.133  1.00  0.00     0.307 C 
HETATM    6  O1  UNL     1       0.020  34.048  21.205  1.00  0.00    -0.637 OA
HETATM    7  O2  UNL     1      -1.940  33.004  21.735  1.00  0.00    -0.637 OA
ENDBRANCH   1   5
TORSDOF 1
ENDMDL
