MODEL 1
REMARK VINA RESULT: -7.938147883      0.000      0.000
REMARK  4 active torsions:
REMARK  status: ('A' for Active; 'I' for Inactive)
REMARK    1  A    between atoms: O1_2  and  C2_3 
REMARK    2  A    between atoms: C7_9  and  C8_10 
REMARK    3  A    between atoms: N1_15  and  C11_16 
REMARK    4  A    between atoms: C11_16  and  C12_17 
ROOT
HETATM    1  C8  UNL     1     -20.364  21.456 -15.679  1.00  0.00     0.039 C 
HETATM    2  C9  UNL     1     -20.634  20.169 -15.684  1.00  0.00     0.079 C 
HETATM    3  S1  UNL     1     -19.755  18.921 -14.730  1.00  0.00    -0.023 SA
HETATM    4  C10 UNL     1     -20.863  17.587 -15.123  1.00  0.00     0.294 C 
HETATM    5  O2  UNL     1     -20.823  16.462 -14.614  1.00  0.00    -0.259 OA
HETATM    6  N1  UNL     1     -21.754  18.073 -16.101  1.00  0.00    -0.270 N 
HETATM    7  C19 UNL     1     -21.644  19.425 -16.403  1.00  0.00     0.268 C 
HETATM    8  O3  UNL     1     -22.374  20.034 -17.266  1.00  0.00    -0.266 OA
ENDROOT
BRANCH   1   9
HETATM    9  C7  UNL     1     -19.323  22.084 -14.910  1.00  0.00    -0.000 A 
HETATM   10  C2  UNL     1     -18.090  22.434 -15.395  1.00  0.00     0.078 A 
HETATM   11  C3  UNL     1     -17.135  23.060 -14.617  1.00  0.00     0.039 A 
HETATM   12  C4  UNL     1     -17.419  23.347 -13.303  1.00  0.00     0.022 A 
HETATM   13  C5  UNL     1     -18.646  23.009 -12.782  1.00  0.00     0.011 A 
HETATM   14 BR1  UNL     1     -19.045  23.403 -10.965  1.00  0.00    -0.051 Br
HETATM   15  C6  UNL     1     -19.587  22.387 -13.571  1.00  0.00     0.033 A 
BRANCH  10  16
HETATM   16  O1  UNL     1     -17.782  22.156 -16.696  1.00  0.00    -0.355 OA
HETATM   17  C1  UNL     1     -17.410  23.194 -17.575  1.00  0.00     0.210 C 
ENDBRANCH  10  16
ENDBRANCH   1   9
BRANCH   6  18
HETATM   18  C11 UNL     1     -22.736  17.185 -16.751  1.00  0.00     0.174 C 
BRANCH  18  19
HETATM   19  C12 UNL     1     -22.140  16.496 -17.911  1.00  0.00    -0.040 A 
HETATM   20  C13 UNL     1     -22.044  17.086 -19.152  1.00  0.00     0.009 A 
HETATM   21  C14 UNL     1     -21.475  16.394 -20.210  1.00  0.00     0.007 A 
HETATM   22  C15 UNL     1     -20.987  15.113 -20.081  1.00  0.00    -0.062 A 
HETATM   23  C16 UNL     1     -20.389  14.394 -21.213  1.00  0.00     0.048 C 
HETATM   24  C17 UNL     1     -21.087  14.522 -18.826  1.00  0.00     0.007 A 
HETATM   25  C18 UNL     1     -21.660  15.216 -17.757  1.00  0.00     0.009 A 
ENDBRANCH  18  19
ENDBRANCH   6  18
TORSDOF 4
ENDMDL
