MODEL 2
REMARK VINA RESULT: -7.802826233      3.655      8.771
REMARK  4 active torsions:
REMARK  status: ('A' for Active; 'I' for Inactive)
REMARK    1  A    between atoms: O1_2  and  C2_3 
REMARK    2  A    between atoms: C7_9  and  C8_10 
REMARK    3  A    between atoms: N1_15  and  C11_16 
REMARK    4  A    between atoms: C11_16  and  C12_17 
ROOT
HETATM    1  C8  UNL     1     -20.646  17.678 -14.271  1.00  0.00     0.039 C 
HETATM    2  C9  UNL     1     -20.068  18.858 -14.307  1.00  0.00     0.079 C 
HETATM    3  S1  UNL     1     -20.775  20.339 -15.048  1.00  0.00    -0.023 SA
HETATM    4  C10 UNL     1     -19.511  21.447 -14.466  1.00  0.00     0.294 C 
HETATM    5  O2  UNL     1     -19.548  22.677 -14.569  1.00  0.00    -0.259 OA
HETATM    6  N1  UNL     1     -18.504  20.648 -13.890  1.00  0.00    -0.270 N 
HETATM    7  C19 UNL     1     -18.784  19.290 -13.800  1.00  0.00     0.268 C 
HETATM    8  O3  UNL     1     -17.982  18.418 -13.304  1.00  0.00    -0.266 OA
ENDROOT
BRANCH   1   9
HETATM    9  C7  UNL     1     -21.943  17.371 -14.815  1.00  0.00    -0.000 A 
HETATM   10  C2  UNL     1     -23.089  17.227 -14.081  1.00  0.00     0.078 A 
HETATM   11  C3  UNL     1     -24.315  16.956 -14.659  1.00  0.00     0.039 A 
HETATM   12  C4  UNL     1     -24.400  16.822 -16.024  1.00  0.00     0.022 A 
HETATM   13  C5  UNL     1     -23.269  16.959 -16.794  1.00  0.00     0.011 A 
HETATM   14 BR1  UNL     1     -23.380  16.774 -18.683  1.00  0.00    -0.051 Br
HETATM   15  C6  UNL     1     -22.056  17.230 -16.201  1.00  0.00     0.033 A 
BRANCH  10  16
HETATM   16  O1  UNL     1     -23.031  17.351 -12.721  1.00  0.00    -0.355 OA
HETATM   17  C1  UNL     1     -24.117  16.940 -11.923  1.00  0.00     0.210 C 
ENDBRANCH  10  16
ENDBRANCH   1   9
BRANCH   6  18
HETATM   18  C11 UNL     1     -17.238  21.236 -13.415  1.00  0.00     0.174 C 
BRANCH  18  19
HETATM   19  C12 UNL     1     -17.300  21.535 -11.972  1.00  0.00    -0.040 A 
HETATM   20  C13 UNL     1     -17.953  22.641 -11.473  1.00  0.00     0.009 A 
HETATM   21  C14 UNL     1     -17.982  22.875 -10.108  1.00  0.00     0.007 A 
HETATM   22  C15 UNL     1     -17.375  22.037  -9.198  1.00  0.00    -0.062 A 
HETATM   23  C16 UNL     1     -17.414  22.302  -7.755  1.00  0.00     0.048 C 
HETATM   24  C17 UNL     1     -16.718  20.922  -9.707  1.00  0.00     0.007 A 
HETATM   25  C18 UNL     1     -16.686  20.682 -11.084  1.00  0.00     0.009 A 
ENDBRANCH  18  19
ENDBRANCH   6  18
TORSDOF 4
ENDMDL
