MODEL 3
REMARK VINA RESULT: -7.736350521      2.988      8.522
REMARK  4 active torsions:
REMARK  status: ('A' for Active; 'I' for Inactive)
REMARK    1  A    between atoms: O1_2  and  C2_3 
REMARK    2  A    between atoms: C7_9  and  C8_10 
REMARK    3  A    between atoms: N1_15  and  C11_16 
REMARK    4  A    between atoms: C11_16  and  C12_17 
ROOT
HETATM    1  C8  UNL     1     -20.087  17.609 -13.602  1.00  0.00     0.039 C 
HETATM    2  C9  UNL     1     -19.750  18.797 -14.054  1.00  0.00     0.079 C 
HETATM    3  S1  UNL     1     -20.773  19.834 -15.111  1.00  0.00    -0.023 SA
HETATM    4  C10 UNL     1     -19.713  21.260 -15.036  1.00  0.00     0.294 C 
HETATM    5  O2  UNL     1     -19.993  22.373 -15.495  1.00  0.00    -0.259 OA
HETATM    6  N1  UNL     1     -18.538  20.859 -14.372  1.00  0.00    -0.270 N 
HETATM    7  C19 UNL     1     -18.544  19.570 -13.852  1.00  0.00     0.268 C 
HETATM    8  O3  UNL     1     -17.561  19.042 -13.218  1.00  0.00    -0.266 OA
ENDROOT
BRANCH   1   9
HETATM    9  C7  UNL     1     -21.331  16.939 -13.874  1.00  0.00    -0.000 A 
HETATM   10  C2  UNL     1     -21.618  16.249 -15.022  1.00  0.00     0.078 A 
HETATM   11  C3  UNL     1     -22.822  15.601 -15.220  1.00  0.00     0.039 A 
HETATM   12  C4  UNL     1     -23.779  15.643 -14.234  1.00  0.00     0.022 A 
HETATM   13  C5  UNL     1     -23.527  16.327 -13.068  1.00  0.00     0.011 A 
HETATM   14 BR1  UNL     1     -24.846  16.389 -11.701  1.00  0.00    -0.051 Br
HETATM   15  C6  UNL     1     -22.321  16.966 -12.887  1.00  0.00     0.033 A 
BRANCH  10  16
HETATM   16  O1  UNL     1     -20.685  16.196 -16.018  1.00  0.00    -0.355 OA
HETATM   17  C1  UNL     1     -21.086  16.013 -17.357  1.00  0.00     0.210 C 
ENDBRANCH  10  16
ENDBRANCH   1   9
BRANCH   6  18
HETATM   18  C11 UNL     1     -17.382  21.766 -14.246  1.00  0.00     0.174 C 
BRANCH  18  19
HETATM   19  C12 UNL     1     -17.648  22.831 -13.261  1.00  0.00    -0.040 A 
HETATM   20  C13 UNL     1     -17.788  22.574 -11.915  1.00  0.00     0.009 A 
HETATM   21  C14 UNL     1     -18.037  23.612 -11.031  1.00  0.00     0.007 A 
HETATM   22  C15 UNL     1     -18.157  24.922 -11.439  1.00  0.00    -0.062 A 
HETATM   23  C16 UNL     1     -18.423  26.008 -10.489  1.00  0.00     0.048 C 
HETATM   24  C17 UNL     1     -18.015  25.175 -12.799  1.00  0.00     0.007 A 
HETATM   25  C18 UNL     1     -17.763  24.131 -13.694  1.00  0.00     0.009 A 
ENDBRANCH  18  19
ENDBRANCH   6  18
TORSDOF 4
ENDMDL
