MODEL 3
REMARK VINA RESULT: -5.802079495      1.736      3.152
REMARK  7 active torsions:
REMARK  status: ('A' for Active; 'I' for Inactive)
REMARK    1  A    between atoms: C2_2  and  S1_4 
REMARK    2  A    between atoms: S1_4  and  C4_5 
REMARK    3  A    between atoms: C5_7  and  C6_8 
REMARK    4  A    between atoms: C6_8  and  O2_9 
REMARK    5  A    between atoms: C7_11  and  O3_12 
REMARK    6  A    between atoms: C8_14  and  O4_15 
REMARK    7  A    between atoms: C9_17  and  O5_18 
ROOT
HETATM    1  C4  UNL     1     -14.444 -27.827 -26.354  1.00  0.00     0.215 C 
HETATM    2  O1  UNL     1     -14.001 -28.710 -27.315  1.00  0.00    -0.363 OA
HETATM    3  C5  UNL     1     -13.106 -28.048 -28.134  1.00  0.00     0.178 C 
HETATM    4  C7  UNL     1     -11.803 -28.046 -27.341  1.00  0.00     0.180 C 
HETATM    5  C8  UNL     1     -12.025 -27.061 -26.232  1.00  0.00     0.181 C 
HETATM    6  C9  UNL     1     -13.420 -26.955 -25.738  1.00  0.00     0.188 C 
ENDROOT
BRANCH   1   7
HETATM    7  S1  UNL     1     -15.327 -28.767 -25.062  1.00  0.00    -0.131 SA
BRANCH   7   8
HETATM    8  C2  UNL     1     -17.104 -28.511 -25.138  1.00  0.00     0.041 C 
HETATM    9  C1  UNL     1     -17.516 -27.426 -26.091  1.00  0.00     0.021 C 
HETATM   10  C3  UNL     1     -17.740 -28.269 -23.797  1.00  0.00     0.021 C 
ENDBRANCH   7   8
ENDBRANCH   1   7
BRANCH   6  11
HETATM   11  O5  UNL     1     -13.851 -25.620 -25.834  1.00  0.00    -0.389 OA
ATOM     12  H5  UNL     1     -13.779 -25.217 -24.978  1.00  0.00     0.210 HD
ENDBRANCH   6  11
BRANCH   3  13
HETATM   13  C6  UNL     1     -12.955 -28.630 -29.499  1.00  0.00     0.198 C 
BRANCH  13  14
HETATM   14  O2  UNL     1     -11.606 -28.881 -29.731  1.00  0.00    -0.398 OA
ATOM     15  H2  UNL     1     -11.505 -29.788 -29.996  1.00  0.00     0.209 HD
ENDBRANCH  13  14
ENDBRANCH   3  13
BRANCH   5  16
HETATM   16  O4  UNL     1     -11.099 -27.373 -25.223  1.00  0.00    -0.390 OA
ATOM     17  H4  UNL     1     -11.530 -27.983 -24.636  1.00  0.00     0.210 HD
ENDBRANCH   5  16
BRANCH   4  18
HETATM   18  O3  UNL     1     -11.599 -29.340 -26.880  1.00  0.00    -0.390 OA
ATOM     19  H3  UNL     1     -10.777 -29.643 -27.247  1.00  0.00     0.210 HD
ENDBRANCH   4  18
TORSDOF 7
ENDMDL
