MODEL 5
REMARK VINA RESULT: -5.748771085      1.971      3.734
REMARK  7 active torsions:
REMARK  status: ('A' for Active; 'I' for Inactive)
REMARK    1  A    between atoms: C2_2  and  S1_4 
REMARK    2  A    between atoms: S1_4  and  C4_5 
REMARK    3  A    between atoms: C5_7  and  C6_8 
REMARK    4  A    between atoms: C6_8  and  O2_9 
REMARK    5  A    between atoms: C7_11  and  O3_12 
REMARK    6  A    between atoms: C8_14  and  O4_15 
REMARK    7  A    between atoms: C9_17  and  O5_18 
ROOT
HETATM    1  C4  UNL     1     -15.172 -27.480 -26.128  1.00  0.00     0.215 C 
HETATM    2  O1  UNL     1     -15.087 -28.461 -27.094  1.00  0.00    -0.363 OA
HETATM    3  C5  UNL     1     -14.067 -28.126 -27.964  1.00  0.00     0.178 C 
HETATM    4  C7  UNL     1     -12.797 -28.547 -27.232  1.00  0.00     0.180 C 
HETATM    5  C8  UNL     1     -12.633 -27.541 -26.132  1.00  0.00     0.181 C 
HETATM    6  C9  UNL     1     -13.891 -26.987 -25.576  1.00  0.00     0.188 C 
ENDROOT
BRANCH   1   7
HETATM    7  S1  UNL     1     -16.248 -28.080 -24.781  1.00  0.00    -0.131 SA
BRANCH   7   8
HETATM    8  C2  UNL     1     -16.659 -26.776 -23.616  1.00  0.00     0.041 C 
HETATM    9  C1  UNL     1     -17.670 -27.187 -22.584  1.00  0.00     0.021 C 
HETATM   10  C3  UNL     1     -17.100 -25.495 -24.268  1.00  0.00     0.021 C 
ENDBRANCH   7   8
ENDBRANCH   1   7
BRANCH   6  11
HETATM   11  O5  UNL     1     -13.871 -25.584 -25.676  1.00  0.00    -0.389 OA
ATOM     12  H5  UNL     1     -13.172 -25.333 -26.268  1.00  0.00     0.210 HD
ENDBRANCH   6  11
BRANCH   3  13
HETATM   13  C6  UNL     1     -14.181 -28.729 -29.324  1.00  0.00     0.198 C 
BRANCH  13  14
HETATM   14  O2  UNL     1     -12.936 -29.226 -29.697  1.00  0.00    -0.398 OA
ATOM     15  H2  UNL     1     -12.555 -28.643 -30.344  1.00  0.00     0.209 HD
ENDBRANCH  13  14
ENDBRANCH   3  13
BRANCH   5  16
HETATM   16  O4  UNL     1     -11.810 -28.135 -25.161  1.00  0.00    -0.390 OA
ATOM     17  H4  UNL     1     -11.334 -27.430 -24.738  1.00  0.00     0.210 HD
ENDBRANCH   5  16
BRANCH   4  18
HETATM   18  O3  UNL     1     -13.001 -29.836 -26.759  1.00  0.00    -0.390 OA
ATOM     19  H3  UNL     1     -13.327 -30.355 -27.485  1.00  0.00     0.210 HD
ENDBRANCH   4  18
TORSDOF 7
ENDMDL
