MODEL 11
REMARK VINA RESULT: -5.112172149      2.143      5.163
REMARK  7 active torsions:
REMARK  status: ('A' for Active; 'I' for Inactive)
REMARK    1  A    between atoms: C2_2  and  S1_4 
REMARK    2  A    between atoms: S1_4  and  C4_5 
REMARK    3  A    between atoms: C5_7  and  C6_8 
REMARK    4  A    between atoms: C6_8  and  O2_9 
REMARK    5  A    between atoms: C7_11  and  O3_12 
REMARK    6  A    between atoms: C8_14  and  O4_15 
REMARK    7  A    between atoms: C9_17  and  O5_18 
ROOT
HETATM    1  C4  UNL     1     -13.146 -28.044 -26.204  1.00  0.00     0.215 C 
HETATM    2  O1  UNL     1     -14.230 -27.898 -25.364  1.00  0.00    -0.363 OA
HETATM    3  C5  UNL     1     -15.107 -26.999 -25.940  1.00  0.00     0.178 C 
HETATM    4  C7  UNL     1     -15.856 -27.821 -26.984  1.00  0.00     0.180 C 
HETATM    5  C8  UNL     1     -14.859 -28.056 -28.080  1.00  0.00     0.181 C 
HETATM    6  C9  UNL     1     -13.443 -28.159 -27.649  1.00  0.00     0.188 C 
ENDROOT
BRANCH   1   7
HETATM    7  S1  UNL     1     -12.169 -29.482 -25.648  1.00  0.00    -0.131 SA
BRANCH   7   8
HETATM    8  C2  UNL     1     -10.438 -29.340 -26.108  1.00  0.00     0.041 C 
HETATM    9  C1  UNL     1      -9.499 -29.981 -25.128  1.00  0.00     0.021 C 
HETATM   10  C3  UNL     1      -9.995 -27.928 -26.377  1.00  0.00     0.021 C 
ENDBRANCH   7   8
ENDBRANCH   1   7
BRANCH   6  11
HETATM   11  O5  UNL     1     -12.672 -27.208 -28.341  1.00  0.00    -0.389 OA
ATOM     12  H5  UNL     1     -12.797 -27.339 -29.273  1.00  0.00     0.210 HD
ENDBRANCH   6  11
BRANCH   3  13
HETATM   13  C6  UNL     1     -16.018 -26.309 -24.981  1.00  0.00     0.198 C 
BRANCH  13  14
HETATM   14  O2  UNL     1     -17.324 -26.414 -25.452  1.00  0.00    -0.398 OA
ATOM     15  H2  UNL     1     -17.531 -25.632 -25.951  1.00  0.00     0.209 HD
ENDBRANCH  13  14
ENDBRANCH   3  13
BRANCH   5  16
HETATM   16  O4  UNL     1     -15.305 -29.179 -28.798  1.00  0.00    -0.390 OA
ATOM     17  H4  UNL     1     -16.103 -28.920 -29.241  1.00  0.00     0.210 HD
ENDBRANCH   5  16
BRANCH   4  18
HETATM   18  O3  UNL     1     -16.265 -28.996 -26.367  1.00  0.00    -0.390 OA
ATOM     19  H3  UNL     1     -15.536 -29.604 -26.405  1.00  0.00     0.210 HD
ENDBRANCH   4  18
TORSDOF 7
ENDMDL
