MODEL 6
REMARK VINA RESULT: -5.742429399      1.980      3.597
REMARK  7 active torsions:
REMARK  status: ('A' for Active; 'I' for Inactive)
REMARK    1  A    between atoms: C2_2  and  S1_4 
REMARK    2  A    between atoms: S1_4  and  C4_5 
REMARK    3  A    between atoms: C5_7  and  C6_8 
REMARK    4  A    between atoms: C6_8  and  O2_9 
REMARK    5  A    between atoms: C7_11  and  O3_12 
REMARK    6  A    between atoms: C8_14  and  O4_15 
REMARK    7  A    between atoms: C9_17  and  O5_18 
ROOT
HETATM    1  C4  UNL     1     -15.226 -27.542 -26.140  1.00  0.00     0.215 C 
HETATM    2  O1  UNL     1     -15.105 -28.518 -27.107  1.00  0.00    -0.363 OA
HETATM    3  C5  UNL     1     -14.092 -28.149 -27.971  1.00  0.00     0.178 C 
HETATM    4  C7  UNL     1     -12.813 -28.531 -27.233  1.00  0.00     0.180 C 
HETATM    5  C8  UNL     1     -12.686 -27.524 -26.129  1.00  0.00     0.181 C 
HETATM    6  C9  UNL     1     -13.965 -27.011 -25.578  1.00  0.00     0.188 C 
ENDROOT
BRANCH   1   7
HETATM    7  S1  UNL     1     -16.290 -28.180 -24.800  1.00  0.00    -0.131 SA
BRANCH   7   8
HETATM    8  C2  UNL     1     -17.862 -27.314 -24.719  1.00  0.00     0.041 C 
HETATM    9  C1  UNL     1     -18.699 -27.467 -25.956  1.00  0.00     0.021 C 
HETATM   10  C3  UNL     1     -17.736 -25.856 -24.375  1.00  0.00     0.021 C 
ENDBRANCH   7   8
ENDBRANCH   1   7
BRANCH   6  11
HETATM   11  O5  UNL     1     -13.987 -25.609 -25.674  1.00  0.00    -0.389 OA
ATOM     12  H5  UNL     1     -14.213 -25.251 -24.824  1.00  0.00     0.210 HD
ENDBRANCH   6  11
BRANCH   3  13
HETATM   13  C6  UNL     1     -14.178 -28.750 -29.333  1.00  0.00     0.198 C 
BRANCH  13  14
HETATM   14  O2  UNL     1     -12.906 -29.155 -29.725  1.00  0.00    -0.398 OA
ATOM     15  H2  UNL     1     -12.879 -29.200 -30.674  1.00  0.00     0.209 HD
ENDBRANCH  13  14
ENDBRANCH   3  13
BRANCH   5  16
HETATM   16  O4  UNL     1     -11.850 -28.095 -25.155  1.00  0.00    -0.390 OA
ATOM     17  H4  UNL     1     -12.001 -27.614 -24.350  1.00  0.00     0.210 HD
ENDBRANCH   5  16
BRANCH   4  18
HETATM   18  O3  UNL     1     -12.979 -29.827 -26.764  1.00  0.00    -0.390 OA
ATOM     19  H3  UNL     1     -12.173 -30.074 -26.325  1.00  0.00     0.210 HD
ENDBRANCH   4  18
TORSDOF 7
ENDMDL
