MODEL 4
REMARK VINA RESULT: -5.782333467      2.061      4.969
REMARK  7 active torsions:
REMARK  status: ('A' for Active; 'I' for Inactive)
REMARK    1  A    between atoms: C2_2  and  S1_4 
REMARK    2  A    between atoms: S1_4  and  C4_5 
REMARK    3  A    between atoms: C5_7  and  C6_8 
REMARK    4  A    between atoms: C6_8  and  O2_9 
REMARK    5  A    between atoms: C7_11  and  O3_12 
REMARK    6  A    between atoms: C8_14  and  O4_15 
REMARK    7  A    between atoms: C9_17  and  O5_18 
ROOT
HETATM    1  C4  UNL     1     -12.793 -28.474 -26.424  1.00  0.00     0.215 C 
HETATM    2  O1  UNL     1     -14.031 -28.997 -26.732  1.00  0.00    -0.363 OA
HETATM    3  C5  UNL     1     -14.613 -28.195 -27.696  1.00  0.00     0.178 C 
HETATM    4  C7  UNL     1     -13.952 -28.634 -28.998  1.00  0.00     0.180 C 
HETATM    5  C8  UNL     1     -12.554 -28.096 -28.924  1.00  0.00     0.181 C 
HETATM    6  C9  UNL     1     -11.971 -28.011 -27.563  1.00  0.00     0.188 C 
ENDROOT
BRANCH   1   7
HETATM    7  S1  UNL     1     -11.870 -29.705 -25.442  1.00  0.00    -0.131 SA
BRANCH   7   8
HETATM    8  C2  UNL     1     -10.093 -29.510 -25.614  1.00  0.00     0.041 C 
HETATM    9  C1  UNL     1      -9.299 -30.580 -24.922  1.00  0.00     0.021 C 
HETATM   10  C3  UNL     1      -9.587 -28.158 -25.194  1.00  0.00     0.021 C 
ENDBRANCH   7   8
ENDBRANCH   1   7
BRANCH   6  11
HETATM   11  O5  UNL     1     -11.559 -26.691 -27.310  1.00  0.00    -0.389 OA
ATOM     12  H5  UNL     1     -12.126 -26.100 -27.791  1.00  0.00     0.210 HD
ENDBRANCH   6  11
BRANCH   3  13
HETATM   13  C6  UNL     1     -16.102 -28.259 -27.750  1.00  0.00     0.198 C 
BRANCH  13  14
HETATM   14  O2  UNL     1     -16.478 -28.982 -28.877  1.00  0.00    -0.398 OA
ATOM     15  H2  UNL     1     -17.336 -28.687 -29.158  1.00  0.00     0.209 HD
ENDBRANCH  13  14
ENDBRANCH   3  13
BRANCH   5  16
HETATM   16  O4  UNL     1     -11.780 -28.859 -29.814  1.00  0.00    -0.390 OA
ATOM     17  H4  UNL     1     -10.876 -28.599 -29.682  1.00  0.00     0.210 HD
ENDBRANCH   5  16
BRANCH   4  18
HETATM   18  O3  UNL     1     -13.995 -30.021 -29.036  1.00  0.00    -0.390 OA
ATOM     19  H3  UNL     1     -13.192 -30.339 -28.642  1.00  0.00     0.210 HD
ENDBRANCH   4  18
TORSDOF 7
ENDMDL
