MODEL 10
REMARK VINA RESULT: -5.234035120      2.193      3.485
REMARK  7 active torsions:
REMARK  status: ('A' for Active; 'I' for Inactive)
REMARK    1  A    between atoms: C2_2  and  S1_4 
REMARK    2  A    between atoms: S1_4  and  C4_5 
REMARK    3  A    between atoms: C5_7  and  C6_8 
REMARK    4  A    between atoms: C6_8  and  O2_9 
REMARK    5  A    between atoms: C7_11  and  O3_12 
REMARK    6  A    between atoms: C8_14  and  O4_15 
REMARK    7  A    between atoms: C9_17  and  O5_18 
ROOT
HETATM    1  C4  UNL     1     -15.014 -27.498 -26.739  1.00  0.00     0.215 C 
HETATM    2  O1  UNL     1     -14.166 -27.809 -27.781  1.00  0.00    -0.363 OA
HETATM    3  C5  UNL     1     -12.868 -27.577 -27.368  1.00  0.00     0.178 C 
HETATM    4  C7  UNL     1     -12.514 -28.806 -26.536  1.00  0.00     0.180 C 
HETATM    5  C8  UNL     1     -13.296 -28.651 -25.265  1.00  0.00     0.181 C 
HETATM    6  C9  UNL     1     -14.598 -27.952 -25.394  1.00  0.00     0.188 C 
ENDROOT
BRANCH   1   7
HETATM    7  S1  UNL     1     -16.678 -28.138 -27.132  1.00  0.00    -0.131 SA
BRANCH   7   8
HETATM    8  C2  UNL     1     -17.707 -28.285 -25.666  1.00  0.00     0.041 C 
HETATM    9  C1  UNL     1     -18.709 -29.401 -25.743  1.00  0.00     0.021 C 
HETATM   10  C3  UNL     1     -18.405 -27.009 -25.285  1.00  0.00     0.021 C 
ENDBRANCH   7   8
ENDBRANCH   1   7
BRANCH   6  11
HETATM   11  O5  UNL     1     -14.628 -26.851 -24.520  1.00  0.00    -0.389 OA
ATOM     12  H5  UNL     1     -14.202 -27.097 -23.708  1.00  0.00     0.210 HD
ENDBRANCH   6  11
BRANCH   3  13
HETATM   13  C6  UNL     1     -11.895 -27.323 -28.470  1.00  0.00     0.198 C 
BRANCH  13  14
HETATM   14  O2  UNL     1     -11.803 -28.467 -29.257  1.00  0.00    -0.398 OA
ATOM     15  H2  UNL     1     -10.894 -28.743 -29.288  1.00  0.00     0.209 HD
ENDBRANCH  13  14
ENDBRANCH   3  13
BRANCH   5  16
HETATM   16  O4  UNL     1     -13.405 -29.932 -24.699  1.00  0.00    -0.390 OA
ATOM     17  H4  UNL     1     -14.301 -30.021 -24.395  1.00  0.00     0.210 HD
ENDBRANCH   5  16
BRANCH   4  18
HETATM   18  O3  UNL     1     -12.892 -29.923 -27.268  1.00  0.00    -0.390 OA
ATOM     19  H3  UNL     1     -13.425 -30.466 -26.699  1.00  0.00     0.210 HD
ENDBRANCH   4  18
TORSDOF 7
ENDMDL
