MODEL 20
REMARK VINA RESULT: -4.743435912      3.412      5.032
REMARK  5 active torsions:
REMARK  status: ('A' for Active; 'I' for Inactive)
REMARK    1  A    between atoms: C2_4  and  C3_5 
REMARK    2  A    between atoms: C3_5  and  O3_6 
REMARK    3  A    between atoms: C4_8  and  O4_9 
REMARK    4  A    between atoms: C5_11  and  O5_12 
REMARK    5  A    between atoms: C6_14  and  O6_15 
ROOT
HETATM    1  O1  UNL     1      51.879 -15.308  27.234  1.00  0.00    -0.262 OA
HETATM    2  C1  UNL     1      52.547 -14.345  27.741  1.00  0.00     0.291 C 
HETATM    3  O2  UNL     1      51.971 -13.121  28.018  1.00  0.00    -0.309 OA
HETATM    4  C2  UNL     1      52.370 -12.346  29.122  1.00  0.00     0.186 C 
HETATM    5  C4  UNL     1      53.856 -12.375  29.284  1.00  0.00     0.181 C 
HETATM    6  C5  UNL     1      54.269 -13.843  29.365  1.00  0.00     0.188 C 
HETATM    7  C6  UNL     1      53.989 -14.522  28.050  1.00  0.00     0.248 C 
ENDROOT
BRANCH   4   8
HETATM    8  C3  UNL     1      51.814 -10.949  29.012  1.00  0.00     0.199 C 
BRANCH   8   9
HETATM    9  O3  UNL     1      51.170 -10.724  27.812  1.00  0.00    -0.398 OA
ATOM     10  H3  UNL     1      50.583  -9.978  27.844  1.00  0.00     0.209 HD
ENDBRANCH   8   9
ENDBRANCH   4   8
BRANCH   5  11
HETATM   11  O4  UNL     1      54.526 -11.724  28.252  1.00  0.00    -0.390 OA
ATOM     12  H4  UNL     1      54.812 -12.317  27.566  1.00  0.00     0.210 HD
ENDBRANCH   5  11
BRANCH   6  13
HETATM   13  O5  UNL     1      55.577 -13.969  29.774  1.00  0.00    -0.390 OA
ATOM     14  H5  UNL     1      56.113 -13.263  29.429  1.00  0.00     0.210 HD
ENDBRANCH   6  13
BRANCH   7  15
HETATM   15  O6  UNL     1      54.280 -15.876  28.197  1.00  0.00    -0.383 OA
ATOM     16  H6  UNL     1      55.122 -15.982  28.626  1.00  0.00     0.210 HD
ENDBRANCH   7  15
TORSDOF 5
ENDMDL
