MODEL 5
REMARK VINA RESULT: -5.901953166      2.684      4.989
REMARK  7 active torsions:
REMARK  status: ('A' for Active; 'I' for Inactive)
REMARK    1  A    between atoms: C2_2  and  S1_4 
REMARK    2  A    between atoms: S1_4  and  C4_5 
REMARK    3  A    between atoms: C5_7  and  C6_8 
REMARK    4  A    between atoms: C6_8  and  O2_9 
REMARK    5  A    between atoms: C7_11  and  O3_12 
REMARK    6  A    between atoms: C8_14  and  O4_15 
REMARK    7  A    between atoms: C9_17  and  O5_18 
ROOT
HETATM    1  C4  UNL     1     -12.809 -28.493 -26.323  1.00  0.00     0.215 C 
HETATM    2  O1  UNL     1     -14.055 -29.006 -26.615  1.00  0.00    -0.363 OA
HETATM    3  C5  UNL     1     -14.631 -28.216 -27.592  1.00  0.00     0.178 C 
HETATM    4  C7  UNL     1     -13.982 -28.692 -28.888  1.00  0.00     0.180 C 
HETATM    5  C8  UNL     1     -12.577 -28.171 -28.832  1.00  0.00     0.181 C 
HETATM    6  C9  UNL     1     -11.986 -28.065 -27.475  1.00  0.00     0.188 C 
ENDROOT
BRANCH   1   7
HETATM    7  S1  UNL     1     -11.897 -29.715 -25.319  1.00  0.00    -0.131 SA
BRANCH   7   8
HETATM    8  C2  UNL     1     -10.118 -29.524 -25.476  1.00  0.00     0.041 C 
HETATM    9  C1  UNL     1      -9.334 -30.640 -24.847  1.00  0.00     0.021 C 
HETATM   10  C3  UNL     1      -9.602 -28.204 -24.974  1.00  0.00     0.021 C 
ENDBRANCH   7   8
ENDBRANCH   1   7
BRANCH   6  11
HETATM   11  O5  UNL     1     -11.556 -26.745 -27.253  1.00  0.00    -0.389 OA
ATOM     12  H5  UNL     1     -11.538 -26.288 -28.085  1.00  0.00     0.210 HD
ENDBRANCH   6  11
BRANCH   3  13
HETATM   13  C6  UNL     1     -16.121 -28.262 -27.638  1.00  0.00     0.198 C 
BRANCH  13  14
HETATM   14  O2  UNL     1     -16.512 -28.989 -28.758  1.00  0.00    -0.398 OA
ATOM     15  H2  UNL     1     -17.200 -29.593 -28.504  1.00  0.00     0.209 HD
ENDBRANCH  13  14
ENDBRANCH   3  13
BRANCH   5  16
HETATM   16  O4  UNL     1     -11.817 -28.963 -29.709  1.00  0.00    -0.390 OA
ATOM     17  H4  UNL     1     -11.324 -29.570 -29.171  1.00  0.00     0.210 HD
ENDBRANCH   5  16
BRANCH   4  18
HETATM   18  O3  UNL     1     -14.044 -30.078 -28.896  1.00  0.00    -0.390 OA
ATOM     19  H3  UNL     1     -13.153 -30.400 -28.968  1.00  0.00     0.210 HD
ENDBRANCH   4  18
TORSDOF 7
ENDMDL
