MODEL 9
REMARK VINA RESULT: -5.385423760      3.048      5.639
REMARK  7 active torsions:
REMARK  status: ('A' for Active; 'I' for Inactive)
REMARK    1  A    between atoms: C2_2  and  S1_4 
REMARK    2  A    between atoms: S1_4  and  C4_5 
REMARK    3  A    between atoms: C5_7  and  C6_8 
REMARK    4  A    between atoms: C6_8  and  O2_9 
REMARK    5  A    between atoms: C7_11  and  O3_12 
REMARK    6  A    between atoms: C8_14  and  O4_15 
REMARK    7  A    between atoms: C9_17  and  O5_18 
ROOT
HETATM    1  C4  UNL     1     -15.111 -26.995 -25.419  1.00  0.00     0.215 C 
HETATM    2  O1  UNL     1     -14.527 -26.036 -24.618  1.00  0.00    -0.363 OA
HETATM    3  C5  UNL     1     -15.509 -25.150 -24.217  1.00  0.00     0.178 C 
HETATM    4  C7  UNL     1     -16.217 -25.868 -23.073  1.00  0.00     0.180 C 
HETATM    5  C8  UNL     1     -17.008 -26.959 -23.731  1.00  0.00     0.181 C 
HETATM    6  C9  UNL     1     -16.414 -27.527 -24.966  1.00  0.00     0.188 C 
ENDROOT
BRANCH   1   7
HETATM    7  S1  UNL     1     -13.922 -28.360 -25.653  1.00  0.00    -0.131 SA
BRANCH   7   8
HETATM    8  C2  UNL     1     -13.216 -28.363 -27.305  1.00  0.00     0.041 C 
HETATM    9  C1  UNL     1     -12.345 -27.174 -27.590  1.00  0.00     0.021 C 
HETATM   10  C3  UNL     1     -14.234 -28.514 -28.400  1.00  0.00     0.021 C 
ENDBRANCH   7   8
ENDBRANCH   1   7
BRANCH   6  11
HETATM   11  O5  UNL     1     -17.335 -27.417 -26.023  1.00  0.00    -0.389 OA
ATOM     12  H5  UNL     1     -18.155 -27.086 -25.677  1.00  0.00     0.210 HD
ENDBRANCH   6  11
BRANCH   3  13
HETATM   13  C6  UNL     1     -15.014 -23.796 -23.834  1.00  0.00     0.198 C 
BRANCH  13  14
HETATM   14  O2  UNL     1     -15.600 -23.430 -22.626  1.00  0.00    -0.398 OA
ATOM     15  H2  UNL     1     -14.980 -22.905 -22.133  1.00  0.00     0.209 HD
ENDBRANCH  13  14
ENDBRANCH   3  13
BRANCH   5  16
HETATM   16  O4  UNL     1     -17.266 -27.924 -22.742  1.00  0.00    -0.390 OA
ATOM     17  H4  UNL     1     -16.979 -28.758 -23.094  1.00  0.00     0.210 HD
ENDBRANCH   5  16
BRANCH   4  18
HETATM   18  O3  UNL     1     -15.235 -26.353 -22.220  1.00  0.00    -0.390 OA
ATOM     19  H3  UNL     1     -14.597 -26.810 -22.755  1.00  0.00     0.210 HD
ENDBRANCH   4  18
TORSDOF 7
ENDMDL
