MODEL 8
REMARK VINA RESULT: -5.440739689      2.795      5.553
REMARK  7 active torsions:
REMARK  status: ('A' for Active; 'I' for Inactive)
REMARK    1  A    between atoms: C2_2  and  S1_4 
REMARK    2  A    between atoms: S1_4  and  C4_5 
REMARK    3  A    between atoms: C5_7  and  C6_8 
REMARK    4  A    between atoms: C6_8  and  O2_9 
REMARK    5  A    between atoms: C7_11  and  O3_12 
REMARK    6  A    between atoms: C8_14  and  O4_15 
REMARK    7  A    between atoms: C9_17  and  O5_18 
ROOT
HETATM    1  C4  UNL     1     -14.677 -26.877 -25.465  1.00  0.00     0.215 C 
HETATM    2  O1  UNL     1     -14.273 -25.890 -24.590  1.00  0.00    -0.363 OA
HETATM    3  C5  UNL     1     -15.368 -25.102 -24.289  1.00  0.00     0.178 C 
HETATM    4  C7  UNL     1     -16.131 -25.906 -23.242  1.00  0.00     0.180 C 
HETATM    5  C8  UNL     1     -16.745 -27.045 -24.000  1.00  0.00     0.181 C 
HETATM    6  C9  UNL     1     -15.971 -27.531 -25.168  1.00  0.00     0.188 C 
ENDROOT
BRANCH   1   7
HETATM    7  S1  UNL     1     -13.354 -28.128 -25.583  1.00  0.00    -0.131 SA
BRANCH   7   8
HETATM    8  C2  UNL     1     -11.972 -27.556 -26.578  1.00  0.00     0.041 C 
HETATM    9  C1  UNL     1     -12.312 -27.362 -28.027  1.00  0.00     0.021 C 
HETATM   10  C3  UNL     1     -10.743 -28.415 -26.462  1.00  0.00     0.021 C 
ENDBRANCH   7   8
ENDBRANCH   1   7
BRANCH   6  11
HETATM   11  O5  UNL     1     -16.775 -27.475 -26.320  1.00  0.00    -0.389 OA
ATOM     12  H5  UNL     1     -16.524 -28.184 -26.899  1.00  0.00     0.210 HD
ENDBRANCH   6  11
BRANCH   3  13
HETATM   13  C6  UNL     1     -15.039 -23.720 -23.834  1.00  0.00     0.198 C 
BRANCH  13  14
HETATM   14  O2  UNL     1     -15.738 -23.458 -22.660  1.00  0.00    -0.398 OA
ATOM     15  H2  UNL     1     -16.019 -22.550 -22.668  1.00  0.00     0.209 HD
ENDBRANCH  13  14
ENDBRANCH   3  13
BRANCH   5  16
HETATM   16  O4  UNL     1     -17.025 -28.052 -23.060  1.00  0.00    -0.390 OA
ATOM     17  H4  UNL     1     -17.159 -27.617 -22.227  1.00  0.00     0.210 HD
ENDBRANCH   5  16
BRANCH   4  18
HETATM   18  O3  UNL     1     -15.210 -26.325 -22.291  1.00  0.00    -0.390 OA
ATOM     19  H3  UNL     1     -15.592 -27.066 -21.836  1.00  0.00     0.210 HD
ENDBRANCH   4  18
TORSDOF 7
ENDMDL
