MODEL 7
REMARK VINA RESULT: -5.605872490      2.528      3.450
REMARK  7 active torsions:
REMARK  status: ('A' for Active; 'I' for Inactive)
REMARK    1  A    between atoms: C2_2  and  S1_4 
REMARK    2  A    between atoms: S1_4  and  C4_5 
REMARK    3  A    between atoms: C5_7  and  C6_8 
REMARK    4  A    between atoms: C6_8  and  O2_9 
REMARK    5  A    between atoms: C7_11  and  O3_12 
REMARK    6  A    between atoms: C8_14  and  O4_15 
REMARK    7  A    between atoms: C9_17  and  O5_18 
ROOT
HETATM    1  C4  UNL     1     -14.988 -27.461 -26.462  1.00  0.00     0.215 C 
HETATM    2  O1  UNL     1     -14.176 -27.789 -27.527  1.00  0.00    -0.363 OA
HETATM    3  C5  UNL     1     -12.863 -27.577 -27.153  1.00  0.00     0.178 C 
HETATM    4  C7  UNL     1     -12.505 -28.807 -26.326  1.00  0.00     0.180 C 
HETATM    5  C8  UNL     1     -13.246 -28.634 -25.033  1.00  0.00     0.181 C 
HETATM    6  C9  UNL     1     -14.541 -27.915 -25.127  1.00  0.00     0.188 C 
ENDROOT
BRANCH   1   7
HETATM    7  S1  UNL     1     -16.673 -28.075 -26.803  1.00  0.00    -0.131 SA
BRANCH   7   8
HETATM    8  C2  UNL     1     -17.660 -28.202 -25.308  1.00  0.00     0.041 C 
HETATM    9  C1  UNL     1     -18.751 -29.230 -25.391  1.00  0.00     0.021 C 
HETATM   10  C3  UNL     1     -18.238 -26.892 -24.849  1.00  0.00     0.021 C 
ENDBRANCH   7   8
ENDBRANCH   1   7
BRANCH   6  11
HETATM   11  O5  UNL     1     -14.527 -26.810 -24.259  1.00  0.00    -0.389 OA
ATOM     12  H5  UNL     1     -15.424 -26.586 -24.040  1.00  0.00     0.210 HD
ENDBRANCH   6  11
BRANCH   3  13
HETATM   13  C6  UNL     1     -11.919 -27.343 -28.284  1.00  0.00     0.198 C 
BRANCH  13  14
HETATM   14  O2  UNL     1     -11.849 -28.500 -29.054  1.00  0.00    -0.398 OA
ATOM     15  H2  UNL     1     -12.437 -28.408 -29.796  1.00  0.00     0.209 HD
ENDBRANCH  13  14
ENDBRANCH   3  13
BRANCH   5  16
HETATM   16  O4  UNL     1     -13.359 -29.911 -24.458  1.00  0.00    -0.390 OA
ATOM     17  H4  UNL     1     -12.635 -30.002 -23.851  1.00  0.00     0.210 HD
ENDBRANCH   5  16
BRANCH   4  18
HETATM   18  O3  UNL     1     -12.921 -29.921 -27.041  1.00  0.00    -0.390 OA
ATOM     19  H3  UNL     1     -13.872 -29.915 -27.044  1.00  0.00     0.210 HD
ENDBRANCH   4  18
TORSDOF 7
ENDMDL
