MODEL 4
REMARK VINA RESULT: -6.008344496      2.053      3.547
REMARK  7 active torsions:
REMARK  status: ('A' for Active; 'I' for Inactive)
REMARK    1  A    between atoms: C2_2  and  S1_4 
REMARK    2  A    between atoms: S1_4  and  C4_5 
REMARK    3  A    between atoms: C5_7  and  C6_8 
REMARK    4  A    between atoms: C6_8  and  O2_9 
REMARK    5  A    between atoms: C7_11  and  O3_12 
REMARK    6  A    between atoms: C8_14  and  O4_15 
REMARK    7  A    between atoms: C9_17  and  O5_18 
ROOT
HETATM    1  C4  UNL     1     -15.247 -27.604 -25.919  1.00  0.00     0.215 C 
HETATM    2  O1  UNL     1     -15.110 -28.542 -26.921  1.00  0.00    -0.363 OA
HETATM    3  C5  UNL     1     -14.093 -28.133 -27.763  1.00  0.00     0.178 C 
HETATM    4  C7  UNL     1     -12.816 -28.529 -27.030  1.00  0.00     0.180 C 
HETATM    5  C8  UNL     1     -12.707 -27.561 -25.889  1.00  0.00     0.181 C 
HETATM    6  C9  UNL     1     -13.995 -27.081 -25.330  1.00  0.00     0.188 C 
ENDROOT
BRANCH   1   7
HETATM    7  S1  UNL     1     -16.314 -28.300 -24.612  1.00  0.00    -0.131 SA
BRANCH   7   8
HETATM    8  C2  UNL     1     -16.856 -27.045 -23.446  1.00  0.00     0.041 C 
HETATM    9  C1  UNL     1     -17.906 -27.528 -22.487  1.00  0.00     0.021 C 
HETATM   10  C3  UNL     1     -17.319 -25.771 -24.096  1.00  0.00     0.021 C 
ENDBRANCH   7   8
ENDBRANCH   1   7
BRANCH   6  11
HETATM   11  O5  UNL     1     -14.031 -25.676 -25.376  1.00  0.00    -0.389 OA
ATOM     12  H5  UNL     1     -13.253 -25.368 -25.824  1.00  0.00     0.210 HD
ENDBRANCH   6  11
BRANCH   3  13
HETATM   13  C6  UNL     1     -14.164 -28.685 -29.146  1.00  0.00     0.198 C 
BRANCH  13  14
HETATM   14  O2  UNL     1     -12.908 -29.170 -29.499  1.00  0.00    -0.398 OA
ATOM     15  H2  UNL     1     -12.898 -29.339 -30.434  1.00  0.00     0.209 HD
ENDBRANCH  13  14
ENDBRANCH   3  13
BRANCH   5  16
HETATM   16  O4  UNL     1     -11.873 -28.159 -24.930  1.00  0.00    -0.390 OA
ATOM     17  H4  UNL     1     -11.689 -27.495 -24.277  1.00  0.00     0.210 HD
ENDBRANCH   5  16
BRANCH   4  18
HETATM   18  O3  UNL     1     -12.972 -29.843 -26.609  1.00  0.00    -0.390 OA
ATOM     19  H3  UNL     1     -13.646 -30.235 -27.153  1.00  0.00     0.210 HD
ENDBRANCH   4  18
TORSDOF 7
ENDMDL
