MODEL 3
REMARK VINA RESULT: -6.039186706      2.148      3.637
REMARK  7 active torsions:
REMARK  status: ('A' for Active; 'I' for Inactive)
REMARK    1  A    between atoms: C2_2  and  S1_4 
REMARK    2  A    between atoms: S1_4  and  C4_5 
REMARK    3  A    between atoms: C5_7  and  C6_8 
REMARK    4  A    between atoms: C6_8  and  O2_9 
REMARK    5  A    between atoms: C7_11  and  O3_12 
REMARK    6  A    between atoms: C8_14  and  O4_15 
REMARK    7  A    between atoms: C9_17  and  O5_18 
ROOT
HETATM    1  C4  UNL     1     -15.179 -27.569 -25.961  1.00  0.00     0.215 C 
HETATM    2  O1  UNL     1     -15.042 -28.530 -26.940  1.00  0.00    -0.363 OA
HETATM    3  C5  UNL     1     -14.022 -28.143 -27.788  1.00  0.00     0.178 C 
HETATM    4  C7  UNL     1     -12.748 -28.526 -27.043  1.00  0.00     0.180 C 
HETATM    5  C8  UNL     1     -12.640 -27.531 -25.925  1.00  0.00     0.181 C 
HETATM    6  C9  UNL     1     -13.927 -27.035 -25.381  1.00  0.00     0.188 C 
ENDROOT
BRANCH   1   7
HETATM    7  S1  UNL     1     -16.251 -28.231 -24.641  1.00  0.00    -0.131 SA
BRANCH   7   8
HETATM    8  C2  UNL     1     -17.960 -27.713 -24.836  1.00  0.00     0.041 C 
HETATM    9  C1  UNL     1     -18.478 -27.861 -26.238  1.00  0.00     0.021 C 
HETATM   10  C3  UNL     1     -18.232 -26.318 -24.346  1.00  0.00     0.021 C 
ENDBRANCH   7   8
ENDBRANCH   1   7
BRANCH   6  11
HETATM   11  O5  UNL     1     -13.960 -25.632 -25.459  1.00  0.00    -0.389 OA
ATOM     12  H5  UNL     1     -13.345 -25.279 -24.827  1.00  0.00     0.210 HD
ENDBRANCH   6  11
BRANCH   3  13
HETATM   13  C6  UNL     1     -14.091 -28.728 -29.159  1.00  0.00     0.198 C 
BRANCH  13  14
HETATM   14  O2  UNL     1     -12.817 -29.145 -29.531  1.00  0.00    -0.398 OA
ATOM     15  H2  UNL     1     -12.347 -29.421 -28.753  1.00  0.00     0.209 HD
ENDBRANCH  13  14
ENDBRANCH   3  13
BRANCH   5  16
HETATM   16  O4  UNL     1     -11.809 -28.109 -24.950  1.00  0.00    -0.390 OA
ATOM     17  H4  UNL     1     -12.330 -28.188 -24.160  1.00  0.00     0.210 HD
ENDBRANCH   5  16
BRANCH   4  18
HETATM   18  O3  UNL     1     -12.909 -29.829 -26.592  1.00  0.00    -0.390 OA
ATOM     19  H3  UNL     1     -12.042 -30.211 -26.518  1.00  0.00     0.210 HD
ENDBRANCH   4  18
TORSDOF 7
ENDMDL
