MODEL 19
REMARK VINA RESULT: -4.630784017      4.356      6.207
REMARK  5 active torsions:
REMARK  status: ('A' for Active; 'I' for Inactive)
REMARK    1  A    between atoms: C2_4  and  C3_5 
REMARK    2  A    between atoms: C3_5  and  O3_6 
REMARK    3  A    between atoms: C4_8  and  O4_9 
REMARK    4  A    between atoms: C5_11  and  O5_12 
REMARK    5  A    between atoms: C6_14  and  O6_15 
ROOT
HETATM    1  O1  UNL     1     -17.111 -25.068 -24.321  1.00  0.00    -0.262 OA
HETATM    2  C1  UNL     1     -16.684 -26.193 -24.749  1.00  0.00     0.291 C 
HETATM    3  O2  UNL     1     -17.399 -26.950 -25.655  1.00  0.00    -0.309 OA
HETATM    4  C2  UNL     1     -16.762 -27.733 -26.635  1.00  0.00     0.186 C 
HETATM    5  C4  UNL     1     -15.564 -28.426 -26.067  1.00  0.00     0.181 C 
HETATM    6  C5  UNL     1     -14.676 -27.348 -25.447  1.00  0.00     0.188 C 
HETATM    7  C6  UNL     1     -15.381 -26.724 -24.272  1.00  0.00     0.248 C 
ENDROOT
BRANCH   4   8
HETATM    8  C3  UNL     1     -17.746 -28.681 -27.273  1.00  0.00     0.199 C 
BRANCH   8   9
HETATM    9  O3  UNL     1     -18.289 -29.574 -26.371  1.00  0.00    -0.398 OA
ATOM     10  H3  UNL     1     -18.798 -29.146 -25.692  1.00  0.00     0.209 HD
ENDBRANCH   8   9
ENDBRANCH   4   8
BRANCH   5  11
HETATM   11  O4  UNL     1     -15.896 -29.399 -25.129  1.00  0.00    -0.390 OA
ATOM     12  H4  UNL     1     -15.577 -30.262 -25.363  1.00  0.00     0.210 HD
ENDBRANCH   5  11
BRANCH   6  13
HETATM   13  O5  UNL     1     -13.434 -27.850 -25.132  1.00  0.00    -0.390 OA
ATOM     14  H5  UNL     1     -13.259 -27.771 -24.201  1.00  0.00     0.210 HD
ENDBRANCH   6  13
BRANCH   7  15
HETATM   15  O6  UNL     1     -14.587 -25.680 -23.801  1.00  0.00    -0.383 OA
ATOM     16  H6  UNL     1     -13.864 -26.028 -23.293  1.00  0.00     0.210 HD
ENDBRANCH   7  15
TORSDOF 5
ENDMDL
