MODEL 18
REMARK VINA RESULT: -4.768505237      1.411      3.933
REMARK  5 active torsions:
REMARK  status: ('A' for Active; 'I' for Inactive)
REMARK    1  A    between atoms: C2_4  and  C3_5 
REMARK    2  A    between atoms: C3_5  and  O3_6 
REMARK    3  A    between atoms: C4_8  and  O4_9 
REMARK    4  A    between atoms: C5_11  and  O5_12 
REMARK    5  A    between atoms: C6_14  and  O6_15 
ROOT
HETATM    1  O1  UNL     1     -11.965 -25.667 -24.953  1.00  0.00    -0.262 OA
HETATM    2  C1  UNL     1     -11.714 -26.731 -25.614  1.00  0.00     0.291 C 
HETATM    3  O2  UNL     1     -12.217 -26.939 -26.882  1.00  0.00    -0.309 OA
HETATM    4  C2  UNL     1     -11.489 -27.636 -27.864  1.00  0.00     0.186 C 
HETATM    5  C4  UNL     1     -10.803 -28.826 -27.273  1.00  0.00     0.181 C 
HETATM    6  C5  UNL     1      -9.958 -28.321 -26.105  1.00  0.00     0.188 C 
HETATM    7  C6  UNL     1     -10.858 -27.790 -25.021  1.00  0.00     0.248 C 
ENDROOT
BRANCH   4   8
HETATM    8  C3  UNL     1     -12.380 -27.986 -29.029  1.00  0.00     0.199 C 
BRANCH   8   9
HETATM    9  O3  UNL     1     -11.859 -28.994 -29.816  1.00  0.00    -0.398 OA
ATOM     10  H3  UNL     1     -12.262 -29.035 -30.675  1.00  0.00     0.209 HD
ENDBRANCH   8   9
ENDBRANCH   4   8
BRANCH   5  11
HETATM   11  O4  UNL     1     -11.692 -29.812 -26.856  1.00  0.00    -0.390 OA
ATOM     12  H4  UNL     1     -11.377 -30.692 -27.031  1.00  0.00     0.210 HD
ENDBRANCH   5  11
BRANCH   6  13
HETATM   13  O5  UNL     1      -9.091 -29.294 -25.663  1.00  0.00    -0.390 OA
ATOM     14  H5  UNL     1      -9.446 -29.755 -24.912  1.00  0.00     0.210 HD
ENDBRANCH   6  13
BRANCH   7  15
HETATM   15  O6  UNL     1     -10.053 -27.246 -24.023  1.00  0.00    -0.383 OA
ATOM     16  H6  UNL     1     -10.134 -26.299 -24.022  1.00  0.00     0.210 HD
ENDBRANCH   7  15
TORSDOF 5
ENDMDL
