MODEL 20
REMARK VINA RESULT: -4.606530986      3.447      4.633
REMARK  5 active torsions:
REMARK  status: ('A' for Active; 'I' for Inactive)
REMARK    1  A    between atoms: C2_4  and  C3_5 
REMARK    2  A    between atoms: C3_5  and  O3_6 
REMARK    3  A    between atoms: C4_8  and  O4_9 
REMARK    4  A    between atoms: C5_11  and  O5_12 
REMARK    5  A    between atoms: C6_14  and  O6_15 
ROOT
HETATM    1  O1  UNL     1     -17.727 -27.572 -26.675  1.00  0.00    -0.262 OA
HETATM    2  C1  UNL     1     -16.542 -27.540 -26.200  1.00  0.00     0.291 C 
HETATM    3  O2  UNL     1     -15.475 -28.118 -26.858  1.00  0.00    -0.309 OA
HETATM    4  C2  UNL     1     -14.183 -27.563 -26.807  1.00  0.00     0.186 C 
HETATM    5  C4  UNL     1     -13.864 -27.080 -25.428  1.00  0.00     0.181 C 
HETATM    6  C5  UNL     1     -14.979 -26.117 -25.023  1.00  0.00     0.188 C 
HETATM    7  C6  UNL     1     -16.279 -26.867 -24.902  1.00  0.00     0.248 C 
ENDROOT
BRANCH   4   8
HETATM    8  C3  UNL     1     -13.168 -28.543 -27.339  1.00  0.00     0.199 C 
BRANCH   8   9
HETATM    9  O3  UNL     1     -13.212 -29.761 -26.692  1.00  0.00    -0.398 OA
ATOM     10  H3  UNL     1     -12.486 -29.885 -26.092  1.00  0.00     0.209 HD
ENDBRANCH   8   9
ENDBRANCH   4   8
BRANCH   5  11
HETATM   11  O4  UNL     1     -13.741 -28.116 -24.507  1.00  0.00    -0.390 OA
ATOM     12  H4  UNL     1     -14.542 -28.618 -24.406  1.00  0.00     0.210 HD
ENDBRANCH   5  11
BRANCH   6  13
HETATM   13  O5  UNL     1     -14.644 -25.422 -23.883  1.00  0.00    -0.390 OA
ATOM     14  H5  UNL     1     -14.096 -25.947 -23.311  1.00  0.00     0.210 HD
ENDBRANCH   6  13
BRANCH   7  15
HETATM   15  O6  UNL     1     -17.285 -25.941 -24.635  1.00  0.00    -0.383 OA
ATOM     16  H6  UNL     1     -16.902 -25.124 -24.339  1.00  0.00     0.210 HD
ENDBRANCH   7  15
TORSDOF 5
ENDMDL
