MODEL 5
REMARK VINA RESULT: -10.519105389      2.861      4.709
REMARK  6 active torsions:
REMARK  status: ('A' for Active; 'I' for Inactive)
REMARK    1  A    between atoms: N1_1  and  C1_5 
REMARK    2  A    between atoms: C1_5  and  C2_6 
REMARK    3  A    between atoms: C6_11  and  O1_12 
REMARK    4  A    between atoms: O1_12  and  C7_13 
REMARK    5  A    between atoms: N4_24  and  C13_25 
REMARK    6  A    between atoms: C13_25  and  C14_26 
ROOT
HETATM    1  C7  UNL     1       6.516  10.963  15.329  1.00  0.00     0.128 A 
HETATM    2  C8  UNL     1       6.214  11.532  14.119  1.00  0.00     0.070 A 
HETATM    3 CL2  UNL     1       6.293  13.259  13.805  1.00  0.00    -0.081 Cl
HETATM    4  C9  UNL     1       5.816  10.746  13.028  1.00  0.00     0.029 A 
HETATM    5  C10 UNL     1       5.736   9.339  13.171  1.00  0.00     0.035 A 
HETATM    6  C11 UNL     1       6.044   8.783  14.380  1.00  0.00     0.083 A 
HETATM    7  C12 UNL     1       6.411   9.587  15.416  1.00  0.00     0.113 A 
HETATM    8  N2  UNL     1       6.667   8.745  16.471  1.00  0.00    -0.281 N 
ATOM      9  H2  UNL     1       6.962   9.014  17.410  1.00  0.00     0.188 HD
HETATM   10  N3  UNL     1       6.459   7.534  16.036  1.00  0.00    -0.239 N 
ATOM     11  H3  UNL     1       6.570   6.705  16.620  1.00  0.00     0.208 HD
HETATM   12  N4  UNL     1       6.101   7.479  14.806  1.00  0.00    -0.270 N 
ENDROOT
BRANCH   1  13
HETATM   13  O1  UNL     1       6.896  11.726  16.402  1.00  0.00    -0.305 OA
BRANCH  13  14
HETATM   14  C6  UNL     1       8.049  11.773  17.115  1.00  0.00     0.100 A 
HETATM   15  C5  UNL     1       8.047  11.423  18.481  1.00  0.00     0.062 A 
HETATM   16  C4  UNL     1       9.207  11.443  19.179  1.00  0.00     0.037 A 
HETATM   17  C3  UNL     1      10.391  11.810  18.555  1.00  0.00     0.034 A 
HETATM   18 CL1  UNL     1       9.144  11.060  20.902  1.00  0.00    -0.084 Cl
HETATM   19  C2  UNL     1      10.448  12.172  17.213  1.00  0.00    -0.007 A 
HETATM   20  C20 UNL     1       9.207  12.136  16.517  1.00  0.00     0.075 A 
HETATM   21 CL3  UNL     1       9.328  12.619  14.825  1.00  0.00    -0.081 Cl
BRANCH  19  22
HETATM   22  C1  UNL     1      11.672  12.737  16.622  1.00  0.00     0.269 C 
BRANCH  22  23
HETATM   23  N1  UNL     1      12.524  11.768  15.965  1.00  0.00    -0.075 N 
ATOM     24  H13 UNL     1      12.983  11.173  16.655  1.00  0.00     0.274 HD
ATOM     25  H12 UNL     1      11.960  11.070  15.479  1.00  0.00     0.274 HD
ATOM     26  H11 UNL     1      13.214  12.171  15.330  1.00  0.00     0.274 HD
ENDBRANCH  22  23
ENDBRANCH  19  22
ENDBRANCH  13  14
ENDBRANCH   1  13
BRANCH  12  27
HETATM   27  C13 UNL     1       5.945   6.321  13.965  1.00  0.00     0.210 C 
BRANCH  27  28
HETATM   28  C14 UNL     1       6.663   5.122  14.386  1.00  0.00     0.059 A 
HETATM   29  N5  UNL     1       7.853   4.895  14.877  1.00  0.00    -0.301 N 
HETATM   30  N6  UNL     1       8.096   3.591  15.143  1.00  0.00    -0.284 N 
ATOM     31  H5  UNL     1       8.537   5.633  15.044  1.00  0.00     0.186 HD
HETATM   32  C15 UNL     1       6.946   2.910  14.787  1.00  0.00     0.132 A 
ATOM     33  H6  UNL     1       8.952   3.192  15.527  1.00  0.00     0.188 HD
HETATM   34  N7  UNL     1       6.649   1.582  14.829  1.00  0.00    -0.351 N 
HETATM   35  C19 UNL     1       6.075   3.839  14.333  1.00  0.00     0.035 A 
HETATM   36  C16 UNL     1       5.470   1.142  14.416  1.00  0.00     0.090 A 
ATOM     37  H7  UNL     1       7.341   0.920  15.182  1.00  0.00     0.166 HD
HETATM   38  C17 UNL     1       4.552   2.064  13.942  1.00  0.00     0.018 A 
HETATM   39  C18 UNL     1       4.808   3.408  13.880  1.00  0.00     0.018 A 
ENDBRANCH  27  28
ENDBRANCH  12  27
TORSDOF 6
ENDMDL
