MODEL 6
REMARK VINA RESULT: -10.036262801      4.787      9.893
REMARK  6 active torsions:
REMARK  status: ('A' for Active; 'I' for Inactive)
REMARK    1  A    between atoms: N1_1  and  C1_5 
REMARK    2  A    between atoms: C1_5  and  C2_6 
REMARK    3  A    between atoms: C6_11  and  O1_12 
REMARK    4  A    between atoms: O1_12  and  C7_13 
REMARK    5  A    between atoms: N4_24  and  C13_25 
REMARK    6  A    between atoms: C13_25  and  C14_26 
ROOT
HETATM    1  C7  UNL     1       6.149   6.614  13.417  1.00  0.00     0.128 A 
HETATM    2  C8  UNL     1       6.654   6.090  14.577  1.00  0.00     0.070 A 
HETATM    3 CL2  UNL     1       7.088   4.398  14.777  1.00  0.00    -0.081 Cl
HETATM    4  C9  UNL     1       6.863   6.895  15.706  1.00  0.00     0.029 A 
HETATM    5  C10 UNL     1       6.561   8.278  15.645  1.00  0.00     0.035 A 
HETATM    6  C11 UNL     1       6.063   8.791  14.481  1.00  0.00     0.083 A 
HETATM    7  C12 UNL     1       5.862   7.967  13.415  1.00  0.00     0.113 A 
HETATM    8  N2  UNL     1       5.377   8.768  12.410  1.00  0.00    -0.281 N 
ATOM      9  H2  UNL     1       5.113   8.476  11.469  1.00  0.00     0.188 HD
HETATM   10  N3  UNL     1       5.322   9.977  12.895  1.00  0.00    -0.239 N 
ATOM     11  H3  UNL     1       4.988  10.778  12.359  1.00  0.00     0.208 HD
HETATM   12  N4  UNL     1       5.724  10.068  14.109  1.00  0.00    -0.270 N 
ENDROOT
BRANCH   1  13
HETATM   13  O1  UNL     1       5.933   5.831  12.313  1.00  0.00    -0.305 OA
BRANCH  13  14
HETATM   14  C6  UNL     1       4.887   5.048  11.951  1.00  0.00     0.100 A 
HETATM   15  C5  UNL     1       4.559   3.913  12.722  1.00  0.00     0.062 A 
HETATM   16  C4  UNL     1       3.495   3.151  12.372  1.00  0.00     0.037 A 
HETATM   17  C3  UNL     1       2.733   3.483  11.260  1.00  0.00     0.034 A 
HETATM   18 CL1  UNL     1       3.162   1.703  13.328  1.00  0.00    -0.084 Cl
HETATM   19  C2  UNL     1       3.018   4.587  10.462  1.00  0.00    -0.007 A 
HETATM   20  C20 UNL     1       4.143   5.359  10.866  1.00  0.00     0.075 A 
HETATM   21 CL3  UNL     1       4.473   6.736   9.813  1.00  0.00    -0.081 Cl
BRANCH  19  22
HETATM   22  C1  UNL     1       2.318   4.812   9.187  1.00  0.00     0.269 C 
BRANCH  22  23
HETATM   23  N1  UNL     1       1.146   5.657   9.286  1.00  0.00    -0.075 N 
ATOM     24  H13 UNL     1       0.534   5.509   8.484  1.00  0.00     0.274 HD
ATOM     25  H12 UNL     1       0.536   5.332  10.036  1.00  0.00     0.274 HD
ATOM     26  H11 UNL     1       1.349   6.651   9.399  1.00  0.00     0.274 HD
ENDBRANCH  22  23
ENDBRANCH  19  22
ENDBRANCH  13  14
ENDBRANCH   1  13
BRANCH  12  27
HETATM   27  C13 UNL     1       5.946  11.252  14.897  1.00  0.00     0.210 C 
BRANCH  27  28
HETATM   28  C14 UNL     1       7.258  11.875  14.760  1.00  0.00     0.059 A 
HETATM   29  N5  UNL     1       7.965  12.304  13.746  1.00  0.00    -0.301 N 
HETATM   30  N6  UNL     1       9.155  12.842  14.097  1.00  0.00    -0.284 N 
ATOM     31  H5  UNL     1       7.648  12.237  12.779  1.00  0.00     0.186 HD
HETATM   32  C15 UNL     1       9.222  12.750  15.476  1.00  0.00     0.132 A 
ATOM     33  H6  UNL     1       9.860  13.234  13.473  1.00  0.00     0.188 HD
HETATM   34  N7  UNL     1      10.201  13.123  16.346  1.00  0.00    -0.351 N 
HETATM   35  C19 UNL     1       8.070  12.169  15.878  1.00  0.00     0.035 A 
HETATM   36  C16 UNL     1      10.056  12.923  17.648  1.00  0.00     0.090 A 
ATOM     37  H7  UNL     1      11.053  13.559  15.993  1.00  0.00     0.166 HD
HETATM   38  C17 UNL     1       8.890  12.328  18.097  1.00  0.00     0.018 A 
HETATM   39  C18 UNL     1       7.880  11.937  17.258  1.00  0.00     0.018 A 
ENDBRANCH  27  28
ENDBRANCH  12  27
TORSDOF 6
ENDMDL
