MODEL 7
REMARK VINA RESULT: -9.789643613      2.868      4.831
REMARK  6 active torsions:
REMARK  status: ('A' for Active; 'I' for Inactive)
REMARK    1  A    between atoms: N1_1  and  C1_5 
REMARK    2  A    between atoms: C1_5  and  C2_6 
REMARK    3  A    between atoms: C6_11  and  O1_12 
REMARK    4  A    between atoms: O1_12  and  C7_13 
REMARK    5  A    between atoms: N4_24  and  C13_25 
REMARK    6  A    between atoms: C13_25  and  C14_26 
ROOT
HETATM    1  C7  UNL     1       6.437  10.554  15.261  1.00  0.00     0.128 A 
HETATM    2  C8  UNL     1       6.155  11.189  14.080  1.00  0.00     0.070 A 
HETATM    3 CL2  UNL     1       6.139  12.936  13.891  1.00  0.00    -0.081 Cl
HETATM    4  C9  UNL     1       5.858  10.461  12.919  1.00  0.00     0.029 A 
HETATM    5  C10 UNL     1       5.861   9.046  12.960  1.00  0.00     0.035 A 
HETATM    6  C11 UNL     1       6.148   8.423  14.142  1.00  0.00     0.083 A 
HETATM    7  C12 UNL     1       6.415   9.171  15.248  1.00  0.00     0.113 A 
HETATM    8  N2  UNL     1       6.675   8.273  16.254  1.00  0.00    -0.281 N 
ATOM      9  H2  UNL     1       6.909   8.490  17.223  1.00  0.00     0.188 HD
HETATM   10  N3  UNL     1       6.564   7.086  15.726  1.00  0.00    -0.239 N 
ATOM     11  H3  UNL     1       6.701   6.225  16.256  1.00  0.00     0.208 HD
HETATM   12  N4  UNL     1       6.268   7.098  14.479  1.00  0.00    -0.270 N 
ENDROOT
BRANCH   1  13
HETATM   13  O1  UNL     1       6.718  11.259  16.403  1.00  0.00    -0.305 OA
BRANCH  13  14
HETATM   14  C6  UNL     1       7.877  11.465  17.075  1.00  0.00     0.100 A 
HETATM   15  C5  UNL     1       7.960  11.152  18.448  1.00  0.00     0.062 A 
HETATM   16  C4  UNL     1       9.129  11.332  19.106  1.00  0.00     0.037 A 
HETATM   17  C3  UNL     1      10.240  11.825  18.436  1.00  0.00     0.034 A 
HETATM   18 CL1  UNL     1       9.166  10.988  20.839  1.00  0.00    -0.084 Cl
HETATM   19  C2  UNL     1      10.211  12.157  17.085  1.00  0.00    -0.007 A 
HETATM   20  C20 UNL     1       8.963  11.952  16.432  1.00  0.00     0.075 A 
HETATM   21 CL3  UNL     1       8.972  12.403  14.727  1.00  0.00    -0.081 Cl
BRANCH  19  22
HETATM   22  C1  UNL     1      11.337  12.852  16.442  1.00  0.00     0.269 C 
BRANCH  22  23
HETATM   23  N1  UNL     1      12.419  11.985  16.025  1.00  0.00    -0.075 N 
ATOM     24  H13 UNL     1      12.804  12.302  15.135  1.00  0.00     0.274 HD
ATOM     25  H12 UNL     1      13.233  12.119  16.626  1.00  0.00     0.274 HD
ATOM     26  H11 UNL     1      12.175  10.996  15.974  1.00  0.00     0.274 HD
ENDBRANCH  22  23
ENDBRANCH  19  22
ENDBRANCH  13  14
ENDBRANCH   1  13
BRANCH  12  27
HETATM   27  C13 UNL     1       6.224   5.996  13.553  1.00  0.00     0.210 C 
BRANCH  27  28
HETATM   28  C14 UNL     1       5.868   4.699  14.118  1.00  0.00     0.059 A 
HETATM   29  N5  UNL     1       4.738   4.106  14.407  1.00  0.00    -0.301 N 
HETATM   30  N6  UNL     1       4.888   2.862  14.915  1.00  0.00    -0.284 N 
ATOM     31  H5  UNL     1       3.828   4.543  14.264  1.00  0.00     0.186 HD
HETATM   32  C15 UNL     1       6.251   2.629  14.958  1.00  0.00     0.132 A 
ATOM     33  H6  UNL     1       4.147   2.225  15.207  1.00  0.00     0.188 HD
HETATM   34  N7  UNL     1       6.956   1.549  15.394  1.00  0.00    -0.351 N 
HETATM   35  C19 UNL     1       6.845   3.741  14.470  1.00  0.00     0.035 A 
HETATM   36  C16 UNL     1       8.280   1.550  15.356  1.00  0.00     0.090 A 
ATOM     37  H7  UNL     1       6.461   0.733  15.753  1.00  0.00     0.166 HD
HETATM   38  C17 UNL     1       8.925   2.672  14.865  1.00  0.00     0.018 A 
HETATM   39  C18 UNL     1       8.256   3.781  14.417  1.00  0.00     0.018 A 
ENDBRANCH  27  28
ENDBRANCH  12  27
TORSDOF 6
ENDMDL
