MODEL 4
REMARK VINA RESULT: -10.742541461      1.290      1.539
REMARK  6 active torsions:
REMARK  status: ('A' for Active; 'I' for Inactive)
REMARK    1  A    between atoms: N1_1  and  C1_5 
REMARK    2  A    between atoms: C1_5  and  C2_6 
REMARK    3  A    between atoms: C6_11  and  O1_12 
REMARK    4  A    between atoms: O1_12  and  C7_13 
REMARK    5  A    between atoms: N4_24  and  C13_25 
REMARK    6  A    between atoms: C13_25  and  C14_26 
ROOT
HETATM    1  C7  UNL     1      10.123  12.669  16.515  1.00  0.00     0.128 A 
HETATM    2  C8  UNL     1      10.556  12.673  15.216  1.00  0.00     0.070 A 
HETATM    3 CL2  UNL     1      12.173  13.159  14.728  1.00  0.00    -0.081 Cl
HETATM    4  C9  UNL     1       9.713  12.274  14.169  1.00  0.00     0.029 A 
HETATM    5  C10 UNL     1       8.393  11.848  14.456  1.00  0.00     0.035 A 
HETATM    6  C11 UNL     1       7.973  11.844  15.756  1.00  0.00     0.083 A 
HETATM    7  C12 UNL     1       8.822  12.254  16.739  1.00  0.00     0.113 A 
HETATM    8  N2  UNL     1       8.125  12.122  17.915  1.00  0.00    -0.281 N 
ATOM      9  H2  UNL     1       8.460  12.346  18.853  1.00  0.00     0.188 HD
HETATM   10  N3  UNL     1       6.950  11.654  17.597  1.00  0.00    -0.239 N 
ATOM     11  H3  UNL     1       6.222  11.465  18.286  1.00  0.00     0.208 HD
HETATM   12  N4  UNL     1       6.794  11.453  16.341  1.00  0.00    -0.270 N 
ENDROOT
BRANCH   1  13
HETATM   13  O1  UNL     1      10.938  13.067  17.543  1.00  0.00    -0.305 OA
BRANCH  13  14
HETATM   14  C6  UNL     1      10.663  13.534  18.786  1.00  0.00     0.100 A 
HETATM   15  C5  UNL     1      10.592  14.924  19.016  1.00  0.00     0.062 A 
HETATM   16  C4  UNL     1      10.288  15.383  20.252  1.00  0.00     0.037 A 
HETATM   17  C3  UNL     1      10.051  14.491  21.290  1.00  0.00     0.034 A 
HETATM   18 CL1  UNL     1      10.275  17.131  20.508  1.00  0.00    -0.084 Cl
HETATM   19  C2  UNL     1      10.117  13.112  21.120  1.00  0.00    -0.007 A 
HETATM   20  C20 UNL     1      10.438  12.673  19.804  1.00  0.00     0.075 A 
HETATM   21 CL3  UNL     1      10.526  10.919  19.643  1.00  0.00    -0.081 Cl
BRANCH  19  22
HETATM   22  C1  UNL     1      10.050  12.194  22.267  1.00  0.00     0.269 C 
BRANCH  22  23
HETATM   23  N1  UNL     1       8.778  11.518  22.424  1.00  0.00    -0.075 N 
ATOM     24  H13 UNL     1       8.021  12.102  22.068  1.00  0.00     0.274 HD
ATOM     25  H12 UNL     1       8.713  10.732  21.778  1.00  0.00     0.274 HD
ATOM     26  H11 UNL     1       8.575  11.214  23.376  1.00  0.00     0.274 HD
ENDBRANCH  22  23
ENDBRANCH  19  22
ENDBRANCH  13  14
ENDBRANCH   1  13
BRANCH  12  27
HETATM   27  C13 UNL     1       5.702  10.805  15.662  1.00  0.00     0.210 C 
BRANCH  27  28
HETATM   28  C14 UNL     1       5.524   9.385  15.947  1.00  0.00     0.059 A 
HETATM   29  N5  UNL     1       5.037   8.709  16.956  1.00  0.00    -0.301 N 
HETATM   30  N6  UNL     1       5.056   7.369  16.775  1.00  0.00    -0.284 N 
ATOM     31  H5  UNL     1       4.677   9.152  17.801  1.00  0.00     0.186 HD
HETATM   32  C15 UNL     1       5.610   7.160  15.525  1.00  0.00     0.132 A 
ATOM     33  H6  UNL     1       4.728   6.657  17.428  1.00  0.00     0.188 HD
HETATM   34  N7  UNL     1       5.879   6.007  14.852  1.00  0.00    -0.351 N 
HETATM   35  C19 UNL     1       5.889   8.382  15.021  1.00  0.00     0.035 A 
HETATM   36  C16 UNL     1       6.437   6.044  13.651  1.00  0.00     0.090 A 
ATOM     37  H7  UNL     1       5.648   5.109  15.275  1.00  0.00     0.166 HD
HETATM   38  C17 UNL     1       6.739   7.279  13.102  1.00  0.00     0.018 A 
HETATM   39  C18 UNL     1       6.488   8.463  13.744  1.00  0.00     0.018 A 
ENDBRANCH  27  28
ENDBRANCH  12  27
TORSDOF 6
ENDMDL
