MODEL 1
REMARK VINA RESULT: -12.445396251      0.000      0.000
REMARK  6 active torsions:
REMARK  status: ('A' for Active; 'I' for Inactive)
REMARK    1  A    between atoms: N1_1  and  C1_5 
REMARK    2  A    between atoms: C1_5  and  C2_6 
REMARK    3  A    between atoms: C6_11  and  O1_12 
REMARK    4  A    between atoms: O1_12  and  C7_13 
REMARK    5  A    between atoms: N4_24  and  C13_25 
REMARK    6  A    between atoms: C13_25  and  C14_26 
ROOT
HETATM    1  C7  UNL     1       9.627  12.237  16.594  1.00  0.00     0.128 A 
HETATM    2  C8  UNL     1       9.982  12.640  15.333  1.00  0.00     0.070 A 
HETATM    3 CL2  UNL     1      11.567  13.277  14.922  1.00  0.00    -0.081 Cl
HETATM    4  C9  UNL     1       9.076  12.562  14.266  1.00  0.00     0.029 A 
HETATM    5  C10 UNL     1       7.776  12.047  14.487  1.00  0.00     0.035 A 
HETATM    6  C11 UNL     1       7.435  11.644  15.747  1.00  0.00     0.083 A 
HETATM    7  C12 UNL     1       8.342  11.752  16.757  1.00  0.00     0.113 A 
HETATM    8  N2  UNL     1       7.717  11.260  17.877  1.00  0.00    -0.281 N 
ATOM      9  H2  UNL     1       8.108  11.197  18.817  1.00  0.00     0.188 HD
HETATM   10  N3  UNL     1       6.524  10.891  17.501  1.00  0.00    -0.239 N 
ATOM     11  H3  UNL     1       5.838  10.490  18.141  1.00  0.00     0.208 HD
HETATM   12  N4  UNL     1       6.292  11.075  16.254  1.00  0.00    -0.270 N 
ENDROOT
BRANCH   1  13
HETATM   13  O1  UNL     1      10.504  12.320  17.644  1.00  0.00    -0.305 OA
BRANCH  13  14
HETATM   14  C6  UNL     1      10.390  12.877  18.875  1.00  0.00     0.100 A 
HETATM   15  C5  UNL     1      10.444  14.279  19.020  1.00  0.00     0.062 A 
HETATM   16  C4  UNL     1      10.300  14.831  20.248  1.00  0.00     0.037 A 
HETATM   17  C3  UNL     1      10.104  14.021  21.359  1.00  0.00     0.034 A 
HETATM   18 CL1  UNL     1      10.439  16.586  20.390  1.00  0.00    -0.084 Cl
HETATM   19  C2  UNL     1      10.051  12.634  21.273  1.00  0.00    -0.007 A 
HETATM   20  C20 UNL     1      10.206  12.097  19.964  1.00  0.00     0.075 A 
HETATM   21 CL3  UNL     1      10.149  10.334  19.909  1.00  0.00    -0.081 Cl
BRANCH  19  22
HETATM   22  C1  UNL     1      10.032  11.791  22.479  1.00  0.00     0.269 C 
BRANCH  22  23
HETATM   23  N1  UNL     1       8.730  11.256  22.819  1.00  0.00    -0.075 N 
ATOM     24  H13 UNL     1       8.398  11.661  23.694  1.00  0.00     0.274 HD
ATOM     25  H12 UNL     1       8.021  11.615  22.179  1.00  0.00     0.274 HD
ATOM     26  H11 UNL     1       8.688  10.238  22.860  1.00  0.00     0.274 HD
ENDBRANCH  22  23
ENDBRANCH  19  22
ENDBRANCH  13  14
ENDBRANCH   1  13
BRANCH  12  27
HETATM   27  C13 UNL     1       5.161  10.644  15.475  1.00  0.00     0.210 C 
BRANCH  27  28
HETATM   28  C14 UNL     1       5.459   9.796  14.326  1.00  0.00     0.059 A 
HETATM   29  N5  UNL     1       5.316   9.926  13.032  1.00  0.00    -0.301 N 
HETATM   30  N6  UNL     1       5.758   8.863  12.324  1.00  0.00    -0.284 N 
ATOM     31  H5  UNL     1       4.908  10.754  12.598  1.00  0.00     0.186 HD
HETATM   32  C15 UNL     1       6.233   7.956  13.254  1.00  0.00     0.132 A 
ATOM     33  H6  UNL     1       5.744   8.751  11.310  1.00  0.00     0.188 HD
HETATM   34  N7  UNL     1       6.773   6.716  13.094  1.00  0.00    -0.351 N 
HETATM   35  C19 UNL     1       6.057   8.524  14.467  1.00  0.00     0.035 A 
HETATM   36  C16 UNL     1       7.152   6.006  14.146  1.00  0.00     0.090 A 
ATOM     37  H7  UNL     1       6.886   6.332  12.156  1.00  0.00     0.166 HD
HETATM   38  C17 UNL     1       6.985   6.554  15.406  1.00  0.00     0.018 A 
HETATM   39  C18 UNL     1       6.446   7.796  15.614  1.00  0.00     0.018 A 
ENDBRANCH  27  28
ENDBRANCH  12  27
TORSDOF 6
ENDMDL
