MODEL 3
REMARK VINA RESULT: -11.294301794      0.926      1.012
REMARK  6 active torsions:
REMARK  status: ('A' for Active; 'I' for Inactive)
REMARK    1  A    between atoms: N1_1  and  C1_5 
REMARK    2  A    between atoms: C1_5  and  C2_6 
REMARK    3  A    between atoms: C6_11  and  O1_12 
REMARK    4  A    between atoms: O1_12  and  C7_13 
REMARK    5  A    between atoms: N4_24  and  C13_25 
REMARK    6  A    between atoms: C13_25  and  C14_26 
ROOT
HETATM    1  C7  UNL     1      10.350  12.302  16.368  1.00  0.00     0.128 A 
HETATM    2  C8  UNL     1      10.975  12.430  15.156  1.00  0.00     0.070 A 
HETATM    3 CL2  UNL     1      12.715  12.591  14.967  1.00  0.00    -0.081 Cl
HETATM    4  C9  UNL     1      10.242  12.437  13.960  1.00  0.00     0.029 A 
HETATM    5  C10 UNL     1       8.834  12.296  14.001  1.00  0.00     0.035 A 
HETATM    6  C11 UNL     1       8.222  12.164  15.215  1.00  0.00     0.083 A 
HETATM    7  C12 UNL     1       8.972  12.178  16.352  1.00  0.00     0.113 A 
HETATM    8  N2  UNL     1       8.086  12.013  17.388  1.00  0.00    -0.281 N 
ATOM      9  H2  UNL     1       8.308  11.981  18.383  1.00  0.00     0.188 HD
HETATM   10  N3  UNL     1       6.904  11.904  16.848  1.00  0.00    -0.239 N 
ATOM     11  H3  UNL     1       6.052  11.777  17.395  1.00  0.00     0.208 HD
HETATM   12  N4  UNL     1       6.909  11.971  15.568  1.00  0.00    -0.270 N 
ENDROOT
BRANCH   1  13
HETATM   13  O1  UNL     1      11.058  12.304  17.542  1.00  0.00    -0.305 OA
BRANCH  13  14
HETATM   14  C6  UNL     1      10.726  12.695  18.797  1.00  0.00     0.100 A 
HETATM   15  C5  UNL     1      10.788  14.059  19.149  1.00  0.00     0.062 A 
HETATM   16  C4  UNL     1      10.427  14.446  20.395  1.00  0.00     0.037 A 
HETATM   17  C3  UNL     1      10.001  13.505  21.323  1.00  0.00     0.034 A 
HETATM   18 CL1  UNL     1      10.584  16.156  20.811  1.00  0.00    -0.084 Cl
HETATM   19  C2  UNL     1       9.929  12.147  21.030  1.00  0.00    -0.007 A 
HETATM   20  C20 UNL     1      10.317  11.785  19.710  1.00  0.00     0.075 A 
HETATM   21 CL3  UNL     1      10.225  10.052  19.393  1.00  0.00    -0.081 Cl
BRANCH  19  22
HETATM   22  C1  UNL     1       9.659  11.150  22.079  1.00  0.00     0.269 C 
BRANCH  22  23
HETATM   23  N1  UNL     1      10.135  11.518  23.396  1.00  0.00    -0.075 N 
ATOM     24  H13 UNL     1      10.960  10.970  23.640  1.00  0.00     0.274 HD
ATOM     25  H12 UNL     1      10.544  12.452  23.376  1.00  0.00     0.274 HD
ATOM     26  H11 UNL     1       9.434  11.453  24.134  1.00  0.00     0.274 HD
ENDBRANCH  22  23
ENDBRANCH  19  22
ENDBRANCH  13  14
ENDBRANCH   1  13
BRANCH  12  27
HETATM   27  C13 UNL     1       5.826  11.735  14.650  1.00  0.00     0.210 C 
BRANCH  27  28
HETATM   28  C14 UNL     1       5.878  10.479  13.908  1.00  0.00     0.059 A 
HETATM   29  N5  UNL     1       5.939  10.169  12.639  1.00  0.00    -0.301 N 
HETATM   30  N6  UNL     1       5.986   8.838  12.403  1.00  0.00    -0.284 N 
ATOM     31  H5  UNL     1       5.951  10.867  11.896  1.00  0.00     0.186 HD
HETATM   32  C15 UNL     1       5.951   8.230  13.645  1.00  0.00     0.132 A 
ATOM     33  H6  UNL     1       6.037   8.377  11.495  1.00  0.00     0.188 HD
HETATM   34  N7  UNL     1       5.957   6.913  13.991  1.00  0.00    -0.351 N 
HETATM   35  C19 UNL     1       5.890   9.225  14.557  1.00  0.00     0.035 A 
HETATM   36  C16 UNL     1       5.900   6.552  15.265  1.00  0.00     0.090 A 
ATOM     37  H7  UNL     1       6.005   6.199  13.265  1.00  0.00     0.166 HD
HETATM   38  C17 UNL     1       5.834   7.543  16.229  1.00  0.00     0.018 A 
HETATM   39  C18 UNL     1       5.825   8.879  15.926  1.00  0.00     0.018 A 
ENDBRANCH  27  28
ENDBRANCH  12  27
TORSDOF 6
ENDMDL
