MODEL 3
REMARK VINA RESULT: -6.876192727      1.124      1.666
REMARK  9 active torsions:
REMARK  status: ('A' for Active; 'I' for Inactive)
REMARK    1  A    between atoms: O1_2  and  C2_3 
REMARK    2  A    between atoms: C3_5  and  C4_6 
REMARK    3  A    between atoms: C4_6  and  O3_7 
REMARK    4  A    between atoms: C5_9  and  O4_10 
REMARK    5  A    between atoms: C6_12  and  N1_13 
REMARK       I    between atoms: N1_13  and  C7_15 
REMARK    6  A    between atoms: C7_15  and  C8_17 
REMARK    7  A    between atoms: C15_24  and  O6_25 
REMARK    8  A    between atoms: O6_25  and  C16_26 
REMARK    9  A    between atoms: C16_26  and  C17_28 
ROOT
HETATM    1  C2  UNL     1      19.509  -9.571  -1.170  1.00  0.00     0.291 C 
HETATM    2  O2  UNL     1      20.128  -8.479  -0.541  1.00  0.00    -0.349 OA
HETATM    3  C3  UNL     1      19.458  -7.339  -0.949  1.00  0.00     0.179 C 
HETATM    4  C5  UNL     1      18.074  -7.305  -0.385  1.00  0.00     0.174 C 
HETATM    5  C6  UNL     1      17.345  -8.543  -0.833  1.00  0.00     0.150 C 
HETATM    6  C15 UNL     1      18.181  -9.797  -0.564  1.00  0.00     0.212 C 
ENDROOT
BRANCH   5   7
HETATM    7  N1  UNL     1      16.054  -8.693  -0.170  1.00  0.00    -0.347 N 
HETATM    8  C7  UNL     1      14.828  -8.540  -0.836  1.00  0.00     0.252 C 
HETATM    9  O5  UNL     1      14.871  -8.258  -2.069  1.00  0.00    -0.268 OA
ATOM     10  H1  UNL     1      16.042  -8.921   0.825  1.00  0.00     0.163 HD
BRANCH   8  11
HETATM   11  C8  UNL     1      13.514  -8.685  -0.201  1.00  0.00     0.032 A 
HETATM   12  C9  UNL     1      13.371  -8.570   1.171  1.00  0.00     0.017 A 
HETATM   13  C10 UNL     1      12.154  -8.700   1.807  1.00  0.00     0.007 A 
HETATM   14  C11 UNL     1      11.015  -8.953   1.085  1.00  0.00    -0.062 A 
HETATM   15  C12 UNL     1       9.698  -9.093   1.775  1.00  0.00     0.048 C 
HETATM   16  C13 UNL     1      11.136  -9.070  -0.283  1.00  0.00     0.007 A 
HETATM   17  C14 UNL     1      12.372  -8.939  -0.929  1.00  0.00     0.017 A 
ENDBRANCH   8  11
ENDBRANCH   5   7
BRANCH   4  18
HETATM   18  O4  UNL     1      18.082  -7.197   1.007  1.00  0.00    -0.391 OA
ATOM     19  H4  UNL     1      17.955  -8.039   1.427  1.00  0.00     0.210 HD
ENDBRANCH   4  18
BRANCH   6  20
HETATM   20  O6  UNL     1      18.121 -10.037   0.793  1.00  0.00    -0.305 OA
BRANCH  20  21
HETATM   21  C16 UNL     1      17.420 -10.997   1.453  1.00  0.00     0.293 C 
HETATM   22  O7  UNL     1      16.195 -11.001   1.362  1.00  0.00    -0.259 OA
BRANCH  21  23
HETATM   23  C17 UNL     1      18.119 -11.992   2.246  1.00  0.00     0.039 A 
HETATM   24  C18 UNL     1      17.563 -12.419   3.445  1.00  0.00     0.018 A 
HETATM   25  C19 UNL     1      18.212 -13.361   4.209  1.00  0.00     0.007 A 
HETATM   26  C20 UNL     1      19.432 -13.896   3.789  1.00  0.00    -0.062 A 
HETATM   27  C21 UNL     1      20.111 -14.906   4.625  1.00  0.00     0.048 C 
HETATM   28  C22 UNL     1      19.952 -13.447   2.594  1.00  0.00     0.007 A 
HETATM   29  C23 UNL     1      19.332 -12.509   1.807  1.00  0.00     0.018 A 
ENDBRANCH  21  23
ENDBRANCH  20  21
ENDBRANCH   6  20
BRANCH   3  30
HETATM   30  C4  UNL     1      20.290  -6.148  -0.533  1.00  0.00     0.198 C 
BRANCH  30  31
HETATM   31  O3  UNL     1      20.960  -6.428   0.639  1.00  0.00    -0.398 OA
ATOM     32  H3  UNL     1      21.057  -7.367   0.741  1.00  0.00     0.209 HD
ENDBRANCH  30  31
ENDBRANCH   3  30
BRANCH   1  33
HETATM   33  O1  UNL     1      20.376 -10.623  -1.167  1.00  0.00    -0.363 OA
HETATM   34  C1  UNL     1      21.503 -10.471  -0.401  1.00  0.00     0.204 C 
ENDBRANCH   1  33
TORSDOF 9
ENDMDL
