MODEL 4
REMARK VINA RESULT: -6.756787693      6.570     10.954
REMARK  9 active torsions:
REMARK  status: ('A' for Active; 'I' for Inactive)
REMARK    1  A    between atoms: O1_2  and  C2_3 
REMARK    2  A    between atoms: C3_5  and  C4_6 
REMARK    3  A    between atoms: C4_6  and  O3_7 
REMARK    4  A    between atoms: C5_9  and  O4_10 
REMARK    5  A    between atoms: C6_12  and  N1_13 
REMARK       I    between atoms: N1_13  and  C7_15 
REMARK    6  A    between atoms: C7_15  and  C8_17 
REMARK    7  A    between atoms: C15_24  and  O6_25 
REMARK    8  A    between atoms: O6_25  and  C16_26 
REMARK    9  A    between atoms: C16_26  and  C17_28 
ROOT
HETATM    1  C2  UNL     1       6.731  -4.063  -3.994  1.00  0.00     0.291 C 
HETATM    2  O2  UNL     1       6.237  -3.074  -3.130  1.00  0.00    -0.349 OA
HETATM    3  C3  UNL     1       5.828  -3.710  -1.971  1.00  0.00     0.179 C 
HETATM    4  C5  UNL     1       7.002  -4.250  -1.218  1.00  0.00     0.174 C 
HETATM    5  C6  UNL     1       7.748  -5.199  -2.116  1.00  0.00     0.150 C 
HETATM    6  C15 UNL     1       8.024  -4.560  -3.479  1.00  0.00     0.212 C 
ENDROOT
BRANCH   5   7
HETATM    7  N1  UNL     1       9.019  -5.623  -1.535  1.00  0.00    -0.347 N 
HETATM    8  C7  UNL     1       9.564  -6.900  -1.734  1.00  0.00     0.252 C 
HETATM    9  O5  UNL     1       8.905  -7.705  -2.455  1.00  0.00    -0.268 OA
ATOM     10  H1  UNL     1       9.534  -4.959  -0.957  1.00  0.00     0.163 HD
BRANCH   8  11
HETATM   11  C8  UNL     1      10.837  -7.358  -1.167  1.00  0.00     0.032 A 
HETATM   12  C9  UNL     1      11.346  -8.606  -1.479  1.00  0.00     0.017 A 
HETATM   13  C10 UNL     1      12.539  -9.073  -0.966  1.00  0.00     0.007 A 
HETATM   14  C11 UNL     1      13.279  -8.299  -0.109  1.00  0.00    -0.062 A 
HETATM   15  C12 UNL     1      14.570  -8.807   0.445  1.00  0.00     0.048 C 
HETATM   16  C13 UNL     1      12.789  -7.052   0.214  1.00  0.00     0.007 A 
HETATM   17  C14 UNL     1      11.578  -6.577  -0.306  1.00  0.00     0.017 A 
ENDBRANCH   8  11
ENDBRANCH   5   7
BRANCH   4  18
HETATM   18  O4  UNL     1       7.834  -3.230  -0.753  1.00  0.00    -0.391 OA
ATOM     19  H4  UNL     1       8.186  -3.427   0.106  1.00  0.00     0.210 HD
ENDBRANCH   4  18
BRANCH   6  20
HETATM   20  O6  UNL     1       9.043  -3.648  -3.297  1.00  0.00    -0.305 OA
BRANCH  20  21
HETATM   21  C16 UNL     1      10.164  -3.472  -4.045  1.00  0.00     0.293 C 
HETATM   22  O7  UNL     1      10.190  -2.557  -4.865  1.00  0.00    -0.259 OA
BRANCH  21  23
HETATM   23  C17 UNL     1      11.302  -4.356  -3.869  1.00  0.00     0.039 A 
HETATM   24  C18 UNL     1      12.338  -3.972  -3.028  1.00  0.00     0.018 A 
HETATM   25  C19 UNL     1      13.424  -4.798  -2.850  1.00  0.00     0.007 A 
HETATM   26  C20 UNL     1      13.495  -6.027  -3.510  1.00  0.00    -0.062 A 
HETATM   27  C21 UNL     1      14.670  -6.898  -3.304  1.00  0.00     0.048 C 
HETATM   28  C22 UNL     1      12.447  -6.373  -4.336  1.00  0.00     0.007 A 
HETATM   29  C23 UNL     1      11.350  -5.574  -4.537  1.00  0.00     0.018 A 
ENDBRANCH  21  23
ENDBRANCH  20  21
ENDBRANCH   6  20
BRANCH   3  30
HETATM   30  C4  UNL     1       5.020  -2.717  -1.166  1.00  0.00     0.198 C 
BRANCH  30  31
HETATM   31  O3  UNL     1       5.019  -3.081   0.163  1.00  0.00    -0.398 OA
ATOM     32  H3  UNL     1       5.421  -2.398   0.687  1.00  0.00     0.209 HD
ENDBRANCH  30  31
ENDBRANCH   3  30
BRANCH   1  33
HETATM   33  O1  UNL     1       6.722  -3.573  -5.267  1.00  0.00    -0.363 OA
HETATM   34  C1  UNL     1       6.580  -2.214  -5.387  1.00  0.00     0.204 C 
ENDBRANCH   1  33
TORSDOF 9
ENDMDL
