MODEL 10
REMARK VINA RESULT: -6.342600121      0.828      1.178
REMARK  9 active torsions:
REMARK  status: ('A' for Active; 'I' for Inactive)
REMARK    1  A    between atoms: O1_2  and  C2_3 
REMARK    2  A    between atoms: C3_5  and  C4_6 
REMARK    3  A    between atoms: C4_6  and  O3_7 
REMARK    4  A    between atoms: C5_9  and  O4_10 
REMARK    5  A    between atoms: C6_12  and  N1_13 
REMARK       I    between atoms: N1_13  and  C7_15 
REMARK    6  A    between atoms: C7_15  and  C8_17 
REMARK    7  A    between atoms: C15_24  and  O6_25 
REMARK    8  A    between atoms: O6_25  and  C16_26 
REMARK    9  A    between atoms: C16_26  and  C17_28 
ROOT
HETATM    1  C2  UNL     1      20.078  -9.294  -2.113  1.00  0.00     0.291 C 
HETATM    2  O2  UNL     1      20.899  -8.383  -1.432  1.00  0.00    -0.349 OA
HETATM    3  C3  UNL     1      20.302  -7.139  -1.533  1.00  0.00     0.179 C 
HETATM    4  C5  UNL     1      19.033  -7.094  -0.743  1.00  0.00     0.174 C 
HETATM    5  C6  UNL     1      18.115  -8.172  -1.252  1.00  0.00     0.150 C 
HETATM    6  C15 UNL     1      18.843  -9.516  -1.333  1.00  0.00     0.212 C 
ENDROOT
BRANCH   5   7
HETATM    7  N1  UNL     1      16.933  -8.332  -0.411  1.00  0.00    -0.347 N 
HETATM    8  C7  UNL     1      15.622  -8.221  -0.901  1.00  0.00     0.252 C 
HETATM    9  O5  UNL     1      15.486  -7.969  -2.134  1.00  0.00    -0.268 OA
ATOM     10  H1  UNL     1      17.065  -8.535   0.580  1.00  0.00     0.163 HD
BRANCH   8  11
HETATM   11  C8  UNL     1      14.414  -8.377  -0.085  1.00  0.00     0.032 A 
HETATM   12  C9  UNL     1      13.186  -8.622  -0.674  1.00  0.00     0.017 A 
HETATM   13  C10 UNL     1      12.026  -8.775   0.058  1.00  0.00     0.007 A 
HETATM   14  C11 UNL     1      12.051  -8.686   1.427  1.00  0.00    -0.062 A 
HETATM   15  C12 UNL     1      10.794  -8.852   2.217  1.00  0.00     0.048 C 
HETATM   16  C13 UNL     1      13.264  -8.443   2.032  1.00  0.00     0.007 A 
HETATM   17  C14 UNL     1      14.442  -8.288   1.289  1.00  0.00     0.017 A 
ENDBRANCH   8  11
ENDBRANCH   5   7
BRANCH   4  18
HETATM   18  O4  UNL     1      19.268  -7.232   0.626  1.00  0.00    -0.391 OA
ATOM     19  H4  UNL     1      19.287  -6.392   1.068  1.00  0.00     0.210 HD
ENDBRANCH   4  18
BRANCH   6  20
HETATM   20  O6  UNL     1      18.967  -9.984  -0.041  1.00  0.00    -0.305 OA
BRANCH  20  21
HETATM   21  C16 UNL     1      18.882 -11.265   0.407  1.00  0.00     0.293 C 
HETATM   22  O7  UNL     1      19.415 -12.157  -0.249  1.00  0.00    -0.259 OA
BRANCH  21  23
HETATM   23  C17 UNL     1      18.171 -11.559   1.638  1.00  0.00     0.039 A 
HETATM   24  C18 UNL     1      18.586 -12.625   2.425  1.00  0.00     0.018 A 
HETATM   25  C19 UNL     1      17.923 -12.918   3.594  1.00  0.00     0.007 A 
HETATM   26  C20 UNL     1      16.830 -12.148   4.001  1.00  0.00    -0.062 A 
HETATM   27  C21 UNL     1      16.134 -12.481   5.260  1.00  0.00     0.048 C 
HETATM   28  C22 UNL     1      16.449 -11.099   3.193  1.00  0.00     0.007 A 
HETATM   29  C23 UNL     1      17.086 -10.779   2.021  1.00  0.00     0.018 A 
ENDBRANCH  21  23
ENDBRANCH  20  21
ENDBRANCH   6  20
BRANCH   3  30
HETATM   30  C4  UNL     1      21.311  -6.109  -1.080  1.00  0.00     0.198 C 
BRANCH  30  31
HETATM   31  O3  UNL     1      20.673  -5.084  -0.416  1.00  0.00    -0.398 OA
ATOM     32  H3  UNL     1      21.287  -4.383  -0.235  1.00  0.00     0.209 HD
ENDBRANCH  30  31
ENDBRANCH   3  30
BRANCH   1  33
HETATM   33  O1  UNL     1      20.816 -10.397  -2.425  1.00  0.00    -0.363 OA
HETATM   34  C1  UNL     1      21.714 -10.249  -3.450  1.00  0.00     0.204 C 
ENDBRANCH   1  33
TORSDOF 9
ENDMDL
