MODEL 1
REMARK VINA RESULT: -7.452259691      0.000      0.000
REMARK  9 active torsions:
REMARK  status: ('A' for Active; 'I' for Inactive)
REMARK    1  A    between atoms: O1_2  and  C2_3 
REMARK    2  A    between atoms: C3_5  and  C4_6 
REMARK    3  A    between atoms: C4_6  and  O3_7 
REMARK    4  A    between atoms: C5_9  and  O4_10 
REMARK    5  A    between atoms: C6_12  and  N1_13 
REMARK       I    between atoms: N1_13  and  C7_15 
REMARK    6  A    between atoms: C7_15  and  C8_17 
REMARK    7  A    between atoms: C15_24  and  O6_25 
REMARK    8  A    between atoms: O6_25  and  C16_26 
REMARK    9  A    between atoms: C16_26  and  C17_28 
ROOT
HETATM    1  C2  UNL     1      19.769  -8.849  -1.680  1.00  0.00     0.291 C 
HETATM    2  O2  UNL     1      20.391  -7.905  -0.849  1.00  0.00    -0.349 OA
HETATM    3  C3  UNL     1      19.662  -6.733  -0.945  1.00  0.00     0.179 C 
HETATM    4  C5  UNL     1      18.314  -6.891  -0.316  1.00  0.00     0.174 C 
HETATM    5  C6  UNL     1      17.599  -8.025  -1.000  1.00  0.00     0.150 C 
HETATM    6  C15 UNL     1      18.489  -9.268  -1.073  1.00  0.00     0.212 C 
ENDROOT
BRANCH   5   7
HETATM    7  N1  UNL     1      16.356  -8.381  -0.323  1.00  0.00    -0.347 N 
HETATM    8  C7  UNL     1      15.119  -7.795  -0.633  1.00  0.00     0.252 C 
HETATM    9  O5  UNL     1      15.107  -6.919  -1.546  1.00  0.00    -0.268 OA
ATOM     10  H1  UNL     1      16.388  -9.090   0.411  1.00  0.00     0.163 HD
BRANCH   8  11
HETATM   11  C8  UNL     1      13.853  -8.130   0.027  1.00  0.00     0.032 A 
HETATM   12  C9  UNL     1      13.806  -8.386   1.386  1.00  0.00     0.017 A 
HETATM   13  C10 UNL     1      12.635  -8.704   2.044  1.00  0.00     0.007 A 
HETATM   14  C11 UNL     1      11.450  -8.781   1.358  1.00  0.00    -0.062 A 
HETATM   15  C12 UNL     1      10.184  -9.126   2.072  1.00  0.00     0.048 C 
HETATM   16  C13 UNL     1      11.476  -8.530   0.004  1.00  0.00     0.007 A 
HETATM   17  C14 UNL     1      12.664  -8.207  -0.665  1.00  0.00     0.017 A 
ENDBRANCH   8  11
ENDBRANCH   5   7
BRANCH   4  18
HETATM   18  O4  UNL     1      18.406  -7.106   1.060  1.00  0.00    -0.391 OA
ATOM     19  H4  UNL     1      17.644  -6.775   1.520  1.00  0.00     0.210 HD
ENDBRANCH   4  18
BRANCH   6  20
HETATM   20  O6  UNL     1      18.520  -9.816   0.192  1.00  0.00    -0.305 OA
BRANCH  20  21
HETATM   21  C16 UNL     1      18.502 -11.128   0.548  1.00  0.00     0.293 C 
HETATM   22  O7  UNL     1      18.983 -11.955  -0.224  1.00  0.00    -0.259 OA
BRANCH  21  23
HETATM   23  C17 UNL     1      17.922 -11.530   1.816  1.00  0.00     0.039 A 
HETATM   24  C18 UNL     1      18.480 -12.595   2.511  1.00  0.00     0.018 A 
HETATM   25  C19 UNL     1      17.942 -12.990   3.715  1.00  0.00     0.007 A 
HETATM   26  C20 UNL     1      16.835 -12.325   4.248  1.00  0.00    -0.062 A 
HETATM   27  C21 UNL     1      16.275 -12.766   5.542  1.00  0.00     0.048 C 
HETATM   28  C22 UNL     1      16.310 -11.274   3.528  1.00  0.00     0.007 A 
HETATM   29  C23 UNL     1      16.820 -10.854   2.326  1.00  0.00     0.018 A 
ENDBRANCH  21  23
ENDBRANCH  20  21
ENDBRANCH   6  20
BRANCH   3  30
HETATM   30  C4  UNL     1      20.480  -5.633  -0.309  1.00  0.00     0.198 C 
BRANCH  30  31
HETATM   31  O3  UNL     1      21.018  -6.075   0.881  1.00  0.00    -0.398 OA
ATOM     32  H3  UNL     1      20.457  -5.822   1.604  1.00  0.00     0.209 HD
ENDBRANCH  30  31
ENDBRANCH   3  30
BRANCH   1  33
HETATM   33  O1  UNL     1      20.667  -9.835  -1.966  1.00  0.00    -0.363 OA
HETATM   34  C1  UNL     1      21.798  -9.861  -1.192  1.00  0.00     0.204 C 
ENDBRANCH   1  33
TORSDOF 9
ENDMDL
