MODEL 2
REMARK VINA RESULT: -7.110367445      1.920      6.400
REMARK  9 active torsions:
REMARK  status: ('A' for Active; 'I' for Inactive)
REMARK    1  A    between atoms: O1_2  and  C2_3 
REMARK    2  A    between atoms: C3_5  and  C4_6 
REMARK    3  A    between atoms: C4_6  and  O3_7 
REMARK    4  A    between atoms: C5_9  and  O4_10 
REMARK    5  A    between atoms: C6_12  and  N1_13 
REMARK       I    between atoms: N1_13  and  C7_15 
REMARK    6  A    between atoms: C7_15  and  C8_17 
REMARK    7  A    between atoms: C15_24  and  O6_25 
REMARK    8  A    between atoms: O6_25  and  C16_26 
REMARK    9  A    between atoms: C16_26  and  C17_28 
ROOT
HETATM    1  C2  UNL     1      14.417  -8.505   1.082  1.00  0.00     0.291 C 
HETATM    2  O2  UNL     1      13.581  -9.198   0.194  1.00  0.00    -0.349 OA
HETATM    3  C3  UNL     1      13.582  -8.498  -0.999  1.00  0.00     0.179 C 
HETATM    4  C5  UNL     1      14.917  -8.585  -1.666  1.00  0.00     0.174 C 
HETATM    5  C6  UNL     1      15.957  -8.041  -0.725  1.00  0.00     0.150 C 
HETATM    6  C15 UNL     1      15.824  -8.674   0.662  1.00  0.00     0.212 C 
ENDROOT
BRANCH   5   7
HETATM    7  N1  UNL     1      17.314  -8.268  -1.212  1.00  0.00    -0.347 N 
HETATM    8  C7  UNL     1      18.348  -7.329  -1.066  1.00  0.00     0.252 C 
HETATM    9  O5  UNL     1      18.064  -6.243  -0.482  1.00  0.00    -0.268 OA
ATOM     10  H1  UNL     1      17.521  -9.150  -1.680  1.00  0.00     0.163 HD
BRANCH   8  11
HETATM   11  C8  UNL     1      19.721  -7.526  -1.543  1.00  0.00     0.032 A 
HETATM   12  C9  UNL     1      20.741  -6.683  -1.136  1.00  0.00     0.017 A 
HETATM   13  C10 UNL     1      22.045  -6.834  -1.561  1.00  0.00     0.007 A 
HETATM   14  C11 UNL     1      22.384  -7.847  -2.422  1.00  0.00    -0.062 A 
HETATM   15  C12 UNL     1      23.796  -8.008  -2.880  1.00  0.00     0.048 C 
HETATM   16  C13 UNL     1      21.382  -8.697  -2.838  1.00  0.00     0.007 A 
HETATM   17  C14 UNL     1      20.058  -8.544  -2.407  1.00  0.00     0.017 A 
ENDBRANCH   8  11
ENDBRANCH   5   7
BRANCH   4  18
HETATM   18  O4  UNL     1      15.219  -9.891  -2.055  1.00  0.00    -0.391 OA
ATOM     19  H4  UNL     1      16.020 -10.204  -1.652  1.00  0.00     0.210 HD
ENDBRANCH   4  18
BRANCH   6  20
HETATM   20  O6  UNL     1      16.323  -9.957   0.569  1.00  0.00    -0.305 OA
BRANCH  20  21
HETATM   21  C16 UNL     1      17.461 -10.464   1.112  1.00  0.00     0.293 C 
HETATM   22  O7  UNL     1      18.538 -10.194   0.585  1.00  0.00    -0.259 OA
BRANCH  21  23
HETATM   23  C17 UNL     1      17.392 -11.308   2.291  1.00  0.00     0.039 A 
HETATM   24  C18 UNL     1      18.327 -12.320   2.458  1.00  0.00     0.018 A 
HETATM   25  C19 UNL     1      18.275 -13.129   3.570  1.00  0.00     0.007 A 
HETATM   26  C20 UNL     1      17.286 -12.941   4.538  1.00  0.00    -0.062 A 
HETATM   27  C21 UNL     1      17.250 -13.821   5.724  1.00  0.00     0.048 C 
HETATM   28  C22 UNL     1      16.376 -11.926   4.336  1.00  0.00     0.007 A 
HETATM   29  C23 UNL     1      16.398 -11.101   3.240  1.00  0.00     0.018 A 
ENDBRANCH  21  23
ENDBRANCH  20  21
ENDBRANCH   6  20
BRANCH   3  30
HETATM   30  C4  UNL     1      12.462  -9.049  -1.852  1.00  0.00     0.198 C 
BRANCH  30  31
HETATM   31  O3  UNL     1      12.436 -10.424  -1.762  1.00  0.00    -0.398 OA
ATOM     32  H3  UNL     1      11.609 -10.709  -1.391  1.00  0.00     0.209 HD
ENDBRANCH  30  31
ENDBRANCH   3  30
BRANCH   1  33
HETATM   33  O1  UNL     1      14.106  -8.880   2.356  1.00  0.00    -0.363 OA
HETATM   34  C1  UNL     1      12.838  -8.573   2.779  1.00  0.00     0.204 C 
ENDBRANCH   1  33
TORSDOF 9
ENDMDL
