MODEL 20
REMARK VINA RESULT: -6.046198119      1.336      1.789
REMARK  9 active torsions:
REMARK  status: ('A' for Active; 'I' for Inactive)
REMARK    1  A    between atoms: O1_2  and  C2_3 
REMARK    2  A    between atoms: C3_5  and  C4_6 
REMARK    3  A    between atoms: C4_6  and  O3_7 
REMARK    4  A    between atoms: C5_9  and  O4_10 
REMARK    5  A    between atoms: C6_12  and  N1_13 
REMARK       I    between atoms: N1_13  and  C7_15 
REMARK    6  A    between atoms: C7_15  and  C8_17 
REMARK    7  A    between atoms: C15_24  and  O6_25 
REMARK    8  A    between atoms: O6_25  and  C16_26 
REMARK    9  A    between atoms: C16_26  and  C17_28 
ROOT
HETATM    1  C2  UNL     1      19.623  -9.151  -1.594  1.00  0.00     0.291 C 
HETATM    2  O2  UNL     1      20.246  -8.151  -0.831  1.00  0.00    -0.349 OA
HETATM    3  C3  UNL     1      19.512  -6.990  -1.000  1.00  0.00     0.179 C 
HETATM    4  C5  UNL     1      18.169  -7.112  -0.353  1.00  0.00     0.174 C 
HETATM    5  C6  UNL     1      17.454  -8.291  -0.955  1.00  0.00     0.150 C 
HETATM    6  C15 UNL     1      18.349  -9.533  -0.952  1.00  0.00     0.212 C 
ENDROOT
BRANCH   5   7
HETATM    7  N1  UNL     1      16.217  -8.606  -0.247  1.00  0.00    -0.347 N 
HETATM    8  C7  UNL     1      14.979  -8.031  -0.574  1.00  0.00     0.252 C 
HETATM    9  O5  UNL     1      14.961  -7.203  -1.531  1.00  0.00    -0.268 OA
ATOM     10  H1  UNL     1      16.254  -9.276   0.521  1.00  0.00     0.163 HD
BRANCH   8  11
HETATM   11  C8  UNL     1      13.719  -8.326   0.115  1.00  0.00     0.032 A 
HETATM   12  C9  UNL     1      12.568  -8.610  -0.599  1.00  0.00     0.017 A 
HETATM   13  C10 UNL     1      11.363  -8.892   0.011  1.00  0.00     0.007 A 
HETATM   14  C11 UNL     1      11.261  -8.901   1.380  1.00  0.00    -0.062 A 
HETATM   15  C12 UNL     1       9.956  -9.207   2.038  1.00  0.00     0.048 C 
HETATM   16  C13 UNL     1      12.396  -8.621   2.109  1.00  0.00     0.007 A 
HETATM   17  C14 UNL     1      13.620  -8.334   1.490  1.00  0.00     0.017 A 
ENDBRANCH   8  11
ENDBRANCH   5   7
BRANCH   4  18
HETATM   18  O4  UNL     1      18.270  -7.234   1.034  1.00  0.00    -0.391 OA
ATOM     19  H4  UNL     1      17.567  -6.779   1.481  1.00  0.00     0.210 HD
ENDBRANCH   4  18
BRANCH   6  20
HETATM   20  O6  UNL     1      18.390  -9.995   0.347  1.00  0.00    -0.305 OA
BRANCH  20  21
HETATM   21  C16 UNL     1      18.833 -11.196   0.804  1.00  0.00     0.293 C 
HETATM   22  O7  UNL     1      20.035 -11.342   1.016  1.00  0.00    -0.259 OA
BRANCH  21  23
HETATM   23  C17 UNL     1      17.893 -12.279   1.032  1.00  0.00     0.039 A 
HETATM   24  C18 UNL     1      17.286 -12.402   2.275  1.00  0.00     0.018 A 
HETATM   25  C19 UNL     1      16.393 -13.423   2.508  1.00  0.00     0.007 A 
HETATM   26  C20 UNL     1      16.088 -14.341   1.500  1.00  0.00    -0.062 A 
HETATM   27  C21 UNL     1      15.126 -15.428   1.773  1.00  0.00     0.048 C 
HETATM   28  C22 UNL     1      16.711 -14.185   0.281  1.00  0.00     0.007 A 
HETATM   29  C23 UNL     1      17.606 -13.181   0.014  1.00  0.00     0.018 A 
ENDBRANCH  21  23
ENDBRANCH  20  21
ENDBRANCH   6  20
BRANCH   3  30
HETATM   30  C4  UNL     1      20.330  -5.848  -0.444  1.00  0.00     0.198 C 
BRANCH  30  31
HETATM   31  O3  UNL     1      20.913  -6.223   0.748  1.00  0.00    -0.398 OA
ATOM     32  H3  UNL     1      21.700  -5.714   0.898  1.00  0.00     0.209 HD
ENDBRANCH  30  31
ENDBRANCH   3  30
BRANCH   1  33
HETATM   33  O1  UNL     1      20.523 -10.150  -1.820  1.00  0.00    -0.363 OA
HETATM   34  C1  UNL     1      21.845  -9.788  -1.781  1.00  0.00     0.204 C 
ENDBRANCH   1  33
TORSDOF 9
ENDMDL
