MODEL 6
REMARK VINA RESULT: -6.428768135      6.029      9.536
REMARK  9 active torsions:
REMARK  status: ('A' for Active; 'I' for Inactive)
REMARK    1  A    between atoms: O1_2  and  C2_3 
REMARK    2  A    between atoms: C3_5  and  C4_6 
REMARK    3  A    between atoms: C4_6  and  O3_7 
REMARK    4  A    between atoms: C5_9  and  O4_10 
REMARK    5  A    between atoms: C6_12  and  N1_13 
REMARK       I    between atoms: N1_13  and  C7_15 
REMARK    6  A    between atoms: C7_15  and  C8_17 
REMARK    7  A    between atoms: C15_24  and  O6_25 
REMARK    8  A    between atoms: O6_25  and  C16_26 
REMARK    9  A    between atoms: C16_26  and  C17_28 
ROOT
HETATM    1  C2  UNL     1       9.381  -9.546   1.087  1.00  0.00     0.291 C 
HETATM    2  O2  UNL     1       9.041 -10.776   0.501  1.00  0.00    -0.349 OA
HETATM    3  C3  UNL     1       7.897 -10.569  -0.250  1.00  0.00     0.179 C 
HETATM    4  C5  UNL     1       8.190  -9.707  -1.437  1.00  0.00     0.174 C 
HETATM    5  C6  UNL     1       8.755  -8.400  -0.950  1.00  0.00     0.150 C 
HETATM    6  C15 UNL     1       9.895  -8.634   0.045  1.00  0.00     0.212 C 
ENDROOT
BRANCH   5   7
HETATM    7  N1  UNL     1       9.254  -7.573  -2.044  1.00  0.00    -0.347 N 
HETATM    8  C7  UNL     1       9.229  -6.170  -2.017  1.00  0.00     0.252 C 
HETATM    9  O5  UNL     1       8.746  -5.620  -0.985  1.00  0.00    -0.268 OA
ATOM     10  H1  UNL     1       9.639  -8.037  -2.867  1.00  0.00     0.163 HD
BRANCH   8  11
HETATM   11  C8  UNL     1       9.722  -5.310  -3.098  1.00  0.00     0.032 A 
HETATM   12  C9  UNL     1       9.943  -3.960  -2.887  1.00  0.00     0.017 A 
HETATM   13  C10 UNL     1      10.406  -3.118  -3.877  1.00  0.00     0.007 A 
HETATM   14  C11 UNL     1      10.669  -3.599  -5.134  1.00  0.00    -0.062 A 
HETATM   15  C12 UNL     1      11.170  -2.685  -6.204  1.00  0.00     0.048 C 
HETATM   16  C13 UNL     1      10.455  -4.941  -5.364  1.00  0.00     0.007 A 
HETATM   17  C14 UNL     1       9.985  -5.797  -4.360  1.00  0.00     0.017 A 
ENDBRANCH   8  11
ENDBRANCH   5   7
BRANCH   4  18
HETATM   18  O4  UNL     1       9.059 -10.333  -2.332  1.00  0.00    -0.391 OA
ATOM     19  H4  UNL     1       9.788  -9.772  -2.566  1.00  0.00     0.210 HD
ENDBRANCH   4  18
BRANCH   6  20
HETATM   20  O6  UNL     1      10.991  -9.039  -0.688  1.00  0.00    -0.305 OA
BRANCH  20  21
HETATM   21  C16 UNL     1      12.270  -8.584  -0.619  1.00  0.00     0.293 C 
HETATM   22  O7  UNL     1      13.047  -9.124   0.165  1.00  0.00    -0.259 OA
BRANCH  21  23
HETATM   23  C17 UNL     1      12.696  -7.481  -1.461  1.00  0.00     0.039 A 
HETATM   24  C18 UNL     1      12.988  -7.720  -2.798  1.00  0.00     0.018 A 
HETATM   25  C19 UNL     1      13.394  -6.685  -3.609  1.00  0.00     0.007 A 
HETATM   26  C20 UNL     1      13.515  -5.390  -3.100  1.00  0.00    -0.062 A 
HETATM   27  C21 UNL     1      13.952  -4.295  -3.990  1.00  0.00     0.048 C 
HETATM   28  C22 UNL     1      13.216  -5.194  -1.769  1.00  0.00     0.007 A 
HETATM   29  C23 UNL     1      12.810  -6.202  -0.931  1.00  0.00     0.018 A 
ENDBRANCH  21  23
ENDBRANCH  20  21
ENDBRANCH   6  20
BRANCH   3  30
HETATM   30  C4  UNL     1       7.350 -11.925  -0.631  1.00  0.00     0.198 C 
BRANCH  30  31
HETATM   31  O3  UNL     1       8.387 -12.806  -0.851  1.00  0.00    -0.398 OA
ATOM     32  H3  UNL     1       8.770 -12.650  -1.706  1.00  0.00     0.209 HD
ENDBRANCH  30  31
ENDBRANCH   3  30
BRANCH   1  33
HETATM   33  O1  UNL     1      10.195  -9.783   2.155  1.00  0.00    -0.363 OA
HETATM   34  C1  UNL     1      10.660  -8.674   2.813  1.00  0.00     0.204 C 
ENDBRANCH   1  33
TORSDOF 9
ENDMDL
