MODEL 18
REMARK VINA RESULT: -4.939668632      2.225      4.240
REMARK  5 active torsions:
REMARK  status: ('A' for Active; 'I' for Inactive)
REMARK    1  A    between atoms: C2_4  and  C3_5 
REMARK    2  A    between atoms: C3_5  and  O3_6 
REMARK    3  A    between atoms: C4_8  and  O4_9 
REMARK    4  A    between atoms: C5_11  and  O5_12 
REMARK    5  A    between atoms: C6_14  and  O6_15 
ROOT
HETATM    1  O1  UNL     1     -11.660 -28.326 -26.009  1.00  0.00    -0.262 OA
HETATM    2  C1  UNL     1     -12.872 -28.088 -25.685  1.00  0.00     0.291 C 
HETATM    3  O2  UNL     1     -13.250 -26.905 -25.084  1.00  0.00    -0.309 OA
HETATM    4  C2  UNL     1     -14.499 -26.309 -25.338  1.00  0.00     0.186 C 
HETATM    5  C4  UNL     1     -15.580 -27.341 -25.396  1.00  0.00     0.181 C 
HETATM    6  C5  UNL     1     -15.154 -28.377 -26.434  1.00  0.00     0.188 C 
HETATM    7  C6  UNL     1     -13.925 -29.101 -25.954  1.00  0.00     0.248 C 
ENDROOT
BRANCH   4   8
HETATM    8  C3  UNL     1     -14.775 -25.219 -24.335  1.00  0.00     0.199 C 
BRANCH   8   9
HETATM    9  O3  UNL     1     -14.788 -25.681 -23.034  1.00  0.00    -0.398 OA
ATOM     10  H3  UNL     1     -14.953 -24.992 -22.401  1.00  0.00     0.209 HD
ENDBRANCH   8   9
ENDBRANCH   4   8
BRANCH   5  11
HETATM   11  O4  UNL     1     -15.822 -27.940 -24.163  1.00  0.00    -0.390 OA
ATOM     12  H4  UNL     1     -15.887 -27.312 -23.453  1.00  0.00     0.210 HD
ENDBRANCH   5  11
BRANCH   6  13
HETATM   13  O5  UNL     1     -16.195 -29.221 -26.748  1.00  0.00    -0.390 OA
ATOM     14  H5  UNL     1     -17.034 -28.792 -26.623  1.00  0.00     0.210 HD
ENDBRANCH   6  13
BRANCH   7  15
HETATM   15  O6  UNL     1     -13.509 -29.960 -26.969  1.00  0.00    -0.383 OA
ATOM     16  H6  UNL     1     -12.689 -29.653 -27.337  1.00  0.00     0.210 HD
ENDBRANCH   7  15
TORSDOF 5
ENDMDL
