MODEL 20
REMARK VINA RESULT: -4.915470176      2.895      4.500
REMARK  5 active torsions:
REMARK  status: ('A' for Active; 'I' for Inactive)
REMARK    1  A    between atoms: C2_4  and  C3_5 
REMARK    2  A    between atoms: C3_5  and  O3_6 
REMARK    3  A    between atoms: C4_8  and  O4_9 
REMARK    4  A    between atoms: C5_11  and  O5_12 
REMARK    5  A    between atoms: C6_14  and  O6_15 
ROOT
HETATM    1  O1  UNL     1     -17.611 -30.203 -25.217  1.00  0.00    -0.262 OA
HETATM    2  C1  UNL     1     -16.730 -29.279 -25.235  1.00  0.00     0.291 C 
HETATM    3  O2  UNL     1     -15.560 -29.397 -25.957  1.00  0.00    -0.309 OA
HETATM    4  C2  UNL     1     -14.952 -28.287 -26.572  1.00  0.00     0.186 C 
HETATM    5  C4  UNL     1     -15.001 -27.089 -25.678  1.00  0.00     0.181 C 
HETATM    6  C5  UNL     1     -16.466 -26.875 -25.299  1.00  0.00     0.188 C 
HETATM    7  C6  UNL     1     -16.948 -28.029 -24.461  1.00  0.00     0.248 C 
ENDROOT
BRANCH   4   8
HETATM    8  C3  UNL     1     -13.554 -28.633 -27.018  1.00  0.00     0.199 C 
BRANCH   8   9
HETATM    9  O3  UNL     1     -13.330 -29.995 -27.064  1.00  0.00    -0.398 OA
ATOM     10  H3  UNL     1     -14.053 -30.473 -27.450  1.00  0.00     0.209 HD
ENDBRANCH   8   9
ENDBRANCH   4   8
BRANCH   5  11
HETATM   11  O4  UNL     1     -14.208 -27.228 -24.543  1.00  0.00    -0.390 OA
ATOM     12  H4  UNL     1     -14.131 -26.423 -24.045  1.00  0.00     0.210 HD
ENDBRANCH   5  11
BRANCH   6  13
HETATM   13  O5  UNL     1     -16.647 -25.651 -24.695  1.00  0.00    -0.390 OA
ATOM     14  H5  UNL     1     -16.685 -24.954 -25.339  1.00  0.00     0.210 HD
ENDBRANCH   6  13
BRANCH   7  15
HETATM   15  O6  UNL     1     -18.309 -27.848 -24.226  1.00  0.00    -0.383 OA
ATOM     16  H6  UNL     1     -18.518 -26.921 -24.231  1.00  0.00     0.210 HD
ENDBRANCH   7  15
TORSDOF 5
ENDMDL
