MODEL 15
REMARK VINA RESULT: -5.066133590      1.760      3.673
REMARK  5 active torsions:
REMARK  status: ('A' for Active; 'I' for Inactive)
REMARK    1  A    between atoms: C2_4  and  C3_5 
REMARK    2  A    between atoms: C3_5  and  O3_6 
REMARK    3  A    between atoms: C4_8  and  O4_9 
REMARK    4  A    between atoms: C5_11  and  O5_12 
REMARK    5  A    between atoms: C6_14  and  O6_15 
ROOT
HETATM    1  O1  UNL     1     -12.707 -25.885 -25.165  1.00  0.00    -0.262 OA
HETATM    2  C1  UNL     1     -12.318 -26.937 -25.776  1.00  0.00     0.291 C 
HETATM    3  O2  UNL     1     -12.771 -27.258 -27.039  1.00  0.00    -0.309 OA
HETATM    4  C2  UNL     1     -11.947 -27.901 -27.982  1.00  0.00     0.186 C 
HETATM    5  C4  UNL     1     -11.130 -28.972 -27.332  1.00  0.00     0.181 C 
HETATM    6  C5  UNL     1     -10.373 -28.318 -26.178  1.00  0.00     0.188 C 
HETATM    7  C6  UNL     1     -11.349 -27.857 -25.128  1.00  0.00     0.248 C 
ENDROOT
BRANCH   4   8
HETATM    8  C3  UNL     1     -12.769 -28.406 -29.141  1.00  0.00     0.199 C 
BRANCH   8   9
HETATM    9  O3  UNL     1     -12.048 -29.218 -29.993  1.00  0.00    -0.398 OA
ATOM     10  H3  UNL     1     -12.096 -28.934 -30.898  1.00  0.00     0.209 HD
ENDBRANCH   8   9
ENDBRANCH   4   8
BRANCH   5  11
HETATM   11  O4  UNL     1     -11.898 -30.041 -26.882  1.00  0.00    -0.390 OA
ATOM     12  H4  UNL     1     -12.505 -30.363 -27.539  1.00  0.00     0.210 HD
ENDBRANCH   5  11
BRANCH   6  13
HETATM   13  O5  UNL     1      -9.400 -29.157 -25.685  1.00  0.00    -0.390 OA
ATOM     14  H5  UNL     1      -8.941 -28.758 -24.955  1.00  0.00     0.210 HD
ENDBRANCH   6  13
BRANCH   7  15
HETATM   15  O6  UNL     1     -10.632 -27.176 -24.146  1.00  0.00    -0.383 OA
ATOM     16  H6  UNL     1      -9.986 -27.755 -23.757  1.00  0.00     0.210 HD
ENDBRANCH   7  15
TORSDOF 5
ENDMDL
