MODEL 4
REMARK VINA RESULT: -6.881798008      0.944      1.129
REMARK  5 active torsions:
REMARK  status: ('A' for Active; 'I' for Inactive)
REMARK    1  A    between atoms: C1_2  and  C2_4 
REMARK    2  A    between atoms: C2_4  and  C3_5 
REMARK    3  A    between atoms: C3_5  and  C4_6 
REMARK    4  A    between atoms: C4_6  and  C5_7 
REMARK    5  A    between atoms: C5_7  and  C6_8 
ROOT
HETATM    1  C6  UNL     1      -9.753 -25.880  -0.439  1.00  0.00     0.072 C 
HETATM    2  S1  UNL     1      -9.549 -27.688  -0.186  1.00  0.00    -0.160 SA
HETATM    3  C7  UNL     1      -8.179 -27.955  -1.377  1.00  0.00     0.101 C 
HETATM    4  C8  UNL     1      -8.136 -26.649  -2.087  1.00  0.00     0.119 C 
HETATM    5  N1  UNL     1      -6.721 -26.356  -2.358  1.00  0.00    -0.336 N 
ATOM      6  H1  UNL     1      -6.218 -26.469  -3.238  1.00  0.00     0.164 HD
HETATM    7  C9  UNL     1      -6.212 -25.880  -1.119  1.00  0.00     0.316 C 
HETATM    8  O3  UNL     1      -4.980 -25.806  -0.845  1.00  0.00    -0.247 OA
HETATM    9  N2  UNL     1      -7.321 -25.517  -0.273  1.00  0.00    -0.335 N 
ATOM     10  H2  UNL     1      -7.292 -25.284   0.720  1.00  0.00     0.164 HD
HETATM   11  C10 UNL     1      -8.471 -25.552  -1.123  1.00  0.00     0.123 C 
ENDROOT
BRANCH   1  12
HETATM   12  C5  UNL     1      -9.958 -25.179   0.856  1.00  0.00     0.017 C 
BRANCH  12  13
HETATM   13  C4  UNL     1      -9.967 -26.205   1.962  1.00  0.00     0.002 C 
BRANCH  13  14
HETATM   14  C3  UNL     1      -9.665 -25.617   3.308  1.00  0.00     0.010 C 
BRANCH  14  15
HETATM   15  C2  UNL     1      -9.376 -26.682   4.334  1.00  0.00     0.113 C 
BRANCH  15  16
HETATM   16  C1  UNL     1      -8.122 -26.436   5.066  1.00  0.00     0.172 C 
HETATM   17  O1  UNL     1      -7.783 -27.134   6.043  1.00  0.00    -0.648 OA
HETATM   18  O2  UNL     1      -7.295 -25.413   4.668  1.00  0.00    -0.648 OA
ENDBRANCH  15  16
ENDBRANCH  14  15
ENDBRANCH  13  14
ENDBRANCH  12  13
ENDBRANCH   1  12
TORSDOF 5
ENDMDL
