MODEL 2
REMARK VINA RESULT: -7.049939054      2.547      5.887
REMARK  5 active torsions:
REMARK  status: ('A' for Active; 'I' for Inactive)
REMARK    1  A    between atoms: C1_2  and  C2_4 
REMARK    2  A    between atoms: C2_4  and  C3_5 
REMARK    3  A    between atoms: C3_5  and  C4_6 
REMARK    4  A    between atoms: C4_6  and  C5_7 
REMARK    5  A    between atoms: C5_7  and  C6_8 
ROOT
HETATM    1  C6  UNL     1      -8.463 -26.803   0.959  1.00  0.00     0.072 C 
HETATM    2  S1  UNL     1      -9.075 -25.084   0.753  1.00  0.00    -0.160 SA
HETATM    3  C7  UNL     1      -9.902 -24.916   2.383  1.00  0.00     0.101 C 
HETATM    4  C8  UNL     1      -9.863 -26.314   2.888  1.00  0.00     0.119 C 
HETATM    5  N1  UNL     1      -9.632 -26.239   4.338  1.00  0.00    -0.336 N 
ATOM      6  H1  UNL     1     -10.318 -26.345   5.085  1.00  0.00     0.164 HD
HETATM    7  C9  UNL     1      -8.239 -25.986   4.463  1.00  0.00     0.316 C 
HETATM    8  O3  UNL     1      -7.692 -25.558   5.520  1.00  0.00    -0.247 OA
HETATM    9  N2  UNL     1      -7.598 -26.297   3.210  1.00  0.00    -0.335 N 
ATOM     10  H2  UNL     1      -6.638 -26.084   2.936  1.00  0.00     0.164 HD
HETATM   11  C10 UNL     1      -8.595 -26.968   2.434  1.00  0.00     0.123 C 
ENDROOT
BRANCH   1  12
HETATM   12  C5  UNL     1      -7.075 -26.943   0.444  1.00  0.00     0.017 C 
BRANCH  12  13
HETATM   13  C4  UNL     1      -6.871 -25.938  -0.663  1.00  0.00     0.002 C 
BRANCH  13  14
HETATM   14  C3  UNL     1      -5.476 -25.952  -1.214  1.00  0.00     0.010 C 
BRANCH  14  15
HETATM   15  C2  UNL     1      -5.440 -25.529  -2.660  1.00  0.00     0.113 C 
BRANCH  15  16
HETATM   16  C1  UNL     1      -6.179 -26.452  -3.538  1.00  0.00     0.172 C 
HETATM   17  O1  UNL     1      -5.885 -27.662  -3.615  1.00  0.00    -0.648 OA
HETATM   18  O2  UNL     1      -7.221 -25.977  -4.295  1.00  0.00    -0.648 OA
ENDBRANCH  15  16
ENDBRANCH  14  15
ENDBRANCH  13  14
ENDBRANCH  12  13
ENDBRANCH   1  12
TORSDOF 5
ENDMDL
