MODEL 14
REMARK VINA RESULT: -6.351710236      2.581      5.793
REMARK  5 active torsions:
REMARK  status: ('A' for Active; 'I' for Inactive)
REMARK    1  A    between atoms: C1_2  and  C2_4 
REMARK    2  A    between atoms: C2_4  and  C3_5 
REMARK    3  A    between atoms: C3_5  and  C4_6 
REMARK    4  A    between atoms: C4_6  and  C5_7 
REMARK    5  A    between atoms: C5_7  and  C6_8 
ROOT
HETATM    1  C6  UNL     1      -7.826 -26.684   0.137  1.00  0.00     0.072 C 
HETATM    2  S1  UNL     1      -9.615 -26.349   0.385  1.00  0.00    -0.160 SA
HETATM    3  C7  UNL     1      -9.741 -26.932   2.121  1.00  0.00     0.101 C 
HETATM    4  C8  UNL     1      -8.422 -27.591   2.315  1.00  0.00     0.119 C 
HETATM    5  N1  UNL     1      -8.005 -27.313   3.697  1.00  0.00    -0.336 N 
ATOM      6  H1  UNL     1      -8.057 -27.937   4.502  1.00  0.00     0.164 HD
HETATM    7  C9  UNL     1      -7.512 -25.980   3.659  1.00  0.00     0.316 C 
HETATM    8  O3  UNL     1      -7.338 -25.262   4.686  1.00  0.00    -0.247 OA
HETATM    9  N2  UNL     1      -7.261 -25.619   2.286  1.00  0.00    -0.335 N 
ATOM     10  H2  UNL     1      -7.046 -24.691   1.919  1.00  0.00     0.164 HD
HETATM   11  C10 UNL     1      -7.377 -26.839   1.549  1.00  0.00     0.123 C 
ENDROOT
BRANCH   1  12
HETATM   12  C5  UNL     1      -7.171 -25.572  -0.600  1.00  0.00     0.017 C 
BRANCH  12  13
HETATM   13  C4  UNL     1      -5.772 -26.000  -0.970  1.00  0.00     0.002 C 
BRANCH  13  14
HETATM   14  C3  UNL     1      -5.518 -25.953  -2.447  1.00  0.00     0.010 C 
BRANCH  14  15
HETATM   15  C2  UNL     1      -6.701 -25.404  -3.203  1.00  0.00     0.113 C 
BRANCH  15  16
HETATM   16  C1  UNL     1      -7.265 -26.378  -4.154  1.00  0.00     0.172 C 
HETATM   17  O1  UNL     1      -7.011 -26.327  -5.374  1.00  0.00    -0.648 OA
HETATM   18  O2  UNL     1      -8.093 -27.371  -3.692  1.00  0.00    -0.648 OA
ENDBRANCH  15  16
ENDBRANCH  14  15
ENDBRANCH  13  14
ENDBRANCH  12  13
ENDBRANCH   1  12
TORSDOF 5
ENDMDL
