MODEL 6
REMARK VINA RESULT: -6.705040756      2.773      6.030
REMARK  5 active torsions:
REMARK  status: ('A' for Active; 'I' for Inactive)
REMARK    1  A    between atoms: C1_2  and  C2_4 
REMARK    2  A    between atoms: C2_4  and  C3_5 
REMARK    3  A    between atoms: C3_5  and  C4_6 
REMARK    4  A    between atoms: C4_6  and  C5_7 
REMARK    5  A    between atoms: C5_7  and  C6_8 
ROOT
HETATM    1  C6  UNL     1      -8.607 -26.378   1.260  1.00  0.00     0.072 C 
HETATM    2  S1  UNL     1      -8.973 -24.620   1.645  1.00  0.00    -0.160 SA
HETATM    3  C7  UNL     1      -9.776 -24.881   3.274  1.00  0.00     0.101 C 
HETATM    4  C8  UNL     1      -9.935 -26.360   3.300  1.00  0.00     0.119 C 
HETATM    5  N1  UNL     1      -9.702 -26.791   4.686  1.00  0.00    -0.336 N 
ATOM      6  H1  UNL     1     -10.399 -27.042   5.387  1.00  0.00     0.164 HD
HETATM    7  C9  UNL     1      -8.287 -26.781   4.829  1.00  0.00     0.316 C 
HETATM    8  O3  UNL     1      -7.692 -26.796   5.944  1.00  0.00    -0.247 OA
HETATM    9  N2  UNL     1      -7.690 -26.750   3.518  1.00  0.00    -0.335 N 
ATOM     10  H2  UNL     1      -6.709 -26.589   3.287  1.00  0.00     0.164 HD
HETATM   11  C10 UNL     1      -8.767 -26.993   2.608  1.00  0.00     0.123 C 
ENDROOT
BRANCH   1  12
HETATM   12  C5  UNL     1      -7.250 -26.526   0.672  1.00  0.00     0.017 C 
BRANCH  12  13
HETATM   13  C4  UNL     1      -7.171 -25.677  -0.572  1.00  0.00     0.002 C 
BRANCH  13  14
HETATM   14  C3  UNL     1      -8.159 -26.086  -1.623  1.00  0.00     0.010 C 
BRANCH  14  15
HETATM   15  C2  UNL     1      -7.518 -26.923  -2.701  1.00  0.00     0.113 C 
BRANCH  15  16
HETATM   16  C1  UNL     1      -7.055 -26.117  -3.842  1.00  0.00     0.172 C 
HETATM   17  O1  UNL     1      -7.603 -26.185  -4.961  1.00  0.00    -0.648 OA
HETATM   18  O2  UNL     1      -5.991 -25.263  -3.680  1.00  0.00    -0.648 OA
ENDBRANCH  15  16
ENDBRANCH  14  15
ENDBRANCH  13  14
ENDBRANCH  12  13
ENDBRANCH   1  12
TORSDOF 5
ENDMDL
