MODEL 1
REMARK VINA RESULT: -7.195532485      0.000      0.000
REMARK  5 active torsions:
REMARK  status: ('A' for Active; 'I' for Inactive)
REMARK    1  A    between atoms: C1_2  and  C2_4 
REMARK    2  A    between atoms: C2_4  and  C3_5 
REMARK    3  A    between atoms: C3_5  and  C4_6 
REMARK    4  A    between atoms: C4_6  and  C5_7 
REMARK    5  A    between atoms: C5_7  and  C6_8 
ROOT
HETATM    1  C6  UNL     1      -9.515 -26.240  -0.586  1.00  0.00     0.072 C 
HETATM    2  S1  UNL     1      -9.208 -27.940  -1.210  1.00  0.00    -0.160 SA
HETATM    3  C7  UNL     1      -7.797 -27.550  -2.316  1.00  0.00     0.101 C 
HETATM    4  C8  UNL     1      -7.817 -26.063  -2.320  1.00  0.00     0.119 C 
HETATM    5  N1  UNL     1      -6.417 -25.617  -2.351  1.00  0.00    -0.336 N 
ATOM      6  H1  UNL     1      -5.888 -25.276  -3.154  1.00  0.00     0.164 HD
HETATM    7  C9  UNL     1      -5.966 -25.766  -1.011  1.00  0.00     0.316 C 
HETATM    8  O3  UNL     1      -4.747 -25.778  -0.674  1.00  0.00    -0.247 OA
HETATM    9  N2  UNL     1      -7.114 -25.895  -0.149  1.00  0.00    -0.335 N 
ATOM     10  H2  UNL     1      -7.122 -26.162   0.836  1.00  0.00     0.164 HD
HETATM   11  C10 UNL     1      -8.240 -25.572  -0.970  1.00  0.00     0.123 C 
ENDROOT
BRANCH   1  12
HETATM   12  C5  UNL     1      -9.792 -26.247   0.875  1.00  0.00     0.017 C 
BRANCH  12  13
HETATM   13  C4  UNL     1     -10.125 -24.841   1.307  1.00  0.00     0.002 C 
BRANCH  13  14
HETATM   14  C3  UNL     1     -10.029 -24.647   2.791  1.00  0.00     0.010 C 
BRANCH  14  15
HETATM   15  C2  UNL     1      -9.271 -25.768   3.455  1.00  0.00     0.113 C 
BRANCH  15  16
HETATM   16  C1  UNL     1      -7.923 -25.361   3.885  1.00  0.00     0.172 C 
HETATM   17  O1  UNL     1      -7.560 -25.440   5.076  1.00  0.00    -0.648 OA
HETATM   18  O2  UNL     1      -7.033 -24.880   2.955  1.00  0.00    -0.648 OA
ENDBRANCH  15  16
ENDBRANCH  14  15
ENDBRANCH  13  14
ENDBRANCH  12  13
ENDBRANCH   1  12
TORSDOF 5
ENDMDL
