MODEL 9
REMARK VINA RESULT: -6.497837881      2.450      5.703
REMARK  5 active torsions:
REMARK  status: ('A' for Active; 'I' for Inactive)
REMARK    1  A    between atoms: C1_2  and  C2_4 
REMARK    2  A    between atoms: C2_4  and  C3_5 
REMARK    3  A    between atoms: C3_5  and  C4_6 
REMARK    4  A    between atoms: C4_6  and  C5_7 
REMARK    5  A    between atoms: C5_7  and  C6_8 
ROOT
HETATM    1  C6  UNL     1      -7.897 -26.954   0.825  1.00  0.00     0.072 C 
HETATM    2  S1  UNL     1      -9.566 -26.188   0.827  1.00  0.00    -0.160 SA
HETATM    3  C7  UNL     1     -10.035 -26.611   2.550  1.00  0.00     0.101 C 
HETATM    4  C8  UNL     1      -8.950 -27.552   2.936  1.00  0.00     0.119 C 
HETATM    5  N1  UNL     1      -8.644 -27.293   4.351  1.00  0.00    -0.336 N 
ATOM      6  H1  UNL     1      -8.942 -27.834   5.163  1.00  0.00     0.164 HD
HETATM    7  C9  UNL     1      -7.839 -26.121   4.333  1.00  0.00     0.316 C 
HETATM    8  O3  UNL     1      -7.619 -25.401   5.349  1.00  0.00    -0.247 OA
HETATM    9  N2  UNL     1      -7.347 -25.919   2.994  1.00  0.00    -0.335 N 
ATOM     10  H2  UNL     1      -6.870 -25.095   2.627  1.00  0.00     0.164 HD
HETATM   11  C10 UNL     1      -7.670 -27.121   2.288  1.00  0.00     0.123 C 
ENDROOT
BRANCH   1  12
HETATM   12  C5  UNL     1      -6.907 -26.080   0.143  1.00  0.00     0.017 C 
BRANCH  12  13
HETATM   13  C4  UNL     1      -7.626 -25.264  -0.902  1.00  0.00     0.002 C 
BRANCH  13  14
HETATM   14  C3  UNL     1      -7.162 -25.562  -2.297  1.00  0.00     0.010 C 
BRANCH  14  15
HETATM   15  C2  UNL     1      -5.763 -26.123  -2.315  1.00  0.00     0.113 C 
BRANCH  15  16
HETATM   16  C1  UNL     1      -5.690 -27.433  -2.984  1.00  0.00     0.172 C 
HETATM   17  O1  UNL     1      -5.619 -27.534  -4.226  1.00  0.00    -0.648 OA
HETATM   18  O2  UNL     1      -5.697 -28.580  -2.228  1.00  0.00    -0.648 OA
ENDBRANCH  15  16
ENDBRANCH  14  15
ENDBRANCH  13  14
ENDBRANCH  12  13
ENDBRANCH   1  12
TORSDOF 5
ENDMDL
