MODEL 5
REMARK VINA RESULT: -6.782586221      2.254      5.615
REMARK  5 active torsions:
REMARK  status: ('A' for Active; 'I' for Inactive)
REMARK    1  A    between atoms: C1_2  and  C2_4 
REMARK    2  A    between atoms: C2_4  and  C3_5 
REMARK    3  A    between atoms: C3_5  and  C4_6 
REMARK    4  A    between atoms: C4_6  and  C5_7 
REMARK    5  A    between atoms: C5_7  and  C6_8 
ROOT
HETATM    1  C6  UNL     1      -8.970 -26.687   1.110  1.00  0.00     0.072 C 
HETATM    2  S1  UNL     1      -9.655 -24.982   1.108  1.00  0.00    -0.160 SA
HETATM    3  C7  UNL     1     -10.129 -24.900   2.879  1.00  0.00     0.101 C 
HETATM    4  C8  UNL     1      -9.952 -26.314   3.306  1.00  0.00     0.119 C 
HETATM    5  N1  UNL     1      -9.427 -26.283   4.679  1.00  0.00    -0.336 N 
ATOM      6  H1  UNL     1      -9.939 -26.438   5.546  1.00  0.00     0.164 HD
HETATM    7  C9  UNL     1      -8.044 -25.989   4.524  1.00  0.00     0.316 C 
HETATM    8  O3  UNL     1      -7.301 -25.581   5.463  1.00  0.00    -0.247 OA
HETATM    9  N2  UNL     1      -7.670 -26.233   3.154  1.00  0.00    -0.335 N 
ATOM     10  H2  UNL     1      -6.794 -25.978   2.697  1.00  0.00     0.164 HD
HETATM   11  C10 UNL     1      -8.789 -26.908   2.573  1.00  0.00     0.123 C 
ENDROOT
BRANCH   1  12
HETATM   12  C5  UNL     1      -7.717 -26.761   0.315  1.00  0.00     0.017 C 
BRANCH  12  13
HETATM   13  C4  UNL     1      -7.668 -25.575  -0.616  1.00  0.00     0.002 C 
BRANCH  13  14
HETATM   14  C3  UNL     1      -7.863 -25.953  -2.054  1.00  0.00     0.010 C 
BRANCH  14  15
HETATM   15  C2  UNL     1      -6.726 -25.473  -2.920  1.00  0.00     0.113 C 
BRANCH  15  16
HETATM   16  C1  UNL     1      -5.464 -26.176  -2.636  1.00  0.00     0.172 C 
HETATM   17  O1  UNL     1      -5.250 -27.335  -3.047  1.00  0.00    -0.648 OA
HETATM   18  O2  UNL     1      -4.489 -25.547  -1.901  1.00  0.00    -0.648 OA
ENDBRANCH  15  16
ENDBRANCH  14  15
ENDBRANCH  13  14
ENDBRANCH  12  13
ENDBRANCH   1  12
TORSDOF 5
ENDMDL
