MODEL 3
REMARK VINA RESULT: -6.932389911      1.560      1.780
REMARK  5 active torsions:
REMARK  status: ('A' for Active; 'I' for Inactive)
REMARK    1  A    between atoms: C1_2  and  C2_4 
REMARK    2  A    between atoms: C2_4  and  C3_5 
REMARK    3  A    between atoms: C3_5  and  C4_6 
REMARK    4  A    between atoms: C4_6  and  C5_7 
REMARK    5  A    between atoms: C5_7  and  C6_8 
ROOT
HETATM    1  C6  UNL     1      -8.978 -26.273   0.158  1.00  0.00     0.072 C 
HETATM    2  S1  UNL     1      -7.690 -27.508   0.594  1.00  0.00    -0.160 SA
HETATM    3  C7  UNL     1      -7.273 -28.047  -1.109  1.00  0.00     0.101 C 
HETATM    4  C8  UNL     1      -8.353 -27.404  -1.904  1.00  0.00     0.119 C 
HETATM    5  N1  UNL     1      -7.751 -26.974  -3.174  1.00  0.00    -0.336 N 
ATOM      6  H1  UNL     1      -7.817 -27.432  -4.083  1.00  0.00     0.164 HD
HETATM    7  C9  UNL     1      -7.056 -25.776  -2.851  1.00  0.00     0.316 C 
HETATM    8  O3  UNL     1      -6.166 -25.257  -3.586  1.00  0.00    -0.247 OA
HETATM    9  N2  UNL     1      -7.538 -25.289  -1.584  1.00  0.00    -0.335 N 
ATOM     10  H2  UNL     1      -7.140 -24.541  -1.016  1.00  0.00     0.164 HD
HETATM   11  C10 UNL     1      -8.694 -26.080  -1.292  1.00  0.00     0.123 C 
ENDROOT
BRANCH   1  12
HETATM   12  C5  UNL     1      -8.841 -25.043   0.982  1.00  0.00     0.017 C 
BRANCH  12  13
HETATM   13  C4  UNL     1     -10.084 -24.890   1.824  1.00  0.00     0.002 C 
BRANCH  13  14
HETATM   14  C3  UNL     1      -9.803 -24.950   3.296  1.00  0.00     0.010 C 
BRANCH  14  15
HETATM   15  C2  UNL     1      -9.568 -26.363   3.766  1.00  0.00     0.113 C 
BRANCH  15  16
HETATM   16  C1  UNL     1      -8.669 -26.430   4.930  1.00  0.00     0.172 C 
HETATM   17  O1  UNL     1      -8.813 -27.288   5.824  1.00  0.00    -0.648 OA
HETATM   18  O2  UNL     1      -7.641 -25.526   5.043  1.00  0.00    -0.648 OA
ENDBRANCH  15  16
ENDBRANCH  14  15
ENDBRANCH  13  14
ENDBRANCH  12  13
ENDBRANCH   1  12
TORSDOF 5
ENDMDL
