MODEL 1
REMARK VINA RESULT: -8.952062158      0.000      0.000
REMARK  13 active torsions:
REMARK  status: ('A' for Active; 'I' for Inactive)
REMARK    1  A    between atoms: C2_2  and  C4_4 
REMARK    2  A    between atoms: C4_4  and  N1_5 
REMARK    3  A    between atoms: N1_5  and  C5_6 
REMARK    4  A    between atoms: N1_5  and  S1_31 
REMARK    5  A    between atoms: C5_6  and  C6_7 
REMARK    6  A    between atoms: C6_7  and  O1_8 
REMARK    7  A    between atoms: C6_7  and  C7_10 
REMARK    8  A    between atoms: C7_10  and  C8_11 
REMARK    9  A    between atoms: C7_10  and  N2_18 
REMARK   10  A    between atoms: C8_11  and  C9_12 
REMARK       I    between atoms: N2_18  and  C15_20 
REMARK   11  A    between atoms: C15_20  and  O3_22 
REMARK   12  A    between atoms: O3_22  and  C16_23 
REMARK   13  A    between atoms: S1_31  and  C22_34 
ROOT
HETATM    1  C7  UNL     1      -1.498  -4.680 -21.224  1.00  0.00     0.029 C 
ENDROOT
BRANCH   1   2
HETATM    2  C6  UNL     1      -2.202  -4.682 -22.557  1.00  0.00     0.203 C 
BRANCH   2   3
HETATM    3  C5  UNL     1      -3.095  -3.535 -22.803  1.00  0.00     0.119 C 
BRANCH   3   4
HETATM    4  N1  UNL     1      -3.066  -2.945 -24.074  1.00  0.00    -0.262 N 
BRANCH   4   5
HETATM    5  C4  UNL     1      -3.854  -3.415 -25.127  1.00  0.00     0.085 C 
BRANCH   5   6
HETATM    6  C2  UNL     1      -5.155  -2.660 -25.363  1.00  0.00     0.017 C 
HETATM    7  C1  UNL     1      -5.406  -2.339 -26.809  1.00  0.00     0.015 C 
HETATM    8  C3  UNL     1      -6.341  -3.395 -24.784  1.00  0.00     0.015 C 
ENDBRANCH   5   6
ENDBRANCH   4   5
BRANCH   4   9
HETATM    9  S1  UNL     1      -2.532  -1.342 -24.109  1.00  0.00     0.267 S 
HETATM   10  O6  UNL     1      -2.076  -1.032 -25.527  1.00  0.00    -0.200 OA
HETATM   11  O7  UNL     1      -3.631  -0.359 -23.731  1.00  0.00    -0.200 OA
BRANCH   9  12
HETATM   12  C22 UNL     1      -1.167  -1.028 -23.044  1.00  0.00     0.080 A 
HETATM   13  C23 UNL     1      -1.308  -0.688 -21.715  1.00  0.00     0.027 A 
HETATM   14  C24 UNL     1      -0.220  -0.441 -20.899  1.00  0.00     0.028 A 
HETATM   15  C25 UNL     1       1.064  -0.526 -21.391  1.00  0.00     0.046 A 
HETATM   16  N3  UNL     1       2.199  -0.268 -20.544  1.00  0.00    -0.102 NA
HETATM   17  C26 UNL     1       1.223  -0.863 -22.716  1.00  0.00     0.028 A 
HETATM   18  C27 UNL     1       0.136  -1.109 -23.524  1.00  0.00     0.027 A 
ENDBRANCH   9  12
ENDBRANCH   4   9
ENDBRANCH   3   4
ENDBRANCH   2   3
BRANCH   2  19
HETATM   19  O1  UNL     1      -1.173  -4.651 -23.530  1.00  0.00    -0.385 OA
ATOM     20  H1  UNL     1      -1.108  -5.517 -23.915  1.00  0.00     0.211 HD
ENDBRANCH   2  19
ENDBRANCH   1   2
BRANCH   1  21
HETATM   21  C8  UNL     1      -0.098  -4.134 -21.299  1.00  0.00     0.094 C 
BRANCH  21  22
HETATM   22  C9  UNL     1       0.695  -4.258 -20.076  1.00  0.00    -0.053 A 
HETATM   23  C10 UNL     1       0.555  -3.284 -19.087  1.00  0.00     0.007 A 
HETATM   24  C11 UNL     1       1.265  -3.277 -17.916  1.00  0.00     0.001 A 
HETATM   25  C12 UNL     1       2.177  -4.293 -17.691  1.00  0.00     0.000 A 
HETATM   26  C13 UNL     1       2.349  -5.274 -18.636  1.00  0.00     0.001 A 
HETATM   27  C14 UNL     1       1.600  -5.241 -19.823  1.00  0.00     0.007 A 
ENDBRANCH  21  22
ENDBRANCH   1  21
BRANCH   1  28
HETATM   28  N2  UNL     1      -1.739  -5.801 -20.406  1.00  0.00    -0.307 N 
HETATM   29  C15 UNL     1      -2.530  -5.797 -19.232  1.00  0.00     0.365 C 
HETATM   30  O2  UNL     1      -3.066  -4.750 -18.852  1.00  0.00    -0.238 OA
ATOM     31  H2  UNL     1      -1.310  -6.685 -20.681  1.00  0.00     0.170 HD
BRANCH  29  32
HETATM   32  O3  UNL     1      -2.719  -6.965 -18.486  1.00  0.00    -0.296 OA
BRANCH  32  33
HETATM   33  C16 UNL     1      -1.624  -7.787 -18.113  1.00  0.00     0.166 C 
HETATM   34  C17 UNL     1      -0.651  -7.066 -17.241  1.00  0.00     0.204 C 
HETATM   35  O4  UNL     1      -0.276  -7.885 -16.209  1.00  0.00    -0.358 OA
HETATM   36  C18 UNL     1      -0.927  -9.103 -16.330  1.00  0.00     0.266 C 
HETATM   37  O5  UNL     1      -1.442  -9.564 -15.125  1.00  0.00    -0.361 OA
HETATM   38  C21 UNL     1      -2.159  -8.846 -17.172  1.00  0.00     0.075 C 
HETATM   39  C19 UNL     1      -2.586  -8.861 -14.835  1.00  0.00     0.171 C 
HETATM   40  C20 UNL     1      -3.126  -8.319 -16.163  1.00  0.00     0.038 C 
ENDBRANCH  32  33
ENDBRANCH  29  32
ENDBRANCH   1  28
TORSDOF 13
ENDMDL
