MODEL 2
REMARK VINA RESULT: -8.926061889      2.969      8.720
REMARK  13 active torsions:
REMARK  status: ('A' for Active; 'I' for Inactive)
REMARK    1  A    between atoms: C2_2  and  C4_4 
REMARK    2  A    between atoms: C4_4  and  N1_5 
REMARK    3  A    between atoms: N1_5  and  C5_6 
REMARK    4  A    between atoms: N1_5  and  S1_31 
REMARK    5  A    between atoms: C5_6  and  C6_7 
REMARK    6  A    between atoms: C6_7  and  O1_8 
REMARK    7  A    between atoms: C6_7  and  C7_10 
REMARK    8  A    between atoms: C7_10  and  C8_11 
REMARK    9  A    between atoms: C7_10  and  N2_18 
REMARK   10  A    between atoms: C8_11  and  C9_12 
REMARK       I    between atoms: N2_18  and  C15_20 
REMARK   11  A    between atoms: C15_20  and  O3_22 
REMARK   12  A    between atoms: O3_22  and  C16_23 
REMARK   13  A    between atoms: S1_31  and  C22_34 
ROOT
HETATM    1  C7  UNL     1      -2.805  -1.783 -21.834  1.00  0.00     0.029 C 
ENDROOT
BRANCH   1   2
HETATM    2  C6  UNL     1      -3.137  -2.412 -20.504  1.00  0.00     0.203 C 
BRANCH   2   3
HETATM    3  C5  UNL     1      -1.980  -2.725 -19.645  1.00  0.00     0.119 C 
BRANCH   3   4
HETATM    4  N1  UNL     1      -1.352  -3.965 -19.821  1.00  0.00    -0.262 N 
BRANCH   4   5
HETATM    5  C4  UNL     1      -2.000  -5.044 -20.426  1.00  0.00     0.085 C 
BRANCH   5   6
HETATM    6  C2  UNL     1      -2.583  -6.080 -19.473  1.00  0.00     0.017 C 
HETATM    7  C1  UNL     1      -4.002  -6.456 -19.795  1.00  0.00     0.015 C 
HETATM    8  C3  UNL     1      -1.724  -7.321 -19.403  1.00  0.00     0.015 C 
ENDBRANCH   5   6
ENDBRANCH   4   5
BRANCH   4   9
HETATM    9  S1  UNL     1       0.337  -3.918 -19.834  1.00  0.00     0.267 S 
HETATM   10  O6  UNL     1       0.828  -5.028 -20.752  1.00  0.00    -0.200 OA
HETATM   11  O7  UNL     1       0.874  -2.591 -20.352  1.00  0.00    -0.200 OA
BRANCH   9  12
HETATM   12  C22 UNL     1       1.064  -4.190 -18.255  1.00  0.00     0.080 A 
HETATM   13  C23 UNL     1       2.159  -3.489 -17.796  1.00  0.00     0.027 A 
HETATM   14  C24 UNL     1       2.716  -3.724 -16.554  1.00  0.00     0.028 A 
HETATM   15  C25 UNL     1       2.190  -4.683 -15.715  1.00  0.00     0.046 A 
HETATM   16  N3  UNL     1       2.768  -4.931 -14.420  1.00  0.00    -0.102 NA
HETATM   17  C26 UNL     1       1.097  -5.393 -16.157  1.00  0.00     0.028 A 
HETATM   18  C27 UNL     1       0.546  -5.155 -17.396  1.00  0.00     0.027 A 
ENDBRANCH   9  12
ENDBRANCH   4   9
ENDBRANCH   3   4
ENDBRANCH   2   3
BRANCH   2  19
HETATM   19  O1  UNL     1      -3.941  -1.464 -19.826  1.00  0.00    -0.385 OA
ATOM     20  H1  UNL     1      -4.783  -1.866 -19.651  1.00  0.00     0.211 HD
ENDBRANCH   2  19
ENDBRANCH   1   2
BRANCH   1  21
HETATM   21  C8  UNL     1      -1.762  -0.705 -21.731  1.00  0.00     0.094 C 
BRANCH  21  22
HETATM   22  C9  UNL     1      -1.332  -0.118 -23.000  1.00  0.00    -0.053 A 
HETATM   23  C10 UNL     1      -0.459  -0.844 -23.810  1.00  0.00     0.007 A 
HETATM   24  C11 UNL     1       0.035  -0.386 -25.002  1.00  0.00     0.001 A 
HETATM   25  C12 UNL     1      -0.348   0.870 -25.437  1.00  0.00     0.000 A 
HETATM   26  C13 UNL     1      -1.206   1.622 -24.673  1.00  0.00     0.001 A 
HETATM   27  C14 UNL     1      -1.688   1.113 -23.456  1.00  0.00     0.007 A 
ENDBRANCH  21  22
ENDBRANCH   1  21
BRANCH   1  28
HETATM   28  N2  UNL     1      -3.896  -1.582 -22.702  1.00  0.00    -0.307 N 
HETATM   29  C15 UNL     1      -4.112  -2.282 -23.914  1.00  0.00     0.365 C 
HETATM   30  O2  UNL     1      -3.304  -3.142 -24.283  1.00  0.00    -0.238 OA
ATOM     31  H2  UNL     1      -4.584  -0.877 -22.437  1.00  0.00     0.170 HD
BRANCH  29  32
HETATM   32  O3  UNL     1      -5.233  -2.017 -24.708  1.00  0.00    -0.296 OA
BRANCH  32  33
HETATM   33  C16 UNL     1      -5.478  -0.721 -25.229  1.00  0.00     0.166 C 
HETATM   34  C17 UNL     1      -4.230  -0.068 -25.725  1.00  0.00     0.204 C 
HETATM   35  O4  UNL     1      -4.483   0.533 -26.929  1.00  0.00    -0.358 OA
HETATM   36  C18 UNL     1      -5.809   0.331 -27.275  1.00  0.00     0.266 C 
HETATM   37  O5  UNL     1      -5.974  -0.031 -28.606  1.00  0.00    -0.361 OA
HETATM   38  C21 UNL     1      -6.267  -0.895 -26.511  1.00  0.00     0.075 C 
HETATM   39  C19 UNL     1      -5.624  -1.352 -28.751  1.00  0.00     0.171 C 
HETATM   40  C20 UNL     1      -5.771  -2.008 -27.374  1.00  0.00     0.038 C 
ENDBRANCH  32  33
ENDBRANCH  29  32
ENDBRANCH   1  28
TORSDOF 13
ENDMDL
