MODEL 3
REMARK VINA RESULT: -8.886780474      2.546      7.942
REMARK  13 active torsions:
REMARK  status: ('A' for Active; 'I' for Inactive)
REMARK    1  A    between atoms: C2_2  and  C4_4 
REMARK    2  A    between atoms: C4_4  and  N1_5 
REMARK    3  A    between atoms: N1_5  and  C5_6 
REMARK    4  A    between atoms: N1_5  and  S1_31 
REMARK    5  A    between atoms: C5_6  and  C6_7 
REMARK    6  A    between atoms: C6_7  and  O1_8 
REMARK    7  A    between atoms: C6_7  and  C7_10 
REMARK    8  A    between atoms: C7_10  and  C8_11 
REMARK    9  A    between atoms: C7_10  and  N2_18 
REMARK   10  A    between atoms: C8_11  and  C9_12 
REMARK       I    between atoms: N2_18  and  C15_20 
REMARK   11  A    between atoms: C15_20  and  O3_22 
REMARK   12  A    between atoms: O3_22  and  C16_23 
REMARK   13  A    between atoms: S1_31  and  C22_34 
ROOT
HETATM    1  C7  UNL     1      -2.573  -4.733 -22.060  1.00  0.00     0.029 C 
ENDROOT
BRANCH   1   2
HETATM    2  C6  UNL     1      -1.186  -4.210 -22.336  1.00  0.00     0.203 C 
BRANCH   2   3
HETATM    3  C5  UNL     1      -0.273  -4.197 -21.178  1.00  0.00     0.119 C 
BRANCH   3   4
HETATM    4  N1  UNL     1      -0.069  -2.976 -20.521  1.00  0.00    -0.262 N 
BRANCH   4   5
HETATM    5  C4  UNL     1      -0.251  -1.750 -21.162  1.00  0.00     0.085 C 
BRANCH   5   6
HETATM    6  C2  UNL     1       0.958  -1.219 -21.923  1.00  0.00     0.017 C 
HETATM    7  C1  UNL     1       0.619  -0.686 -23.286  1.00  0.00     0.015 C 
HETATM    8  C3  UNL     1       1.701  -0.171 -21.129  1.00  0.00     0.015 C 
ENDBRANCH   5   6
ENDBRANCH   4   5
BRANCH   4   9
HETATM    9  S1  UNL     1      -0.189  -3.040 -18.836  1.00  0.00     0.267 S 
HETATM   10  O6  UNL     1       0.424  -1.766 -18.275  1.00  0.00    -0.200 OA
HETATM   11  O7  UNL     1      -1.634  -3.128 -18.364  1.00  0.00    -0.200 OA
BRANCH   9  12
HETATM   12  C22 UNL     1       0.674  -4.393 -18.116  1.00  0.00     0.080 A 
HETATM   13  C23 UNL     1       2.050  -4.466 -18.056  1.00  0.00     0.027 A 
HETATM   14  C24 UNL     1       2.706  -5.542 -17.489  1.00  0.00     0.028 A 
HETATM   15  C25 UNL     1       1.999  -6.597 -16.954  1.00  0.00     0.046 A 
HETATM   16  N3  UNL     1       2.680  -7.720 -16.363  1.00  0.00    -0.102 NA
HETATM   17  C26 UNL     1       0.625  -6.541 -17.005  1.00  0.00     0.028 A 
HETATM   18  C27 UNL     1      -0.024  -5.467 -17.571  1.00  0.00     0.027 A 
ENDBRANCH   9  12
ENDBRANCH   4   9
ENDBRANCH   3   4
ENDBRANCH   2   3
BRANCH   2  19
HETATM   19  O1  UNL     1      -0.640  -5.077 -23.313  1.00  0.00    -0.385 OA
ATOM     20  H1  UNL     1      -0.049  -4.570 -23.857  1.00  0.00     0.211 HD
ENDBRANCH   2  19
ENDBRANCH   1   2
BRANCH   1  21
HETATM   21  C8  UNL     1      -2.598  -6.209 -21.770  1.00  0.00     0.094 C 
BRANCH  21  22
HETATM   22  C9  UNL     1      -2.880  -6.576 -20.383  1.00  0.00    -0.053 A 
HETATM   23  C10 UNL     1      -2.213  -7.669 -19.831  1.00  0.00     0.007 A 
HETATM   24  C11 UNL     1      -2.417  -8.125 -18.556  1.00  0.00     0.001 A 
HETATM   25  C12 UNL     1      -3.338  -7.468 -17.760  1.00  0.00     0.000 A 
HETATM   26  C13 UNL     1      -4.020  -6.386 -18.259  1.00  0.00     0.001 A 
HETATM   27  C14 UNL     1      -3.779  -5.953 -19.573  1.00  0.00     0.007 A 
ENDBRANCH  21  22
ENDBRANCH   1  21
BRANCH   1  28
HETATM   28  N2  UNL     1      -3.599  -4.188 -22.857  1.00  0.00    -0.307 N 
HETATM   29  C15 UNL     1      -4.241  -2.947 -22.620  1.00  0.00     0.365 C 
HETATM   30  O2  UNL     1      -3.913  -2.258 -21.647  1.00  0.00    -0.238 OA
ATOM     31  H2  UNL     1      -3.904  -4.728 -23.666  1.00  0.00     0.170 HD
BRANCH  29  32
HETATM   32  O3  UNL     1      -5.248  -2.483 -23.473  1.00  0.00    -0.296 OA
BRANCH  32  33
HETATM   33  C16 UNL     1      -5.341  -2.930 -24.816  1.00  0.00     0.166 C 
HETATM   34  C17 UNL     1      -6.756  -3.025 -25.281  1.00  0.00     0.204 C 
HETATM   35  O4  UNL     1      -6.853  -2.500 -26.542  1.00  0.00    -0.358 OA
HETATM   36  C18 UNL     1      -5.604  -2.062 -26.955  1.00  0.00     0.266 C 
HETATM   37  O5  UNL     1      -5.642  -0.814 -27.565  1.00  0.00    -0.361 OA
HETATM   38  C21 UNL     1      -4.799  -1.822 -25.695  1.00  0.00     0.075 C 
HETATM   39  C19 UNL     1      -5.776   0.148 -26.593  1.00  0.00     0.171 C 
HETATM   40  C20 UNL     1      -5.250  -0.458 -25.287  1.00  0.00     0.038 C 
ENDBRANCH  32  33
ENDBRANCH  29  32
ENDBRANCH   1  28
TORSDOF 13
ENDMDL
