MODEL 6
REMARK VINA RESULT: -8.774096780      1.973      2.367
REMARK  13 active torsions:
REMARK  status: ('A' for Active; 'I' for Inactive)
REMARK    1  A    between atoms: C2_2  and  C4_4 
REMARK    2  A    between atoms: C4_4  and  N1_5 
REMARK    3  A    between atoms: N1_5  and  C5_6 
REMARK    4  A    between atoms: N1_5  and  S1_31 
REMARK    5  A    between atoms: C5_6  and  C6_7 
REMARK    6  A    between atoms: C6_7  and  O1_8 
REMARK    7  A    between atoms: C6_7  and  C7_10 
REMARK    8  A    between atoms: C7_10  and  C8_11 
REMARK    9  A    between atoms: C7_10  and  N2_18 
REMARK   10  A    between atoms: C8_11  and  C9_12 
REMARK       I    between atoms: N2_18  and  C15_20 
REMARK   11  A    between atoms: C15_20  and  O3_22 
REMARK   12  A    between atoms: O3_22  and  C16_23 
REMARK   13  A    between atoms: S1_31  and  C22_34 
ROOT
HETATM    1  C7  UNL     1      -1.388  -4.866 -21.177  1.00  0.00     0.029 C 
ENDROOT
BRANCH   1   2
HETATM    2  C6  UNL     1      -2.179  -4.712 -22.451  1.00  0.00     0.203 C 
BRANCH   2   3
HETATM    3  C5  UNL     1      -2.915  -3.441 -22.589  1.00  0.00     0.119 C 
BRANCH   3   4
HETATM    4  N1  UNL     1      -2.540  -2.579 -23.628  1.00  0.00    -0.262 N 
BRANCH   4   5
HETATM    5  C4  UNL     1      -3.362  -2.346 -24.731  1.00  0.00     0.085 C 
BRANCH   5   6
HETATM    6  C2  UNL     1      -4.767  -1.848 -24.412  1.00  0.00     0.017 C 
HETATM    7  C1  UNL     1      -5.071  -0.501 -25.004  1.00  0.00     0.015 C 
HETATM    8  C3  UNL     1      -5.822  -2.846 -24.830  1.00  0.00     0.015 C 
ENDBRANCH   5   6
ENDBRANCH   4   5
BRANCH   4   9
HETATM    9  S1  UNL     1      -1.387  -1.415 -23.212  1.00  0.00     0.267 S 
HETATM   10  O6  UNL     1      -1.551  -1.102 -21.732  1.00  0.00    -0.200 OA
HETATM   11  O7  UNL     1       0.037  -1.903 -23.447  1.00  0.00    -0.200 OA
BRANCH   9  12
HETATM   12  C22 UNL     1      -1.565   0.101 -24.086  1.00  0.00     0.080 A 
HETATM   13  C23 UNL     1      -2.141   1.227 -23.537  1.00  0.00     0.027 A 
HETATM   14  C24 UNL     1      -2.275   2.406 -24.245  1.00  0.00     0.028 A 
HETATM   15  C25 UNL     1      -1.829   2.502 -25.546  1.00  0.00     0.046 A 
HETATM   16  N3  UNL     1      -1.968   3.728 -26.287  1.00  0.00    -0.102 NA
HETATM   17  C26 UNL     1      -1.252   1.387 -26.110  1.00  0.00     0.028 A 
HETATM   18  C27 UNL     1      -1.121   0.215 -25.400  1.00  0.00     0.027 A 
ENDBRANCH   9  12
ENDBRANCH   4   9
ENDBRANCH   3   4
ENDBRANCH   2   3
BRANCH   2  19
HETATM   19  O1  UNL     1      -1.228  -4.781 -23.498  1.00  0.00    -0.385 OA
ATOM     20  H1  UNL     1      -1.610  -4.375 -24.267  1.00  0.00     0.211 HD
ENDBRANCH   2  19
ENDBRANCH   1   2
BRANCH   1  21
HETATM   21  C8  UNL     1       0.057  -4.480 -21.330  1.00  0.00     0.094 C 
BRANCH  21  22
HETATM   22  C9  UNL     1       0.756  -4.144 -20.090  1.00  0.00    -0.053 A 
HETATM   23  C10 UNL     1       0.711  -2.826 -19.633  1.00  0.00     0.007 A 
HETATM   24  C11 UNL     1       1.351  -2.388 -18.505  1.00  0.00     0.001 A 
HETATM   25  C12 UNL     1       2.089  -3.296 -17.768  1.00  0.00     0.000 A 
HETATM   26  C13 UNL     1       2.163  -4.604 -18.179  1.00  0.00     0.001 A 
HETATM   27  C14 UNL     1       1.491  -5.011 -19.343  1.00  0.00     0.007 A 
ENDBRANCH  21  22
ENDBRANCH   1  21
BRANCH   1  28
HETATM   28  N2  UNL     1      -1.702  -5.998 -20.399  1.00  0.00    -0.307 N 
HETATM   29  C15 UNL     1      -2.442  -5.976 -19.191  1.00  0.00     0.365 C 
HETATM   30  O2  UNL     1      -2.860  -4.902 -18.742  1.00  0.00    -0.238 OA
ATOM     31  H2  UNL     1      -1.371  -6.904 -20.731  1.00  0.00     0.170 HD
BRANCH  29  32
HETATM   32  O3  UNL     1      -2.711  -7.156 -18.490  1.00  0.00    -0.296 OA
BRANCH  32  33
HETATM   33  C16 UNL     1      -1.665  -8.001 -18.038  1.00  0.00     0.166 C 
HETATM   34  C17 UNL     1      -0.663  -7.264 -17.213  1.00  0.00     0.204 C 
HETATM   35  O4  UNL     1      -0.341  -8.016 -16.115  1.00  0.00    -0.358 OA
HETATM   36  C18 UNL     1      -1.054  -9.204 -16.147  1.00  0.00     0.266 C 
HETATM   37  O5  UNL     1      -1.603  -9.540 -14.916  1.00  0.00    -0.361 OA
HETATM   38  C21 UNL     1      -2.264  -8.952 -17.023  1.00  0.00     0.075 C 
HETATM   39  C19 UNL     1      -2.711  -8.758 -14.699  1.00  0.00     0.171 C 
HETATM   40  C20 UNL     1      -3.210  -8.296 -16.072  1.00  0.00     0.038 C 
ENDBRANCH  32  33
ENDBRANCH  29  32
ENDBRANCH   1  28
TORSDOF 13
ENDMDL
