MODEL 4
REMARK VINA RESULT: -8.849943080      2.871      8.515
REMARK  13 active torsions:
REMARK  status: ('A' for Active; 'I' for Inactive)
REMARK    1  A    between atoms: C2_2  and  C4_4 
REMARK    2  A    between atoms: C4_4  and  N1_5 
REMARK    3  A    between atoms: N1_5  and  C5_6 
REMARK    4  A    between atoms: N1_5  and  S1_31 
REMARK    5  A    between atoms: C5_6  and  C6_7 
REMARK    6  A    between atoms: C6_7  and  O1_8 
REMARK    7  A    between atoms: C6_7  and  C7_10 
REMARK    8  A    between atoms: C7_10  and  C8_11 
REMARK    9  A    between atoms: C7_10  and  N2_18 
REMARK   10  A    between atoms: C8_11  and  C9_12 
REMARK       I    between atoms: N2_18  and  C15_20 
REMARK   11  A    between atoms: C15_20  and  O3_22 
REMARK   12  A    between atoms: O3_22  and  C16_23 
REMARK   13  A    between atoms: S1_31  and  C22_34 
ROOT
HETATM    1  C7  UNL     1      -2.575  -2.122 -21.247  1.00  0.00     0.029 C 
ENDROOT
BRANCH   1   2
HETATM    2  C6  UNL     1      -2.784  -2.762 -19.898  1.00  0.00     0.203 C 
BRANCH   2   3
HETATM    3  C5  UNL     1      -1.559  -2.983 -19.106  1.00  0.00     0.119 C 
BRANCH   3   4
HETATM    4  N1  UNL     1      -0.931  -4.231 -19.210  1.00  0.00    -0.262 N 
BRANCH   4   5
HETATM    5  C4  UNL     1      -1.580  -5.345 -19.745  1.00  0.00     0.085 C 
BRANCH   5   6
HETATM    6  C2  UNL     1      -2.208  -6.292 -18.730  1.00  0.00     0.017 C 
HETATM    7  C1  UNL     1      -3.710  -6.260 -18.731  1.00  0.00     0.015 C 
HETATM    8  C3  UNL     1      -1.722  -7.711 -18.915  1.00  0.00     0.015 C 
ENDBRANCH   5   6
ENDBRANCH   4   5
BRANCH   4   9
HETATM    9  S1  UNL     1       0.758  -4.184 -19.233  1.00  0.00     0.267 S 
HETATM   10  O6  UNL     1       1.241  -5.214 -20.243  1.00  0.00    -0.200 OA
HETATM   11  O7  UNL     1       1.292  -2.819 -19.644  1.00  0.00    -0.200 OA
BRANCH   9  12
HETATM   12  C22 UNL     1       1.499  -4.586 -17.688  1.00  0.00     0.080 A 
HETATM   13  C23 UNL     1       2.556  -3.883 -17.151  1.00  0.00     0.027 A 
HETATM   14  C24 UNL     1       3.125  -4.221 -15.938  1.00  0.00     0.028 A 
HETATM   15  C25 UNL     1       2.648  -5.289 -15.209  1.00  0.00     0.046 A 
HETATM   16  N3  UNL     1       3.238  -5.644 -13.945  1.00  0.00    -0.102 NA
HETATM   17  C26 UNL     1       1.593  -6.003 -15.730  1.00  0.00     0.028 A 
HETATM   18  C27 UNL     1       1.030  -5.661 -16.939  1.00  0.00     0.027 A 
ENDBRANCH   9  12
ENDBRANCH   4   9
ENDBRANCH   3   4
ENDBRANCH   2   3
BRANCH   2  19
HETATM   19  O1  UNL     1      -3.613  -1.868 -19.178  1.00  0.00    -0.385 OA
ATOM     20  H1  UNL     1      -4.322  -1.600 -19.752  1.00  0.00     0.211 HD
ENDBRANCH   2  19
ENDBRANCH   1   2
BRANCH   1  21
HETATM   21  C8  UNL     1      -1.619  -0.963 -21.207  1.00  0.00     0.094 C 
BRANCH  21  22
HETATM   22  C9  UNL     1      -1.155  -0.480 -22.508  1.00  0.00    -0.053 A 
HETATM   23  C10 UNL     1      -0.007  -1.048 -23.061  1.00  0.00     0.007 A 
HETATM   24  C11 UNL     1       0.537  -0.657 -24.255  1.00  0.00     0.001 A 
HETATM   25  C12 UNL     1      -0.080   0.359 -24.962  1.00  0.00     0.000 A 
HETATM   26  C13 UNL     1      -1.212   0.948 -24.457  1.00  0.00     0.001 A 
HETATM   27  C14 UNL     1      -1.737   0.516 -23.228  1.00  0.00     0.007 A 
ENDBRANCH  21  22
ENDBRANCH   1  21
BRANCH   1  28
HETATM   28  N2  UNL     1      -3.725  -2.017 -22.055  1.00  0.00    -0.307 N 
HETATM   29  C15 UNL     1      -4.017  -2.846 -23.167  1.00  0.00     0.365 C 
HETATM   30  O2  UNL     1      -3.228  -3.740 -23.494  1.00  0.00    -0.238 OA
ATOM     31  H2  UNL     1      -4.399  -1.289 -21.822  1.00  0.00     0.170 HD
BRANCH  29  32
HETATM   32  O3  UNL     1      -5.190  -2.670 -23.906  1.00  0.00    -0.296 OA
BRANCH  32  33
HETATM   33  C16 UNL     1      -5.236  -2.956 -25.295  1.00  0.00     0.166 C 
HETATM   34  C17 UNL     1      -6.636  -3.078 -25.799  1.00  0.00     0.204 C 
HETATM   35  O4  UNL     1      -6.747  -2.410 -26.990  1.00  0.00    -0.358 OA
HETATM   36  C18 UNL     1      -5.522  -1.853 -27.320  1.00  0.00     0.266 C 
HETATM   37  O5  UNL     1      -5.627  -0.545 -27.777  1.00  0.00    -0.361 OA
HETATM   38  C21 UNL     1      -4.751  -1.720 -26.023  1.00  0.00     0.075 C 
HETATM   39  C19 UNL     1      -5.833   0.283 -26.700  1.00  0.00     0.171 C 
HETATM   40  C20 UNL     1      -5.291  -0.444 -25.465  1.00  0.00     0.038 C 
ENDBRANCH  32  33
ENDBRANCH  29  32
ENDBRANCH   1  28
TORSDOF 13
ENDMDL
