MODEL 3
REMARK VINA RESULT: -10.561954949      1.034      1.974
REMARK  4 active torsions:
REMARK  status: ('A' for Active; 'I' for Inactive)
REMARK    1  A    between atoms: O1_2  and  C2_3 
REMARK    2  A    between atoms: C7_8  and  C8_9 
REMARK    3  A    between atoms: N2_12  and  C9_13 
REMARK    4  A    between atoms: C9_13  and  C10_14 
ROOT
HETATM    1  C8  UNL     1      18.701  16.018  64.266  1.00  0.00     0.076 A 
HETATM    2  N1  UNL     1      19.207  17.224  63.938  1.00  0.00    -0.295 N 
ATOM      3  H1  UNL     1      18.695  18.104  64.005  1.00  0.00     0.187 HD
HETATM    4  N2  UNL     1      20.454  17.115  63.519  1.00  0.00    -0.275 N 
HETATM    5  C15 UNL     1      20.824  15.812  63.556  1.00  0.00     0.139 A 
HETATM    6  N4  UNL     1      21.964  15.165  63.248  1.00  0.00    -0.337 N 
ATOM      7  H4  UNL     1      22.767  15.689  62.900  1.00  0.00     0.168 HD
HETATM    8  C16 UNL     1      22.050  13.835  63.396  1.00  0.00     0.183 A 
HETATM    9  N5  UNL     1      21.013  13.121  63.849  1.00  0.00    -0.340 N 
ATOM     10  H5  UNL     1      21.089  12.110  63.957  1.00  0.00     0.167 HD
HETATM   11  C17 UNL     1      19.861  13.762  64.161  1.00  0.00     0.133 A 
HETATM   12  N6  UNL     1      18.751  13.013  64.674  1.00  0.00    -0.082 NA
HETATM   13  C18 UNL     1      19.706  15.121  64.033  1.00  0.00     0.080 A 
ENDROOT
BRANCH   1  14
HETATM   14  C7  UNL     1      17.356  15.741  64.789  1.00  0.00    -0.006 A 
HETATM   15  C6  UNL     1      16.200  15.896  64.081  1.00  0.00     0.026 A 
HETATM   16  C5  UNL     1      14.935  15.603  64.581  1.00  0.00    -0.025 A 
HETATM   17  C4  UNL     1      13.793  15.773  63.830  1.00  0.00     0.015 A 
HETATM   18  C21 UNL     1      14.846  15.127  65.872  1.00  0.00    -0.023 A 
HETATM   19  C3  UNL     1      12.534  15.488  64.310  1.00  0.00     0.037 A 
HETATM   20  C2  UNL     1      12.455  15.012  65.605  1.00  0.00     0.069 A 
HETATM   21  C22 UNL     1      13.612  14.836  66.371  1.00  0.00     0.049 A 
HETATM   22  C20 UNL     1      16.012  14.958  66.625  1.00  0.00     0.013 A 
HETATM   23  C19 UNL     1      17.235  15.261  66.085  1.00  0.00     0.014 A 
BRANCH  20  24
HETATM   24  O1  UNL     1      11.229  14.690  66.193  1.00  0.00    -0.356 OA
HETATM   25  C1  UNL     1      10.292  13.986  65.430  1.00  0.00     0.210 C 
ENDBRANCH  20  24
ENDBRANCH   1  14
BRANCH   4  26
HETATM   26  C9  UNL     1      21.331  18.207  63.081  1.00  0.00     0.155 C 
BRANCH  26  27
HETATM   27  C10 UNL     1      21.086  18.548  61.627  1.00  0.00     0.009 C 
HETATM   28  C11 UNL     1      21.251  20.028  61.457  1.00  0.00     0.034 C 
HETATM   29  C12 UNL     1      21.134  20.446  60.004  1.00  0.00     0.232 C 
HETATM   30  N3  UNL     1      21.960  19.672  59.131  1.00  0.00    -0.075 N 
HETATM   31  C13 UNL     1      22.756  18.675  59.802  1.00  0.00     0.232 C 
ATOM     32  H32 UNL     1      21.400  19.245  58.394  1.00  0.00     0.277 HD
ATOM     33  H31 UNL     1      22.553  20.282  58.568  1.00  0.00     0.277 HD
HETATM   34  C14 UNL     1      21.972  17.779  60.701  1.00  0.00     0.034 C 
ENDBRANCH  26  27
ENDBRANCH   4  26
TORSDOF 4
ENDMDL
