MODEL 4
REMARK VINA RESULT: -10.165926037      3.856      8.628
REMARK  4 active torsions:
REMARK  status: ('A' for Active; 'I' for Inactive)
REMARK    1  A    between atoms: O1_2  and  C2_3 
REMARK    2  A    between atoms: C7_8  and  C8_9 
REMARK    3  A    between atoms: N2_12  and  C9_13 
REMARK    4  A    between atoms: C9_13  and  C10_14 
ROOT
HETATM    1  C8  UNL     1      16.490  15.905  64.213  1.00  0.00     0.076 A 
HETATM    2  N1  UNL     1      15.356  16.213  63.551  1.00  0.00    -0.295 N 
ATOM      3  H1  UNL     1      15.324  16.669  62.639  1.00  0.00     0.187 HD
HETATM    4  N2  UNL     1      14.292  15.845  64.240  1.00  0.00    -0.275 N 
HETATM    5  C15 UNL     1      14.690  15.270  65.401  1.00  0.00     0.139 A 
HETATM    6  N4  UNL     1      14.027  14.729  66.439  1.00  0.00    -0.337 N 
ATOM      7  H4  UNL     1      13.007  14.711  66.437  1.00  0.00     0.168 HD
HETATM    8  C16 UNL     1      14.700  14.212  67.478  1.00  0.00     0.183 A 
HETATM    9  N5  UNL     1      16.037  14.221  67.510  1.00  0.00    -0.340 N 
ATOM     10  H5  UNL     1      16.539  13.826  68.305  1.00  0.00     0.167 HD
HETATM   11  C17 UNL     1      16.715  14.764  66.469  1.00  0.00     0.133 A 
HETATM   12  N6  UNL     1      18.149  14.756  66.477  1.00  0.00    -0.082 NA
HETATM   13  C18 UNL     1      16.088  15.311  65.376  1.00  0.00     0.080 A 
ENDROOT
BRANCH   1  14
HETATM   14  C7  UNL     1      17.867  16.141  63.757  1.00  0.00    -0.006 A 
HETATM   15  C6  UNL     1      18.418  17.373  63.554  1.00  0.00     0.026 A 
HETATM   16  C5  UNL     1      19.732  17.581  63.148  1.00  0.00    -0.025 A 
HETATM   17  C4  UNL     1      20.248  18.844  62.957  1.00  0.00     0.015 A 
HETATM   18  C21 UNL     1      20.526  16.474  62.937  1.00  0.00    -0.023 A 
HETATM   19  C3  UNL     1      21.547  19.066  62.556  1.00  0.00     0.037 A 
HETATM   20  C2  UNL     1      22.334  17.950  62.347  1.00  0.00     0.069 A 
HETATM   21  C22 UNL     1      21.815  16.666  62.540  1.00  0.00     0.049 A 
HETATM   22  C20 UNL     1      19.991  15.196  63.134  1.00  0.00     0.013 A 
HETATM   23  C19 UNL     1      18.688  15.045  63.536  1.00  0.00     0.014 A 
BRANCH  20  24
HETATM   24  O1  UNL     1      23.666  18.059  61.938  1.00  0.00    -0.356 OA
HETATM   25  C1  UNL     1      23.950  17.967  60.572  1.00  0.00     0.210 C 
ENDBRANCH  20  24
ENDBRANCH   1  14
BRANCH   4  26
HETATM   26  C9  UNL     1      12.889  16.010  63.842  1.00  0.00     0.155 C 
BRANCH  26  27
HETATM   27  C10 UNL     1      12.158  14.687  63.873  1.00  0.00     0.009 C 
HETATM   28  C11 UNL     1      10.763  14.932  64.364  1.00  0.00     0.034 C 
HETATM   29  C12 UNL     1       9.919  13.673  64.321  1.00  0.00     0.232 C 
HETATM   30  N3  UNL     1       9.974  13.007  63.057  1.00  0.00    -0.075 N 
HETATM   31  C13 UNL     1      10.790  13.673  62.074  1.00  0.00     0.232 C 
ATOM     32  H32 UNL     1      10.276  12.040  63.176  1.00  0.00     0.277 HD
ATOM     33  H31 UNL     1       9.033  12.852  62.694  1.00  0.00     0.277 HD
HETATM   34  C14 UNL     1      12.168  13.995  62.548  1.00  0.00     0.034 C 
ENDBRANCH  26  27
ENDBRANCH   4  26
TORSDOF 4
ENDMDL
