MODEL 1
REMARK VINA RESULT: -10.672767137      0.000      0.000
REMARK  4 active torsions:
REMARK  status: ('A' for Active; 'I' for Inactive)
REMARK    1  A    between atoms: O1_2  and  C2_3 
REMARK    2  A    between atoms: C7_8  and  C8_9 
REMARK    3  A    between atoms: N2_12  and  C9_13 
REMARK    4  A    between atoms: C9_13  and  C10_14 
ROOT
HETATM    1  C8  UNL     1      19.743  15.917  64.051  1.00  0.00     0.076 A 
HETATM    2  N1  UNL     1      20.481  17.045  63.982  1.00  0.00    -0.295 N 
ATOM      3  H1  UNL     1      20.103  17.989  64.063  1.00  0.00     0.187 HD
HETATM    4  N2  UNL     1      21.756  16.763  63.796  1.00  0.00    -0.275 N 
HETATM    5  C15 UNL     1      21.912  15.418  63.734  1.00  0.00     0.139 A 
HETATM    6  N4  UNL     1      22.981  14.618  63.567  1.00  0.00    -0.337 N 
ATOM      7  H4  UNL     1      23.908  15.027  63.448  1.00  0.00     0.168 HD
HETATM    8  C16 UNL     1      22.835  13.285  63.557  1.00  0.00     0.183 A 
HETATM    9  N5  UNL     1      21.632  12.720  63.710  1.00  0.00    -0.340 N 
ATOM     10  H5  UNL     1      21.532  11.705  63.700  1.00  0.00     0.167 HD
HETATM   11  C17 UNL     1      20.549  13.517  63.879  1.00  0.00     0.133 A 
HETATM   12  N6  UNL     1      19.257  12.924  64.072  1.00  0.00    -0.082 NA
HETATM   13  C18 UNL     1      20.628  14.888  63.898  1.00  0.00     0.080 A 
ENDROOT
BRANCH   1  14
HETATM   14  C7  UNL     1      18.293  15.827  64.270  1.00  0.00    -0.006 A 
HETATM   15  C6  UNL     1      17.705  15.269  65.368  1.00  0.00     0.026 A 
HETATM   16  C5  UNL     1      16.330  15.216  65.573  1.00  0.00    -0.025 A 
HETATM   17  C4  UNL     1      15.780  14.643  66.698  1.00  0.00     0.015 A 
HETATM   18  C21 UNL     1      15.512  15.761  64.607  1.00  0.00    -0.023 A 
HETATM   19  C3  UNL     1      14.421  14.584  66.917  1.00  0.00     0.037 A 
HETATM   20  C2  UNL     1      13.610  15.132  65.943  1.00  0.00     0.069 A 
HETATM   21  C22 UNL     1      14.164  15.715  64.799  1.00  0.00     0.049 A 
HETATM   22  C20 UNL     1      16.081  16.340  63.469  1.00  0.00     0.013 A 
HETATM   23  C19 UNL     1      17.444  16.367  63.314  1.00  0.00     0.014 A 
BRANCH  20  24
HETATM   24  O1  UNL     1      12.217  15.126  66.061  1.00  0.00    -0.356 OA
HETATM   25  C1  UNL     1      11.457  15.565  64.973  1.00  0.00     0.210 C 
ENDBRANCH  20  24
ENDBRANCH   1  14
BRANCH   4  26
HETATM   26  C9  UNL     1      22.858  17.725  63.674  1.00  0.00     0.155 C 
BRANCH  26  27
HETATM   27  C10 UNL     1      22.779  18.477  62.364  1.00  0.00     0.009 C 
HETATM   28  C11 UNL     1      22.536  17.485  61.267  1.00  0.00     0.034 C 
HETATM   29  C12 UNL     1      22.331  18.164  59.927  1.00  0.00     0.232 C 
HETATM   30  N3  UNL     1      21.363  19.215  59.975  1.00  0.00    -0.075 N 
HETATM   31  C13 UNL     1      20.758  19.401  61.270  1.00  0.00     0.232 C 
ATOM     32  H32 UNL     1      21.768  20.089  59.642  1.00  0.00     0.277 HD
ATOM     33  H31 UNL     1      20.646  19.073  59.264  1.00  0.00     0.277 HD
HETATM   34  C14 UNL     1      21.742  19.553  62.382  1.00  0.00     0.034 C 
ENDBRANCH  26  27
ENDBRANCH   4  26
TORSDOF 4
ENDMDL
