MODEL 2
REMARK VINA RESULT: -10.622279711      0.704      1.108
REMARK  4 active torsions:
REMARK  status: ('A' for Active; 'I' for Inactive)
REMARK    1  A    between atoms: O1_2  and  C2_3 
REMARK    2  A    between atoms: C7_8  and  C8_9 
REMARK    3  A    between atoms: N2_12  and  C9_13 
REMARK    4  A    between atoms: C9_13  and  C10_14 
ROOT
HETATM    1  C8  UNL     1      19.463  15.874  64.102  1.00  0.00     0.076 A 
HETATM    2  N1  UNL     1      20.201  17.002  64.043  1.00  0.00    -0.295 N 
ATOM      3  H1  UNL     1      19.822  17.946  64.125  1.00  0.00     0.187 HD
HETATM    4  N2  UNL     1      21.479  16.722  63.866  1.00  0.00    -0.275 N 
HETATM    5  C15 UNL     1      21.635  15.377  63.801  1.00  0.00     0.139 A 
HETATM    6  N4  UNL     1      22.706  14.578  63.640  1.00  0.00    -0.337 N 
ATOM      7  H4  UNL     1      23.633  14.988  63.530  1.00  0.00     0.168 HD
HETATM    8  C16 UNL     1      22.561  13.245  63.624  1.00  0.00     0.183 A 
HETATM    9  N5  UNL     1      21.357  12.679  63.765  1.00  0.00    -0.340 N 
ATOM     10  H5  UNL     1      21.257  11.664  63.751  1.00  0.00     0.167 HD
HETATM   11  C17 UNL     1      20.272  13.475  63.928  1.00  0.00     0.133 A 
HETATM   12  N6  UNL     1      18.979  12.880  64.109  1.00  0.00    -0.082 NA
HETATM   13  C18 UNL     1      20.351  14.846  63.953  1.00  0.00     0.080 A 
ENDROOT
BRANCH   1  14
HETATM   14  C7  UNL     1      18.011  15.782  64.308  1.00  0.00    -0.006 A 
HETATM   15  C6  UNL     1      17.416  15.247  65.413  1.00  0.00     0.026 A 
HETATM   16  C5  UNL     1      16.039  15.192  65.606  1.00  0.00    -0.025 A 
HETATM   17  C4  UNL     1      15.480  14.643  66.739  1.00  0.00     0.015 A 
HETATM   18  C21 UNL     1      15.228  15.711  64.620  1.00  0.00    -0.023 A 
HETATM   19  C3  UNL     1      14.119  14.582  66.945  1.00  0.00     0.037 A 
HETATM   20  C2  UNL     1      13.315  15.105  65.951  1.00  0.00     0.069 A 
HETATM   21  C22 UNL     1      13.878  15.664  64.799  1.00  0.00     0.049 A 
HETATM   22  C20 UNL     1      15.806  16.267  63.474  1.00  0.00     0.013 A 
HETATM   23  C19 UNL     1      17.170  16.296  63.332  1.00  0.00     0.014 A 
BRANCH  20  24
HETATM   24  O1  UNL     1      11.921  15.095  66.056  1.00  0.00    -0.356 OA
HETATM   25  C1  UNL     1      11.170  15.479  64.941  1.00  0.00     0.210 C 
ENDBRANCH  20  24
ENDBRANCH   1  14
BRANCH   4  26
HETATM   26  C9  UNL     1      22.581  17.685  63.758  1.00  0.00     0.155 C 
BRANCH  26  27
HETATM   27  C10 UNL     1      22.358  18.635  62.603  1.00  0.00     0.009 C 
HETATM   28  C11 UNL     1      23.432  19.680  62.639  1.00  0.00     0.034 C 
HETATM   29  C12 UNL     1      23.352  20.615  61.448  1.00  0.00     0.232 C 
HETATM   30  N3  UNL     1      23.267  19.923  60.200  1.00  0.00    -0.075 N 
HETATM   31  C13 UNL     1      23.302  18.487  60.318  1.00  0.00     0.232 C 
ATOM     32  H32 UNL     1      22.439  20.218  59.683  1.00  0.00     0.277 HD
ATOM     33  H31 UNL     1      23.994  20.246  59.562  1.00  0.00     0.277 HD
HETATM   34  C14 UNL     1      22.308  17.934  61.284  1.00  0.00     0.034 C 
ENDBRANCH  26  27
ENDBRANCH   4  26
TORSDOF 4
ENDMDL
