MODEL 5
REMARK VINA RESULT: -9.877187309      3.888      8.570
REMARK  4 active torsions:
REMARK  status: ('A' for Active; 'I' for Inactive)
REMARK    1  A    between atoms: O1_2  and  C2_3 
REMARK    2  A    between atoms: C7_8  and  C8_9 
REMARK    3  A    between atoms: N2_12  and  C9_13 
REMARK    4  A    between atoms: C9_13  and  C10_14 
ROOT
HETATM    1  C8  UNL     1      16.538  15.923  64.329  1.00  0.00     0.076 A 
HETATM    2  N1  UNL     1      15.458  16.233  63.581  1.00  0.00    -0.295 N 
ATOM      3  H1  UNL     1      15.496  16.707  62.678  1.00  0.00     0.187 HD
HETATM    4  N2  UNL     1      14.346  15.842  64.173  1.00  0.00    -0.275 N 
HETATM    5  C15 UNL     1      14.653  15.248  65.352  1.00  0.00     0.139 A 
HETATM    6  N4  UNL     1      13.912  14.680  66.322  1.00  0.00    -0.337 N 
ATOM      7  H4  UNL     1      12.897  14.653  66.236  1.00  0.00     0.168 HD
HETATM    8  C16 UNL     1      14.503  14.149  67.403  1.00  0.00     0.183 A 
HETATM    9  N5  UNL     1      15.833  14.170  67.545  1.00  0.00    -0.340 N 
ATOM     10  H5  UNL     1      16.272  13.764  68.371  1.00  0.00     0.167 HD
HETATM   11  C17 UNL     1      16.588  14.740  66.574  1.00  0.00     0.133 A 
HETATM   12  N6  UNL     1      18.017  14.745  66.700  1.00  0.00    -0.082 NA
HETATM   13  C18 UNL     1      16.047  15.302  65.443  1.00  0.00     0.080 A 
ENDROOT
BRANCH   1  14
HETATM   14  C7  UNL     1      17.944  16.181  63.992  1.00  0.00    -0.006 A 
HETATM   15  C6  UNL     1      18.958  15.280  64.144  1.00  0.00     0.026 A 
HETATM   16  C5  UNL     1      20.281  15.530  63.795  1.00  0.00    -0.025 A 
HETATM   17  C4  UNL     1      21.274  14.590  63.965  1.00  0.00     0.015 A 
HETATM   18  C21 UNL     1      20.586  16.764  63.262  1.00  0.00    -0.023 A 
HETATM   19  C3  UNL     1      22.588  14.822  63.624  1.00  0.00     0.037 A 
HETATM   20  C2  UNL     1      22.883  16.062  63.091  1.00  0.00     0.069 A 
HETATM   21  C22 UNL     1      21.879  17.019  62.915  1.00  0.00     0.049 A 
HETATM   22  C20 UNL     1      19.570  17.711  63.093  1.00  0.00     0.013 A 
HETATM   23  C19 UNL     1      18.281  17.414  63.454  1.00  0.00     0.014 A 
BRANCH  20  24
HETATM   24  O1  UNL     1      24.183  16.405  62.710  1.00  0.00    -0.356 OA
HETATM   25  C1  UNL     1      25.235  15.589  63.137  1.00  0.00     0.210 C 
ENDBRANCH  20  24
ENDBRANCH   1  14
BRANCH   4  26
HETATM   26  C9  UNL     1      12.978  16.002  63.665  1.00  0.00     0.155 C 
BRANCH  26  27
HETATM   27  C10 UNL     1      12.199  14.712  63.788  1.00  0.00     0.009 C 
HETATM   28  C11 UNL     1      10.810  15.043  64.242  1.00  0.00     0.034 C 
HETATM   29  C12 UNL     1       9.922  13.814  64.286  1.00  0.00     0.232 C 
HETATM   30  N3  UNL     1       9.964  13.051  63.078  1.00  0.00    -0.075 N 
HETATM   31  C13 UNL     1      10.813  13.610  62.056  1.00  0.00     0.232 C 
ATOM     32  H32 UNL     1      10.230  12.086  63.274  1.00  0.00     0.277 HD
ATOM     33  H31 UNL     1       9.022  12.902  62.717  1.00  0.00     0.277 HD
HETATM   34  C14 UNL     1      12.197  13.920  62.521  1.00  0.00     0.034 C 
ENDBRANCH  26  27
ENDBRANCH   4  26
TORSDOF 4
ENDMDL
