MODEL 9
REMARK VINA RESULT: -9.155746566      3.557      8.297
REMARK  4 active torsions:
REMARK  status: ('A' for Active; 'I' for Inactive)
REMARK    1  A    between atoms: O1_2  and  C2_3 
REMARK    2  A    between atoms: C7_8  and  C8_9 
REMARK    3  A    between atoms: N2_12  and  C9_13 
REMARK    4  A    between atoms: C9_13  and  C10_14 
ROOT
HETATM    1  C8  UNL     1      19.854  16.986  63.280  1.00  0.00     0.076 A 
HETATM    2  N1  UNL     1      18.519  17.184  63.297  1.00  0.00    -0.295 N 
ATOM      3  H1  UNL     1      18.066  18.087  63.156  1.00  0.00     0.187 HD
HETATM    4  N2  UNL     1      17.877  16.053  63.522  1.00  0.00    -0.275 N 
HETATM    5  C15 UNL     1      18.777  15.050  63.663  1.00  0.00     0.139 A 
HETATM    6  N4  UNL     1      18.661  13.729  63.894  1.00  0.00    -0.337 N 
ATOM      7  H4  UNL     1      17.737  13.313  64.006  1.00  0.00     0.168 HD
HETATM    8  C16 UNL     1      19.754  12.956  63.978  1.00  0.00     0.183 A 
HETATM    9  N5  UNL     1      20.979  13.474  63.836  1.00  0.00    -0.340 N 
ATOM     10  H5  UNL     1      21.804  12.878  63.902  1.00  0.00     0.167 HD
HETATM   11  C17 UNL     1      21.108  14.803  63.603  1.00  0.00     0.133 A 
HETATM   12  N6  UNL     1      22.414  15.367  63.421  1.00  0.00    -0.082 NA
HETATM   13  C18 UNL     1      20.030  15.650  63.506  1.00  0.00     0.080 A 
ENDROOT
BRANCH   1  14
HETATM   14  C7  UNL     1      20.890  18.000  63.041  1.00  0.00    -0.006 A 
HETATM   15  C6  UNL     1      21.051  18.687  61.873  1.00  0.00     0.026 A 
HETATM   16  C5  UNL     1      22.021  19.664  61.671  1.00  0.00    -0.025 A 
HETATM   17  C4  UNL     1      22.147  20.334  60.475  1.00  0.00     0.015 A 
HETATM   18  C21 UNL     1      22.871  19.955  62.716  1.00  0.00    -0.023 A 
HETATM   19  C3  UNL     1      23.101  21.304  60.259  1.00  0.00     0.037 A 
HETATM   20  C2  UNL     1      23.948  21.588  61.313  1.00  0.00     0.069 A 
HETATM   21  C22 UNL     1      23.824  20.911  62.530  1.00  0.00     0.049 A 
HETATM   22  C20 UNL     1      22.734  19.268  63.927  1.00  0.00     0.013 A 
HETATM   23  C19 UNL     1      21.760  18.313  64.075  1.00  0.00     0.014 A 
BRANCH  20  24
HETATM   24  O1  UNL     1      24.953  22.554  61.205  1.00  0.00    -0.356 OA
HETATM   25  C1  UNL     1      25.517  22.785  59.947  1.00  0.00     0.210 C 
ENDBRANCH  20  24
ENDBRANCH   1  14
BRANCH   4  26
HETATM   26  C9  UNL     1      16.423  15.872  63.607  1.00  0.00     0.155 C 
BRANCH  26  27
HETATM   27  C10 UNL     1      15.953  15.936  65.043  1.00  0.00     0.009 C 
HETATM   28  C11 UNL     1      14.550  15.412  65.102  1.00  0.00     0.034 C 
HETATM   29  C12 UNL     1      14.035  15.335  66.527  1.00  0.00     0.232 C 
HETATM   30  N3  UNL     1      14.936  14.664  67.411  1.00  0.00    -0.075 N 
HETATM   31  C13 UNL     1      16.132  14.173  66.774  1.00  0.00     0.232 C 
ATOM     32  H32 UNL     1      15.173  15.263  68.202  1.00  0.00     0.277 HD
ATOM     33  H31 UNL     1      14.459  13.909  67.902  1.00  0.00     0.277 HD
HETATM   34  C14 UNL     1      16.861  15.204  65.977  1.00  0.00     0.034 C 
ENDBRANCH  26  27
ENDBRANCH   4  26
TORSDOF 4
ENDMDL
