MODEL 9
REMARK VINA RESULT: -6.931925838      3.042      4.493
REMARK  3 active torsions:
REMARK  status: ('A' for Active; 'I' for Inactive)
REMARK    1  A    between atoms: C2_2  and  C3_3 
REMARK    2  A    between atoms: C6_8  and  C7_9 
REMARK    3  A    between atoms: C7_9  and  C8_10 
ROOT
HETATM    1  C3  UNL     1      22.595  26.437  15.044  1.00  0.00     0.091 C 
HETATM    2  C4  UNL     1      22.429  25.663  16.273  1.00  0.00     0.263 C 
HETATM    3  O1  UNL     1      23.026  25.784  17.345  1.00  0.00    -0.265 OA
HETATM    4  O2  UNL     1      21.424  24.730  15.971  1.00  0.00    -0.321 OA
HETATM    5  C5  UNL     1      21.055  24.839  14.582  1.00  0.00     0.184 C 
HETATM    6  C6  UNL     1      22.421  25.379  14.018  1.00  0.00     0.029 C 
ENDROOT
BRANCH   6   7
HETATM    7  C7  UNL     1      23.302  24.203  14.027  1.00  0.00     0.066 C 
BRANCH   7   8
HETATM    8  C8  UNL     1      24.467  24.165  13.151  1.00  0.00     0.028 A 
HETATM    9  C9  UNL     1      24.544  24.112  11.772  1.00  0.00     0.114 A 
HETATM   10  N1  UNL     1      25.823  24.091  11.364  1.00  0.00    -0.360 N 
HETATM   11  C10 UNL     1      26.559  24.131  12.478  1.00  0.00     0.182 A 
ATOM     12  H1  UNL     1      26.162  24.053  10.404  1.00  0.00     0.166 HD
HETATM   13  N2  UNL     1      25.779  24.175  13.548  1.00  0.00    -0.350 N 
HETATM   14  C11 UNL     1      26.195  24.227  14.948  1.00  0.00     0.156 C 
ENDBRANCH   7   8
ENDBRANCH   6   7
BRANCH   1  15
HETATM   15  C2  UNL     1      23.698  27.389  14.947  1.00  0.00     0.010 C 
HETATM   16  C1  UNL     1      23.743  27.850  13.471  1.00  0.00     0.006 C 
ENDBRANCH   1  15
TORSDOF 3
ENDMDL
