MODEL 7
REMARK VINA RESULT: -6.987109442      3.253      4.783
REMARK  3 active torsions:
REMARK  status: ('A' for Active; 'I' for Inactive)
REMARK    1  A    between atoms: C2_2  and  C3_3 
REMARK    2  A    between atoms: C6_8  and  C7_9 
REMARK    3  A    between atoms: C7_9  and  C8_10 
ROOT
HETATM    1  C3  UNL     1      22.220  26.641  15.505  1.00  0.00     0.091 C 
HETATM    2  C4  UNL     1      21.901  25.557  16.432  1.00  0.00     0.263 C 
HETATM    3  O1  UNL     1      22.014  25.537  17.660  1.00  0.00    -0.265 OA
HETATM    4  O2  UNL     1      21.429  24.519  15.614  1.00  0.00    -0.321 OA
HETATM    5  C5  UNL     1      21.550  24.892  14.227  1.00  0.00     0.184 C 
HETATM    6  C6  UNL     1      22.770  25.879  14.357  1.00  0.00     0.029 C 
ENDROOT
BRANCH   6   7
HETATM    7  C7  UNL     1      23.926  24.994  14.556  1.00  0.00     0.066 C 
BRANCH   7   8
HETATM    8  C8  UNL     1      24.792  24.670  13.428  1.00  0.00     0.028 A 
HETATM    9  C9  UNL     1      24.538  24.709  12.069  1.00  0.00     0.114 A 
HETATM   10  N1  UNL     1      25.619  24.328  11.370  1.00  0.00    -0.360 N 
HETATM   11  C10 UNL     1      26.557  24.048  12.278  1.00  0.00     0.182 A 
ATOM     12  H1  UNL     1      25.705  24.265  10.356  1.00  0.00     0.166 HD
HETATM   13  N2  UNL     1      26.092  24.243  13.502  1.00  0.00    -0.350 N 
HETATM   14  C11 UNL     1      26.804  24.050  14.763  1.00  0.00     0.156 C 
ENDBRANCH   7   8
ENDBRANCH   6   7
BRANCH   1  15
HETATM   15  C2  UNL     1      22.911  27.825  16.006  1.00  0.00     0.010 C 
HETATM   16  C1  UNL     1      21.823  28.903  16.222  1.00  0.00     0.006 C 
ENDBRANCH   1  15
TORSDOF 3
ENDMDL
