MODEL 8
REMARK VINA RESULT: -6.968261535      3.044      4.619
REMARK  3 active torsions:
REMARK  status: ('A' for Active; 'I' for Inactive)
REMARK    1  A    between atoms: C2_2  and  C3_3 
REMARK    2  A    between atoms: C6_8  and  C7_9 
REMARK    3  A    between atoms: C7_9  and  C8_10 
ROOT
HETATM    1  C3  UNL     1      22.732  27.167  15.461  1.00  0.00     0.091 C 
HETATM    2  C4  UNL     1      23.010  25.911  16.155  1.00  0.00     0.263 C 
HETATM    3  O1  UNL     1      23.249  25.729  17.351  1.00  0.00    -0.265 OA
HETATM    4  O2  UNL     1      22.946  24.931  15.152  1.00  0.00    -0.321 OA
HETATM    5  C5  UNL     1      22.748  25.554  13.868  1.00  0.00     0.184 C 
HETATM    6  C6  UNL     1      23.431  26.939  14.172  1.00  0.00     0.029 C 
ENDROOT
BRANCH   6   7
HETATM    7  C7  UNL     1      24.869  26.638  14.167  1.00  0.00     0.066 C 
BRANCH   7   8
HETATM    8  C8  UNL     1      25.420  25.752  13.148  1.00  0.00     0.028 A 
HETATM    9  C9  UNL     1      25.364  25.837  11.769  1.00  0.00     0.114 A 
HETATM   10  N1  UNL     1      26.007  24.805  11.199  1.00  0.00    -0.360 N 
HETATM   11  C10 UNL     1      26.471  24.066  12.210  1.00  0.00     0.182 A 
ATOM     12  H1  UNL     1      26.118  24.624  10.202  1.00  0.00     0.166 HD
HETATM   13  N2  UNL     1      26.137  24.606  13.372  1.00  0.00    -0.350 N 
HETATM   14  C11 UNL     1      26.452  24.104  14.707  1.00  0.00     0.156 C 
ENDBRANCH   7   8
ENDBRANCH   6   7
BRANCH   1  15
HETATM   15  C2  UNL     1      22.895  28.427  16.180  1.00  0.00     0.010 C 
HETATM   16  C1  UNL     1      21.521  29.137  16.128  1.00  0.00     0.006 C 
ENDBRANCH   1  15
TORSDOF 3
ENDMDL
