MODEL 10
REMARK VINA RESULT: -6.899240059      3.089      4.757
REMARK  3 active torsions:
REMARK  status: ('A' for Active; 'I' for Inactive)
REMARK    1  A    between atoms: C2_2  and  C3_3 
REMARK    2  A    between atoms: C6_8  and  C7_9 
REMARK    3  A    between atoms: C7_9  and  C8_10 
ROOT
HETATM    1  C3  UNL     1      22.810  27.036  15.300  1.00  0.00     0.091 C 
HETATM    2  C4  UNL     1      22.983  25.822  16.096  1.00  0.00     0.263 C 
HETATM    3  O1  UNL     1      23.123  25.716  17.316  1.00  0.00    -0.265 OA
HETATM    4  O2  UNL     1      22.959  24.778  15.157  1.00  0.00    -0.321 OA
HETATM    5  C5  UNL     1      22.886  25.318  13.823  1.00  0.00     0.184 C 
HETATM    6  C6  UNL     1      23.597  26.696  14.089  1.00  0.00     0.029 C 
ENDROOT
BRANCH   6   7
HETATM    7  C7  UNL     1      25.018  26.347  14.218  1.00  0.00     0.066 C 
BRANCH   7   8
HETATM    8  C8  UNL     1      25.625  25.422  13.268  1.00  0.00     0.028 A 
HETATM    9  C9  UNL     1      26.148  24.157  13.465  1.00  0.00     0.114 A 
HETATM   10  N1  UNL     1      26.612  23.646  12.314  1.00  0.00    -0.360 N 
HETATM   11  C10 UNL     1      26.386  24.580  11.387  1.00  0.00     0.182 A 
ATOM     12  H1  UNL     1      27.047  22.734  12.177  1.00  0.00     0.166 HD
HETATM   13  N2  UNL     1      25.803  25.639  11.927  1.00  0.00    -0.350 N 
HETATM   14  C11 UNL     1      25.394  26.869  11.251  1.00  0.00     0.156 C 
ENDBRANCH   7   8
ENDBRANCH   6   7
BRANCH   1  15
HETATM   15  C2  UNL     1      22.966  28.337  15.944  1.00  0.00     0.010 C 
HETATM   16  C1  UNL     1      21.558  28.977  15.976  1.00  0.00     0.006 C 
ENDBRANCH   1  15
TORSDOF 3
ENDMDL
