MODEL 3
REMARK VINA RESULT: -7.305454750      1.629      2.619
REMARK  3 active torsions:
REMARK  status: ('A' for Active; 'I' for Inactive)
REMARK    1  A    between atoms: C2_2  and  C3_3 
REMARK    2  A    between atoms: C6_8  and  C7_9 
REMARK    3  A    between atoms: C7_9  and  C8_10 
ROOT
HETATM    1  C3  UNL     1      25.635  24.635  13.023  1.00  0.00     0.091 C 
HETATM    2  C4  UNL     1      25.503  25.362  11.762  1.00  0.00     0.263 C 
HETATM    3  O1  UNL     1      26.067  26.400  11.409  1.00  0.00    -0.265 OA
HETATM    4  O2  UNL     1      24.575  24.614  11.018  1.00  0.00    -0.321 OA
HETATM    5  C5  UNL     1      24.065  23.530  11.818  1.00  0.00     0.184 C 
HETATM    6  C6  UNL     1      24.238  24.185  13.239  1.00  0.00     0.029 C 
ENDROOT
BRANCH   6   7
HETATM    7  C7  UNL     1      23.156  25.176  13.310  1.00  0.00     0.066 C 
BRANCH   7   8
HETATM    8  C8  UNL     1      22.815  25.784  14.591  1.00  0.00     0.028 A 
HETATM    9  C9  UNL     1      22.096  25.275  15.656  1.00  0.00     0.114 A 
HETATM   10  N1  UNL     1      22.013  26.172  16.651  1.00  0.00    -0.360 N 
HETATM   11  C10 UNL     1      22.677  27.249  16.222  1.00  0.00     0.182 A 
ATOM     12  H1  UNL     1      21.541  26.056  17.547  1.00  0.00     0.166 HD
HETATM   13  N2  UNL     1      23.160  27.043  15.007  1.00  0.00    -0.350 N 
HETATM   14  C11 UNL     1      23.941  27.973  14.194  1.00  0.00     0.156 C 
ENDBRANCH   7   8
ENDBRANCH   6   7
BRANCH   1  15
HETATM   15  C2  UNL     1      26.396  25.237  14.114  1.00  0.00     0.010 C 
HETATM   16  C1  UNL     1      26.891  24.065  14.995  1.00  0.00     0.006 C 
ENDBRANCH   1  15
TORSDOF 3
ENDMDL
