MODEL 2
REMARK VINA RESULT: -7.550814071      0.708      1.569
REMARK  3 active torsions:
REMARK  status: ('A' for Active; 'I' for Inactive)
REMARK    1  A    between atoms: C2_2  and  C3_3 
REMARK    2  A    between atoms: C6_8  and  C7_9 
REMARK    3  A    between atoms: C7_9  and  C8_10 
ROOT
HETATM    1  C3  UNL     1      26.010  25.740  13.101  1.00  0.00     0.091 C 
HETATM    2  C4  UNL     1      26.007  24.486  12.350  1.00  0.00     0.263 C 
HETATM    3  O1  UNL     1      25.488  24.244  11.258  1.00  0.00    -0.265 OA
HETATM    4  O2  UNL     1      26.733  23.591  13.153  1.00  0.00    -0.321 OA
HETATM    5  C5  UNL     1      27.082  24.222  14.401  1.00  0.00     0.184 C 
HETATM    6  C6  UNL     1      25.883  25.239  14.492  1.00  0.00     0.029 C 
ENDROOT
BRANCH   6   7
HETATM    7  C7  UNL     1      24.733  24.403  14.862  1.00  0.00     0.066 C 
BRANCH   7   8
HETATM    8  C8  UNL     1      23.463  25.031  15.208  1.00  0.00     0.028 A 
HETATM    9  C9  UNL     1      23.077  25.685  16.363  1.00  0.00     0.114 A 
HETATM   10  N1  UNL     1      21.811  26.118  16.268  1.00  0.00    -0.360 N 
HETATM   11  C10 UNL     1      21.390  25.744  15.057  1.00  0.00     0.182 A 
ATOM     12  H1  UNL     1      21.280  26.628  16.974  1.00  0.00     0.166 HD
HETATM   13  N2  UNL     1      22.350  25.100  14.411  1.00  0.00    -0.350 N 
HETATM   14  C11 UNL     1      22.288  24.531  13.067  1.00  0.00     0.156 C 
ENDBRANCH   7   8
ENDBRANCH   6   7
BRANCH   1  15
HETATM   15  C2  UNL     1      25.184  26.850  12.635  1.00  0.00     0.010 C 
HETATM   16  C1  UNL     1      25.121  27.863  13.803  1.00  0.00     0.006 C 
ENDBRANCH   1  15
TORSDOF 3
ENDMDL
