MODEL 1
REMARK VINA RESULT: -7.615335026      0.000      0.000
REMARK  3 active torsions:
REMARK  status: ('A' for Active; 'I' for Inactive)
REMARK    1  A    between atoms: C2_2  and  C3_3 
REMARK    2  A    between atoms: C6_8  and  C7_9 
REMARK    3  A    between atoms: C7_9  and  C8_10 
ROOT
HETATM    1  C3  UNL     1      25.769  25.813  13.064  1.00  0.00     0.091 C 
HETATM    2  C4  UNL     1      26.109  24.688  12.195  1.00  0.00     0.263 C 
HETATM    3  O1  UNL     1      25.864  24.540  10.996  1.00  0.00    -0.265 OA
HETATM    4  O2  UNL     1      26.788  23.787  13.032  1.00  0.00    -0.321 OA
HETATM    5  C5  UNL     1      26.777  24.274  14.388  1.00  0.00     0.184 C 
HETATM    6  C6  UNL     1      25.444  25.107  14.328  1.00  0.00     0.029 C 
ENDROOT
BRANCH   6   7
HETATM    7  C7  UNL     1      24.385  24.089  14.342  1.00  0.00     0.066 C 
BRANCH   7   8
HETATM    8  C8  UNL     1      22.993  24.494  14.497  1.00  0.00     0.028 A 
HETATM    9  C9  UNL     1      21.892  24.224  13.705  1.00  0.00     0.114 A 
HETATM   10  N1  UNL     1      20.786  24.793  14.212  1.00  0.00    -0.360 N 
HETATM   11  C10 UNL     1      21.180  25.422  15.322  1.00  0.00     0.182 A 
ATOM     12  H1  UNL     1      19.843  24.753  13.829  1.00  0.00     0.166 HD
HETATM   13  N2  UNL     1      22.480  25.260  15.512  1.00  0.00    -0.350 N 
HETATM   14  C11 UNL     1      23.290  25.789  16.607  1.00  0.00     0.156 C 
ENDBRANCH   7   8
ENDBRANCH   6   7
BRANCH   1  15
HETATM   15  C2  UNL     1      24.893  26.864  12.556  1.00  0.00     0.010 C 
HETATM   16  C1  UNL     1      24.602  27.801  13.752  1.00  0.00     0.006 C 
ENDBRANCH   1  15
TORSDOF 3
ENDMDL
