MODEL 14
REMARK VINA RESULT: -6.645958698      3.268      4.775
REMARK  3 active torsions:
REMARK  status: ('A' for Active; 'I' for Inactive)
REMARK    1  A    between atoms: C2_2  and  C3_3 
REMARK    2  A    between atoms: C6_8  and  C7_9 
REMARK    3  A    between atoms: C7_9  and  C8_10 
ROOT
HETATM    1  C3  UNL     1      22.129  26.626  15.520  1.00  0.00     0.091 C 
HETATM    2  C4  UNL     1      21.917  25.556  16.493  1.00  0.00     0.263 C 
HETATM    3  O1  UNL     1      22.178  25.549  17.698  1.00  0.00    -0.265 OA
HETATM    4  O2  UNL     1      21.340  24.512  15.752  1.00  0.00    -0.321 OA
HETATM    5  C5  UNL     1      21.295  24.868  14.356  1.00  0.00     0.184 C 
HETATM    6  C6  UNL     1      22.528  25.845  14.323  1.00  0.00     0.029 C 
ENDROOT
BRANCH   6   7
HETATM    7  C7  UNL     1      23.693  24.952  14.391  1.00  0.00     0.066 C 
BRANCH   7   8
HETATM    8  C8  UNL     1      24.540  24.776  13.217  1.00  0.00     0.028 A 
HETATM    9  C9  UNL     1      24.534  23.784  12.255  1.00  0.00     0.114 A 
HETATM   10  N1  UNL     1      25.489  24.002  11.336  1.00  0.00    -0.360 N 
HETATM   11  C10 UNL     1      26.100  25.129  11.711  1.00  0.00     0.182 A 
ATOM     12  H1  UNL     1      25.703  23.427  10.522  1.00  0.00     0.166 HD
HETATM   13  N2  UNL     1      25.557  25.606  12.820  1.00  0.00    -0.350 N 
HETATM   14  C11 UNL     1      25.938  26.814  13.547  1.00  0.00     0.156 C 
ENDBRANCH   7   8
ENDBRANCH   6   7
BRANCH   1  15
HETATM   15  C2  UNL     1      22.885  27.809  15.918  1.00  0.00     0.010 C 
HETATM   16  C1  UNL     1      21.839  28.892  16.273  1.00  0.00     0.006 C 
ENDBRANCH   1  15
TORSDOF 3
ENDMDL
