MODEL 1
REMARK VINA RESULT: -7.475005032      0.000      0.000
REMARK  3 active torsions:
REMARK  status: ('A' for Active; 'I' for Inactive)
REMARK    1  A    between atoms: S1_2  and  N1_4 
REMARK    2  A    between atoms: S1_2  and  C1_8 
REMARK    3  A    between atoms: N1_4  and  O3_6 
ROOT
HETATM    1  O1  UNL     1      -6.805   0.199  16.403  1.00  0.00    -0.199 OA
HETATM    2  S1  UNL     1      -5.546   0.880  16.793  1.00  0.00     0.280 S 
HETATM    3  O2  UNL     1      -5.337   0.655  18.280  1.00  0.00    -0.199 OA
ENDROOT
BRANCH   2   4
HETATM    4  N1  UNL     1      -4.187   0.194  15.994  1.00  0.00    -0.190 N 
ATOM      5  H1  UNL     1      -3.224   0.320  16.307  1.00  0.00     0.207 HD
BRANCH   4   6
HETATM    6  O3  UNL     1      -4.532  -0.525  14.911  1.00  0.00    -0.280 OA
ATOM      7  H3  UNL     1      -3.781  -0.795  14.397  1.00  0.00     0.245 HD
ENDBRANCH   4   6
ENDBRANCH   2   4
BRANCH   2   8
HETATM    8  C1  UNL     1      -5.684   2.591  16.539  1.00  0.00     0.081 A 
HETATM    9  C2  UNL     1      -5.085   3.182  15.442  1.00  0.00     0.025 A 
HETATM   10  C3  UNL     1      -5.170   4.537  15.204  1.00  0.00     0.002 A 
HETATM   11  C4  UNL     1      -5.886   5.299  16.110  1.00  0.00     0.000 A 
HETATM   12  C5  UNL     1      -6.488   4.717  17.209  1.00  0.00     0.002 A 
HETATM   13  C6  UNL     1      -6.388   3.359  17.426  1.00  0.00     0.025 A 
ENDBRANCH   2   8
TORSDOF 3
ENDMDL
