MODEL 5
REMARK VINA RESULT: -6.653296597      1.142      2.427
REMARK  3 active torsions:
REMARK  status: ('A' for Active; 'I' for Inactive)
REMARK    1  A    between atoms: S1_2  and  N1_4 
REMARK    2  A    between atoms: S1_2  and  C1_8 
REMARK    3  A    between atoms: N1_4  and  O3_6 
ROOT
HETATM    1  O1  UNL     1      -3.509   0.852  16.626  1.00  0.00    -0.199 OA
HETATM    2  S1  UNL     1      -4.937   1.037  16.265  1.00  0.00     0.280 S 
HETATM    3  O2  UNL     1      -5.151   0.431  14.889  1.00  0.00    -0.199 OA
ENDROOT
BRANCH   2   4
HETATM    4  N1  UNL     1      -5.973   0.188  17.343  1.00  0.00    -0.190 N 
ATOM      5  H1  UNL     1      -5.639  -0.347  18.145  1.00  0.00     0.207 HD
BRANCH   4   6
HETATM    6  O3  UNL     1      -7.272   0.308  17.014  1.00  0.00    -0.280 OA
ATOM      7  H3  UNL     1      -7.851  -0.067  17.667  1.00  0.00     0.245 HD
ENDBRANCH   4   6
ENDBRANCH   2   4
BRANCH   2   8
HETATM    8  C1  UNL     1      -5.316   2.726  16.157  1.00  0.00     0.081 A 
HETATM    9  C2  UNL     1      -6.127   3.320  17.106  1.00  0.00     0.025 A 
HETATM   10  C3  UNL     1      -6.452   4.658  17.056  1.00  0.00     0.002 A 
HETATM   11  C4  UNL     1      -5.933   5.401  16.011  1.00  0.00     0.000 A 
HETATM   12  C5  UNL     1      -5.122   4.817  15.057  1.00  0.00     0.002 A 
HETATM   13  C6  UNL     1      -4.811   3.475  15.129  1.00  0.00     0.025 A 
ENDBRANCH   2   8
TORSDOF 3
ENDMDL
