MODEL 3
REMARK VINA RESULT: -7.226955063      1.104      1.104
REMARK  3 active torsions:
REMARK  status: ('A' for Active; 'I' for Inactive)
REMARK    1  A    between atoms: S1_2  and  N1_4 
REMARK    2  A    between atoms: S1_2  and  C1_8 
REMARK    3  A    between atoms: N1_4  and  O3_6 
ROOT
HETATM    1  O1  UNL     1      -6.053   0.222  16.259  1.00  0.00    -0.199 OA
HETATM    2  S1  UNL     1      -4.965   1.122  15.802  1.00  0.00     0.280 S 
HETATM    3  O2  UNL     1      -3.744   0.848  16.662  1.00  0.00    -0.199 OA
ENDROOT
BRANCH   2   4
HETATM    4  N1  UNL     1      -4.510   0.786  14.179  1.00  0.00    -0.190 N 
ATOM      5  H1  UNL     1      -4.317   1.507  13.484  1.00  0.00     0.207 HD
BRANCH   4   6
HETATM    6  O3  UNL     1      -4.437  -0.534  13.925  1.00  0.00    -0.280 OA
ATOM      7  H3  UNL     1      -4.652  -0.745  13.024  1.00  0.00     0.245 HD
ENDBRANCH   4   6
ENDBRANCH   2   4
BRANCH   2   8
HETATM    8  C1  UNL     1      -5.413   2.780  16.046  1.00  0.00     0.081 A 
HETATM    9  C2  UNL     1      -5.007   3.750  15.149  1.00  0.00     0.025 A 
HETATM   10  C3  UNL     1      -5.341   5.078  15.306  1.00  0.00     0.002 A 
HETATM   11  C4  UNL     1      -6.109   5.415  16.406  1.00  0.00     0.000 A 
HETATM   12  C5  UNL     1      -6.520   4.453  17.308  1.00  0.00     0.002 A 
HETATM   13  C6  UNL     1      -6.173   3.131  17.129  1.00  0.00     0.025 A 
ENDBRANCH   2   8
TORSDOF 3
ENDMDL
