MODEL 4
REMARK VINA RESULT: -7.205785643      1.092      1.779
REMARK  3 active torsions:
REMARK  status: ('A' for Active; 'I' for Inactive)
REMARK    1  A    between atoms: S1_2  and  N1_4 
REMARK    2  A    between atoms: S1_2  and  C1_8 
REMARK    3  A    between atoms: N1_4  and  O3_6 
ROOT
HETATM    1  O1  UNL     1      -6.071   0.219  16.253  1.00  0.00    -0.199 OA
HETATM    2  S1  UNL     1      -4.973   1.112  15.806  1.00  0.00     0.280 S 
HETATM    3  O2  UNL     1      -3.764   0.836  16.682  1.00  0.00    -0.199 OA
ENDROOT
BRANCH   2   4
HETATM    4  N1  UNL     1      -4.500   0.766  14.190  1.00  0.00    -0.190 N 
ATOM      5  H1  UNL     1      -4.292   1.484  13.495  1.00  0.00     0.207 HD
BRANCH   4   6
HETATM    6  O3  UNL     1      -4.435  -0.555  13.941  1.00  0.00    -0.280 OA
ATOM      7  H3  UNL     1      -3.621  -0.808  13.523  1.00  0.00     0.245 HD
ENDBRANCH   4   6
ENDBRANCH   2   4
BRANCH   2   8
HETATM    8  C1  UNL     1      -5.417   2.773  16.037  1.00  0.00     0.081 A 
HETATM    9  C2  UNL     1      -6.177   3.145  17.130  1.00  0.00     0.025 A 
HETATM   10  C3  UNL     1      -6.551   4.453  17.350  1.00  0.00     0.002 A 
HETATM   11  C4  UNL     1      -6.135   5.397  16.430  1.00  0.00     0.000 A 
HETATM   12  C5  UNL     1      -5.375   5.036  15.334  1.00  0.00     0.002 A 
HETATM   13  C6  UNL     1      -5.013   3.720  15.136  1.00  0.00     0.025 A 
ENDBRANCH   2   8
TORSDOF 3
ENDMDL
