MODEL 2
REMARK VINA RESULT: -7.420582252      0.073      1.444
REMARK  3 active torsions:
REMARK  status: ('A' for Active; 'I' for Inactive)
REMARK    1  A    between atoms: S1_2  and  N1_4 
REMARK    2  A    between atoms: S1_2  and  C1_8 
REMARK    3  A    between atoms: N1_4  and  O3_6 
ROOT
HETATM    1  O1  UNL     1      -6.823   0.234  16.420  1.00  0.00    -0.199 OA
HETATM    2  S1  UNL     1      -5.558   0.911  16.801  1.00  0.00     0.280 S 
HETATM    3  O2  UNL     1      -5.369   0.733  18.297  1.00  0.00    -0.199 OA
ENDROOT
BRANCH   2   4
HETATM    4  N1  UNL     1      -4.200   0.181  16.042  1.00  0.00    -0.190 N 
ATOM      5  H1  UNL     1      -3.245   0.264  16.389  1.00  0.00     0.207 HD
BRANCH   4   6
HETATM    6  O3  UNL     1      -4.535  -0.513  14.939  1.00  0.00    -0.280 OA
ATOM      7  H3  UNL     1      -5.361  -0.972  15.032  1.00  0.00     0.245 HD
ENDBRANCH   4   6
ENDBRANCH   2   4
BRANCH   2   8
HETATM    8  C1  UNL     1      -5.670   2.614  16.489  1.00  0.00     0.081 A 
HETATM    9  C2  UNL     1      -6.377   3.435  17.347  1.00  0.00     0.025 A 
HETATM   10  C3  UNL     1      -6.490   4.791  17.135  1.00  0.00     0.002 A 
HETATM   11  C4  UNL     1      -5.862   5.316  16.020  1.00  0.00     0.000 A 
HETATM   12  C5  UNL     1      -5.152   4.504  15.156  1.00  0.00     0.002 A 
HETATM   13  C6  UNL     1      -5.054   3.149  15.390  1.00  0.00     0.025 A 
ENDBRANCH   2   8
TORSDOF 3
ENDMDL
