MODEL 1
REMARK VINA RESULT: -8.514083222      0.000      0.000
REMARK  7 active torsions:
REMARK  status: ('A' for Active; 'I' for Inactive)
REMARK    1  A    between atoms: N1_5  and  C4_6 
REMARK    2  A    between atoms: C6_8  and  O2_9 
REMARK    3  A    between atoms: C7_11  and  C8_12 
REMARK    4  A    between atoms: C8_12  and  N2_13 
REMARK    5  A    between atoms: N2_13  and  C9_16 
REMARK    6  A    between atoms: C9_16  and  C10_17 
REMARK    7  A    between atoms: C9_16  and  C16_23 
ROOT
HETATM    1  C8  UNL     1     -10.198  26.473  -3.826  1.00  0.00     0.268 C 
ENDROOT
BRANCH   1   2
HETATM    2  C7  UNL     1      -9.719  26.182  -2.435  1.00  0.00     0.178 C 
HETATM    3  C6  UNL     1      -9.525  27.400  -1.590  1.00  0.00     0.153 C 
HETATM    4  C5  UNL     1      -8.309  27.025  -0.734  1.00  0.00     0.088 C 
HETATM    5  C4  UNL     1      -7.830  25.747  -1.345  1.00  0.00     0.235 C 
HETATM    6  O3  UNL     1      -8.467  25.567  -2.548  1.00  0.00    -0.357 OA
BRANCH   3   7
HETATM    7  O2  UNL     1     -10.636  27.585  -0.790  1.00  0.00    -0.393 OA
ATOM      8  H2  UNL     1     -11.428  27.553  -1.312  1.00  0.00     0.210 HD
ENDBRANCH   3   7
BRANCH   5   9
HETATM    9  N1  UNL     1      -6.391  25.828  -1.627  1.00  0.00    -0.282 N 
HETATM   10  C3  UNL     1      -5.750  26.998  -1.746  1.00  0.00     0.104 A 
HETATM   11  C2  UNL     1      -4.412  27.013  -2.009  1.00  0.00     0.092 A 
HETATM   12  C1  UNL     1      -3.757  25.818  -2.146  1.00  0.00     0.250 A 
HETATM   13  O1  UNL     1      -2.523  25.770  -2.390  1.00  0.00    -0.268 OA
HETATM   14  N3  UNL     1      -4.426  24.673  -2.023  1.00  0.00    -0.275 N 
HETATM   15  C22 UNL     1      -5.747  24.671  -1.763  1.00  0.00     0.331 A 
ATOM     16  H3  UNL     1      -3.931  23.787  -2.126  1.00  0.00     0.173 HD
HETATM   17  O4  UNL     1      -6.356  23.559  -1.652  1.00  0.00    -0.246 OA
ENDBRANCH   5   9
ENDBRANCH   1   2
BRANCH   1  18
HETATM   18  N2  UNL     1      -9.450  25.795  -4.853  1.00  0.00    -0.060 N 
ATOM     19  H22 UNL     1      -8.634  25.328  -4.456  1.00  0.00     0.278 HD
ATOM     20  H21 UNL     1      -9.962  24.982  -5.195  1.00  0.00     0.278 HD
BRANCH  18  21
HETATM   21  C9  UNL     1      -9.065  26.649  -5.943  1.00  0.00     0.252 C 
BRANCH  21  22
HETATM   22  C10 UNL     1      -9.526  26.208  -7.259  1.00  0.00    -0.023 A 
HETATM   23  C11 UNL     1      -9.697  27.083  -8.317  1.00  0.00     0.009 A 
HETATM   24  C12 UNL     1     -10.127  26.697  -9.561  1.00  0.00     0.001 A 
HETATM   25  C13 UNL     1     -10.412  25.362  -9.788  1.00  0.00     0.000 A 
HETATM   26  C14 UNL     1     -10.258  24.448  -8.765  1.00  0.00     0.001 A 
HETATM   27  C15 UNL     1      -9.823  24.874  -7.529  1.00  0.00     0.009 A 
ENDBRANCH  21  22
BRANCH  21  28
HETATM   28  C16 UNL     1      -7.599  26.846  -5.855  1.00  0.00    -0.023 A 
HETATM   29  C17 UNL     1      -7.009  28.072  -6.088  1.00  0.00     0.009 A 
HETATM   30  C18 UNL     1      -5.628  28.227  -5.999  1.00  0.00     0.001 A 
HETATM   31  C19 UNL     1      -4.825  27.161  -5.679  1.00  0.00     0.000 A 
HETATM   32  C20 UNL     1      -5.388  25.944  -5.447  1.00  0.00     0.001 A 
HETATM   33  C21 UNL     1      -6.763  25.802  -5.538  1.00  0.00     0.009 A 
ENDBRANCH  21  28
ENDBRANCH  18  21
ENDBRANCH   1  18
TORSDOF 7
ENDMDL
