MODEL 8
REMARK VINA RESULT: -7.448625823      3.684      7.280
REMARK  7 active torsions:
REMARK  status: ('A' for Active; 'I' for Inactive)
REMARK    1  A    between atoms: N1_5  and  C4_6 
REMARK    2  A    between atoms: C6_8  and  O2_9 
REMARK    3  A    between atoms: C7_11  and  C8_12 
REMARK    4  A    between atoms: C8_12  and  N2_13 
REMARK    5  A    between atoms: N2_13  and  C9_16 
REMARK    6  A    between atoms: C9_16  and  C10_17 
REMARK    7  A    between atoms: C9_16  and  C16_23 
ROOT
HETATM    1  C8  UNL     1     -10.130  30.014  -1.914  1.00  0.00     0.268 C 
ENDROOT
BRANCH   1   2
HETATM    2  C7  UNL     1     -10.228  29.277  -3.216  1.00  0.00     0.178 C 
HETATM    3  C6  UNL     1     -10.534  27.821  -3.071  1.00  0.00     0.153 C 
HETATM    4  C5  UNL     1      -9.737  27.194  -4.221  1.00  0.00     0.088 C 
HETATM    5  C4  UNL     1      -8.909  28.328  -4.734  1.00  0.00     0.235 C 
HETATM    6  O3  UNL     1      -8.977  29.365  -3.837  1.00  0.00    -0.357 OA
BRANCH   3   7
HETATM    7  O2  UNL     1     -11.888  27.615  -3.258  1.00  0.00    -0.393 OA
ATOM      8  H2  UNL     1     -12.182  28.050  -4.049  1.00  0.00     0.210 HD
ENDBRANCH   3   7
BRANCH   5   9
HETATM    9  N1  UNL     1      -7.499  27.928  -4.824  1.00  0.00    -0.282 N 
HETATM   10  C3  UNL     1      -6.930  27.110  -3.929  1.00  0.00     0.104 A 
HETATM   11  C2  UNL     1      -5.616  26.772  -4.061  1.00  0.00     0.092 A 
HETATM   12  C1  UNL     1      -4.910  27.285  -5.117  1.00  0.00     0.250 A 
HETATM   13  O1  UNL     1      -3.694  27.008  -5.289  1.00  0.00    -0.268 OA
HETATM   14  N3  UNL     1      -5.507  28.095  -5.988  1.00  0.00    -0.275 N 
HETATM   15  C22 UNL     1      -6.806  28.423  -5.846  1.00  0.00     0.331 A 
ATOM     16  H3  UNL     1      -4.975  28.473  -6.771  1.00  0.00     0.173 HD
HETATM   17  O4  UNL     1      -7.345  29.200  -6.696  1.00  0.00    -0.246 OA
ENDBRANCH   5   9
ENDBRANCH   1   2
BRANCH   1  18
HETATM   18  N2  UNL     1      -8.807  30.018  -1.346  1.00  0.00    -0.060 N 
ATOM     19  H22 UNL     1      -8.248  29.256  -1.729  1.00  0.00     0.278 HD
ATOM     20  H21 UNL     1      -8.269  30.814  -1.690  1.00  0.00     0.278 HD
BRANCH  18  21
HETATM   21  C9  UNL     1      -8.798  29.982   0.091  1.00  0.00     0.252 C 
BRANCH  21  22
HETATM   22  C10 UNL     1      -8.162  31.134   0.728  1.00  0.00    -0.023 A 
HETATM   23  C11 UNL     1      -8.845  31.975   1.590  1.00  0.00     0.009 A 
HETATM   24  C12 UNL     1      -8.274  33.062   2.203  1.00  0.00     0.001 A 
HETATM   25  C13 UNL     1      -6.944  33.350   1.955  1.00  0.00     0.000 A 
HETATM   26  C14 UNL     1      -6.219  32.542   1.103  1.00  0.00     0.001 A 
HETATM   27  C15 UNL     1      -6.826  31.459   0.507  1.00  0.00     0.009 A 
ENDBRANCH  21  22
BRANCH  21  28
HETATM   28  C16 UNL     1      -8.221  28.678   0.497  1.00  0.00    -0.023 A 
HETATM   29  C17 UNL     1      -8.044  28.336   1.823  1.00  0.00     0.009 A 
HETATM   30  C18 UNL     1      -7.500  27.105   2.175  1.00  0.00     0.001 A 
HETATM   31  C19 UNL     1      -7.127  26.204   1.208  1.00  0.00     0.000 A 
HETATM   32  C20 UNL     1      -7.293  26.523  -0.104  1.00  0.00     0.001 A 
HETATM   33  C21 UNL     1      -7.836  27.751  -0.442  1.00  0.00     0.009 A 
ENDBRANCH  21  28
ENDBRANCH  18  21
ENDBRANCH   1  18
TORSDOF 7
ENDMDL
