MODEL 6
REMARK VINA RESULT: -7.663621648      2.592      6.373
REMARK  7 active torsions:
REMARK  status: ('A' for Active; 'I' for Inactive)
REMARK    1  A    between atoms: N1_5  and  C4_6 
REMARK    2  A    between atoms: C6_8  and  O2_9 
REMARK    3  A    between atoms: C7_11  and  C8_12 
REMARK    4  A    between atoms: C8_12  and  N2_13 
REMARK    5  A    between atoms: N2_13  and  C9_16 
REMARK    6  A    between atoms: C9_16  and  C10_17 
REMARK    7  A    between atoms: C9_16  and  C16_23 
ROOT
HETATM    1  C8  UNL     1     -10.474  27.145  -2.600  1.00  0.00     0.268 C 
ENDROOT
BRANCH   1   2
HETATM    2  C7  UNL     1     -10.350  26.963  -4.084  1.00  0.00     0.178 C 
HETATM    3  C6  UNL     1     -10.179  25.540  -4.510  1.00  0.00     0.153 C 
HETATM    4  C5  UNL     1      -9.238  25.661  -5.715  1.00  0.00     0.088 C 
HETATM    5  C4  UNL     1      -8.817  27.094  -5.689  1.00  0.00     0.235 C 
HETATM    6  O3  UNL     1      -9.198  27.645  -4.491  1.00  0.00    -0.357 OA
BRANCH   3   7
HETATM    7  O2  UNL     1     -11.402  25.029  -4.905  1.00  0.00    -0.393 OA
ATOM      8  H2  UNL     1     -11.797  25.589  -5.562  1.00  0.00     0.210 HD
ENDBRANCH   3   7
BRANCH   5   9
HETATM    9  N1  UNL     1      -7.354  27.194  -5.764  1.00  0.00    -0.282 N 
HETATM   10  C3  UNL     1      -6.554  26.141  -5.553  1.00  0.00     0.104 A 
HETATM   11  C2  UNL     1      -5.201  26.292  -5.635  1.00  0.00     0.092 A 
HETATM   12  C1  UNL     1      -4.696  27.530  -5.932  1.00  0.00     0.250 A 
HETATM   13  O1  UNL     1      -3.456  27.729  -6.019  1.00  0.00    -0.268 OA
HETATM   14  N3  UNL     1      -5.521  28.556  -6.134  1.00  0.00    -0.275 N 
HETATM   15  C22 UNL     1      -6.855  28.394  -6.051  1.00  0.00     0.331 A 
ATOM     16  H3  UNL     1      -5.137  29.474  -6.355  1.00  0.00     0.173 HD
HETATM   17  O4  UNL     1      -7.614  29.395  -6.249  1.00  0.00    -0.246 OA
ENDBRANCH   5   9
ENDBRANCH   1   2
BRANCH   1  18
HETATM   18  N2  UNL     1      -9.281  27.654  -1.975  1.00  0.00    -0.060 N 
ATOM     19  H22 UNL     1      -8.561  27.842  -2.673  1.00  0.00     0.278 HD
ATOM     20  H21 UNL     1      -9.432  28.601  -1.627  1.00  0.00     0.278 HD
BRANCH  18  21
HETATM   21  C9  UNL     1      -8.770  26.805  -0.935  1.00  0.00     0.252 C 
BRANCH  21  22
HETATM   22  C10 UNL     1      -8.759  27.408   0.398  1.00  0.00    -0.023 A 
HETATM   23  C11 UNL     1      -7.811  27.082   1.351  1.00  0.00     0.009 A 
HETATM   24  C12 UNL     1      -7.776  27.632   2.608  1.00  0.00     0.001 A 
HETATM   25  C13 UNL     1      -8.735  28.566   2.958  1.00  0.00     0.000 A 
HETATM   26  C14 UNL     1      -9.703  28.926   2.042  1.00  0.00     0.001 A 
HETATM   27  C15 UNL     1      -9.705  28.352   0.790  1.00  0.00     0.009 A 
ENDBRANCH  21  22
BRANCH  21  28
HETATM   28  C16 UNL     1      -7.448  26.306  -1.379  1.00  0.00    -0.023 A 
HETATM   29  C17 UNL     1      -7.197  24.962  -1.571  1.00  0.00     0.009 A 
HETATM   30  C18 UNL     1      -5.944  24.523  -1.989  1.00  0.00     0.001 A 
HETATM   31  C19 UNL     1      -4.930  25.419  -2.217  1.00  0.00     0.000 A 
HETATM   32  C20 UNL     1      -5.157  26.748  -2.033  1.00  0.00     0.001 A 
HETATM   33  C21 UNL     1      -6.408  27.173  -1.618  1.00  0.00     0.009 A 
ENDBRANCH  21  28
ENDBRANCH  18  21
ENDBRANCH   1  18
TORSDOF 7
ENDMDL
