MODEL 2
REMARK VINA RESULT: -8.176862414      0.438      3.528
REMARK  7 active torsions:
REMARK  status: ('A' for Active; 'I' for Inactive)
REMARK    1  A    between atoms: N1_5  and  C4_6 
REMARK    2  A    between atoms: C6_8  and  O2_9 
REMARK    3  A    between atoms: C7_11  and  C8_12 
REMARK    4  A    between atoms: C8_12  and  N2_13 
REMARK    5  A    between atoms: N2_13  and  C9_16 
REMARK    6  A    between atoms: C9_16  and  C10_17 
REMARK    7  A    between atoms: C9_16  and  C16_23 
ROOT
HETATM    1  C8  UNL     1     -10.316  26.074  -3.965  1.00  0.00     0.268 C 
ENDROOT
BRANCH   1   2
HETATM    2  C7  UNL     1      -9.851  25.971  -2.543  1.00  0.00     0.178 C 
HETATM    3  C6  UNL     1      -9.702  27.289  -1.853  1.00  0.00     0.153 C 
HETATM    4  C5  UNL     1      -8.490  27.057  -0.943  1.00  0.00     0.088 C 
HETATM    5  C4  UNL     1      -7.968  25.728  -1.385  1.00  0.00     0.235 C 
HETATM    6  O3  UNL     1      -8.581  25.383  -2.564  1.00  0.00    -0.357 OA
BRANCH   3   7
HETATM    7  O2  UNL     1     -10.831  27.540  -1.095  1.00  0.00    -0.393 OA
ATOM      8  H2  UNL     1     -10.586  27.801  -0.215  1.00  0.00     0.210 HD
ENDBRANCH   3   7
BRANCH   5   9
HETATM    9  N1  UNL     1      -6.527  25.815  -1.658  1.00  0.00    -0.282 N 
HETATM   10  C3  UNL     1      -5.905  26.985  -1.852  1.00  0.00     0.104 A 
HETATM   11  C2  UNL     1      -4.565  27.005  -2.102  1.00  0.00     0.092 A 
HETATM   12  C1  UNL     1      -3.888  25.815  -2.148  1.00  0.00     0.250 A 
HETATM   13  O1  UNL     1      -2.651  25.773  -2.376  1.00  0.00    -0.268 OA
HETATM   14  N3  UNL     1      -4.539  24.670  -1.951  1.00  0.00    -0.275 N 
HETATM   15  C22 UNL     1      -5.862  24.663  -1.705  1.00  0.00     0.331 A 
ATOM     16  H3  UNL     1      -4.028  23.788  -1.987  1.00  0.00     0.173 HD
HETATM   17  O4  UNL     1      -6.453  23.551  -1.522  1.00  0.00    -0.246 OA
ENDBRANCH   5   9
ENDBRANCH   1   2
BRANCH   1  18
HETATM   18  N2  UNL     1      -9.433  26.832  -4.812  1.00  0.00    -0.060 N 
ATOM     19  H22 UNL     1      -9.962  27.481  -5.395  1.00  0.00     0.278 HD
ATOM     20  H21 UNL     1      -8.891  27.500  -4.263  1.00  0.00     0.278 HD
BRANCH  18  21
HETATM   21  C9  UNL     1      -8.567  26.016  -5.618  1.00  0.00     0.252 C 
BRANCH  21  22
HETATM   22  C10 UNL     1      -7.175  26.462  -5.667  1.00  0.00    -0.023 A 
HETATM   23  C11 UNL     1      -6.112  25.596  -5.485  1.00  0.00     0.009 A 
HETATM   24  C12 UNL     1      -4.797  25.987  -5.527  1.00  0.00     0.001 A 
HETATM   25  C13 UNL     1      -4.500  27.318  -5.760  1.00  0.00     0.000 A 
HETATM   26  C14 UNL     1      -5.525  28.222  -5.948  1.00  0.00     0.001 A 
HETATM   27  C15 UNL     1      -6.833  27.792  -5.900  1.00  0.00     0.009 A 
ENDBRANCH  21  22
BRANCH  21  28
HETATM   28  C16 UNL     1      -9.201  25.879  -6.950  1.00  0.00    -0.023 A 
HETATM   29  C17 UNL     1      -9.595  24.655  -7.453  1.00  0.00     0.009 A 
HETATM   30  C18 UNL     1     -10.187  24.557  -8.709  1.00  0.00     0.001 A 
HETATM   31  C19 UNL     1     -10.391  25.678  -9.474  1.00  0.00     0.000 A 
HETATM   32  C20 UNL     1     -10.009  26.894  -8.997  1.00  0.00     0.001 A 
HETATM   33  C21 UNL     1      -9.421  26.979  -7.745  1.00  0.00     0.009 A 
ENDBRANCH  21  28
ENDBRANCH  18  21
ENDBRANCH   1  18
TORSDOF 7
ENDMDL
