MODEL 3
REMARK VINA RESULT: -7.799916728      2.676      6.199
REMARK  7 active torsions:
REMARK  status: ('A' for Active; 'I' for Inactive)
REMARK    1  A    between atoms: N1_5  and  C4_6 
REMARK    2  A    between atoms: C6_8  and  O2_9 
REMARK    3  A    between atoms: C7_11  and  C8_12 
REMARK    4  A    between atoms: C8_12  and  N2_13 
REMARK    5  A    between atoms: N2_13  and  C9_16 
REMARK    6  A    between atoms: C9_16  and  C10_17 
REMARK    7  A    between atoms: C9_16  and  C16_23 
ROOT
HETATM    1  C8  UNL     1     -10.522  27.591  -2.494  1.00  0.00     0.268 C 
ENDROOT
BRANCH   1   2
HETATM    2  C7  UNL     1     -10.376  27.196  -3.934  1.00  0.00     0.178 C 
HETATM    3  C6  UNL     1     -10.187  25.728  -4.147  1.00  0.00     0.153 C 
HETATM    4  C5  UNL     1      -9.231  25.683  -5.346  1.00  0.00     0.088 C 
HETATM    5  C4  UNL     1      -8.824  27.110  -5.523  1.00  0.00     0.235 C 
HETATM    6  O3  UNL     1      -9.225  27.825  -4.422  1.00  0.00    -0.357 OA
BRANCH   3   7
HETATM    7  O2  UNL     1     -11.399  25.152  -4.477  1.00  0.00    -0.393 OA
ATOM      8  H2  UNL     1     -11.799  24.762  -3.709  1.00  0.00     0.210 HD
ENDBRANCH   3   7
BRANCH   5   9
HETATM    9  N1  UNL     1      -7.360  27.215  -5.594  1.00  0.00    -0.282 N 
HETATM   10  C3  UNL     1      -6.554  26.212  -5.226  1.00  0.00     0.104 A 
HETATM   11  C2  UNL     1      -5.201  26.364  -5.312  1.00  0.00     0.092 A 
HETATM   12  C1  UNL     1      -4.704  27.553  -5.779  1.00  0.00     0.250 A 
HETATM   13  O1  UNL     1      -3.465  27.751  -5.879  1.00  0.00    -0.268 OA
HETATM   14  N3  UNL     1      -5.536  28.529  -6.136  1.00  0.00    -0.275 N 
HETATM   15  C22 UNL     1      -6.869  28.367  -6.045  1.00  0.00     0.331 A 
ATOM     16  H3  UNL     1      -5.158  29.411  -6.482  1.00  0.00     0.173 HD
HETATM   17  O4  UNL     1      -7.635  29.320  -6.395  1.00  0.00    -0.246 OA
ENDBRANCH   5   9
ENDBRANCH   1   2
BRANCH   1  18
HETATM   18  N2  UNL     1      -9.790  26.749  -1.584  1.00  0.00    -0.060 N 
ATOM     19  H22 UNL     1     -10.371  26.493  -0.785  1.00  0.00     0.278 HD
ATOM     20  H21 UNL     1      -9.641  25.824  -1.988  1.00  0.00     0.278 HD
BRANCH  18  21
HETATM   21  C9  UNL     1      -8.546  27.319  -1.146  1.00  0.00     0.252 C 
BRANCH  21  22
HETATM   22  C10 UNL     1      -7.367  26.499  -1.420  1.00  0.00    -0.023 A 
HETATM   23  C11 UNL     1      -6.092  27.034  -1.491  1.00  0.00     0.009 A 
HETATM   24  C12 UNL     1      -4.968  26.288  -1.745  1.00  0.00     0.001 A 
HETATM   25  C13 UNL     1      -5.099  24.926  -1.947  1.00  0.00     0.000 A 
HETATM   26  C14 UNL     1      -6.349  24.344  -1.886  1.00  0.00     0.001 A 
HETATM   27  C15 UNL     1      -7.453  25.125  -1.628  1.00  0.00     0.009 A 
ENDBRANCH  21  22
BRANCH  21  28
HETATM   28  C16 UNL     1      -8.704  27.684   0.281  1.00  0.00    -0.023 A 
HETATM   29  C17 UNL     1      -7.791  27.298   1.243  1.00  0.00     0.009 A 
HETATM   30  C18 UNL     1      -7.966  27.655   2.576  1.00  0.00     0.001 A 
HETATM   31  C19 UNL     1      -9.052  28.400   2.963  1.00  0.00     0.000 A 
HETATM   32  C20 UNL     1      -9.963  28.790   2.031  1.00  0.00     0.001 A 
HETATM   33  C21 UNL     1      -9.779  28.429   0.707  1.00  0.00     0.009 A 
ENDBRANCH  21  28
ENDBRANCH  18  21
ENDBRANCH   1  18
TORSDOF 7
ENDMDL
