MODEL 5
REMARK VINA RESULT: -7.717851985      3.693      5.282
REMARK  7 active torsions:
REMARK  status: ('A' for Active; 'I' for Inactive)
REMARK    1  A    between atoms: N1_2  and  C2_3 
REMARK    2  A    between atoms: N1_2  and  C11_20 
REMARK    3  A    between atoms: C2_3  and  C3_4 
REMARK    4  A    between atoms: C4_6  and  N2_7 
REMARK    5  A    between atoms: C10_17  and  O4_18 
REMARK    6  A    between atoms: C11_20  and  C12_21 
REMARK    7  A    between atoms: C11_20  and  C18_27 
ROOT
HETATM    1  C3  UNL     1      -7.311  27.803  -0.255  1.00  0.00     0.181 C 
HETATM    2  O1  UNL     1      -7.159  29.162  -0.394  1.00  0.00    -0.356 OA
HETATM    3  C4  UNL     1      -6.912  29.682   0.877  1.00  0.00     0.235 C 
HETATM    4  C9  UNL     1      -7.950  28.987   1.731  1.00  0.00     0.088 C 
HETATM    5  C10 UNL     1      -7.991  27.600   1.105  1.00  0.00     0.153 C 
ENDROOT
BRANCH   1   6
HETATM    6  C2  UNL     1      -8.189  27.260  -1.348  1.00  0.00     0.307 C 
BRANCH   6   7
HETATM    7  N1  UNL     1      -7.502  26.314  -2.207  1.00  0.00     0.100 N 
HETATM    8  C1  UNL     1      -8.315  25.168  -2.525  1.00  0.00     0.311 C 
BRANCH   7   9
HETATM    9  C11 UNL     1      -6.904  26.947  -3.348  1.00  0.00     0.288 C 
BRANCH   9  10
HETATM   10  C12 UNL     1      -7.623  26.770  -4.611  1.00  0.00    -0.021 A 
HETATM   11  C13 UNL     1      -7.681  25.586  -5.300  1.00  0.00     0.010 A 
HETATM   12  C14 UNL     1      -8.368  25.486  -6.468  1.00  0.00     0.001 A 
HETATM   13  C15 UNL     1      -9.020  26.573  -6.983  1.00  0.00     0.000 A 
HETATM   14  C16 UNL     1      -8.993  27.781  -6.331  1.00  0.00     0.001 A 
HETATM   15  C17 UNL     1      -8.287  27.851  -5.147  1.00  0.00     0.010 A 
ENDBRANCH   9  10
BRANCH   9  16
HETATM   16  C18 UNL     1      -5.497  26.508  -3.529  1.00  0.00    -0.021 A 
HETATM   17  C19 UNL     1      -4.750  26.073  -2.437  1.00  0.00     0.010 A 
HETATM   18  C20 UNL     1      -3.443  25.658  -2.560  1.00  0.00     0.001 A 
HETATM   19  C21 UNL     1      -2.824  25.661  -3.792  1.00  0.00     0.000 A 
HETATM   20  C22 UNL     1      -3.573  26.094  -4.866  1.00  0.00     0.001 A 
HETATM   21  C23 UNL     1      -4.880  26.514  -4.773  1.00  0.00     0.010 A 
ENDBRANCH   9  16
ENDBRANCH   7   9
ENDBRANCH   6   7
ENDBRANCH   1   6
BRANCH   5  22
HETATM   22  O4  UNL     1      -7.264  26.686   1.878  1.00  0.00    -0.393 OA
ATOM     23  H4  UNL     1      -7.839  26.247   2.495  1.00  0.00     0.210 HD
ENDBRANCH   5  22
BRANCH   3  24
HETATM   24  N2  UNL     1      -7.133  31.097   0.855  1.00  0.00    -0.282 N 
HETATM   25  C5  UNL     1      -8.305  31.663   1.216  1.00  0.00     0.104 A 
HETATM   26  C6  UNL     1      -8.499  33.027   1.190  1.00  0.00     0.092 A 
HETATM   27  C7  UNL     1      -7.479  33.846   0.787  1.00  0.00     0.250 A 
HETATM   28  O2  UNL     1      -7.644  35.108   0.756  1.00  0.00    -0.268 OA
HETATM   29  N3  UNL     1      -6.313  33.273   0.428  1.00  0.00    -0.275 N 
HETATM   30  C8  UNL     1      -6.152  31.927   0.465  1.00  0.00     0.331 A 
ATOM     31  H3  UNL     1      -5.538  33.862   0.124  1.00  0.00     0.173 HD
HETATM   32  O3  UNL     1      -5.034  31.494   0.113  1.00  0.00    -0.246 OA
ENDBRANCH   3  24
TORSDOF 7
ENDMDL
