MODEL 8
REMARK VINA RESULT: -7.602656090      3.479      7.175
REMARK  7 active torsions:
REMARK  status: ('A' for Active; 'I' for Inactive)
REMARK    1  A    between atoms: N1_2  and  C2_3 
REMARK    2  A    between atoms: N1_2  and  C11_20 
REMARK    3  A    between atoms: C2_3  and  C3_4 
REMARK    4  A    between atoms: C4_6  and  N2_7 
REMARK    5  A    between atoms: C10_17  and  O4_18 
REMARK    6  A    between atoms: C11_20  and  C12_21 
REMARK    7  A    between atoms: C11_20  and  C18_27 
ROOT
HETATM    1  C3  UNL     1     -10.542  28.550  -2.521  1.00  0.00     0.181 C 
HETATM    2  O1  UNL     1      -9.343  28.798  -3.146  1.00  0.00    -0.356 OA
HETATM    3  C4  UNL     1      -9.160  27.798  -4.100  1.00  0.00     0.235 C 
HETATM    4  C9  UNL     1      -9.522  26.540  -3.342  1.00  0.00     0.088 C 
HETATM    5  C10 UNL     1     -10.672  27.023  -2.469  1.00  0.00     0.153 C 
ENDROOT
BRANCH   1   6
HETATM    6  C2  UNL     1     -10.529  29.106  -1.125  1.00  0.00     0.307 C 
BRANCH   6   7
HETATM    7  N1  UNL     1      -9.469  30.073  -0.911  1.00  0.00     0.100 N 
HETATM    8  C1  UNL     1      -9.819  31.389  -1.379  1.00  0.00     0.311 C 
BRANCH   7   9
HETATM    9  C11 UNL     1      -8.964  30.041   0.434  1.00  0.00     0.288 C 
BRANCH   9  10
HETATM   10  C12 UNL     1      -8.049  31.128   0.784  1.00  0.00    -0.021 A 
HETATM   11  C13 UNL     1      -6.764  31.231   0.315  1.00  0.00     0.010 A 
HETATM   12  C14 UNL     1      -5.964  32.266   0.676  1.00  0.00     0.001 A 
HETATM   13  C15 UNL     1      -6.427  33.236   1.524  1.00  0.00     0.000 A 
HETATM   14  C16 UNL     1      -7.705  33.180   2.021  1.00  0.00     0.001 A 
HETATM   15  C17 UNL     1      -8.494  32.115   1.635  1.00  0.00     0.010 A 
ENDBRANCH   9  10
BRANCH   9  16
HETATM   16  C18 UNL     1      -8.307  28.743   0.730  1.00  0.00    -0.021 A 
HETATM   17  C19 UNL     1      -7.706  28.011  -0.291  1.00  0.00     0.010 A 
HETATM   18  C20 UNL     1      -7.086  26.803  -0.060  1.00  0.00     0.001 A 
HETATM   19  C21 UNL     1      -7.042  26.274   1.212  1.00  0.00     0.000 A 
HETATM   20  C22 UNL     1      -7.641  27.008   2.215  1.00  0.00     0.001 A 
HETATM   21  C23 UNL     1      -8.267  28.217   2.014  1.00  0.00     0.010 A 
ENDBRANCH   9  16
ENDBRANCH   7   9
ENDBRANCH   6   7
ENDBRANCH   1   6
BRANCH   5  22
HETATM   22  O4  UNL     1     -11.903  26.623  -3.005  1.00  0.00    -0.393 OA
ATOM     23  H4  UNL     1     -12.557  26.562  -2.318  1.00  0.00     0.210 HD
ENDBRANCH   5  22
BRANCH   3  24
HETATM   24  N2  UNL     1      -7.785  27.775  -4.499  1.00  0.00    -0.282 N 
HETATM   25  C5  UNL     1      -6.839  27.073  -3.837  1.00  0.00     0.104 A 
HETATM   26  C6  UNL     1      -5.521  27.063  -4.235  1.00  0.00     0.092 A 
HETATM   27  C7  UNL     1      -5.142  27.784  -5.336  1.00  0.00     0.250 A 
HETATM   28  O2  UNL     1      -3.927  27.785  -5.715  1.00  0.00    -0.268 OA
HETATM   29  N3  UNL     1      -6.092  28.482  -5.990  1.00  0.00    -0.275 N 
HETATM   30  C8  UNL     1      -7.383  28.472  -5.575  1.00  0.00     0.331 A 
ATOM     31  H3  UNL     1      -5.834  29.027  -6.813  1.00  0.00     0.173 HD
HETATM   32  O3  UNL     1      -8.186  29.151  -6.249  1.00  0.00    -0.246 OA
ENDBRANCH   3  24
TORSDOF 7
ENDMDL
