MODEL 11
REMARK VINA RESULT: -7.473797641      3.644      5.213
REMARK  7 active torsions:
REMARK  status: ('A' for Active; 'I' for Inactive)
REMARK    1  A    between atoms: N1_2  and  C2_3 
REMARK    2  A    between atoms: N1_2  and  C11_20 
REMARK    3  A    between atoms: C2_3  and  C3_4 
REMARK    4  A    between atoms: C4_6  and  N2_7 
REMARK    5  A    between atoms: C10_17  and  O4_18 
REMARK    6  A    between atoms: C11_20  and  C12_21 
REMARK    7  A    between atoms: C11_20  and  C18_27 
ROOT
HETATM    1  C3  UNL     1      -8.284  27.872  -0.312  1.00  0.00     0.181 C 
HETATM    2  O1  UNL     1      -7.983  29.194  -0.534  1.00  0.00    -0.356 OA
HETATM    3  C4  UNL     1      -7.201  29.626   0.537  1.00  0.00     0.235 C 
HETATM    4  C9  UNL     1      -7.940  29.074   1.736  1.00  0.00     0.088 C 
HETATM    5  C10 UNL     1      -8.430  27.732   1.209  1.00  0.00     0.153 C 
ENDROOT
BRANCH   1   6
HETATM    6  C2  UNL     1      -9.580  27.510  -0.981  1.00  0.00     0.307 C 
BRANCH   6   7
HETATM    7  N1  UNL     1      -9.415  26.537  -2.045  1.00  0.00     0.100 N 
HETATM    8  C1  UNL     1     -10.638  26.295  -2.765  1.00  0.00     0.311 C 
BRANCH   7   9
HETATM    9  C11 UNL     1      -8.285  26.829  -2.882  1.00  0.00     0.288 C 
BRANCH   9  10
HETATM   10  C12 UNL     1      -8.529  26.721  -4.321  1.00  0.00    -0.021 A 
HETATM   11  C13 UNL     1      -8.518  25.538  -5.014  1.00  0.00     0.010 A 
HETATM   12  C14 UNL     1      -8.753  25.503  -6.351  1.00  0.00     0.001 A 
HETATM   13  C15 UNL     1      -9.008  26.658  -7.038  1.00  0.00     0.000 A 
HETATM   14  C16 UNL     1      -9.031  27.869  -6.392  1.00  0.00     0.001 A 
HETATM   15  C17 UNL     1      -8.789  27.871  -5.033  1.00  0.00     0.010 A 
ENDBRANCH   9  10
BRANCH   9  16
HETATM   16  C18 UNL     1      -7.119  25.983  -2.525  1.00  0.00    -0.021 A 
HETATM   17  C19 UNL     1      -5.825  26.418  -2.799  1.00  0.00     0.010 A 
HETATM   18  C20 UNL     1      -4.715  25.665  -2.484  1.00  0.00     0.001 A 
HETATM   19  C21 UNL     1      -4.857  24.436  -1.878  1.00  0.00     0.000 A 
HETATM   20  C22 UNL     1      -6.143  24.015  -1.612  1.00  0.00     0.001 A 
HETATM   21  C23 UNL     1      -7.269  24.746  -1.915  1.00  0.00     0.010 A 
ENDBRANCH   9  16
ENDBRANCH   7   9
ENDBRANCH   6   7
ENDBRANCH   1   6
BRANCH   5  22
HETATM   22  O4  UNL     1      -7.621  26.690   1.679  1.00  0.00    -0.393 OA
ATOM     23  H4  UNL     1      -6.909  26.526   1.071  1.00  0.00     0.210 HD
ENDBRANCH   5  22
BRANCH   3  24
HETATM   24  N2  UNL     1      -7.187  31.058   0.561  1.00  0.00    -0.282 N 
HETATM   25  C5  UNL     1      -8.310  31.802   0.667  1.00  0.00     0.104 A 
HETATM   26  C6  UNL     1      -8.277  33.179   0.689  1.00  0.00     0.092 A 
HETATM   27  C7  UNL     1      -7.075  33.827   0.600  1.00  0.00     0.250 A 
HETATM   28  O2  UNL     1      -7.029  35.099   0.618  1.00  0.00    -0.268 OA
HETATM   29  N3  UNL     1      -5.959  33.077   0.494  1.00  0.00    -0.275 N 
HETATM   30  C8  UNL     1      -6.023  31.723   0.475  1.00  0.00     0.331 A 
ATOM     31  H3  UNL     1      -5.051  33.537   0.425  1.00  0.00     0.173 HD
HETATM   32  O3  UNL     1      -4.934  31.119   0.374  1.00  0.00    -0.246 OA
ENDBRANCH   3  24
TORSDOF 7
ENDMDL
