MODEL 15
REMARK VINA RESULT: -7.351652519      0.874      3.524
REMARK  7 active torsions:
REMARK  status: ('A' for Active; 'I' for Inactive)
REMARK    1  A    between atoms: N1_2  and  C2_3 
REMARK    2  A    between atoms: N1_2  and  C11_20 
REMARK    3  A    between atoms: C2_3  and  C3_4 
REMARK    4  A    between atoms: C4_6  and  N2_7 
REMARK    5  A    between atoms: C10_17  and  O4_18 
REMARK    6  A    between atoms: C11_20  and  C12_21 
REMARK    7  A    between atoms: C11_20  and  C18_27 
ROOT
HETATM    1  C3  UNL     1     -10.514  26.665  -3.179  1.00  0.00     0.181 C 
HETATM    2  O1  UNL     1      -9.231  26.178  -3.258  1.00  0.00    -0.356 OA
HETATM    3  C4  UNL     1      -8.763  26.035  -1.952  1.00  0.00     0.235 C 
HETATM    4  C9  UNL     1      -9.180  27.336  -1.302  1.00  0.00     0.088 C 
HETATM    5  C10 UNL     1     -10.529  27.594  -1.959  1.00  0.00     0.153 C 
ENDROOT
BRANCH   1   6
HETATM    6  C2  UNL     1     -10.853  27.447  -4.417  1.00  0.00     0.307 C 
BRANCH   6   7
HETATM    7  N1  UNL     1      -9.683  27.821  -5.189  1.00  0.00     0.100 N 
HETATM    8  C1  UNL     1      -8.821  28.731  -4.478  1.00  0.00     0.311 C 
BRANCH   7   9
HETATM    9  C11 UNL     1      -9.008  26.682  -5.744  1.00  0.00     0.288 C 
BRANCH   9  10
HETATM   10  C12 UNL     1      -7.547  26.766  -5.757  1.00  0.00    -0.021 A 
HETATM   11  C13 UNL     1      -6.847  27.930  -5.943  1.00  0.00     0.010 A 
HETATM   12  C14 UNL     1      -5.489  27.943  -5.943  1.00  0.00     0.001 A 
HETATM   13  C15 UNL     1      -4.787  26.784  -5.757  1.00  0.00     0.000 A 
HETATM   14  C16 UNL     1      -5.439  25.591  -5.565  1.00  0.00     0.001 A 
HETATM   15  C17 UNL     1      -6.819  25.611  -5.570  1.00  0.00     0.010 A 
ENDBRANCH   9  10
BRANCH   9  16
HETATM   16  C18 UNL     1      -9.487  26.390  -7.118  1.00  0.00    -0.021 A 
HETATM   17  C19 UNL     1      -9.585  27.412  -8.059  1.00  0.00     0.010 A 
HETATM   18  C20 UNL     1     -10.025  27.186  -9.345  1.00  0.00     0.001 A 
HETATM   19  C21 UNL     1     -10.386  25.917  -9.745  1.00  0.00     0.000 A 
HETATM   20  C22 UNL     1     -10.285  24.913  -8.804  1.00  0.00     0.001 A 
HETATM   21  C23 UNL     1      -9.849  25.110  -7.513  1.00  0.00     0.010 A 
ENDBRANCH   9  16
ENDBRANCH   7   9
ENDBRANCH   6   7
ENDBRANCH   1   6
BRANCH   5  22
HETATM   22  O4  UNL     1     -11.575  27.244  -1.096  1.00  0.00    -0.393 OA
ATOM     23  H4  UNL     1     -12.219  26.718  -1.557  1.00  0.00     0.210 HD
ENDBRANCH   5  22
BRANCH   3  24
HETATM   24  N2  UNL     1      -7.336  25.911  -1.976  1.00  0.00    -0.282 N 
HETATM   25  C5  UNL     1      -6.506  26.976  -1.968  1.00  0.00     0.104 A 
HETATM   26  C6  UNL     1      -5.135  26.837  -1.991  1.00  0.00     0.092 A 
HETATM   27  C7  UNL     1      -4.585  25.584  -2.024  1.00  0.00     0.250 A 
HETATM   28  O2  UNL     1      -3.320  25.441  -2.047  1.00  0.00    -0.268 OA
HETATM   29  N3  UNL     1      -5.420  24.527  -2.033  1.00  0.00    -0.275 N 
HETATM   30  C8  UNL     1      -6.766  24.695  -2.009  1.00  0.00     0.331 A 
ATOM     31  H3  UNL     1      -5.034  23.583  -2.058  1.00  0.00     0.173 HD
HETATM   32  O3  UNL     1      -7.454  23.652  -2.020  1.00  0.00    -0.246 OA
ENDBRANCH   3  24
TORSDOF 7
ENDMDL
