MODEL 1
REMARK VINA RESULT: -8.413419007      0.000      0.000
REMARK  7 active torsions:
REMARK  status: ('A' for Active; 'I' for Inactive)
REMARK    1  A    between atoms: N1_2  and  C2_3 
REMARK    2  A    between atoms: N1_2  and  C11_20 
REMARK    3  A    between atoms: C2_3  and  C3_4 
REMARK    4  A    between atoms: C4_6  and  N2_7 
REMARK    5  A    between atoms: C10_17  and  O4_18 
REMARK    6  A    between atoms: C11_20  and  C12_21 
REMARK    7  A    between atoms: C11_20  and  C18_27 
ROOT
HETATM    1  C3  UNL     1      -9.809  26.568  -2.521  1.00  0.00     0.181 C 
HETATM    2  O1  UNL     1      -8.541  26.070  -2.703  1.00  0.00    -0.356 OA
HETATM    3  C4  UNL     1      -7.861  26.224  -1.495  1.00  0.00     0.235 C 
HETATM    4  C9  UNL     1      -8.209  27.639  -1.091  1.00  0.00     0.088 C 
HETATM    5  C10 UNL     1      -9.656  27.749  -1.554  1.00  0.00     0.153 C 
ENDROOT
BRANCH   1   6
HETATM    6  C2  UNL     1     -10.373  27.053  -3.828  1.00  0.00     0.307 C 
BRANCH   6   7
HETATM    7  N1  UNL     1     -10.070  26.169  -4.938  1.00  0.00     0.100 N 
HETATM    8  C1  UNL     1     -11.199  25.361  -5.323  1.00  0.00     0.311 C 
BRANCH   7   9
HETATM    9  C11 UNL     1      -9.439  26.858  -6.028  1.00  0.00     0.288 C 
BRANCH   9  10
HETATM   10  C12 UNL     1      -9.788  26.369  -7.363  1.00  0.00    -0.021 A 
HETATM   11  C13 UNL     1      -9.972  25.046  -7.671  1.00  0.00     0.010 A 
HETATM   12  C14 UNL     1     -10.297  24.656  -8.931  1.00  0.00     0.001 A 
HETATM   13  C15 UNL     1     -10.448  25.584  -9.925  1.00  0.00     0.000 A 
HETATM   14  C16 UNL     1     -10.276  26.921  -9.669  1.00  0.00     0.001 A 
HETATM   15  C17 UNL     1      -9.946  27.286  -8.378  1.00  0.00     0.010 A 
ENDBRANCH   9  10
BRANCH   9  16
HETATM   16  C18 UNL     1      -7.961  26.851  -5.883  1.00  0.00    -0.021 A 
HETATM   17  C19 UNL     1      -7.281  25.655  -5.671  1.00  0.00     0.010 A 
HETATM   18  C20 UNL     1      -5.912  25.604  -5.532  1.00  0.00     0.001 A 
HETATM   19  C21 UNL     1      -5.161  26.757  -5.600  1.00  0.00     0.000 A 
HETATM   20  C22 UNL     1      -5.845  27.936  -5.810  1.00  0.00     0.001 A 
HETATM   21  C23 UNL     1      -7.212  28.017  -5.953  1.00  0.00     0.010 A 
ENDBRANCH   9  16
ENDBRANCH   7   9
ENDBRANCH   6   7
ENDBRANCH   1   6
BRANCH   5  22
HETATM   22  O4  UNL     1     -10.534  27.607  -0.473  1.00  0.00    -0.393 OA
ATOM     23  H4  UNL     1     -10.824  28.460  -0.170  1.00  0.00     0.210 HD
ENDBRANCH   5  22
BRANCH   3  24
HETATM   24  N2  UNL     1      -6.454  26.091  -1.729  1.00  0.00    -0.282 N 
HETATM   25  C5  UNL     1      -5.605  27.142  -1.719  1.00  0.00     0.104 A 
HETATM   26  C6  UNL     1      -4.255  26.995  -1.946  1.00  0.00     0.092 A 
HETATM   27  C7  UNL     1      -3.743  25.749  -2.191  1.00  0.00     0.250 A 
HETATM   28  O2  UNL     1      -2.497  25.599  -2.404  1.00  0.00    -0.268 OA
HETATM   29  N3  UNL     1      -4.597  24.706  -2.200  1.00  0.00    -0.275 N 
HETATM   30  C8  UNL     1      -5.922  24.882  -1.973  1.00  0.00     0.331 A 
ATOM     31  H3  UNL     1      -4.240  23.768  -2.381  1.00  0.00     0.173 HD
HETATM   32  O3  UNL     1      -6.630  23.853  -2.002  1.00  0.00    -0.246 OA
ENDBRANCH   3  24
TORSDOF 7
ENDMDL
