MODEL 3
REMARK VINA RESULT: -7.067078278      1.862      4.018
REMARK  10 active torsions:
REMARK  status: ('A' for Active; 'I' for Inactive)
REMARK    1  A    between atoms: C2_2  and  O2_4 
REMARK    2  A    between atoms: O2_4  and  C3_5 
REMARK    3  A    between atoms: C4_6  and  C5_7 
REMARK    4  A    between atoms: C5_7  and  O3_8 
REMARK    5  A    between atoms: O3_8  and  S1_9 
REMARK    6  A    between atoms: S1_9  and  N1_10 
REMARK    7  A    between atoms: C6_16  and  O7_17 
REMARK    8  A    between atoms: C7_19  and  O8_20 
REMARK    9  A    between atoms: C8_22  and  O9_23 
REMARK   10  A    between atoms: O9_23  and  C9_24 
ROOT
HETATM    1  C3  UNL     1      16.461   4.487  13.480  1.00  0.00     0.195 C 
HETATM    2  C4  UNL     1      17.222   3.320  13.938  1.00  0.00     0.182 C 
HETATM    3  O6  UNL     1      16.901   2.215  13.026  1.00  0.00    -0.349 OA
HETATM    4  C6  UNL     1      17.198   2.439  11.740  1.00  0.00     0.288 C 
HETATM    5  C7  UNL     1      17.941   3.718  11.566  1.00  0.00     0.205 C 
HETATM    6  C8  UNL     1      17.110   4.893  12.165  1.00  0.00     0.197 C 
ENDROOT
BRANCH   2   7
HETATM    7  C5  UNL     1      16.908   2.544  15.215  1.00  0.00     0.226 C 
BRANCH   7   8
HETATM    8  O3  UNL     1      16.942   3.601  16.224  1.00  0.00    -0.257 OA
BRANCH   8   9
HETATM    9  S1  UNL     1      15.452   3.511  17.038  1.00  0.00     0.355 S 
HETATM   10  O4  UNL     1      15.856   3.620  18.514  1.00  0.00    -0.176 OA
HETATM   11  O5  UNL     1      14.632   2.343  16.801  1.00  0.00    -0.176 OA
BRANCH   9  12
HETATM   12  N1  UNL     1      14.581   4.980  16.678  1.00  0.00    -0.306 N 
ATOM     13  H12 UNL     1      14.891   5.926  16.904  1.00  0.00     0.171 HD
ATOM     14  H11 UNL     1      13.719   4.709  16.206  1.00  0.00     0.171 HD
ENDBRANCH   9  12
ENDBRANCH   8   9
ENDBRANCH   7   8
ENDBRANCH   2   7
BRANCH   1  15
HETATM   15  O2  UNL     1      16.807   5.569  14.387  1.00  0.00    -0.311 OA
BRANCH  15  16
HETATM   16  C2  UNL     1      16.279   6.812  14.364  1.00  0.00     0.255 C 
HETATM   17  C1  UNL     1      17.292   7.950  14.331  1.00  0.00     0.126 C 
HETATM   18  O1  UNL     1      15.066   7.005  14.356  1.00  0.00    -0.266 OA
ENDBRANCH  15  16
ENDBRANCH   1  15
BRANCH   6  19
HETATM   19  O9  UNL     1      16.259   5.252  11.106  1.00  0.00    -0.311 OA
BRANCH  19  20
HETATM   20  C9  UNL     1      16.437   6.528  10.572  1.00  0.00     0.255 C 
HETATM   21  C10 UNL     1      17.790   7.156  10.469  1.00  0.00     0.126 C 
HETATM   22  O10 UNL     1      15.405   7.157  10.176  1.00  0.00    -0.266 OA
ENDBRANCH  19  20
ENDBRANCH   6  19
BRANCH   4  23
HETATM   23  O7  UNL     1      17.926   1.370  11.226  1.00  0.00    -0.369 OA
ATOM     24  H7  UNL     1      17.782   1.298  10.289  1.00  0.00     0.212 HD
ENDBRANCH   4  23
BRANCH   5  25
HETATM   25  O8  UNL     1      19.240   3.748  11.957  1.00  0.00    -0.388 OA
ATOM     26  H8  UNL     1      19.883   4.042  11.322  1.00  0.00     0.210 HD
ENDBRANCH   5  25
TORSDOF 10
ENDMDL
