MODEL 2
REMARK VINA RESULT: -7.230389515      2.986      5.637
REMARK  10 active torsions:
REMARK  status: ('A' for Active; 'I' for Inactive)
REMARK    1  A    between atoms: C2_2  and  O2_4 
REMARK    2  A    between atoms: O2_4  and  C3_5 
REMARK    3  A    between atoms: C4_6  and  C5_7 
REMARK    4  A    between atoms: C5_7  and  O3_8 
REMARK    5  A    between atoms: O3_8  and  S1_9 
REMARK    6  A    between atoms: S1_9  and  N1_10 
REMARK    7  A    between atoms: C6_16  and  O7_17 
REMARK    8  A    between atoms: C7_19  and  O8_20 
REMARK    9  A    between atoms: C8_22  and  O9_23 
REMARK   10  A    between atoms: O9_23  and  C9_24 
ROOT
HETATM    1  C3  UNL     1      17.995   5.315  12.584  1.00  0.00     0.195 C 
HETATM    2  C4  UNL     1      17.845   5.607  11.156  1.00  0.00     0.182 C 
HETATM    3  O6  UNL     1      18.111   4.359  10.432  1.00  0.00    -0.349 OA
HETATM    4  C6  UNL     1      17.301   3.339  10.744  1.00  0.00     0.288 C 
HETATM    5  C7  UNL     1      16.204   3.774  11.654  1.00  0.00     0.205 C 
HETATM    6  C8  UNL     1      16.811   4.425  12.934  1.00  0.00     0.197 C 
ENDROOT
BRANCH   2   7
HETATM    7  C5  UNL     1      18.830   6.450  10.350  1.00  0.00     0.226 C 
BRANCH   7   8
HETATM    8  O3  UNL     1      19.806   5.447   9.924  1.00  0.00    -0.257 OA
BRANCH   8   9
HETATM    9  S1  UNL     1      21.311   5.997  10.493  1.00  0.00     0.355 S 
HETATM   10  O4  UNL     1      21.179   7.523  10.405  1.00  0.00    -0.176 OA
HETATM   11  O5  UNL     1      22.495   5.531   9.804  1.00  0.00    -0.176 OA
BRANCH   9  12
HETATM   12  N1  UNL     1      21.382   5.627  12.197  1.00  0.00    -0.306 N 
ATOM     13  H12 UNL     1      20.976   6.190  12.945  1.00  0.00     0.171 HD
ATOM     14  H11 UNL     1      21.899   4.753  12.293  1.00  0.00     0.171 HD
ENDBRANCH   9  12
ENDBRANCH   8   9
ENDBRANCH   7   8
ENDBRANCH   2   7
BRANCH   1  15
HETATM   15  O2  UNL     1      17.711   6.559  13.279  1.00  0.00    -0.311 OA
BRANCH  15  16
HETATM   16  C2  UNL     1      18.531   7.170  14.162  1.00  0.00     0.255 C 
HETATM   17  C1  UNL     1      18.074   8.546  14.632  1.00  0.00     0.126 C 
HETATM   18  O1  UNL     1      19.564   6.642  14.566  1.00  0.00    -0.266 OA
ENDBRANCH  15  16
ENDBRANCH   1  15
BRANCH   6  19
HETATM   19  O9  UNL     1      17.053   3.319  13.767  1.00  0.00    -0.311 OA
BRANCH  19  20
HETATM   20  C9  UNL     1      16.971   3.547  15.141  1.00  0.00     0.255 C 
HETATM   21  C10 UNL     1      15.947   4.466  15.726  1.00  0.00     0.126 C 
HETATM   22  O10 UNL     1      17.807   2.953  15.894  1.00  0.00    -0.266 OA
ENDBRANCH  19  20
ENDBRANCH   6  19
BRANCH   4  23
HETATM   23  O7  UNL     1      16.785   2.768   9.586  1.00  0.00    -0.369 OA
ATOM     24  H7  UNL     1      16.976   1.837   9.568  1.00  0.00     0.212 HD
ENDBRANCH   4  23
BRANCH   5  25
HETATM   25  O8  UNL     1      15.202   4.516  11.119  1.00  0.00    -0.388 OA
ATOM     26  H8  UNL     1      14.456   4.052  10.757  1.00  0.00     0.210 HD
ENDBRANCH   5  25
TORSDOF 10
ENDMDL
