MODEL 5
REMARK VINA RESULT: -7.028263237      3.395      5.827
REMARK  10 active torsions:
REMARK  status: ('A' for Active; 'I' for Inactive)
REMARK    1  A    between atoms: C2_2  and  O2_4 
REMARK    2  A    between atoms: O2_4  and  C3_5 
REMARK    3  A    between atoms: C4_6  and  C5_7 
REMARK    4  A    between atoms: C5_7  and  O3_8 
REMARK    5  A    between atoms: O3_8  and  S1_9 
REMARK    6  A    between atoms: S1_9  and  N1_10 
REMARK    7  A    between atoms: C6_16  and  O7_17 
REMARK    8  A    between atoms: C7_19  and  O8_20 
REMARK    9  A    between atoms: C8_22  and  O9_23 
REMARK   10  A    between atoms: O9_23  and  C9_24 
ROOT
HETATM    1  C3  UNL     1      18.068   5.399  12.513  1.00  0.00     0.195 C 
HETATM    2  C4  UNL     1      17.755   5.757  11.126  1.00  0.00     0.182 C 
HETATM    3  O6  UNL     1      18.073   4.587  10.299  1.00  0.00    -0.349 OA
HETATM    4  C6  UNL     1      17.400   3.472  10.613  1.00  0.00     0.288 C 
HETATM    5  C7  UNL     1      16.358   3.736  11.643  1.00  0.00     0.205 C 
HETATM    6  C8  UNL     1      17.017   4.372  12.906  1.00  0.00     0.197 C 
ENDROOT
BRANCH   2   7
HETATM    7  C5  UNL     1      18.570   6.744  10.295  1.00  0.00     0.226 C 
BRANCH   7   8
HETATM    8  O3  UNL     1      17.808   6.788   9.048  1.00  0.00    -0.257 OA
BRANCH   8   9
HETATM    9  S1  UNL     1      16.481   7.806   9.355  1.00  0.00     0.355 S 
HETATM   10  O4  UNL     1      17.126   9.025  10.026  1.00  0.00    -0.176 OA
HETATM   11  O5  UNL     1      15.402   7.272  10.158  1.00  0.00    -0.176 OA
BRANCH   9  12
HETATM   12  N1  UNL     1      15.900   8.372   7.809  1.00  0.00    -0.306 N 
ATOM     13  H12 UNL     1      15.423   7.803   7.108  1.00  0.00     0.171 HD
ATOM     14  H11 UNL     1      16.128   9.364   7.748  1.00  0.00     0.171 HD
ENDBRANCH   9  12
ENDBRANCH   8   9
ENDBRANCH   7   8
ENDBRANCH   2   7
BRANCH   1  15
HETATM   15  O2  UNL     1      17.730   6.565  13.312  1.00  0.00    -0.311 OA
BRANCH  15  16
HETATM   16  C2  UNL     1      18.535   7.152  14.225  1.00  0.00     0.255 C 
HETATM   17  C1  UNL     1      18.138   8.566  14.632  1.00  0.00     0.126 C 
HETATM   18  O1  UNL     1      19.510   6.576  14.700  1.00  0.00    -0.266 OA
ENDBRANCH  15  16
ENDBRANCH   1  15
BRANCH   6  19
HETATM   19  O9  UNL     1      17.445   3.251  13.637  1.00  0.00    -0.311 OA
BRANCH  19  20
HETATM   20  C9  UNL     1      16.916   3.109  14.920  1.00  0.00     0.255 C 
HETATM   21  C10 UNL     1      16.837   4.260  15.871  1.00  0.00     0.126 C 
HETATM   22  O10 UNL     1      16.506   1.956  15.270  1.00  0.00    -0.266 OA
ENDBRANCH  19  20
ENDBRANCH   6  19
BRANCH   4  23
HETATM   23  O7  UNL     1      16.836   2.918   9.468  1.00  0.00    -0.369 OA
ATOM     24  H7  UNL     1      16.593   2.013   9.630  1.00  0.00     0.212 HD
ENDBRANCH   4  23
BRANCH   5  25
HETATM   25  O8  UNL     1      15.241   4.399  11.251  1.00  0.00    -0.388 OA
ATOM     26  H8  UNL     1      14.403   4.059  11.543  1.00  0.00     0.210 HD
ENDBRANCH   5  25
TORSDOF 10
ENDMDL
