MODEL 1
REMARK VINA RESULT: -7.282901539      0.000      0.000
REMARK  13 active torsions:
REMARK  status: ('A' for Active; 'I' for Inactive)
REMARK    1  A    between atoms: C2_2  and  C3_3 
REMARK    2  A    between atoms: C3_3  and  O2_5 
REMARK    3  A    between atoms: O2_5  and  C4_6 
REMARK    4  A    between atoms: C5_7  and  O3_8 
REMARK    5  A    between atoms: O3_8  and  C6_9 
REMARK    6  A    between atoms: C6_9  and  C7_11 
REMARK    7  A    between atoms: C10_16  and  C11_17 
REMARK    8  A    between atoms: C11_17  and  O7_18 
REMARK    9  A    between atoms: O7_18  and  S1_19 
REMARK   10  A    between atoms: S1_19  and  N1_20 
REMARK   11  A    between atoms: C12_25  and  O10_26 
REMARK   12  A    between atoms: O10_26  and  C13_27 
REMARK   13  A    between atoms: C13_27  and  C14_29 
ROOT
HETATM    1  C4  UNL     1      16.571   2.761  11.942  1.00  0.00     0.203 C 
HETATM    2  C5  UNL     1      16.324   1.384  11.298  1.00  0.00     0.263 C 
HETATM    3  C9  UNL     1      17.103   0.459  12.201  1.00  0.00     0.291 C 
HETATM    4  O5  UNL     1      17.004  -0.766  11.978  1.00  0.00    -0.262 OA
HETATM    5  O6  UNL     1      17.884   0.992  13.199  1.00  0.00    -0.309 OA
HETATM    6  C10 UNL     1      17.428   2.163  14.032  1.00  0.00     0.189 C 
HETATM    7  C12 UNL     1      16.134   2.424  13.438  1.00  0.00     0.196 C 
ENDROOT
BRANCH   6   8
HETATM    8  C11 UNL     1      17.481   1.519  15.443  1.00  0.00     0.227 C 
BRANCH   8   9
HETATM    9  O7  UNL     1      16.166   0.948  15.483  1.00  0.00    -0.257 OA
BRANCH   9  10
HETATM   10  S1  UNL     1      15.416   0.895  16.897  1.00  0.00     0.355 S 
HETATM   11  O8  UNL     1      16.346   1.553  17.951  1.00  0.00    -0.176 OA
HETATM   12  O9  UNL     1      15.433  -0.587  17.405  1.00  0.00    -0.176 OA
BRANCH  10  13
HETATM   13  N1  UNL     1      13.870   1.439  17.066  1.00  0.00    -0.306 N 
ATOM     14  H12 UNL     1      13.635   1.978  17.900  1.00  0.00     0.171 HD
ATOM     15  H11 UNL     1      13.159   1.247  16.360  1.00  0.00     0.171 HD
ENDBRANCH  10  13
ENDBRANCH   9  10
ENDBRANCH   8   9
ENDBRANCH   6   8
BRANCH   7  16
HETATM   16  O10 UNL     1      15.291   3.439  13.724  1.00  0.00    -0.310 OA
BRANCH  16  17
HETATM   17  C13 UNL     1      15.536   4.407  14.704  1.00  0.00     0.259 C 
HETATM   18  O11 UNL     1      15.178   4.132  15.903  1.00  0.00    -0.265 OA
BRANCH  17  19
HETATM   19  C14 UNL     1      16.157   5.746  14.462  1.00  0.00     0.106 C 
HETATM   20  C15 UNL     1      17.669   5.466  14.685  1.00  0.00     0.015 C 
ENDBRANCH  17  19
ENDBRANCH  16  17
ENDBRANCH   7  16
BRANCH   1  21
HETATM   21  O2  UNL     1      15.818   3.796  11.498  1.00  0.00    -0.310 OA
BRANCH  21  22
HETATM   22  C3  UNL     1      16.221   4.868  10.761  1.00  0.00     0.259 C 
HETATM   23  O1  UNL     1      15.391   5.444   9.972  1.00  0.00    -0.265 OA
BRANCH  22  24
HETATM   24  C2  UNL     1      17.646   5.436  10.807  1.00  0.00     0.106 C 
HETATM   25  C1  UNL     1      17.533   6.899  11.102  1.00  0.00     0.015 C 
ENDBRANCH  22  24
ENDBRANCH  21  22
ENDBRANCH   1  21
BRANCH   2  26
HETATM   26  O3  UNL     1      16.833   1.305   9.999  1.00  0.00    -0.303 OA
BRANCH  26  27
HETATM   27  C6  UNL     1      16.039   1.296   8.893  1.00  0.00     0.259 C 
HETATM   28  O4  UNL     1      15.319   0.310   8.627  1.00  0.00    -0.265 OA
BRANCH  27  29
HETATM   29  C7  UNL     1      16.073   2.521   7.975  1.00  0.00     0.106 C 
HETATM   30  C8  UNL     1      15.796   1.910   6.579  1.00  0.00     0.015 C 
ENDBRANCH  27  29
ENDBRANCH  26  27
ENDBRANCH   2  26
TORSDOF 13
ENDMDL
