MODEL 2
REMARK VINA RESULT: -7.251488552      2.008      4.716
REMARK  13 active torsions:
REMARK  status: ('A' for Active; 'I' for Inactive)
REMARK    1  A    between atoms: C2_2  and  C3_3 
REMARK    2  A    between atoms: C3_3  and  O2_5 
REMARK    3  A    between atoms: O2_5  and  C4_6 
REMARK    4  A    between atoms: C5_7  and  O3_8 
REMARK    5  A    between atoms: O3_8  and  C6_9 
REMARK    6  A    between atoms: C6_9  and  C7_11 
REMARK    7  A    between atoms: C10_16  and  C11_17 
REMARK    8  A    between atoms: C11_17  and  O7_18 
REMARK    9  A    between atoms: O7_18  and  S1_19 
REMARK   10  A    between atoms: S1_19  and  N1_20 
REMARK   11  A    between atoms: C12_25  and  O10_26 
REMARK   12  A    between atoms: O10_26  and  C13_27 
REMARK   13  A    between atoms: C13_27  and  C14_29 
ROOT
HETATM    1  C4  UNL     1      16.384   3.779  12.064  1.00  0.00     0.203 C 
HETATM    2  C5  UNL     1      16.801   5.164  12.591  1.00  0.00     0.263 C 
HETATM    3  C9  UNL     1      16.742   4.973  14.087  1.00  0.00     0.291 C 
HETATM    4  O5  UNL     1      17.136   5.924  14.796  1.00  0.00    -0.262 OA
HETATM    5  O6  UNL     1      16.254   3.793  14.597  1.00  0.00    -0.309 OA
HETATM    6  C10 UNL     1      16.586   2.458  13.981  1.00  0.00     0.189 C 
HETATM    7  C12 UNL     1      17.419   2.875  12.873  1.00  0.00     0.196 C 
ENDROOT
BRANCH   6   8
HETATM    8  C11 UNL     1      17.259   1.767  15.197  1.00  0.00     0.227 C 
BRANCH   8   9
HETATM    9  O7  UNL     1      16.187   0.897  15.588  1.00  0.00    -0.257 OA
BRANCH   9  10
HETATM   10  S1  UNL     1      15.353   1.283  16.900  1.00  0.00     0.355 S 
HETATM   11  O8  UNL     1      16.166   0.805  18.134  1.00  0.00    -0.176 OA
HETATM   12  O9  UNL     1      14.120   0.322  16.997  1.00  0.00    -0.176 OA
BRANCH  10  13
HETATM   13  N1  UNL     1      14.786   2.812  17.136  1.00  0.00    -0.306 N 
ATOM     14  H12 UNL     1      15.456   3.580  17.147  1.00  0.00     0.171 HD
ATOM     15  H11 UNL     1      13.791   2.993  17.267  1.00  0.00     0.171 HD
ENDBRANCH  10  13
ENDBRANCH   9  10
ENDBRANCH   8   9
ENDBRANCH   6   8
BRANCH   7  16
HETATM   16  O10 UNL     1      17.940   2.098  11.900  1.00  0.00    -0.310 OA
BRANCH  16  17
HETATM   17  C13 UNL     1      19.307   2.004  11.622  1.00  0.00     0.259 C 
HETATM   18  O11 UNL     1      20.086   2.828  12.221  1.00  0.00    -0.265 OA
BRANCH  17  19
HETATM   19  C14 UNL     1      19.932   1.041  10.663  1.00  0.00     0.106 C 
HETATM   20  C15 UNL     1      18.727   0.161  10.230  1.00  0.00     0.015 C 
ENDBRANCH  17  19
ENDBRANCH  16  17
ENDBRANCH   7  16
BRANCH   1  21
HETATM   21  O2  UNL     1      16.552   3.544  10.740  1.00  0.00    -0.310 OA
BRANCH  21  22
HETATM   22  C3  UNL     1      15.743   2.833   9.908  1.00  0.00     0.259 C 
HETATM   23  O1  UNL     1      14.657   2.321  10.362  1.00  0.00    -0.265 OA
BRANCH  22  24
HETATM   24  C2  UNL     1      16.060   2.589   8.426  1.00  0.00     0.106 C 
HETATM   25  C1  UNL     1      15.780   1.147   8.141  1.00  0.00     0.015 C 
ENDBRANCH  22  24
ENDBRANCH  21  22
ENDBRANCH   1  21
BRANCH   2  26
HETATM   26  O3  UNL     1      15.907   6.169  12.214  1.00  0.00    -0.303 OA
BRANCH  26  27
HETATM   27  C6  UNL     1      16.299   7.309  11.581  1.00  0.00     0.259 C 
HETATM   28  O4  UNL     1      17.428   7.803  11.791  1.00  0.00    -0.265 OA
BRANCH  27  29
HETATM   29  C7  UNL     1      15.308   7.977  10.624  1.00  0.00     0.106 C 
HETATM   30  C8  UNL     1      14.066   8.205  11.523  1.00  0.00     0.015 C 
ENDBRANCH  27  29
ENDBRANCH  26  27
ENDBRANCH   2  26
TORSDOF 13
ENDMDL
