MODEL 6
REMARK VINA RESULT: -7.046218643      2.055      4.935
REMARK  13 active torsions:
REMARK  status: ('A' for Active; 'I' for Inactive)
REMARK    1  A    between atoms: C2_2  and  C3_3 
REMARK    2  A    between atoms: C3_3  and  O2_5 
REMARK    3  A    between atoms: O2_5  and  C4_6 
REMARK    4  A    between atoms: C5_7  and  O3_8 
REMARK    5  A    between atoms: O3_8  and  C6_9 
REMARK    6  A    between atoms: C6_9  and  C7_11 
REMARK    7  A    between atoms: C10_16  and  C11_17 
REMARK    8  A    between atoms: C11_17  and  O7_18 
REMARK    9  A    between atoms: O7_18  and  S1_19 
REMARK   10  A    between atoms: S1_19  and  N1_20 
REMARK   11  A    between atoms: C12_25  and  O10_26 
REMARK   12  A    between atoms: O10_26  and  C13_27 
REMARK   13  A    between atoms: C13_27  and  C14_29 
ROOT
HETATM    1  C4  UNL     1      16.583   4.175  10.735  1.00  0.00     0.203 C 
HETATM    2  C5  UNL     1      16.655   5.643  11.193  1.00  0.00     0.263 C 
HETATM    3  C9  UNL     1      16.511   5.523  12.691  1.00  0.00     0.291 C 
HETATM    4  O5  UNL     1      16.636   6.573  13.358  1.00  0.00    -0.262 OA
HETATM    5  O6  UNL     1      16.240   4.294  13.246  1.00  0.00    -0.309 OA
HETATM    6  C10 UNL     1      16.895   3.031  12.749  1.00  0.00     0.189 C 
HETATM    7  C12 UNL     1      17.713   3.559  11.677  1.00  0.00     0.196 C 
ENDROOT
BRANCH   6   8
HETATM    8  C11 UNL     1      17.594   2.565  14.054  1.00  0.00     0.227 C 
BRANCH   8   9
HETATM    9  O7  UNL     1      16.438   2.154  14.797  1.00  0.00    -0.257 OA
BRANCH   9  10
HETATM   10  S1  UNL     1      16.646   1.087  15.974  1.00  0.00     0.355 S 
HETATM   11  O8  UNL     1      18.147   1.110  16.373  1.00  0.00    -0.176 OA
HETATM   12  O9  UNL     1      16.550  -0.349  15.356  1.00  0.00    -0.176 OA
BRANCH  10  13
HETATM   13  N1  UNL     1      15.689   1.095  17.315  1.00  0.00    -0.306 N 
ATOM     14  H12 UNL     1      14.678   1.134  17.188  1.00  0.00     0.171 HD
ATOM     15  H11 UNL     1      16.090   1.061  18.253  1.00  0.00     0.171 HD
ENDBRANCH  10  13
ENDBRANCH   9  10
ENDBRANCH   8   9
ENDBRANCH   6   8
BRANCH   7  16
HETATM   16  O10 UNL     1      18.465   2.861  10.799  1.00  0.00    -0.310 OA
BRANCH  16  17
HETATM   17  C13 UNL     1      19.048   1.621  11.082  1.00  0.00     0.259 C 
HETATM   18  O11 UNL     1      20.077   1.618  11.846  1.00  0.00    -0.265 OA
BRANCH  17  19
HETATM   19  C14 UNL     1      18.586   0.304  10.546  1.00  0.00     0.106 C 
HETATM   20  C15 UNL     1      17.815  -0.303  11.751  1.00  0.00     0.015 C 
ENDBRANCH  17  19
ENDBRANCH  16  17
ENDBRANCH   7  16
BRANCH   1  21
HETATM   21  O2  UNL     1      16.908   3.912   9.446  1.00  0.00    -0.310 OA
BRANCH  21  22
HETATM   22  C3  UNL     1      16.264   3.090   8.573  1.00  0.00     0.259 C 
HETATM   23  O1  UNL     1      16.299   3.347   7.316  1.00  0.00    -0.265 OA
BRANCH  22  24
HETATM   24  C2  UNL     1      15.467   1.854   9.008  1.00  0.00     0.106 C 
HETATM   25  C1  UNL     1      15.828   0.739   8.076  1.00  0.00     0.015 C 
ENDBRANCH  22  24
ENDBRANCH  21  22
ENDBRANCH   1  21
BRANCH   2  26
HETATM   26  O3  UNL     1      15.604   6.412  10.685  1.00  0.00    -0.303 OA
BRANCH  26  27
HETATM   27  C6  UNL     1      15.788   7.643  10.134  1.00  0.00     0.259 C 
HETATM   28  O4  UNL     1      16.508   7.793   9.124  1.00  0.00    -0.265 OA
BRANCH  27  29
HETATM   29  C7  UNL     1      15.104   8.839  10.801  1.00  0.00     0.106 C 
HETATM   30  C8  UNL     1      13.965   8.171  11.613  1.00  0.00     0.015 C 
ENDBRANCH  27  29
ENDBRANCH  26  27
ENDBRANCH   2  26
TORSDOF 13
ENDMDL
