MODEL 5
REMARK VINA RESULT: -7.139828551      3.107      6.846
REMARK  13 active torsions:
REMARK  status: ('A' for Active; 'I' for Inactive)
REMARK    1  A    between atoms: C2_2  and  C3_3 
REMARK    2  A    between atoms: C3_3  and  O2_5 
REMARK    3  A    between atoms: O2_5  and  C4_6 
REMARK    4  A    between atoms: C5_7  and  O3_8 
REMARK    5  A    between atoms: O3_8  and  C6_9 
REMARK    6  A    between atoms: C6_9  and  C7_11 
REMARK    7  A    between atoms: C10_16  and  C11_17 
REMARK    8  A    between atoms: C11_17  and  O7_18 
REMARK    9  A    between atoms: O7_18  and  S1_19 
REMARK   10  A    between atoms: S1_19  and  N1_20 
REMARK   11  A    between atoms: C12_25  and  O10_26 
REMARK   12  A    between atoms: O10_26  and  C13_27 
REMARK   13  A    between atoms: C13_27  and  C14_29 
ROOT
HETATM    1  C4  UNL     1      17.475   2.525  13.067  1.00  0.00     0.203 C 
HETATM    2  C5  UNL     1      16.432   2.510  14.199  1.00  0.00     0.263 C 
HETATM    3  C9  UNL     1      16.093   3.974  14.347  1.00  0.00     0.291 C 
HETATM    4  O5  UNL     1      15.176   4.265  15.144  1.00  0.00    -0.262 OA
HETATM    5  O6  UNL     1      16.801   4.906  13.626  1.00  0.00    -0.309 OA
HETATM    6  C10 UNL     1      17.197   4.673  12.190  1.00  0.00     0.189 C 
HETATM    7  C12 UNL     1      16.654   3.348  11.975  1.00  0.00     0.196 C 
ENDROOT
BRANCH   6   8
HETATM    8  C11 UNL     1      16.489   5.882  11.522  1.00  0.00     0.227 C 
BRANCH   8   9
HETATM    9  O7  UNL     1      17.470   6.200  10.525  1.00  0.00    -0.257 OA
BRANCH   9  10
HETATM   10  S1  UNL     1      17.229   5.654   9.039  1.00  0.00     0.355 S 
HETATM   11  O8  UNL     1      18.479   4.830   8.628  1.00  0.00    -0.176 OA
HETATM   12  O9  UNL     1      17.359   6.861   8.047  1.00  0.00    -0.176 OA
BRANCH  10  13
HETATM   13  N1  UNL     1      15.847   4.853   8.635  1.00  0.00    -0.306 N 
ATOM     14  H12 UNL     1      15.510   4.123   9.262  1.00  0.00     0.171 HD
ATOM     15  H11 UNL     1      15.335   5.076   7.781  1.00  0.00     0.171 HD
ENDBRANCH  10  13
ENDBRANCH   9  10
ENDBRANCH   8   9
ENDBRANCH   6   8
BRANCH   7  16
HETATM   16  O10 UNL     1      16.788   2.575  10.876  1.00  0.00    -0.310 OA
BRANCH  16  17
HETATM   17  C13 UNL     1      15.720   1.945  10.230  1.00  0.00     0.259 C 
HETATM   18  O11 UNL     1      14.574   2.515  10.296  1.00  0.00    -0.265 OA
BRANCH  17  19
HETATM   19  C14 UNL     1      15.800   0.646   9.492  1.00  0.00     0.106 C 
HETATM   20  C15 UNL     1      15.819   1.099   8.006  1.00  0.00     0.015 C 
ENDBRANCH  17  19
ENDBRANCH  16  17
ENDBRANCH   7  16
BRANCH   1  21
HETATM   21  O2  UNL     1      17.824   1.331  12.531  1.00  0.00    -0.310 OA
BRANCH  21  22
HETATM   22  C3  UNL     1      18.965   1.018  11.857  1.00  0.00     0.259 C 
HETATM   23  O1  UNL     1      19.959   1.828  11.882  1.00  0.00    -0.265 OA
BRANCH  22  24
HETATM   24  C2  UNL     1      19.136  -0.269  11.039  1.00  0.00     0.106 C 
HETATM   25  C1  UNL     1      18.201  -1.289  11.609  1.00  0.00     0.015 C 
ENDBRANCH  22  24
ENDBRANCH  21  22
ENDBRANCH   1  21
BRANCH   2  26
HETATM   26  O3  UNL     1      16.958   2.031  15.402  1.00  0.00    -0.303 OA
BRANCH  26  27
HETATM   27  C6  UNL     1      16.414   0.984  16.082  1.00  0.00     0.259 C 
HETATM   28  O4  UNL     1      16.408  -0.165  15.592  1.00  0.00    -0.265 OA
BRANCH  27  29
HETATM   29  C7  UNL     1      15.792   1.263  17.453  1.00  0.00     0.106 C 
HETATM   30  C8  UNL     1      14.281   1.367  17.128  1.00  0.00     0.015 C 
ENDBRANCH  27  29
ENDBRANCH  26  27
ENDBRANCH   2  26
TORSDOF 13
ENDMDL
