MODEL 5
REMARK VINA RESULT: -6.504643601      1.480      3.921
REMARK  9 active torsions:
REMARK  status: ('A' for Active; 'I' for Inactive)
REMARK    1  A    between atoms: C2_2  and  O2_4 
REMARK    2  A    between atoms: O2_4  and  C3_5 
REMARK    3  A    between atoms: C4_6  and  C5_7 
REMARK    4  A    between atoms: C5_7  and  O3_8 
REMARK    5  A    between atoms: O3_8  and  S1_9 
REMARK    6  A    between atoms: S1_9  and  N1_10 
REMARK    7  A    between atoms: C6_16  and  O7_17 
REMARK    8  A    between atoms: C7_19  and  O8_20 
REMARK    9  A    between atoms: C8_22  and  O9_23 
ROOT
HETATM    1  C3  UNL     1      17.748   2.161  12.458  1.00  0.00     0.194 C 
HETATM    2  C4  UNL     1      17.320   1.324  13.558  1.00  0.00     0.182 C 
HETATM    3  O6  UNL     1      17.457  -0.013  13.221  1.00  0.00    -0.349 OA
HETATM    4  C6  UNL     1      16.819  -0.526  12.177  1.00  0.00     0.288 C 
HETATM    5  C7  UNL     1      16.430   0.448  11.095  1.00  0.00     0.204 C 
HETATM    6  C8  UNL     1      17.231   1.693  11.101  1.00  0.00     0.183 C 
ENDROOT
BRANCH   2   7
HETATM    7  C5  UNL     1      16.050   1.583  14.337  1.00  0.00     0.226 C 
BRANCH   7   8
HETATM    8  O3  UNL     1      16.153   0.426  15.197  1.00  0.00    -0.257 OA
BRANCH   8   9
HETATM    9  S1  UNL     1      15.274   0.601  16.588  1.00  0.00     0.355 S 
HETATM   10  O4  UNL     1      16.145   0.296  17.791  1.00  0.00    -0.176 OA
HETATM   11  O5  UNL     1      14.222  -0.571  16.618  1.00  0.00    -0.176 OA
BRANCH   9  12
HETATM   12  N1  UNL     1      14.407   2.007  16.753  1.00  0.00    -0.306 N 
ATOM     13  H12 UNL     1      14.479   2.748  16.055  1.00  0.00     0.171 HD
ATOM     14  H11 UNL     1      13.810   2.086  17.576  1.00  0.00     0.171 HD
ENDBRANCH   9  12
ENDBRANCH   8   9
ENDBRANCH   7   8
ENDBRANCH   2   7
BRANCH   1  15
HETATM   15  O2  UNL     1      17.576   3.538  12.481  1.00  0.00    -0.311 OA
BRANCH  15  16
HETATM   16  C2  UNL     1      18.137   4.476  13.299  1.00  0.00     0.255 C 
HETATM   17  C1  UNL     1      17.468   5.194  14.447  1.00  0.00     0.126 C 
HETATM   18  O1  UNL     1      19.348   4.765  13.030  1.00  0.00    -0.266 OA
ENDBRANCH  15  16
ENDBRANCH   1  15
BRANCH   6  19
HETATM   19  O9  UNL     1      16.328   2.713  10.641  1.00  0.00    -0.390 OA
ATOM     20  H9  UNL     1      15.502   2.556  11.083  1.00  0.00     0.210 HD
ENDBRANCH   6  19
BRANCH   4  21
HETATM   21  O7  UNL     1      17.651  -1.544  11.648  1.00  0.00    -0.369 OA
ATOM     22  H7  UNL     1      18.217  -1.130  11.007  1.00  0.00     0.212 HD
ENDBRANCH   4  21
BRANCH   5  23
HETATM   23  O8  UNL     1      16.641  -0.199   9.858  1.00  0.00    -0.388 OA
ATOM     24  H8  UNL     1      15.914   0.033   9.293  1.00  0.00     0.210 HD
ENDBRANCH   5  23
TORSDOF 9
ENDMDL
