MODEL 9
REMARK VINA RESULT: -6.325401986      1.378      4.099
REMARK  9 active torsions:
REMARK  status: ('A' for Active; 'I' for Inactive)
REMARK    1  A    between atoms: C2_2  and  O2_4 
REMARK    2  A    between atoms: O2_4  and  C3_5 
REMARK    3  A    between atoms: C4_6  and  C5_7 
REMARK    4  A    between atoms: C5_7  and  O3_8 
REMARK    5  A    between atoms: O3_8  and  S1_9 
REMARK    6  A    between atoms: S1_9  and  N1_10 
REMARK    7  A    between atoms: C6_16  and  O7_17 
REMARK    8  A    between atoms: C7_19  and  O8_20 
REMARK    9  A    between atoms: C8_22  and  O9_23 
ROOT
HETATM    1  C3  UNL     1      16.791   1.698  12.567  1.00  0.00     0.194 C 
HETATM    2  C4  UNL     1      17.341   0.711  13.471  1.00  0.00     0.182 C 
HETATM    3  O6  UNL     1      18.260  -0.085  12.805  1.00  0.00    -0.349 OA
HETATM    4  C6  UNL     1      17.905  -0.800  11.745  1.00  0.00     0.288 C 
HETATM    5  C7  UNL     1      16.704  -0.305  10.983  1.00  0.00     0.204 C 
HETATM    6  C8  UNL     1      16.411   1.129  11.203  1.00  0.00     0.183 C 
ENDROOT
BRANCH   2   7
HETATM    7  C5  UNL     1      16.486  -0.091  14.427  1.00  0.00     0.226 C 
BRANCH   7   8
HETATM    8  O3  UNL     1      16.817   0.670  15.611  1.00  0.00    -0.257 OA
BRANCH   8   9
HETATM    9  S1  UNL     1      15.541   0.781  16.657  1.00  0.00     0.355 S 
HETATM   10  O4  UNL     1      16.039   0.720  18.088  1.00  0.00    -0.176 OA
HETATM   11  O5  UNL     1      14.718  -0.557  16.523  1.00  0.00    -0.176 OA
BRANCH   9  12
HETATM   12  N1  UNL     1      14.463   2.016  16.396  1.00  0.00    -0.306 N 
ATOM     13  H12 UNL     1      14.753   2.865  15.909  1.00  0.00     0.171 HD
ATOM     14  H11 UNL     1      13.514   1.880  16.743  1.00  0.00     0.171 HD
ENDBRANCH   9  12
ENDBRANCH   8   9
ENDBRANCH   7   8
ENDBRANCH   2   7
BRANCH   1  15
HETATM   15  O2  UNL     1      15.742   2.526  12.944  1.00  0.00    -0.311 OA
BRANCH  15  16
HETATM   16  C2  UNL     1      15.741   3.616  13.766  1.00  0.00     0.255 C 
HETATM   17  C1  UNL     1      16.947   4.336  14.320  1.00  0.00     0.126 C 
HETATM   18  O1  UNL     1      14.584   4.037  14.093  1.00  0.00    -0.266 OA
ENDBRANCH  15  16
ENDBRANCH   1  15
BRANCH   6  19
HETATM   19  O9  UNL     1      14.980   1.231  11.110  1.00  0.00    -0.390 OA
ATOM     20  H9  UNL     1      14.697   0.509  10.562  1.00  0.00     0.210 HD
ENDBRANCH   6  19
BRANCH   4  21
HETATM   21  O7  UNL     1      19.037  -0.860  10.895  1.00  0.00    -0.369 OA
ATOM     22  H7  UNL     1      19.522  -1.641  11.138  1.00  0.00     0.212 HD
ENDBRANCH   4  21
BRANCH   5  23
HETATM   23  O8  UNL     1      16.978  -0.488   9.611  1.00  0.00    -0.388 OA
ATOM     24  H8  UNL     1      17.140   0.372   9.241  1.00  0.00     0.210 HD
ENDBRANCH   5  23
TORSDOF 9
ENDMDL
