MODEL 8
REMARK VINA RESULT: -6.357933913      2.753      4.892
REMARK  9 active torsions:
REMARK  status: ('A' for Active; 'I' for Inactive)
REMARK    1  A    between atoms: C2_2  and  O2_4 
REMARK    2  A    between atoms: O2_4  and  C3_5 
REMARK    3  A    between atoms: C4_6  and  C5_7 
REMARK    4  A    between atoms: C5_7  and  O3_8 
REMARK    5  A    between atoms: O3_8  and  S1_9 
REMARK    6  A    between atoms: S1_9  and  N1_10 
REMARK    7  A    between atoms: C6_16  and  O7_17 
REMARK    8  A    between atoms: C7_19  and  O8_20 
REMARK    9  A    between atoms: C8_22  and  O9_23 
ROOT
HETATM    1  C3  UNL     1      16.761   1.917  14.701  1.00  0.00     0.194 C 
HETATM    2  C4  UNL     1      17.286   1.391  13.459  1.00  0.00     0.182 C 
HETATM    3  O6  UNL     1      18.278   2.226  12.970  1.00  0.00    -0.349 OA
HETATM    4  C6  UNL     1      18.025   3.497  12.684  1.00  0.00     0.288 C 
HETATM    5  C7  UNL     1      16.860   4.120  13.409  1.00  0.00     0.204 C 
HETATM    6  C8  UNL     1      16.497   3.420  14.662  1.00  0.00     0.183 C 
ENDROOT
BRANCH   2   7
HETATM    7  C5  UNL     1      16.399   0.860  12.356  1.00  0.00     0.226 C 
BRANCH   7   8
HETATM    8  O3  UNL     1      16.867  -0.506  12.422  1.00  0.00    -0.257 OA
BRANCH   8   9
HETATM    9  S1  UNL     1      17.975  -0.843  11.241  1.00  0.00     0.355 S 
HETATM   10  O4  UNL     1      17.337  -0.687   9.874  1.00  0.00    -0.176 OA
HETATM   11  O5  UNL     1      18.265  -2.391  11.309  1.00  0.00    -0.176 OA
BRANCH   9  12
HETATM   12  N1  UNL     1      19.450  -0.090  11.360  1.00  0.00    -0.306 N 
ATOM     13  H12 UNL     1      19.617   0.615  12.079  1.00  0.00     0.171 HD
ATOM     14  H11 UNL     1      20.164  -0.367  10.687  1.00  0.00     0.171 HD
ENDBRANCH   9  12
ENDBRANCH   8   9
ENDBRANCH   7   8
ENDBRANCH   2   7
BRANCH   1  15
HETATM   15  O2  UNL     1      15.658   1.350  15.324  1.00  0.00    -0.311 OA
BRANCH  15  16
HETATM   16  C2  UNL     1      15.599   0.439  16.339  1.00  0.00     0.255 C 
HETATM   17  C1  UNL     1      15.259   0.713  17.785  1.00  0.00     0.126 C 
HETATM   18  O1  UNL     1      15.880  -0.756  16.002  1.00  0.00    -0.266 OA
ENDBRANCH  15  16
ENDBRANCH   1  15
BRANCH   6  19
HETATM   19  O9  UNL     1      15.073   3.582  14.775  1.00  0.00    -0.390 OA
ATOM     20  H9  UNL     1      14.752   3.726  13.893  1.00  0.00     0.210 HD
ENDBRANCH   6  19
BRANCH   4  21
HETATM   21  O7  UNL     1      19.214   4.221  12.950  1.00  0.00    -0.369 OA
ATOM     22  H7  UNL     1      19.099   5.085  12.573  1.00  0.00     0.212 HD
ENDBRANCH   4  21
BRANCH   5  23
HETATM   23  O8  UNL     1      17.234   5.440  13.740  1.00  0.00    -0.388 OA
ATOM     24  H8  UNL     1      16.850   5.636  14.586  1.00  0.00     0.210 HD
ENDBRANCH   5  23
TORSDOF 9
ENDMDL
