MODEL 13
REMARK VINA RESULT: -6.045352383      3.199      4.018
REMARK  9 active torsions:
REMARK  status: ('A' for Active; 'I' for Inactive)
REMARK    1  A    between atoms: C2_2  and  O2_4 
REMARK    2  A    between atoms: O2_4  and  C3_5 
REMARK    3  A    between atoms: C4_6  and  C5_7 
REMARK    4  A    between atoms: C5_7  and  O3_8 
REMARK    5  A    between atoms: O3_8  and  S1_9 
REMARK    6  A    between atoms: S1_9  and  N1_10 
REMARK    7  A    between atoms: C6_16  and  O7_17 
REMARK    8  A    between atoms: C7_19  and  O8_20 
REMARK    9  A    between atoms: C8_22  and  O9_23 
ROOT
HETATM    1  C3  UNL     1      18.444   2.756  12.103  1.00  0.00     0.194 C 
HETATM    2  C4  UNL     1      17.246   1.996  12.387  1.00  0.00     0.182 C 
HETATM    3  O6  UNL     1      16.207   2.850  12.720  1.00  0.00    -0.349 OA
HETATM    4  C6  UNL     1      16.303   3.674  13.756  1.00  0.00     0.288 C 
HETATM    5  C7  UNL     1      17.700   4.049  14.178  1.00  0.00     0.204 C 
HETATM    6  C8  UNL     1      18.711   3.871  13.110  1.00  0.00     0.183 C 
ENDROOT
BRANCH   2   7
HETATM    7  C5  UNL     1      17.252   0.751  13.246  1.00  0.00     0.226 C 
BRANCH   7   8
HETATM    8  O3  UNL     1      16.346  -0.015  12.419  1.00  0.00    -0.257 OA
BRANCH   8   9
HETATM    9  S1  UNL     1      17.143  -0.869  11.247  1.00  0.00     0.355 S 
HETATM   10  O4  UNL     1      16.595  -0.506   9.881  1.00  0.00    -0.176 OA
HETATM   11  O5  UNL     1      16.710  -2.377  11.402  1.00  0.00    -0.176 OA
BRANCH   9  12
HETATM   12  N1  UNL     1      18.802  -0.855  11.308  1.00  0.00    -0.306 N 
ATOM     13  H12 UNL     1      19.300  -1.345  12.051  1.00  0.00     0.171 HD
ATOM     14  H11 UNL     1      19.285  -0.339  10.572  1.00  0.00     0.171 HD
ENDBRANCH   9  12
ENDBRANCH   8   9
ENDBRANCH   7   8
ENDBRANCH   2   7
BRANCH   1  15
HETATM   15  O2  UNL     1      19.666   2.135  11.886  1.00  0.00    -0.311 OA
BRANCH  15  16
HETATM   16  C2  UNL     1      20.444   2.104  10.764  1.00  0.00     0.255 C 
HETATM   17  C1  UNL     1      21.707   2.892  10.514  1.00  0.00     0.126 C 
HETATM   18  O1  UNL     1      20.025   1.329   9.844  1.00  0.00    -0.266 OA
ENDBRANCH  15  16
ENDBRANCH   1  15
BRANCH   6  19
HETATM   19  O9  UNL     1      19.917   3.508  13.803  1.00  0.00    -0.390 OA
ATOM     20  H9  UNL     1      19.908   3.989  14.621  1.00  0.00     0.210 HD
ENDBRANCH   6  19
BRANCH   4  21
HETATM   21  O7  UNL     1      15.560   4.835  13.426  1.00  0.00    -0.369 OA
ATOM     22  H7  UNL     1      15.980   5.223  12.667  1.00  0.00     0.212 HD
ENDBRANCH   4  21
BRANCH   5  23
HETATM   23  O8  UNL     1      17.675   5.416  14.530  1.00  0.00    -0.388 OA
ATOM     24  H8  UNL     1      18.433   5.577  15.079  1.00  0.00     0.210 HD
ENDBRANCH   5  23
TORSDOF 9
ENDMDL
