MODEL 17
REMARK VINA RESULT: -6.327749288      1.409      1.737
REMARK  10 active torsions:
REMARK  status: ('A' for Active; 'I' for Inactive)
REMARK    1  A    between atoms: C2_2  and  O2_4 
REMARK    2  A    between atoms: O2_4  and  C3_5 
REMARK    3  A    between atoms: C4_6  and  O3_7 
REMARK    4  A    between atoms: C5_9  and  O4_10 
REMARK    5  A    between atoms: C6_13  and  C7_14 
REMARK    6  A    between atoms: C7_14  and  O6_15 
REMARK    7  A    between atoms: O6_15  and  S1_16 
REMARK    8  A    between atoms: S1_16  and  N1_17 
REMARK    9  A    between atoms: C8_22  and  O9_23 
REMARK   10  A    between atoms: O9_23  and  C9_24 
ROOT
HETATM    1  C3  UNL     1      17.441   5.257  10.771  1.00  0.00     0.197 C 
HETATM    2  C4  UNL     1      17.385   3.870  10.164  1.00  0.00     0.205 C 
HETATM    3  C5  UNL     1      18.386   3.028  10.928  1.00  0.00     0.288 C 
HETATM    4  O5  UNL     1      18.781   3.593  12.116  1.00  0.00    -0.349 OA
HETATM    5  C6  UNL     1      17.762   4.092  12.883  1.00  0.00     0.182 C 
HETATM    6  C8  UNL     1      16.903   5.113  12.192  1.00  0.00     0.195 C 
ENDROOT
BRANCH   5   7
HETATM    7  C7  UNL     1      16.922   2.991  13.519  1.00  0.00     0.226 C 
BRANCH   7   8
HETATM    8  O6  UNL     1      16.235   3.509  14.632  1.00  0.00    -0.257 OA
BRANCH   8   9
HETATM    9  S1  UNL     1      16.551   2.660  16.017  1.00  0.00     0.355 S 
HETATM   10  O7  UNL     1      16.164   1.216  15.912  1.00  0.00    -0.176 OA
HETATM   11  O8  UNL     1      18.041   2.691  16.312  1.00  0.00    -0.176 OA
BRANCH   9  12
HETATM   12  N1  UNL     1      15.722   3.316  17.388  1.00  0.00    -0.306 N 
ATOM     13  H12 UNL     1      15.775   4.299  17.653  1.00  0.00     0.171 HD
ATOM     14  H11 UNL     1      15.184   2.607  17.888  1.00  0.00     0.171 HD
ENDBRANCH   9  12
ENDBRANCH   8   9
ENDBRANCH   7   8
ENDBRANCH   5   7
BRANCH   6  15
HETATM   15  O9  UNL     1      17.008   6.402  12.779  1.00  0.00    -0.311 OA
BRANCH  15  16
HETATM   16  C9  UNL     1      15.883   7.046  13.268  1.00  0.00     0.255 C 
HETATM   17  C10 UNL     1      15.491   6.789  14.676  1.00  0.00     0.126 C 
HETATM   18  O10 UNL     1      15.257   7.805  12.508  1.00  0.00    -0.266 OA
ENDBRANCH  15  16
ENDBRANCH   6  15
BRANCH   3  19
HETATM   19  O4  UNL     1      19.528   2.944  10.110  1.00  0.00    -0.369 OA
ATOM     20  H4  UNL     1      20.247   3.290  10.627  1.00  0.00     0.212 HD
ENDBRANCH   3  19
BRANCH   1  21
HETATM   21  O2  UNL     1      16.743   6.205  10.032  1.00  0.00    -0.311 OA
BRANCH  21  22
HETATM   22  C2  UNL     1      17.431   7.052   9.174  1.00  0.00     0.255 C 
HETATM   23  C1  UNL     1      17.882   8.414   9.567  1.00  0.00     0.126 C 
HETATM   24  O1  UNL     1      17.705   6.680   7.994  1.00  0.00    -0.266 OA
ENDBRANCH  21  22
ENDBRANCH   1  21
BRANCH   2  25
HETATM   25  O3  UNL     1      16.100   3.396  10.237  1.00  0.00    -0.388 OA
ATOM     26  H3  UNL     1      16.111   2.449  10.156  1.00  0.00     0.210 HD
ENDBRANCH   2  25
TORSDOF 10
ENDMDL
