MODEL 1
REMARK VINA RESULT: -7.047438469      0.000      0.000
REMARK  10 active torsions:
REMARK  status: ('A' for Active; 'I' for Inactive)
REMARK    1  A    between atoms: C2_2  and  O2_4 
REMARK    2  A    between atoms: O2_4  and  C3_5 
REMARK    3  A    between atoms: C4_6  and  O3_7 
REMARK    4  A    between atoms: C5_9  and  O4_10 
REMARK    5  A    between atoms: C6_13  and  C7_14 
REMARK    6  A    between atoms: C7_14  and  O6_15 
REMARK    7  A    between atoms: O6_15  and  S1_16 
REMARK    8  A    between atoms: S1_16  and  N1_17 
REMARK    9  A    between atoms: C8_22  and  O9_23 
REMARK   10  A    between atoms: O9_23  and  C9_24 
ROOT
HETATM    1  C3  UNL     1      17.505   4.419  10.926  1.00  0.00     0.197 C 
HETATM    2  C4  UNL     1      16.585   3.368  10.341  1.00  0.00     0.205 C 
HETATM    3  C5  UNL     1      17.316   2.047  10.456  1.00  0.00     0.288 C 
HETATM    4  O5  UNL     1      18.378   2.085  11.326  1.00  0.00    -0.349 OA
HETATM    5  C6  UNL     1      18.117   2.691  12.526  1.00  0.00     0.182 C 
HETATM    6  C8  UNL     1      17.610   4.101  12.415  1.00  0.00     0.195 C 
ENDROOT
BRANCH   5   7
HETATM    7  C7  UNL     1      17.226   1.842  13.423  1.00  0.00     0.226 C 
BRANCH   7   8
HETATM    8  O6  UNL     1      16.281   2.667  14.061  1.00  0.00    -0.257 OA
BRANCH   8   9
HETATM    9  S1  UNL     1      16.437   2.644  15.708  1.00  0.00     0.355 S 
HETATM   10  O7  UNL     1      15.615   1.570  16.353  1.00  0.00    -0.176 OA
HETATM   11  O8  UNL     1      17.883   2.370  16.086  1.00  0.00    -0.176 OA
BRANCH   9  12
HETATM   12  N1  UNL     1      15.973   4.148  16.430  1.00  0.00    -0.306 N 
ATOM     13  H12 UNL     1      15.356   4.818  15.971  1.00  0.00     0.171 HD
ATOM     14  H11 UNL     1      16.388   4.276  17.353  1.00  0.00     0.171 HD
ENDBRANCH   9  12
ENDBRANCH   8   9
ENDBRANCH   7   8
ENDBRANCH   5   7
BRANCH   6  15
HETATM   15  O9  UNL     1      18.517   5.052  12.954  1.00  0.00    -0.311 OA
BRANCH  15  16
HETATM   16  C9  UNL     1      18.195   5.761  14.099  1.00  0.00     0.255 C 
HETATM   17  C10 UNL     1      17.269   6.914  13.967  1.00  0.00     0.126 C 
HETATM   18  O10 UNL     1      18.694   5.401  15.179  1.00  0.00    -0.266 OA
ENDBRANCH  15  16
ENDBRANCH   6  15
BRANCH   3  19
HETATM   19  O4  UNL     1      17.839   1.779   9.177  1.00  0.00    -0.369 OA
ATOM     20  H4  UNL     1      17.126   1.399   8.676  1.00  0.00     0.212 HD
ENDBRANCH   3  19
BRANCH   1  21
HETATM   21  O2  UNL     1      17.071   5.719  10.689  1.00  0.00    -0.311 OA
BRANCH  21  22
HETATM   22  C2  UNL     1      17.813   6.553   9.865  1.00  0.00     0.255 C 
HETATM   23  C1  UNL     1      18.711   7.619  10.386  1.00  0.00     0.126 C 
HETATM   24  O1  UNL     1      17.748   6.429   8.606  1.00  0.00    -0.266 OA
ENDBRANCH  21  22
ENDBRANCH   1  21
BRANCH   2  25
HETATM   25  O3  UNL     1      15.388   3.393  11.009  1.00  0.00    -0.388 OA
ATOM     26  H3  UNL     1      14.912   2.590  10.829  1.00  0.00     0.210 HD
ENDBRANCH   2  25
TORSDOF 10
ENDMDL
