MODEL 6
REMARK VINA RESULT: -6.740785831      2.801      5.987
REMARK  10 active torsions:
REMARK  status: ('A' for Active; 'I' for Inactive)
REMARK    1  A    between atoms: C2_2  and  O2_4 
REMARK    2  A    between atoms: O2_4  and  C3_5 
REMARK    3  A    between atoms: C4_6  and  O3_7 
REMARK    4  A    between atoms: C5_9  and  O4_10 
REMARK    5  A    between atoms: C6_13  and  C7_14 
REMARK    6  A    between atoms: C7_14  and  O6_15 
REMARK    7  A    between atoms: O6_15  and  S1_16 
REMARK    8  A    between atoms: S1_16  and  N1_17 
REMARK    9  A    between atoms: C8_22  and  O9_23 
REMARK   10  A    between atoms: O9_23  and  C9_24 
ROOT
HETATM    1  C3  UNL     1      17.367   4.595  14.445  1.00  0.00     0.197 C 
HETATM    2  C4  UNL     1      17.802   6.026  14.679  1.00  0.00     0.205 C 
HETATM    3  C5  UNL     1      19.042   6.240  13.836  1.00  0.00     0.288 C 
HETATM    4  O5  UNL     1      19.221   5.276  12.874  1.00  0.00    -0.349 OA
HETATM    5  C6  UNL     1      18.097   4.967  12.155  1.00  0.00     0.182 C 
HETATM    6  C8  UNL     1      16.927   4.524  12.985  1.00  0.00     0.195 C 
ENDROOT
BRANCH   5   7
HETATM    7  C7  UNL     1      17.709   6.073  11.182  1.00  0.00     0.226 C 
BRANCH   7   8
HETATM    8  O6  UNL     1      16.345   6.380  11.341  1.00  0.00    -0.257 OA
BRANCH   8   9
HETATM    9  S1  UNL     1      16.064   8.011  11.344  1.00  0.00     0.355 S 
HETATM   10  O7  UNL     1      15.825   8.560   9.971  1.00  0.00    -0.176 OA
HETATM   11  O8  UNL     1      14.819   8.319  12.159  1.00  0.00    -0.176 OA
BRANCH   9  12
HETATM   12  N1  UNL     1      17.383   8.900  12.029  1.00  0.00    -0.306 N 
ATOM     13  H12 UNL     1      17.310   9.417  12.905  1.00  0.00     0.171 HD
ATOM     14  H11 UNL     1      18.225   8.841  11.456  1.00  0.00     0.171 HD
ENDBRANCH   9  12
ENDBRANCH   8   9
ENDBRANCH   7   8
ENDBRANCH   5   7
BRANCH   6  15
HETATM   15  O9  UNL     1      16.572   3.169  12.752  1.00  0.00    -0.311 OA
BRANCH  15  16
HETATM   16  C9  UNL     1      16.255   2.735  11.476  1.00  0.00     0.255 C 
HETATM   17  C10 UNL     1      17.102   1.675  10.871  1.00  0.00     0.126 C 
HETATM   18  O10 UNL     1      15.282   3.248  10.898  1.00  0.00    -0.266 OA
ENDBRANCH  15  16
ENDBRANCH   6  15
BRANCH   3  19
HETATM   19  O4  UNL     1      20.134   6.147  14.721  1.00  0.00    -0.369 OA
ATOM     20  H4  UNL     1      20.166   5.241  15.004  1.00  0.00     0.212 HD
ENDBRANCH   3  19
BRANCH   1  21
HETATM   21  O2  UNL     1      16.372   4.176  15.322  1.00  0.00    -0.311 OA
BRANCH  21  22
HETATM   22  C2  UNL     1      16.664   3.229  16.293  1.00  0.00     0.255 C 
HETATM   23  C1  UNL     1      15.707   2.845  17.366  1.00  0.00     0.126 C 
HETATM   24  O1  UNL     1      17.787   2.643  16.296  1.00  0.00    -0.266 OA
ENDBRANCH  21  22
ENDBRANCH   1  21
BRANCH   2  25
HETATM   25  O3  UNL     1      16.770   6.870  14.358  1.00  0.00    -0.388 OA
ATOM     26  H3  UNL     1      15.956   6.513  14.696  1.00  0.00     0.210 HD
ENDBRANCH   2  25
TORSDOF 10
ENDMDL
