MODEL 9
REMARK VINA RESULT: -8.983961996      2.487      4.858
REMARK  20 active torsions:
REMARK  status: ('A' for Active; 'I' for Inactive)
REMARK    1  A    between atoms: C2_2  and  N1_4 
REMARK       I    between atoms: N1_4  and  C4_6 
REMARK    2  A    between atoms: C4_6  and  C5_8 
REMARK    3  A    between atoms: C5_8  and  O2_9 
REMARK    4  A    between atoms: O2_9  and  C6_10 
REMARK    5  A    between atoms: C6_10  and  C7_11 
REMARK    6  A    between atoms: C7_11  and  O3_12 
REMARK    7  A    between atoms: O3_12  and  C8_13 
REMARK    8  A    between atoms: C8_13  and  C9_14 
REMARK    9  A    between atoms: C9_14  and  N2_15 
REMARK       I    between atoms: N2_15  and  C10_17 
REMARK   10  A    between atoms: C10_17  and  C11_19 
REMARK   11  A    between atoms: C11_19  and  N3_21 
REMARK       I    between atoms: N3_21  and  C13_23 
REMARK   12  A    between atoms: C13_23  and  C14_25 
REMARK   13  A    between atoms: C14_25  and  O6_26 
REMARK   14  A    between atoms: C14_25  and  C15_28 
REMARK   15  A    between atoms: C15_28  and  N4_29 
REMARK   16  A    between atoms: C15_28  and  C16_33 
REMARK   17  A    between atoms: C16_33  and  C17_34 
REMARK   18  A    between atoms: C20_37  and  O7_38 
REMARK   19  A    between atoms: O7_38  and  C21_39 
REMARK   20  A    between atoms: C21_39  and  C22_40 
ROOT
HETATM    1  N3  UNL     1      15.107  10.023  12.580  1.00  0.00    -0.346 N 
ATOM      2  H3  UNL     1      15.130  10.489  13.488  1.00  0.00     0.163 HD
HETATM    3  C13 UNL     1      14.529  10.701  11.449  1.00  0.00     0.249 C 
HETATM    4  O5  UNL     1      14.574  10.018  10.375  1.00  0.00    -0.271 OA
ENDROOT
BRANCH   3   5
HETATM    5  C14 UNL     1      13.964  12.048  11.562  1.00  0.00     0.240 C 
BRANCH   5   6
HETATM    6  O6  UNL     1      13.221  12.432  10.428  1.00  0.00    -0.384 OA
ATOM      7  H6  UNL     1      13.302  13.356  10.225  1.00  0.00     0.210 HD
ENDBRANCH   5   6
BRANCH   5   8
HETATM    8  C15 UNL     1      12.889  12.048  12.678  1.00  0.00     0.225 C 
BRANCH   8   9
HETATM    9  N4  UNL     1      11.606  12.465  12.191  1.00  0.00    -0.072 N 
ATOM     10  H43 UNL     1      11.143  13.085  12.855  1.00  0.00     0.274 HD
ATOM     11  H42 UNL     1      11.701  13.111  11.406  1.00  0.00     0.274 HD
ATOM     12  H41 UNL     1      11.012  11.673  11.947  1.00  0.00     0.274 HD
ENDBRANCH   8   9
BRANCH   8  13
HETATM   13  C16 UNL     1      13.421  12.873  13.791  1.00  0.00     0.074 C 
BRANCH  13  14
HETATM   14  C17 UNL     1      13.323  12.297  15.139  1.00  0.00    -0.056 A 
HETATM   15  C18 UNL     1      13.144  10.947  15.291  1.00  0.00     0.010 A 
HETATM   16  C19 UNL     1      13.090  10.371  16.547  1.00  0.00     0.037 A 
HETATM   17  C20 UNL     1      13.219  11.189  17.647  1.00  0.00     0.069 A 
HETATM   18  C28 UNL     1      13.398  12.554  17.507  1.00  0.00     0.037 A 
HETATM   19  C29 UNL     1      13.447  13.087  16.243  1.00  0.00     0.010 A 
BRANCH  17  20
HETATM   20  O7  UNL     1      13.171  10.634  18.921  1.00  0.00    -0.347 OA
BRANCH  20  21
HETATM   21  C21 UNL     1      12.588   9.407  19.228  1.00  0.00     0.214 C 
BRANCH  21  22
HETATM   22  C22 UNL     1      13.584   8.370  19.601  1.00  0.00    -0.034 A 
HETATM   23  C23 UNL     1      13.830   8.052  20.913  1.00  0.00     0.009 A 
HETATM   24  C24 UNL     1      14.771   7.088  21.231  1.00  0.00     0.001 A 
HETATM   25  C25 UNL     1      15.490   6.414  20.255  1.00  0.00     0.000 A 
HETATM   26  C26 UNL     1      15.243   6.733  18.933  1.00  0.00     0.001 A 
HETATM   27  C27 UNL     1      14.302   7.696  18.625  1.00  0.00     0.009 A 
ENDBRANCH  21  22
ENDBRANCH  20  21
ENDBRANCH  17  20
ENDBRANCH  13  14
ENDBRANCH   8  13
ENDBRANCH   5   8
ENDBRANCH   3   5
BRANCH   1  28
HETATM   28  C11 UNL     1      15.654   8.695  12.448  1.00  0.00     0.172 C 
HETATM   29  C12 UNL     1      17.214   8.853  12.510  1.00  0.00     0.042 C 
BRANCH  28  30
HETATM   30  C10 UNL     1      15.349   7.767  13.537  1.00  0.00     0.240 C 
HETATM   31  N2  UNL     1      15.378   6.372  13.209  1.00  0.00    -0.357 N 
ATOM     32  H2  UNL     1      15.556   6.091  12.245  1.00  0.00     0.162 HD
HETATM   33  O4  UNL     1      15.092   8.193  14.670  1.00  0.00    -0.271 OA
BRANCH  31  34
HETATM   34  C9  UNL     1      15.165   5.370  14.196  1.00  0.00     0.148 C 
BRANCH  34  35
HETATM   35  C8  UNL     1      14.594   4.115  13.660  1.00  0.00     0.187 C 
BRANCH  35  36
HETATM   36  O3  UNL     1      15.159   3.812  12.402  1.00  0.00    -0.387 OA
BRANCH  36  37
HETATM   37  C7  UNL     1      15.910   2.657  12.454  1.00  0.00     0.194 C 
BRANCH  37  38
HETATM   38  C6  UNL     1      17.390   2.897  12.679  1.00  0.00     0.200 C 
BRANCH  38  39
HETATM   39  O2  UNL     1      17.984   3.959  12.345  1.00  0.00    -0.355 OA
BRANCH  39  40
HETATM   40  C5  UNL     1      18.364   5.075  11.985  1.00  0.00     0.208 C 
BRANCH  40  41
HETATM   41  C4  UNL     1      18.124   5.609  10.620  1.00  0.00     0.263 C 
HETATM   42  N1  UNL     1      16.942   5.544   9.905  1.00  0.00    -0.352 N 
ATOM     43  H1  UNL     1      16.127   5.085  10.311  1.00  0.00     0.163 HD
HETATM   44  O1  UNL     1      19.110   6.201  10.029  1.00  0.00    -0.267 OA
BRANCH  42  45
HETATM   45  C2  UNL     1      16.856   6.136   8.555  1.00  0.00     0.076 C 
HETATM   46  C1  UNL     1      15.977   7.344   8.628  1.00  0.00     0.032 C 
HETATM   47  C3  UNL     1      16.284   5.078   7.620  1.00  0.00     0.032 C 
ENDBRANCH  42  45
ENDBRANCH  40  41
ENDBRANCH  39  40
ENDBRANCH  38  39
ENDBRANCH  37  38
ENDBRANCH  36  37
ENDBRANCH  35  36
ENDBRANCH  34  35
ENDBRANCH  31  34
ENDBRANCH  28  30
ENDBRANCH   1  28
TORSDOF 20
ENDMDL
