MODEL 14
REMARK VINA RESULT: -8.869291447      2.754      4.897
REMARK  20 active torsions:
REMARK  status: ('A' for Active; 'I' for Inactive)
REMARK    1  A    between atoms: C2_2  and  N1_4 
REMARK       I    between atoms: N1_4  and  C4_6 
REMARK    2  A    between atoms: C4_6  and  C5_8 
REMARK    3  A    between atoms: C5_8  and  O2_9 
REMARK    4  A    between atoms: O2_9  and  C6_10 
REMARK    5  A    between atoms: C6_10  and  C7_11 
REMARK    6  A    between atoms: C7_11  and  O3_12 
REMARK    7  A    between atoms: O3_12  and  C8_13 
REMARK    8  A    between atoms: C8_13  and  C9_14 
REMARK    9  A    between atoms: C9_14  and  N2_15 
REMARK       I    between atoms: N2_15  and  C10_17 
REMARK   10  A    between atoms: C10_17  and  C11_19 
REMARK   11  A    between atoms: C11_19  and  N3_21 
REMARK       I    between atoms: N3_21  and  C13_23 
REMARK   12  A    between atoms: C13_23  and  C14_25 
REMARK   13  A    between atoms: C14_25  and  O6_26 
REMARK   14  A    between atoms: C14_25  and  C15_28 
REMARK   15  A    between atoms: C15_28  and  N4_29 
REMARK   16  A    between atoms: C15_28  and  C16_33 
REMARK   17  A    between atoms: C16_33  and  C17_34 
REMARK   18  A    between atoms: C20_37  and  O7_38 
REMARK   19  A    between atoms: O7_38  and  C21_39 
REMARK   20  A    between atoms: C21_39  and  C22_40 
ROOT
HETATM    1  N3  UNL     1      17.541   6.059   8.788  1.00  0.00    -0.346 N 
ATOM      2  H3  UNL     1      18.547   5.989   8.940  1.00  0.00     0.163 HD
HETATM    3  C13 UNL     1      16.971   7.311   8.363  1.00  0.00     0.249 C 
HETATM    4  O5  UNL     1      15.710   7.263   8.197  1.00  0.00    -0.271 OA
ENDROOT
BRANCH   3   5
HETATM    5  C14 UNL     1      17.800   8.501   8.144  1.00  0.00     0.240 C 
BRANCH   5   6
HETATM    6  O6  UNL     1      17.771   8.955   6.811  1.00  0.00    -0.384 OA
ATOM      7  H6  UNL     1      18.245   9.768   6.685  1.00  0.00     0.210 HD
ENDBRANCH   5   6
BRANCH   5   8
HETATM    8  C15 UNL     1      17.176   9.693   8.913  1.00  0.00     0.225 C 
BRANCH   8   9
HETATM    9  N4  UNL     1      17.382  10.940   8.235  1.00  0.00    -0.072 N 
ATOM     10  H43 UNL     1      17.211  10.848   7.233  1.00  0.00     0.274 HD
ATOM     11  H42 UNL     1      16.649  11.611   8.464  1.00  0.00     0.274 HD
ATOM     12  H41 UNL     1      18.308  11.327   8.417  1.00  0.00     0.274 HD
ENDBRANCH   8   9
BRANCH   8  13
HETATM   13  C16 UNL     1      17.720   9.648  10.294  1.00  0.00     0.074 C 
BRANCH  13  14
HETATM   14  C17 UNL     1      16.738   9.667  11.387  1.00  0.00    -0.056 A 
HETATM   15  C18 UNL     1      16.596   8.567  12.193  1.00  0.00     0.010 A 
HETATM   16  C19 UNL     1      15.710   8.572  13.255  1.00  0.00     0.037 A 
HETATM   17  C20 UNL     1      14.969   9.708  13.484  1.00  0.00     0.069 A 
HETATM   18  C28 UNL     1      15.101  10.824  12.675  1.00  0.00     0.037 A 
HETATM   19  C29 UNL     1      15.993  10.781  11.632  1.00  0.00     0.010 A 
BRANCH  17  20
HETATM   20  O7  UNL     1      14.073   9.738  14.546  1.00  0.00    -0.347 OA
BRANCH  20  21
HETATM   21  C21 UNL     1      13.475  10.893  15.044  1.00  0.00     0.214 C 
BRANCH  21  22
HETATM   22  C22 UNL     1      12.974  10.733  16.433  1.00  0.00    -0.034 A 
HETATM   23  C23 UNL     1      13.405   9.708  17.237  1.00  0.00     0.009 A 
HETATM   24  C24 UNL     1      12.913   9.579  18.525  1.00  0.00     0.001 A 
HETATM   25  C25 UNL     1      11.981  10.464  19.047  1.00  0.00     0.000 A 
HETATM   26  C26 UNL     1      11.546  11.497  18.238  1.00  0.00     0.001 A 
HETATM   27  C27 UNL     1      12.042  11.619  16.955  1.00  0.00     0.009 A 
ENDBRANCH  21  22
ENDBRANCH  20  21
ENDBRANCH  17  20
ENDBRANCH  13  14
ENDBRANCH   8  13
ENDBRANCH   5   8
ENDBRANCH   3   5
BRANCH   1  28
HETATM   28  C11 UNL     1      16.707   4.902   9.002  1.00  0.00     0.172 C 
HETATM   29  C12 UNL     1      17.254   3.783   8.047  1.00  0.00     0.042 C 
BRANCH  28  30
HETATM   30  C10 UNL     1      16.781   4.298  10.332  1.00  0.00     0.240 C 
HETATM   31  N2  UNL     1      15.723   3.394  10.678  1.00  0.00    -0.357 N 
ATOM     32  H2  UNL     1      14.956   3.250  10.022  1.00  0.00     0.162 HD
HETATM   33  O4  UNL     1      17.721   4.566  11.091  1.00  0.00    -0.271 OA
BRANCH  31  34
HETATM   34  C9  UNL     1      15.718   2.694  11.916  1.00  0.00     0.148 C 
BRANCH  34  35
HETATM   35  C8  UNL     1      14.982   3.391  12.994  1.00  0.00     0.187 C 
BRANCH  35  36
HETATM   36  O3  UNL     1      15.236   2.780  14.241  1.00  0.00    -0.387 OA
BRANCH  36  37
HETATM   37  C7  UNL     1      16.347   1.965  14.184  1.00  0.00     0.194 C 
BRANCH  37  38
HETATM   38  C6  UNL     1      16.471   1.014  15.357  1.00  0.00     0.200 C 
BRANCH  38  39
HETATM   39  O2  UNL     1      15.482   0.553  15.991  1.00  0.00    -0.355 OA
BRANCH  39  40
HETATM   40  C5  UNL     1      14.603   0.204  16.781  1.00  0.00     0.208 C 
BRANCH  40  41
HETATM   41  C4  UNL     1      14.643   0.531  18.230  1.00  0.00     0.263 C 
HETATM   42  N1  UNL     1      14.333   1.747  18.811  1.00  0.00    -0.352 N 
ATOM     43  H1  UNL     1      14.051   2.533  18.225  1.00  0.00     0.163 HD
HETATM   44  O1  UNL     1      14.998  -0.409  19.043  1.00  0.00    -0.267 OA
BRANCH  42  45
HETATM   45  C2  UNL     1      14.410   1.913  20.275  1.00  0.00     0.076 C 
HETATM   46  C1  UNL     1      13.148   2.567  20.740  1.00  0.00     0.032 C 
HETATM   47  C3  UNL     1      15.633   2.768  20.581  1.00  0.00     0.032 C 
ENDBRANCH  42  45
ENDBRANCH  40  41
ENDBRANCH  39  40
ENDBRANCH  38  39
ENDBRANCH  37  38
ENDBRANCH  36  37
ENDBRANCH  35  36
ENDBRANCH  34  35
ENDBRANCH  31  34
ENDBRANCH  28  30
ENDBRANCH   1  28
TORSDOF 20
ENDMDL
