MODEL 4
REMARK VINA RESULT: -9.419338717      0.852      1.453
REMARK  20 active torsions:
REMARK  status: ('A' for Active; 'I' for Inactive)
REMARK    1  A    between atoms: C2_2  and  N1_4 
REMARK       I    between atoms: N1_4  and  C4_6 
REMARK    2  A    between atoms: C4_6  and  C5_8 
REMARK    3  A    between atoms: C5_8  and  O2_9 
REMARK    4  A    between atoms: O2_9  and  C6_10 
REMARK    5  A    between atoms: C6_10  and  C7_11 
REMARK    6  A    between atoms: C7_11  and  O3_12 
REMARK    7  A    between atoms: O3_12  and  C8_13 
REMARK    8  A    between atoms: C8_13  and  C9_14 
REMARK    9  A    between atoms: C9_14  and  N2_15 
REMARK       I    between atoms: N2_15  and  C10_17 
REMARK   10  A    between atoms: C10_17  and  C11_19 
REMARK   11  A    between atoms: C11_19  and  N3_21 
REMARK       I    between atoms: N3_21  and  C13_23 
REMARK   12  A    between atoms: C13_23  and  C14_25 
REMARK   13  A    between atoms: C14_25  and  O6_26 
REMARK   14  A    between atoms: C14_25  and  C15_28 
REMARK   15  A    between atoms: C15_28  and  N4_29 
REMARK   16  A    between atoms: C15_28  and  C16_33 
REMARK   17  A    between atoms: C16_33  and  C17_34 
REMARK   18  A    between atoms: C20_37  and  O7_38 
REMARK   19  A    between atoms: O7_38  and  C21_39 
REMARK   20  A    between atoms: C21_39  and  C22_40 
ROOT
HETATM    1  N3  UNL     1      15.816  11.168  11.238  1.00  0.00    -0.346 N 
ATOM      2  H3  UNL     1      16.268  11.961  11.693  1.00  0.00     0.163 HD
HETATM    3  C13 UNL     1      14.382  11.144  11.112  1.00  0.00     0.249 C 
HETATM    4  O5  UNL     1      13.944  10.107  10.516  1.00  0.00    -0.271 OA
ENDROOT
BRANCH   3   5
HETATM    5  C14 UNL     1      13.544  12.231  11.625  1.00  0.00     0.240 C 
BRANCH   5   6
HETATM    6  O6  UNL     1      12.448  12.524  10.790  1.00  0.00    -0.384 OA
ATOM      7  H6  UNL     1      11.708  12.889  11.261  1.00  0.00     0.210 HD
ENDBRANCH   5   6
BRANCH   5   8
HETATM    8  C15 UNL     1      12.850  11.756  12.927  1.00  0.00     0.225 C 
BRANCH   8   9
HETATM    9  N4  UNL     1      11.426  11.672  12.779  1.00  0.00    -0.072 N 
ATOM     10  H43 UNL     1      11.108  12.194  11.963  1.00  0.00     0.274 HD
ATOM     11  H42 UNL     1      11.138  10.735  12.495  1.00  0.00     0.274 HD
ATOM     12  H41 UNL     1      10.935  11.969  13.622  1.00  0.00     0.274 HD
ENDBRANCH   8   9
BRANCH   8  13
HETATM   13  C16 UNL     1      13.302  12.662  14.013  1.00  0.00     0.074 C 
BRANCH  13  14
HETATM   14  C17 UNL     1      13.313  12.103  15.372  1.00  0.00    -0.056 A 
HETATM   15  C18 UNL     1      13.263  10.745  15.549  1.00  0.00     0.010 A 
HETATM   16  C19 UNL     1      13.313  10.189  16.814  1.00  0.00     0.037 A 
HETATM   17  C20 UNL     1      13.415  11.033  17.896  1.00  0.00     0.069 A 
HETATM   18  C28 UNL     1      13.465  12.406  17.730  1.00  0.00     0.037 A 
HETATM   19  C29 UNL     1      13.413  12.920  16.458  1.00  0.00     0.010 A 
BRANCH  17  20
HETATM   20  O7  UNL     1      13.471  10.498  19.178  1.00  0.00    -0.347 OA
BRANCH  20  21
HETATM   21  C21 UNL     1      12.772   9.368  19.594  1.00  0.00     0.214 C 
BRANCH  21  22
HETATM   22  C22 UNL     1      13.657   8.202  19.849  1.00  0.00    -0.034 A 
HETATM   23  C23 UNL     1      14.257   7.519  18.821  1.00  0.00     0.009 A 
HETATM   24  C24 UNL     1      15.069   6.430  19.088  1.00  0.00     0.001 A 
HETATM   25  C25 UNL     1      15.306   5.992  20.382  1.00  0.00     0.000 A 
HETATM   26  C26 UNL     1      14.702   6.678  21.419  1.00  0.00     0.001 A 
HETATM   27  C27 UNL     1      13.894   7.764  21.143  1.00  0.00     0.009 A 
ENDBRANCH  21  22
ENDBRANCH  20  21
ENDBRANCH  17  20
ENDBRANCH  13  14
ENDBRANCH   8  13
ENDBRANCH   5   8
ENDBRANCH   3   5
BRANCH   1  28
HETATM   28  C11 UNL     1      16.622  10.085  10.730  1.00  0.00     0.172 C 
HETATM   29  C12 UNL     1      17.945  10.736  10.192  1.00  0.00     0.042 C 
BRANCH  28  30
HETATM   30  C10 UNL     1      17.084   9.113  11.720  1.00  0.00     0.240 C 
HETATM   31  N2  UNL     1      16.265   7.948  11.895  1.00  0.00    -0.357 N 
ATOM     32  H2  UNL     1      15.392   7.870  11.373  1.00  0.00     0.162 HD
HETATM   33  O4  UNL     1      18.130   9.308  12.350  1.00  0.00    -0.271 OA
BRANCH  31  34
HETATM   34  C9  UNL     1      16.642   6.900  12.780  1.00  0.00     0.148 C 
BRANCH  34  35
HETATM   35  C8  UNL     1      15.521   6.367  13.587  1.00  0.00     0.187 C 
BRANCH  35  36
HETATM   36  O3  UNL     1      15.011   5.187  13.004  1.00  0.00    -0.387 OA
BRANCH  36  37
HETATM   37  C7  UNL     1      15.751   4.084  13.372  1.00  0.00     0.194 C 
BRANCH  37  38
HETATM   38  C6  UNL     1      15.377   3.518  14.727  1.00  0.00     0.200 C 
BRANCH  38  39
HETATM   39  O2  UNL     1      16.065   3.690  15.770  1.00  0.00    -0.355 OA
BRANCH  39  40
HETATM   40  C5  UNL     1      16.567   3.774  16.893  1.00  0.00     0.208 C 
BRANCH  40  41
HETATM   41  C4  UNL     1      16.019   3.064  18.078  1.00  0.00     0.263 C 
HETATM   42  N1  UNL     1      14.707   2.669  18.271  1.00  0.00    -0.352 N 
ATOM     43  H1  UNL     1      14.006   2.870  17.558  1.00  0.00     0.163 HD
HETATM   44  O1  UNL     1      16.841   2.778  19.034  1.00  0.00    -0.267 OA
BRANCH  42  45
HETATM   45  C2  UNL     1      14.319   1.959  19.504  1.00  0.00     0.076 C 
HETATM   46  C1  UNL     1      13.910   0.568  19.134  1.00  0.00     0.032 C 
HETATM   47  C3  UNL     1      13.172   2.732  20.143  1.00  0.00     0.032 C 
ENDBRANCH  42  45
ENDBRANCH  40  41
ENDBRANCH  39  40
ENDBRANCH  38  39
ENDBRANCH  37  38
ENDBRANCH  36  37
ENDBRANCH  35  36
ENDBRANCH  34  35
ENDBRANCH  31  34
ENDBRANCH  28  30
ENDBRANCH   1  28
TORSDOF 20
ENDMDL
