MODEL 7
REMARK VINA RESULT: -8.893167614      4.755      7.118
REMARK  8 active torsions:
REMARK  status: ('A' for Active; 'I' for Inactive)
REMARK    1  A    between atoms: N5_13  and  C6_14 
REMARK    2  A    between atoms: C7_16  and  C8_17 
REMARK    3  A    between atoms: C8_17  and  O2_18 
REMARK    4  A    between atoms: O2_18  and  P1_19 
REMARK    5  A    between atoms: P1_19  and  O5_22 
REMARK    6  A    between atoms: O5_22  and  P2_23 
REMARK    7  A    between atoms: C9_27  and  O9_28 
REMARK    8  A    between atoms: C10_30  and  O10_31 
ROOT
HETATM    1  C6  UNL     1       8.745  -9.975 -18.573  1.00  0.00     0.262 C 
HETATM    2  O1  UNL     1       9.041 -11.322 -18.784  1.00  0.00    -0.353 OA
HETATM    3  C7  UNL     1       9.932 -11.227 -19.853  1.00  0.00     0.180 C 
HETATM    4  C9  UNL     1      10.893 -10.124 -19.503  1.00  0.00     0.182 C 
HETATM    5  C10 UNL     1      10.126  -9.388 -18.396  1.00  0.00     0.198 C 
ENDROOT
BRANCH   1   6
HETATM    6  N5  UNL     1       7.891  -9.761 -17.439  1.00  0.00    -0.297 N 
HETATM    7  C3  UNL     1       6.708 -10.389 -17.273  1.00  0.00     0.142 A 
HETATM    8  N3  UNL     1       6.058 -11.298 -18.040  1.00  0.00    -0.336 N 
HETATM    9  C4  UNL     1       6.131  -9.974 -16.092  1.00  0.00     0.119 A 
HETATM   10  C2  UNL     1       4.863 -11.814 -17.694  1.00  0.00     0.183 A 
ATOM     11  H3  UNL     1       6.489 -11.602 -18.913  1.00  0.00     0.168 HD
HETATM   12  N2  UNL     1       4.309 -11.411 -16.555  1.00  0.00    -0.339 N 
HETATM   13  C1  UNL     1       4.914 -10.507 -15.750  1.00  0.00     0.148 A 
ATOM     14  H2  UNL     1       3.403 -11.793 -16.281  1.00  0.00     0.167 HD
HETATM   15  N1  UNL     1       4.293 -10.113 -14.560  1.00  0.00    -0.080 NA
HETATM   16  N4  UNL     1       6.996  -9.089 -15.565  1.00  0.00    -0.346 N 
HETATM   17  C5  UNL     1       8.054  -8.970 -16.387  1.00  0.00     0.188 A 
ATOM     18  H4  UNL     1       6.870  -8.590 -14.684  1.00  0.00     0.167 HD
ENDBRANCH   1   6
BRANCH   5  19
HETATM   19  O10 UNL     1      10.170  -8.025 -18.576  1.00  0.00    -0.388 OA
ATOM     20  H10 UNL     1      10.537  -7.765 -19.412  1.00  0.00     0.210 HD
ENDBRANCH   5  19
BRANCH   3  21
HETATM   21  C8  UNL     1      10.631 -12.539 -20.126  1.00  0.00     0.216 C 
BRANCH  21  22
HETATM   22  O2  UNL     1       9.780 -13.547 -19.794  1.00  0.00    -0.287 OA
BRANCH  22  23
HETATM   23  P1  UNL     1       9.008 -14.341 -20.999  1.00  0.00     0.418 P 
HETATM   24  O3  UNL     1       8.733 -15.583 -20.153  1.00  0.00    -0.624 OA
HETATM   25  O4  UNL     1       7.308 -14.118 -21.115  1.00  0.00    -0.624 OA
BRANCH  23  26
HETATM   26  O5  UNL     1       9.794 -15.128 -22.159  1.00  0.00    -0.173 OA
BRANCH  26  27
HETATM   27  P2  UNL     1      10.056 -14.385 -23.604  1.00  0.00     0.431 P 
HETATM   28  O6  UNL     1      10.636 -15.214 -24.864  1.00  0.00    -0.616 OA
HETATM   29  O7  UNL     1       9.933 -12.701 -23.676  1.00  0.00    -0.616 OA
HETATM   30  O8  UNL     1       8.570 -14.472 -23.955  1.00  0.00    -0.616 OA
ENDBRANCH  26  27
ENDBRANCH  23  26
ENDBRANCH  22  23
ENDBRANCH  21  22
ENDBRANCH   3  21
BRANCH   4  31
HETATM   31  O9  UNL     1      11.003  -9.208 -20.558  1.00  0.00    -0.390 OA
ATOM     32  H9  UNL     1      11.270  -8.355 -20.237  1.00  0.00     0.210 HD
ENDBRANCH   4  31
TORSDOF 8
ENDMDL
