MODEL 6
REMARK VINA RESULT: -8.994975039      3.994      6.423
REMARK  8 active torsions:
REMARK  status: ('A' for Active; 'I' for Inactive)
REMARK    1  A    between atoms: N5_13  and  C6_14 
REMARK    2  A    between atoms: C7_16  and  C8_17 
REMARK    3  A    between atoms: C8_17  and  O2_18 
REMARK    4  A    between atoms: O2_18  and  P1_19 
REMARK    5  A    between atoms: P1_19  and  O5_22 
REMARK    6  A    between atoms: O5_22  and  P2_23 
REMARK    7  A    between atoms: C9_27  and  O9_28 
REMARK    8  A    between atoms: C10_30  and  O10_31 
ROOT
HETATM    1  C6  UNL     1       8.801 -10.125 -18.496  1.00  0.00     0.262 C 
HETATM    2  O1  UNL     1       9.235 -11.451 -18.540  1.00  0.00    -0.353 OA
HETATM    3  C7  UNL     1      10.121 -11.399 -19.615  1.00  0.00     0.180 C 
HETATM    4  C9  UNL     1      10.962 -10.169 -19.408  1.00  0.00     0.182 C 
HETATM    5  C10 UNL     1      10.114  -9.383 -18.398  1.00  0.00     0.198 C 
ENDROOT
BRANCH   1   6
HETATM    6  N5  UNL     1       7.920  -9.861 -17.394  1.00  0.00    -0.297 N 
HETATM    7  C3  UNL     1       6.726 -10.470 -17.237  1.00  0.00     0.142 A 
HETATM    8  N3  UNL     1       6.086 -11.399 -17.987  1.00  0.00    -0.336 N 
HETATM    9  C4  UNL     1       6.123 -10.005 -16.088  1.00  0.00     0.119 A 
HETATM   10  C2  UNL     1       4.877 -11.890 -17.655  1.00  0.00     0.183 A 
ATOM     11  H3  UNL     1       6.537 -11.740 -18.836  1.00  0.00     0.168 HD
HETATM   12  N2  UNL     1       4.297 -11.440 -16.547  1.00  0.00    -0.339 N 
HETATM   13  C1  UNL     1       4.891 -10.512 -15.759  1.00  0.00     0.148 A 
ATOM     14  H2  UNL     1       3.381 -11.802 -16.283  1.00  0.00     0.167 HD
HETATM   15  N1  UNL     1       4.243 -10.069 -14.602  1.00  0.00    -0.080 NA
HETATM   16  N4  UNL     1       6.984  -9.111 -15.570  1.00  0.00    -0.346 N 
HETATM   17  C5  UNL     1       8.065  -9.033 -16.368  1.00  0.00     0.188 A 
ATOM     18  H4  UNL     1       6.840  -8.578 -14.712  1.00  0.00     0.167 HD
ENDBRANCH   1   6
BRANCH   5  19
HETATM   19  O10 UNL     1      10.022  -8.056 -18.745  1.00  0.00    -0.388 OA
ATOM     20  H10 UNL     1       9.478  -7.547 -18.156  1.00  0.00     0.210 HD
ENDBRANCH   5  19
BRANCH   3  21
HETATM   21  C8  UNL     1      10.951 -12.657 -19.726  1.00  0.00     0.216 C 
BRANCH  21  22
HETATM   22  O2  UNL     1      10.714 -13.212 -20.945  1.00  0.00    -0.287 OA
BRANCH  22  23
HETATM   23  P1  UNL     1       9.453 -14.244 -21.097  1.00  0.00     0.418 P 
HETATM   24  O3  UNL     1       9.126 -13.807 -22.524  1.00  0.00    -0.624 OA
HETATM   25  O4  UNL     1       9.795 -15.809 -21.719  1.00  0.00    -0.624 OA
BRANCH  23  26
HETATM   26  O5  UNL     1       7.992 -13.917 -20.509  1.00  0.00    -0.173 OA
BRANCH  26  27
HETATM   27  P2  UNL     1       6.724 -14.884 -20.915  1.00  0.00     0.431 P 
HETATM   28  O6  UNL     1       6.613 -16.387 -20.332  1.00  0.00    -0.616 OA
HETATM   29  O7  UNL     1       5.673 -14.363 -22.132  1.00  0.00    -0.616 OA
HETATM   30  O8  UNL     1       5.824 -14.189 -19.892  1.00  0.00    -0.616 OA
ENDBRANCH  26  27
ENDBRANCH  23  26
ENDBRANCH  22  23
ENDBRANCH  21  22
ENDBRANCH   3  21
BRANCH   4  31
HETATM   31  O9  UNL     1      10.988  -9.384 -20.569  1.00  0.00    -0.390 OA
ATOM     32  H9  UNL     1      10.703  -8.498 -20.382  1.00  0.00     0.210 HD
ENDBRANCH   4  31
TORSDOF 8
ENDMDL
