MODEL 8
REMARK VINA RESULT: -8.842353683      3.132      4.933
REMARK  8 active torsions:
REMARK  status: ('A' for Active; 'I' for Inactive)
REMARK    1  A    between atoms: N5_13  and  C6_14 
REMARK    2  A    between atoms: C7_16  and  C8_17 
REMARK    3  A    between atoms: C8_17  and  O2_18 
REMARK    4  A    between atoms: O2_18  and  P1_19 
REMARK    5  A    between atoms: P1_19  and  O5_22 
REMARK    6  A    between atoms: O5_22  and  P2_23 
REMARK    7  A    between atoms: C9_27  and  O9_28 
REMARK    8  A    between atoms: C10_30  and  O10_31 
ROOT
HETATM    1  C6  UNL     1      10.570 -11.318 -18.481  1.00  0.00     0.262 C 
HETATM    2  O1  UNL     1       9.205 -11.570 -18.336  1.00  0.00    -0.353 OA
HETATM    3  C7  UNL     1       8.751 -10.315 -17.934  1.00  0.00     0.180 C 
HETATM    4  C9  UNL     1       9.403  -9.317 -18.852  1.00  0.00     0.182 C 
HETATM    5  C10 UNL     1      10.560 -10.143 -19.431  1.00  0.00     0.198 C 
ENDROOT
BRANCH   1   6
HETATM    6  N5  UNL     1      11.297 -12.447 -18.987  1.00  0.00    -0.297 N 
HETATM    7  C3  UNL     1      10.870 -13.200 -20.022  1.00  0.00     0.142 A 
HETATM    8  N3  UNL     1       9.758 -13.120 -20.793  1.00  0.00    -0.336 N 
HETATM    9  C4  UNL     1      11.784 -14.202 -20.267  1.00  0.00     0.119 A 
HETATM   10  C2  UNL     1       9.509 -13.983 -21.796  1.00  0.00     0.183 A 
ATOM     11  H3  UNL     1       9.085 -12.376 -20.608  1.00  0.00     0.168 HD
HETATM   12  N2  UNL     1      10.391 -14.949 -22.030  1.00  0.00    -0.339 N 
HETATM   13  C1  UNL     1      11.519 -15.076 -21.291  1.00  0.00     0.148 A 
ATOM     14  H2  UNL     1      10.215 -15.611 -22.786  1.00  0.00     0.167 HD
HETATM   15  N1  UNL     1      12.420 -16.107 -21.575  1.00  0.00    -0.080 NA
HETATM   16  N4  UNL     1      12.759 -14.025 -19.358  1.00  0.00    -0.346 N 
HETATM   17  C5  UNL     1      12.454 -12.963 -18.591  1.00  0.00     0.188 A 
ATOM     18  H4  UNL     1      13.595 -14.603 -19.266  1.00  0.00     0.167 HD
ENDBRANCH   1   6
BRANCH   5  19
HETATM   19  O10 UNL     1      11.735  -9.429 -19.434  1.00  0.00    -0.388 OA
ATOM     20  H10 UNL     1      11.863  -8.914 -20.222  1.00  0.00     0.210 HD
ENDBRANCH   5  19
BRANCH   3  21
HETATM   21  C8  UNL     1       7.242 -10.224 -17.959  1.00  0.00     0.216 C 
BRANCH  21  22
HETATM   22  O2  UNL     1       6.743 -11.489 -17.922  1.00  0.00    -0.287 OA
BRANCH  22  23
HETATM   23  P1  UNL     1       5.312 -11.737 -17.167  1.00  0.00     0.418 P 
HETATM   24  O3  UNL     1       5.048 -13.067 -17.871  1.00  0.00    -0.624 OA
HETATM   25  O4  UNL     1       5.353 -12.600 -15.682  1.00  0.00    -0.624 OA
BRANCH  23  26
HETATM   26  O5  UNL     1       3.945 -11.043 -17.654  1.00  0.00    -0.173 OA
BRANCH  26  27
HETATM   27  P2  UNL     1       3.228  -9.914 -16.695  1.00  0.00     0.431 P 
HETATM   28  O6  UNL     1       3.588  -9.820 -15.122  1.00  0.00    -0.616 OA
HETATM   29  O7  UNL     1       1.942  -9.019 -17.329  1.00  0.00    -0.616 OA
HETATM   30  O8  UNL     1       4.183  -8.831 -17.199  1.00  0.00    -0.616 OA
ENDBRANCH  26  27
ENDBRANCH  23  26
ENDBRANCH  22  23
ENDBRANCH  21  22
ENDBRANCH   3  21
BRANCH   4  31
HETATM   31  O9  UNL     1      10.008  -8.288 -18.116  1.00  0.00    -0.390 OA
ATOM     32  H9  UNL     1      10.950  -8.299 -18.234  1.00  0.00     0.210 HD
ENDBRANCH   4  31
TORSDOF 8
ENDMDL
