MODEL 1
REMARK VINA RESULT: -10.319291729      0.000      0.000
REMARK  8 active torsions:
REMARK  status: ('A' for Active; 'I' for Inactive)
REMARK    1  A    between atoms: N5_13  and  C6_14 
REMARK    2  A    between atoms: C7_16  and  C8_17 
REMARK    3  A    between atoms: C8_17  and  O2_18 
REMARK    4  A    between atoms: O2_18  and  P1_19 
REMARK    5  A    between atoms: P1_19  and  O5_22 
REMARK    6  A    between atoms: O5_22  and  P2_23 
REMARK    7  A    between atoms: C9_27  and  O9_28 
REMARK    8  A    between atoms: C10_30  and  O10_31 
ROOT
HETATM    1  C6  UNL     1       7.038  -9.658 -16.876  1.00  0.00     0.262 C 
HETATM    2  O1  UNL     1       6.129 -10.577 -16.351  1.00  0.00    -0.353 OA
HETATM    3  C7  UNL     1       5.348  -9.743 -15.552  1.00  0.00     0.180 C 
HETATM    4  C9  UNL     1       5.041  -8.529 -16.386  1.00  0.00     0.182 C 
HETATM    5  C10 UNL     1       6.110  -8.632 -17.483  1.00  0.00     0.198 C 
ENDROOT
BRANCH   1   6
HETATM    6  N5  UNL     1       7.935 -10.243 -17.832  1.00  0.00    -0.297 N 
HETATM    7  C3  UNL     1       9.048  -9.625 -18.279  1.00  0.00     0.142 A 
HETATM    8  N3  UNL     1       9.580  -8.413 -17.988  1.00  0.00    -0.336 N 
HETATM    9  C4  UNL     1       9.694 -10.441 -19.183  1.00  0.00     0.119 A 
HETATM   10  C2  UNL     1      10.721  -7.970 -18.551  1.00  0.00     0.183 A 
ATOM     11  H3  UNL     1       9.099  -7.813 -17.318  1.00  0.00     0.168 HD
HETATM   12  N2  UNL     1      11.341  -8.758 -19.423  1.00  0.00    -0.339 N 
HETATM   13  C1  UNL     1      10.855  -9.979 -19.749  1.00  0.00     0.148 A 
ATOM     14  H2  UNL     1      12.205  -8.435 -19.858  1.00  0.00     0.167 HD
HETATM   15  N1  UNL     1      11.542 -10.774 -20.671  1.00  0.00    -0.080 NA
HETATM   16  N4  UNL     1       8.941 -11.552 -19.261  1.00  0.00    -0.346 N 
HETATM   17  C5  UNL     1       7.882 -11.421 -18.441  1.00  0.00     0.188 A 
ATOM     18  H4  UNL     1       9.140 -12.363 -19.847  1.00  0.00     0.167 HD
ENDBRANCH   1   6
BRANCH   5  19
HETATM   19  O10 UNL     1       6.712  -7.417 -17.714  1.00  0.00    -0.388 OA
ATOM     20  H10 UNL     1       6.785  -7.199 -18.635  1.00  0.00     0.210 HD
ENDBRANCH   5  19
BRANCH   3  21
HETATM   21  C8  UNL     1       4.100 -10.437 -15.058  1.00  0.00     0.216 C 
BRANCH  21  22
HETATM   22  O2  UNL     1       3.507 -11.046 -16.119  1.00  0.00    -0.287 OA
BRANCH  22  23
HETATM   23  P1  UNL     1       3.815 -12.633 -16.376  1.00  0.00     0.418 P 
HETATM   24  O3  UNL     1       2.584 -12.841 -17.256  1.00  0.00    -0.624 OA
HETATM   25  O4  UNL     1       4.783 -13.030 -17.739  1.00  0.00    -0.624 OA
BRANCH  23  26
HETATM   26  O5  UNL     1       3.425 -13.773 -15.310  1.00  0.00    -0.173 OA
BRANCH  26  27
HETATM   27  P2  UNL     1       4.617 -14.536 -14.473  1.00  0.00     0.431 P 
HETATM   28  O6  UNL     1       5.682 -15.484 -15.234  1.00  0.00    -0.616 OA
HETATM   29  O7  UNL     1       4.564 -14.501 -12.783  1.00  0.00    -0.616 OA
HETATM   30  O8  UNL     1       5.455 -13.257 -14.436  1.00  0.00    -0.616 OA
ENDBRANCH  26  27
ENDBRANCH  23  26
ENDBRANCH  22  23
ENDBRANCH  21  22
ENDBRANCH   3  21
BRANCH   4  31
HETATM   31  O9  UNL     1       5.338  -7.354 -15.680  1.00  0.00    -0.390 OA
ATOM     32  H9  UNL     1       5.199  -6.590 -16.227  1.00  0.00     0.210 HD
ENDBRANCH   4  31
TORSDOF 8
ENDMDL
