MODEL 3
REMARK VINA RESULT: -9.175005796      0.892      1.831
REMARK  8 active torsions:
REMARK  status: ('A' for Active; 'I' for Inactive)
REMARK    1  A    between atoms: N5_13  and  C6_14 
REMARK    2  A    between atoms: C7_16  and  C8_17 
REMARK    3  A    between atoms: C8_17  and  O2_18 
REMARK    4  A    between atoms: O2_18  and  P1_19 
REMARK    5  A    between atoms: P1_19  and  O5_22 
REMARK    6  A    between atoms: O5_22  and  P2_23 
REMARK    7  A    between atoms: C9_27  and  O9_28 
REMARK    8  A    between atoms: C10_30  and  O10_31 
ROOT
HETATM    1  C6  UNL     1       7.152  -9.036 -16.522  1.00  0.00     0.262 C 
HETATM    2  O1  UNL     1       6.409 -10.121 -16.058  1.00  0.00    -0.353 OA
HETATM    3  C7  UNL     1       5.314  -9.464 -15.497  1.00  0.00     0.180 C 
HETATM    4  C9  UNL     1       4.888  -8.426 -16.498  1.00  0.00     0.182 C 
HETATM    5  C10 UNL     1       6.137  -8.322 -17.384  1.00  0.00     0.198 C 
ENDROOT
BRANCH   1   6
HETATM    6  N5  UNL     1       8.327  -9.431 -17.246  1.00  0.00    -0.297 N 
HETATM    7  C3  UNL     1       8.352 -10.466 -18.112  1.00  0.00     0.142 A 
HETATM    8  N3  UNL     1       7.386 -11.331 -18.504  1.00  0.00    -0.336 N 
HETATM    9  C4  UNL     1       9.618 -10.590 -18.642  1.00  0.00     0.119 A 
HETATM   10  C2  UNL     1       7.614 -12.314 -19.397  1.00  0.00     0.183 A 
ATOM     11  H3  UNL     1       6.450 -11.235 -18.109  1.00  0.00     0.168 HD
HETATM   12  N2  UNL     1       8.835 -12.432 -19.905  1.00  0.00    -0.339 N 
HETATM   13  C1  UNL     1       9.839 -11.594 -19.550  1.00  0.00     0.148 A 
ATOM     14  H2  UNL     1       9.023 -13.173 -20.582  1.00  0.00     0.167 HD
HETATM   15  N1  UNL     1      11.108 -11.756 -20.113  1.00  0.00    -0.080 NA
HETATM   16  N4  UNL     1      10.340  -9.608 -18.073  1.00  0.00    -0.346 N 
HETATM   17  C5  UNL     1       9.550  -8.916 -17.232  1.00  0.00     0.188 A 
ATOM     18  H4  UNL     1      11.327  -9.420 -18.250  1.00  0.00     0.167 HD
ENDBRANCH   1   6
BRANCH   5  19
HETATM   19  O10 UNL     1       6.461  -7.011 -17.643  1.00  0.00    -0.388 OA
ATOM     20  H10 UNL     1       6.111  -6.688 -18.464  1.00  0.00     0.210 HD
ENDBRANCH   5  19
BRANCH   3  21
HETATM   21  C8  UNL     1       4.199 -10.422 -15.145  1.00  0.00     0.216 C 
BRANCH  21  22
HETATM   22  O2  UNL     1       3.721 -10.957 -16.300  1.00  0.00    -0.287 OA
BRANCH  22  23
HETATM   23  P1  UNL     1       3.888 -12.568 -16.537  1.00  0.00     0.418 P 
HETATM   24  O3  UNL     1       2.651 -12.675 -17.427  1.00  0.00    -0.624 OA
HETATM   25  O4  UNL     1       4.828 -13.065 -17.887  1.00  0.00    -0.624 OA
BRANCH  23  26
HETATM   26  O5  UNL     1       3.388 -13.656 -15.464  1.00  0.00    -0.173 OA
BRANCH  26  27
HETATM   27  P2  UNL     1       4.498 -14.458 -14.551  1.00  0.00     0.431 P 
HETATM   28  O6  UNL     1       5.611 -15.401 -15.246  1.00  0.00    -0.616 OA
HETATM   29  O7  UNL     1       4.305 -14.465 -12.872  1.00  0.00    -0.616 OA
HETATM   30  O8  UNL     1       5.345 -13.192 -14.411  1.00  0.00    -0.616 OA
ENDBRANCH  26  27
ENDBRANCH  23  26
ENDBRANCH  22  23
ENDBRANCH  21  22
ENDBRANCH   3  21
BRANCH   4  31
HETATM   31  O9  UNL     1       4.755  -7.171 -15.886  1.00  0.00    -0.390 OA
ATOM     32  H9  UNL     1       4.144  -6.626 -16.367  1.00  0.00     0.210 HD
ENDBRANCH   4  31
TORSDOF 8
ENDMDL
