MODEL 8
REMARK VINA RESULT: -5.393985361      2.653      4.859
REMARK  4 active torsions:
REMARK  status: ('A' for Active; 'I' for Inactive)
REMARK    1  A    between atoms: C1_2  and  C2_3 
REMARK       I    between atoms: C1_2  and  N1_9 
REMARK    2  A    between atoms: C2_3  and  O2_4 
REMARK    3  A    between atoms: O2_4  and  P1_5 
REMARK    4  A    between atoms: N1_9  and  O6_11 
ROOT
HETATM    1  O1  UNL     1     -21.912   7.215  11.089  1.00  0.00    -0.269 OA
HETATM    2  C1  UNL     1     -22.481   7.159  12.234  1.00  0.00     0.265 C 
HETATM    3  N1  UNL     1     -21.723   6.624  13.296  1.00  0.00    -0.236 N 
ATOM      4  H1  UNL     1     -22.131   6.557  14.229  1.00  0.00     0.197 HD
ENDROOT
BRANCH   2   5
HETATM    5  C2  UNL     1     -23.845   7.649  12.322  1.00  0.00     0.287 C 
BRANCH   5   6
HETATM    6  O2  UNL     1     -23.894   9.044  12.310  1.00  0.00    -0.273 OA
BRANCH   6   7
HETATM    7  P1  UNL     1     -25.093   9.680  13.034  1.00  0.00     0.422 P 
HETATM    8  O3  UNL     1     -26.260  10.280  13.833  1.00  0.00    -0.617 OA
HETATM    9  O4  UNL     1     -24.419  11.162  12.797  1.00  0.00    -0.617 OA
HETATM   10  O5  UNL     1     -26.124   9.119  11.875  1.00  0.00    -0.617 OA
ENDBRANCH   6   7
ENDBRANCH   5   6
ENDBRANCH   2   5
BRANCH   3  11
HETATM   11  O6  UNL     1     -20.466   6.204  13.082  1.00  0.00    -0.287 OA
ATOM     12  H6  UNL     1     -20.054   5.603  13.692  1.00  0.00     0.244 HD
ENDBRANCH   3  11
TORSDOF 4
ENDMDL
