MODEL 12
REMARK VINA RESULT: -5.292889320      2.462      4.832
REMARK  4 active torsions:
REMARK  status: ('A' for Active; 'I' for Inactive)
REMARK    1  A    between atoms: C1_2  and  C2_3 
REMARK       I    between atoms: C1_2  and  N1_9 
REMARK    2  A    between atoms: C2_3  and  O2_4 
REMARK    3  A    between atoms: O2_4  and  P1_5 
REMARK    4  A    between atoms: N1_9  and  O6_11 
ROOT
HETATM    1  O1  UNL     1     -23.863   6.754  10.632  1.00  0.00    -0.269 OA
HETATM    2  C1  UNL     1     -23.514   7.056  11.825  1.00  0.00     0.265 C 
HETATM    3  N1  UNL     1     -22.725   6.114  12.517  1.00  0.00    -0.236 N 
ATOM      4  H1  UNL     1     -22.421   6.307  13.472  1.00  0.00     0.197 HD
ENDROOT
BRANCH   2   5
HETATM    5  C2  UNL     1     -23.965   8.335  12.344  1.00  0.00     0.287 C 
BRANCH   5   6
HETATM    6  O2  UNL     1     -25.318   8.552  12.079  1.00  0.00    -0.273 OA
BRANCH   6   7
HETATM    7  P1  UNL     1     -26.151   9.106  13.247  1.00  0.00     0.422 P 
HETATM    8  O3  UNL     1     -26.917   9.717  14.431  1.00  0.00    -0.617 OA
HETATM    9  O4  UNL     1     -27.195   9.763  12.159  1.00  0.00    -0.617 OA
HETATM   10  O5  UNL     1     -26.469   7.578  13.780  1.00  0.00    -0.617 OA
ENDBRANCH   6   7
ENDBRANCH   5   6
ENDBRANCH   2   5
BRANCH   3  11
HETATM   11  O6  UNL     1     -22.373   4.963  11.921  1.00  0.00    -0.287 OA
ATOM     12  H6  UNL     1     -22.598   4.810  11.011  1.00  0.00     0.244 HD
ENDBRANCH   3  11
TORSDOF 4
ENDMDL
