MODEL 13
REMARK VINA RESULT: -5.263194335      2.471      4.539
REMARK  4 active torsions:
REMARK  status: ('A' for Active; 'I' for Inactive)
REMARK    1  A    between atoms: C1_2  and  C2_3 
REMARK       I    between atoms: C1_2  and  N1_9 
REMARK    2  A    between atoms: C2_3  and  O2_4 
REMARK    3  A    between atoms: O2_4  and  P1_5 
REMARK    4  A    between atoms: N1_9  and  O6_11 
ROOT
HETATM    1  O1  UNL     1     -21.024   6.437  12.692  1.00  0.00    -0.269 OA
HETATM    2  C1  UNL     1     -22.241   6.529  12.308  1.00  0.00     0.265 C 
HETATM    3  N1  UNL     1     -22.791   5.405  11.658  1.00  0.00    -0.236 N 
ATOM      4  H1  UNL     1     -23.757   5.428  11.332  1.00  0.00     0.197 HD
ENDROOT
BRANCH   2   5
HETATM    5  C2  UNL     1     -22.929   7.778  12.580  1.00  0.00     0.287 C 
BRANCH   5   6
HETATM    6  O2  UNL     1     -23.963   8.008  11.671  1.00  0.00    -0.273 OA
BRANCH   6   7
HETATM    7  P1  UNL     1     -25.194   8.743  12.224  1.00  0.00     0.422 P 
HETATM    8  O3  UNL     1     -26.458   9.479  12.696  1.00  0.00    -0.617 OA
HETATM    9  O4  UNL     1     -25.635   7.365  13.008  1.00  0.00    -0.617 OA
HETATM   10  O5  UNL     1     -24.228   9.805  13.037  1.00  0.00    -0.617 OA
ENDBRANCH   6   7
ENDBRANCH   5   6
ENDBRANCH   2   5
BRANCH   3  11
HETATM   11  O6  UNL     1     -22.045   4.305  11.468  1.00  0.00    -0.287 OA
ATOM     12  H6  UNL     1     -22.098   3.582  12.082  1.00  0.00     0.244 HD
ENDBRANCH   3  11
TORSDOF 4
ENDMDL
