MODEL 5
REMARK VINA RESULT: -5.462248781      0.980      1.390
REMARK  4 active torsions:
REMARK  status: ('A' for Active; 'I' for Inactive)
REMARK    1  A    between atoms: C1_2  and  C2_3 
REMARK       I    between atoms: C1_2  and  N1_9 
REMARK    2  A    between atoms: C2_3  and  O2_4 
REMARK    3  A    between atoms: O2_4  and  P1_5 
REMARK    4  A    between atoms: N1_9  and  O6_11 
ROOT
HETATM    1  O1  UNL     1     -25.894   6.826  13.290  1.00  0.00    -0.269 OA
HETATM    2  C1  UNL     1     -25.563   8.004  12.917  1.00  0.00     0.265 C 
HETATM    3  N1  UNL     1     -26.137   9.081  13.622  1.00  0.00    -0.236 N 
ATOM      4  H1  UNL     1     -25.906  10.041  13.364  1.00  0.00     0.197 HD
ENDROOT
BRANCH   2   5
HETATM    5  C2  UNL     1     -24.632   8.111  11.807  1.00  0.00     0.287 C 
BRANCH   5   6
HETATM    6  O2  UNL     1     -23.317   8.266  12.249  1.00  0.00    -0.273 OA
BRANCH   6   7
HETATM    7  P1  UNL     1     -22.350   7.126  11.893  1.00  0.00     0.422 P 
HETATM    8  O3  UNL     1     -21.320   6.047  11.524  1.00  0.00    -0.617 OA
HETATM    9  O4  UNL     1     -22.349   6.665  13.473  1.00  0.00    -0.617 OA
HETATM   10  O5  UNL     1     -23.477   6.442  10.902  1.00  0.00    -0.617 OA
ENDBRANCH   6   7
ENDBRANCH   5   6
ENDBRANCH   2   5
BRANCH   3  11
HETATM   11  O6  UNL     1     -26.988   8.847  14.635  1.00  0.00    -0.287 OA
ATOM     12  H6  UNL     1     -27.662   9.481  14.846  1.00  0.00     0.244 HD
ENDBRANCH   3  11
TORSDOF 4
ENDMDL
