MODEL 4
REMARK VINA RESULT: -5.480913614      2.503      4.796
REMARK  4 active torsions:
REMARK  status: ('A' for Active; 'I' for Inactive)
REMARK    1  A    between atoms: C1_2  and  C2_3 
REMARK       I    between atoms: C1_2  and  N1_9 
REMARK    2  A    between atoms: C2_3  and  O2_4 
REMARK    3  A    between atoms: O2_4  and  P1_5 
REMARK    4  A    between atoms: N1_9  and  O6_11 
ROOT
HETATM    1  O1  UNL     1     -21.669   7.933  11.537  1.00  0.00    -0.269 OA
HETATM    2  C1  UNL     1     -22.447   7.312  12.342  1.00  0.00     0.265 C 
HETATM    3  N1  UNL     1     -21.852   6.359  13.195  1.00  0.00    -0.236 N 
ATOM      4  H1  UNL     1     -22.429   5.837  13.855  1.00  0.00     0.197 HD
ENDROOT
BRANCH   2   5
HETATM    5  C2  UNL     1     -23.858   7.652  12.295  1.00  0.00     0.287 C 
BRANCH   5   6
HETATM    6  O2  UNL     1     -24.081   8.984  12.645  1.00  0.00    -0.273 OA
BRANCH   6   7
HETATM    7  P1  UNL     1     -25.553   9.423  12.714  1.00  0.00     0.422 P 
HETATM    8  O3  UNL     1     -27.027   9.856  12.694  1.00  0.00    -0.617 OA
HETATM    9  O4  UNL     1     -25.932   7.964  13.373  1.00  0.00    -0.617 OA
HETATM   10  O5  UNL     1     -25.167  10.648  13.749  1.00  0.00    -0.617 OA
ENDBRANCH   6   7
ENDBRANCH   5   6
ENDBRANCH   2   5
BRANCH   3  11
HETATM   11  O6  UNL     1     -20.529   6.139  13.139  1.00  0.00    -0.287 OA
ATOM     12  H6  UNL     1     -20.189   5.402  12.645  1.00  0.00     0.244 HD
ENDBRANCH   3  11
TORSDOF 4
ENDMDL
