MODEL 3
REMARK VINA RESULT: -5.494305771      1.344      1.880
REMARK  4 active torsions:
REMARK  status: ('A' for Active; 'I' for Inactive)
REMARK    1  A    between atoms: C1_2  and  C2_3 
REMARK       I    between atoms: C1_2  and  N1_9 
REMARK    2  A    between atoms: C2_3  and  O2_4 
REMARK    3  A    between atoms: O2_4  and  P1_5 
REMARK    4  A    between atoms: N1_9  and  O6_11 
ROOT
HETATM    1  O1  UNL     1     -26.319   9.114  12.106  1.00  0.00    -0.269 OA
HETATM    2  C1  UNL     1     -25.080   9.025  12.416  1.00  0.00     0.265 C 
HETATM    3  N1  UNL     1     -24.551  10.048  13.229  1.00  0.00    -0.236 N 
ATOM      4  H1  UNL     1     -23.568  10.024  13.503  1.00  0.00     0.197 HD
ENDROOT
BRANCH   2   5
HETATM    5  C2  UNL     1     -24.348   7.882  11.899  1.00  0.00     0.287 C 
BRANCH   5   6
HETATM    6  O2  UNL     1     -23.542   7.299  12.878  1.00  0.00    -0.273 OA
BRANCH   6   7
HETATM    7  P1  UNL     1     -22.282   6.581  12.369  1.00  0.00     0.422 P 
HETATM    8  O3  UNL     1     -21.073   5.818  11.805  1.00  0.00    -0.617 OA
HETATM    9  O4  UNL     1     -21.799   7.984  11.658  1.00  0.00    -0.617 OA
HETATM   10  O5  UNL     1     -21.783   6.302  13.917  1.00  0.00    -0.617 OA
ENDBRANCH   6   7
ENDBRANCH   5   6
ENDBRANCH   2   5
BRANCH   3  11
HETATM   11  O6  UNL     1     -25.338  11.055  13.643  1.00  0.00    -0.287 OA
ATOM     12  H6  UNL     1     -24.960  11.800  14.094  1.00  0.00     0.244 HD
ENDBRANCH   3  11
TORSDOF 4
ENDMDL
