MODEL 2
REMARK VINA RESULT: -5.651364857      2.329      4.675
REMARK  4 active torsions:
REMARK  status: ('A' for Active; 'I' for Inactive)
REMARK    1  A    between atoms: C1_2  and  C2_3 
REMARK       I    between atoms: C1_2  and  N1_9 
REMARK    2  A    between atoms: C2_3  and  O2_4 
REMARK    3  A    between atoms: O2_4  and  P1_5 
REMARK    4  A    between atoms: N1_9  and  O6_11 
ROOT
HETATM    1  O1  UNL     1     -21.811   7.930  11.532  1.00  0.00    -0.269 OA
HETATM    2  C1  UNL     1     -22.522   7.032  12.103  1.00  0.00     0.265 C 
HETATM    3  N1  UNL     1     -21.849   6.132  12.955  1.00  0.00    -0.236 N 
ATOM      4  H1  UNL     1     -22.371   5.398  13.435  1.00  0.00     0.197 HD
ENDROOT
BRANCH   2   5
HETATM    5  C2  UNL     1     -23.946   7.033  11.816  1.00  0.00     0.287 C 
BRANCH   5   6
HETATM    6  O2  UNL     1     -24.486   8.318  11.882  1.00  0.00    -0.273 OA
BRANCH   6   7
HETATM    7  P1  UNL     1     -25.520   8.556  12.994  1.00  0.00     0.422 P 
HETATM    8  O3  UNL     1     -26.497   8.853  14.143  1.00  0.00    -0.617 OA
HETATM    9  O4  UNL     1     -26.485   9.318  11.901  1.00  0.00    -0.617 OA
HETATM   10  O5  UNL     1     -25.726   6.931  13.188  1.00  0.00    -0.617 OA
ENDBRANCH   6   7
ENDBRANCH   5   6
ENDBRANCH   2   5
BRANCH   3  11
HETATM   11  O6  UNL     1     -20.523   6.241  13.137  1.00  0.00    -0.287 OA
ATOM     12  H6  UNL     1     -20.143   6.061  13.989  1.00  0.00     0.244 HD
ENDBRANCH   3  11
TORSDOF 4
ENDMDL
