MODEL 4
REMARK VINA RESULT: -4.730478548      2.057      5.134
REMARK  12 active torsions:
REMARK  status: ('A' for Active; 'I' for Inactive)
REMARK    1  A    between atoms: O1_2  and  C2_3 
REMARK    2  A    between atoms: C2_3  and  C3_4 
REMARK    3  A    between atoms: C5_8  and  O4_9 
REMARK    4  A    between atoms: C6_11  and  N1_12 
REMARK       I    between atoms: N1_12  and  C7_14 
REMARK    5  A    between atoms: C7_14  and  C8_16 
REMARK    6  A    between atoms: C8_16  and  O6_17 
REMARK    7  A    between atoms: C9_19  and  C10_20 
REMARK    8  A    between atoms: C10_20  and  O7_21 
REMARK    9  A    between atoms: C10_20  and  C11_23 
REMARK   10  A    between atoms: C11_23  and  O8_24 
REMARK   11  A    between atoms: C11_23  and  C12_26 
REMARK   12  A    between atoms: C12_26  and  O9_27 
ROOT
HETATM    1  C2  UNL     1     -29.355  43.154  23.746  1.00  0.00     0.258 C 
HETATM    2  C4  UNL     1     -30.597  42.395  24.216  1.00  0.00     0.114 C 
HETATM    3  C5  UNL     1     -31.346  41.873  23.012  1.00  0.00     0.149 C 
HETATM    4  C6  UNL     1     -30.391  40.928  22.347  1.00  0.00     0.145 C 
HETATM    5  C9  UNL     1     -29.108  41.624  21.979  1.00  0.00     0.182 C 
HETATM    6  O10 UNL     1     -28.599  42.471  22.862  1.00  0.00    -0.336 OA
ENDROOT
BRANCH   5   7
HETATM    7  C10 UNL     1     -28.147  40.484  21.611  1.00  0.00     0.180 C 
BRANCH   7   8
HETATM    8  O7  UNL     1     -26.924  40.682  22.260  1.00  0.00    -0.390 OA
ATOM      9  H7  UNL     1     -26.936  40.236  23.098  1.00  0.00     0.210 HD
ENDBRANCH   7   8
BRANCH   7  10
HETATM   10  C11 UNL     1     -27.862  40.475  20.126  1.00  0.00     0.173 C 
BRANCH  10  11
HETATM   11  O8  UNL     1     -28.299  39.321  19.512  1.00  0.00    -0.391 OA
ATOM     12  H8  UNL     1     -27.971  38.537  19.937  1.00  0.00     0.210 HD
ENDBRANCH  10  11
BRANCH  10  13
HETATM   13  C12 UNL     1     -26.367  40.670  19.975  1.00  0.00     0.198 C 
BRANCH  13  14
HETATM   14  O9  UNL     1     -25.674  39.478  19.954  1.00  0.00    -0.398 OA
ATOM     15  H9  UNL     1     -24.755  39.584  20.166  1.00  0.00     0.209 HD
ENDBRANCH  13  14
ENDBRANCH  10  13
ENDBRANCH   7  10
ENDBRANCH   5   7
BRANCH   4  16
HETATM   16  N1  UNL     1     -30.916  40.280  21.186  1.00  0.00    -0.350 N 
HETATM   17  C7  UNL     1     -31.617  39.065  21.158  1.00  0.00     0.241 C 
HETATM   18  O5  UNL     1     -31.807  38.482  22.264  1.00  0.00    -0.271 OA
ATOM     19  H1  UNL     1     -30.766  40.746  20.291  1.00  0.00     0.163 HD
BRANCH  17  20
HETATM   20  C8  UNL     1     -32.113  38.494  19.867  1.00  0.00     0.266 C 
BRANCH  20  21
HETATM   21  O6  UNL     1     -31.017  38.038  19.160  1.00  0.00    -0.392 OA
ATOM     22  H6  UNL     1     -31.199  37.147  18.886  1.00  0.00     0.210 HD
ENDBRANCH  20  21
ENDBRANCH  17  20
ENDBRANCH   4  16
BRANCH   3  23
HETATM   23  O4  UNL     1     -32.426  41.138  23.514  1.00  0.00    -0.393 OA
ATOM     24  H4  UNL     1     -33.096  41.158  22.840  1.00  0.00     0.210 HD
ENDBRANCH   3  23
BRANCH   1  25
HETATM   25  O1  UNL     1     -28.605  43.283  24.911  1.00  0.00    -0.351 OA
HETATM   26  C1  UNL     1     -29.396  43.111  26.026  1.00  0.00     0.206 C 
ENDBRANCH   1  25
BRANCH   1  27
HETATM   27  C3  UNL     1     -29.853  44.474  23.356  1.00  0.00     0.239 C 
HETATM   28  O2  UNL     1     -30.930  44.994  23.772  1.00  0.00    -0.644 OA
HETATM   29  O3  UNL     1     -29.126  45.243  22.474  1.00  0.00    -0.644 OA
ENDBRANCH   1  27
TORSDOF 12
ENDMDL
