MODEL 3
REMARK VINA RESULT: -4.832920468      1.781      4.436
REMARK  12 active torsions:
REMARK  status: ('A' for Active; 'I' for Inactive)
REMARK    1  A    between atoms: O1_2  and  C2_3 
REMARK    2  A    between atoms: C2_3  and  C3_4 
REMARK    3  A    between atoms: C5_8  and  O4_9 
REMARK    4  A    between atoms: C6_11  and  N1_12 
REMARK       I    between atoms: N1_12  and  C7_14 
REMARK    5  A    between atoms: C7_14  and  C8_16 
REMARK    6  A    between atoms: C8_16  and  O6_17 
REMARK    7  A    between atoms: C9_19  and  C10_20 
REMARK    8  A    between atoms: C10_20  and  O7_21 
REMARK    9  A    between atoms: C10_20  and  C11_23 
REMARK   10  A    between atoms: C11_23  and  O8_24 
REMARK   11  A    between atoms: C11_23  and  C12_26 
REMARK   12  A    between atoms: C12_26  and  O9_27 
ROOT
HETATM    1  C2  UNL     1     -28.619  41.774  21.617  1.00  0.00     0.258 C 
HETATM    2  C4  UNL     1     -30.035  41.725  21.041  1.00  0.00     0.114 C 
HETATM    3  C5  UNL     1     -30.980  41.184  22.089  1.00  0.00     0.149 C 
HETATM    4  C6  UNL     1     -30.918  42.177  23.209  1.00  0.00     0.145 C 
HETATM    5  C9  UNL     1     -29.511  42.333  23.719  1.00  0.00     0.182 C 
HETATM    6  O10 UNL     1     -28.538  42.381  22.819  1.00  0.00    -0.336 OA
ENDROOT
BRANCH   5   7
HETATM    7  C10 UNL     1     -29.564  43.578  24.616  1.00  0.00     0.180 C 
BRANCH   7   8
HETATM    8  O7  UNL     1     -28.572  44.479  24.219  1.00  0.00    -0.390 OA
ATOM      9  H7  UNL     1     -28.188  44.885  24.988  1.00  0.00     0.210 HD
ENDBRANCH   7   8
BRANCH   7  10
HETATM   10  C11 UNL     1     -29.281  43.219  26.058  1.00  0.00     0.173 C 
BRANCH  10  11
HETATM   11  O8  UNL     1     -30.026  42.142  26.488  1.00  0.00    -0.391 OA
ATOM     12  H8  UNL     1     -30.268  42.210  27.404  1.00  0.00     0.210 HD
ENDBRANCH  10  11
BRANCH  10  13
HETATM   13  C12 UNL     1     -29.558  44.465  26.873  1.00  0.00     0.198 C 
BRANCH  13  14
HETATM   14  O9  UNL     1     -28.557  45.406  26.764  1.00  0.00    -0.398 OA
ATOM     15  H9  UNL     1     -28.888  46.273  26.561  1.00  0.00     0.209 HD
ENDBRANCH  13  14
ENDBRANCH  10  13
ENDBRANCH   7  10
ENDBRANCH   5   7
BRANCH   4  16
HETATM   16  N1  UNL     1     -31.779  41.878  24.310  1.00  0.00    -0.350 N 
HETATM   17  C7  UNL     1     -33.043  42.436  24.552  1.00  0.00     0.241 C 
HETATM   18  O5  UNL     1     -33.469  43.287  23.720  1.00  0.00    -0.271 OA
ATOM     19  H1  UNL     1     -31.442  41.192  24.985  1.00  0.00     0.163 HD
BRANCH  17  20
HETATM   20  C8  UNL     1     -33.844  42.032  25.751  1.00  0.00     0.266 C 
BRANCH  20  21
HETATM   21  O6  UNL     1     -32.957  41.673  26.747  1.00  0.00    -0.392 OA
ATOM     22  H6  UNL     1     -33.461  41.308  27.466  1.00  0.00     0.210 HD
ENDBRANCH  20  21
ENDBRANCH  17  20
ENDBRANCH   4  16
BRANCH   3  23
HETATM   23  O4  UNL     1     -32.258  41.230  21.519  1.00  0.00    -0.393 OA
ATOM     24  H4  UNL     1     -32.128  41.218  20.578  1.00  0.00     0.210 HD
ENDBRANCH   3  23
BRANCH   1  25
HETATM   25  O1  UNL     1     -27.936  42.575  20.709  1.00  0.00    -0.351 OA
HETATM   26  C1  UNL     1     -28.687  43.678  20.364  1.00  0.00     0.206 C 
ENDBRANCH   1  25
BRANCH   1  27
HETATM   27  C3  UNL     1     -28.124  40.400  21.502  1.00  0.00     0.239 C 
HETATM   28  O2  UNL     1     -28.637  39.506  20.766  1.00  0.00    -0.644 OA
HETATM   29  O3  UNL     1     -27.021  40.010  22.227  1.00  0.00    -0.644 OA
ENDBRANCH   1  27
TORSDOF 12
ENDMDL
