MODEL 2
REMARK VINA RESULT: -4.833183102      1.051      1.403
REMARK  12 active torsions:
REMARK  status: ('A' for Active; 'I' for Inactive)
REMARK    1  A    between atoms: O1_2  and  C2_3 
REMARK    2  A    between atoms: C2_3  and  C3_4 
REMARK    3  A    between atoms: C5_8  and  O4_9 
REMARK    4  A    between atoms: C6_11  and  N1_12 
REMARK       I    between atoms: N1_12  and  C7_14 
REMARK    5  A    between atoms: C7_14  and  C8_16 
REMARK    6  A    between atoms: C8_16  and  O6_17 
REMARK    7  A    between atoms: C9_19  and  C10_20 
REMARK    8  A    between atoms: C10_20  and  O7_21 
REMARK    9  A    between atoms: C10_20  and  C11_23 
REMARK   10  A    between atoms: C11_23  and  O8_24 
REMARK   11  A    between atoms: C11_23  and  C12_26 
REMARK   12  A    between atoms: C12_26  and  O9_27 
ROOT
HETATM    1  C2  UNL     1     -31.824  40.362  21.075  1.00  0.00     0.258 C 
HETATM    2  C4  UNL     1     -32.620  41.483  21.745  1.00  0.00     0.114 C 
HETATM    3  C5  UNL     1     -32.367  41.453  23.234  1.00  0.00     0.149 C 
HETATM    4  C6  UNL     1     -30.898  41.713  23.378  1.00  0.00     0.145 C 
HETATM    5  C9  UNL     1     -30.090  40.688  22.628  1.00  0.00     0.182 C 
HETATM    6  O10 UNL     1     -30.522  40.331  21.427  1.00  0.00    -0.336 OA
ENDROOT
BRANCH   5   7
HETATM    7  C10 UNL     1     -28.666  41.262  22.611  1.00  0.00     0.180 C 
BRANCH   7   8
HETATM    8  O7  UNL     1     -28.722  42.635  22.356  1.00  0.00    -0.390 OA
ATOM      9  H7  UNL     1     -28.164  42.842  21.615  1.00  0.00     0.210 HD
ENDBRANCH   7   8
BRANCH   7  10
HETATM   10  C11 UNL     1     -27.846  40.642  21.501  1.00  0.00     0.173 C 
BRANCH  10  11
HETATM   11  O8  UNL     1     -26.597  40.244  21.928  1.00  0.00    -0.391 OA
ATOM     12  H8  UNL     1     -26.577  39.332  22.192  1.00  0.00     0.210 HD
ENDBRANCH  10  11
BRANCH  10  13
HETATM   13  C12 UNL     1     -27.768  41.675  20.396  1.00  0.00     0.198 C 
BRANCH  13  14
HETATM   14  O9  UNL     1     -28.820  41.587  19.510  1.00  0.00    -0.398 OA
ATOM     15  H9  UNL     1     -29.369  42.362  19.514  1.00  0.00     0.209 HD
ENDBRANCH  13  14
ENDBRANCH  10  13
ENDBRANCH   7  10
ENDBRANCH   5   7
BRANCH   4  16
HETATM   16  N1  UNL     1     -30.439  41.766  24.731  1.00  0.00    -0.350 N 
HETATM   17  C7  UNL     1     -30.350  42.912  25.534  1.00  0.00     0.241 C 
HETATM   18  O5  UNL     1     -30.711  44.009  25.018  1.00  0.00    -0.271 OA
ATOM     19  H1  UNL     1     -30.147  40.884  25.153  1.00  0.00     0.163 HD
BRANCH  17  20
HETATM   20  C8  UNL     1     -29.848  42.827  26.941  1.00  0.00     0.266 C 
BRANCH  20  21
HETATM   21  O6  UNL     1     -30.414  41.708  27.522  1.00  0.00    -0.392 OA
ATOM     22  H6  UNL     1     -29.753  41.026  27.541  1.00  0.00     0.210 HD
ENDBRANCH  20  21
ENDBRANCH  17  20
ENDBRANCH   4  16
BRANCH   3  23
HETATM   23  O4  UNL     1     -33.069  42.539  23.770  1.00  0.00    -0.393 OA
ATOM     24  H4  UNL     1     -32.607  42.786  24.563  1.00  0.00     0.210 HD
ENDBRANCH   3  23
BRANCH   1  25
HETATM   25  O1  UNL     1     -31.874  40.701  19.727  1.00  0.00    -0.351 OA
HETATM   26  C1  UNL     1     -32.320  41.994  19.562  1.00  0.00     0.206 C 
ENDBRANCH   1  25
BRANCH   1  27
HETATM   27  C3  UNL     1     -32.628  39.157  21.291  1.00  0.00     0.239 C 
HETATM   28  O2  UNL     1     -32.546  38.405  22.306  1.00  0.00    -0.644 OA
HETATM   29  O3  UNL     1     -33.556  38.780  20.346  1.00  0.00    -0.644 OA
ENDBRANCH   1  27
TORSDOF 12
ENDMDL
