MODEL 5
REMARK VINA RESULT: -4.662747379      5.026      7.561
REMARK  12 active torsions:
REMARK  status: ('A' for Active; 'I' for Inactive)
REMARK    1  A    between atoms: O1_2  and  C2_3 
REMARK    2  A    between atoms: C2_3  and  C3_4 
REMARK    3  A    between atoms: C5_8  and  O4_9 
REMARK    4  A    between atoms: C6_11  and  N1_12 
REMARK       I    between atoms: N1_12  and  C7_14 
REMARK    5  A    between atoms: C7_14  and  C8_16 
REMARK    6  A    between atoms: C8_16  and  O6_17 
REMARK    7  A    between atoms: C9_19  and  C10_20 
REMARK    8  A    between atoms: C10_20  and  O7_21 
REMARK    9  A    between atoms: C10_20  and  C11_23 
REMARK   10  A    between atoms: C11_23  and  O8_24 
REMARK   11  A    between atoms: C11_23  and  C12_26 
REMARK   12  A    between atoms: C12_26  and  O9_27 
ROOT
HETATM    1  C2  UNL     1     -35.629  43.943  27.653  1.00  0.00     0.258 C 
HETATM    2  C4  UNL     1     -35.010  42.597  27.275  1.00  0.00     0.114 C 
HETATM    3  C5  UNL     1     -33.692  42.834  26.574  1.00  0.00     0.149 C 
HETATM    4  C6  UNL     1     -32.835  43.523  27.593  1.00  0.00     0.145 C 
HETATM    5  C9  UNL     1     -33.479  44.796  28.072  1.00  0.00     0.182 C 
HETATM    6  O10 UNL     1     -34.784  44.770  28.302  1.00  0.00    -0.336 OA
ENDROOT
BRANCH   5   7
HETATM    7  C10 UNL     1     -32.656  45.202  29.303  1.00  0.00     0.180 C 
BRANCH   7   8
HETATM    8  O7  UNL     1     -33.329  44.802  30.462  1.00  0.00    -0.390 OA
ATOM      9  H7  UNL     1     -32.844  44.102  30.883  1.00  0.00     0.210 HD
ENDBRANCH   7   8
BRANCH   7  10
HETATM   10  C11 UNL     1     -32.501  46.704  29.380  1.00  0.00     0.173 C 
BRANCH  10  11
HETATM   11  O8  UNL     1     -33.232  47.359  28.412  1.00  0.00    -0.391 OA
ATOM     12  H8  UNL     1     -33.190  48.304  28.502  1.00  0.00     0.210 HD
ENDBRANCH  10  11
BRANCH  10  13
HETATM   13  C12 UNL     1     -31.017  46.989  29.263  1.00  0.00     0.198 C 
BRANCH  13  14
HETATM   14  O9  UNL     1     -30.255  45.841  29.233  1.00  0.00    -0.398 OA
ATOM     15  H9  UNL     1     -29.326  46.019  29.151  1.00  0.00     0.209 HD
ENDBRANCH  13  14
ENDBRANCH  10  13
ENDBRANCH   7  10
ENDBRANCH   5   7
BRANCH   4  16
HETATM   16  N1  UNL     1     -31.508  43.813  27.148  1.00  0.00    -0.350 N 
HETATM   17  C7  UNL     1     -30.384  42.987  27.293  1.00  0.00     0.241 C 
HETATM   18  O5  UNL     1     -30.553  41.876  27.873  1.00  0.00    -0.271 OA
ATOM     19  H1  UNL     1     -31.365  44.708  26.679  1.00  0.00     0.163 HD
BRANCH  17  20
HETATM   20  C8  UNL     1     -29.045  43.416  26.779  1.00  0.00     0.266 C 
BRANCH  20  21
HETATM   21  O6  UNL     1     -28.964  44.789  26.911  1.00  0.00    -0.392 OA
ATOM     22  H6  UNL     1     -28.047  45.032  26.852  1.00  0.00     0.210 HD
ENDBRANCH  20  21
ENDBRANCH  17  20
ENDBRANCH   4  16
BRANCH   3  23
HETATM   23  O4  UNL     1     -33.154  41.568  26.319  1.00  0.00    -0.393 OA
ATOM     24  H4  UNL     1     -33.114  41.484  25.373  1.00  0.00     0.210 HD
ENDBRANCH   3  23
BRANCH   1  25
HETATM   25  O1  UNL     1     -36.627  43.589  28.555  1.00  0.00    -0.351 OA
HETATM   26  C1  UNL     1     -36.199  42.582  29.392  1.00  0.00     0.206 C 
ENDBRANCH   1  25
BRANCH   1  27
HETATM   27  C3  UNL     1     -36.254  44.423  26.419  1.00  0.00     0.239 C 
HETATM   28  O2  UNL     1     -36.136  45.596  25.956  1.00  0.00    -0.644 OA
HETATM   29  O3  UNL     1     -37.035  43.567  25.675  1.00  0.00    -0.644 OA
ENDBRANCH   1  27
TORSDOF 12
ENDMDL
