MODEL 8
REMARK VINA RESULT: -5.081029544      1.763      4.904
REMARK  8 active torsions:
REMARK  status: ('A' for Active; 'I' for Inactive)
REMARK    1  A    between atoms: N1_1  and  C1_5 
REMARK    2  A    between atoms: C1_5  and  C2_6 
REMARK    3  A    between atoms: C1_5  and  C7_17 
REMARK    4  A    between atoms: C2_6  and  C3_7 
REMARK    5  A    between atoms: C3_7  and  C4_8 
REMARK    6  A    between atoms: C4_8  and  C5_9 
REMARK    7  A    between atoms: C5_9  and  N2_10 
REMARK    8  A    between atoms: C5_9  and  C6_14 
ROOT
HETATM    1  C3  UNL     1      19.660   2.105  28.669  1.00  0.00     0.005 C 
ENDROOT
BRANCH   1   2
HETATM    2  C2  UNL     1      20.755   1.053  28.678  1.00  0.00     0.044 C 
BRANCH   2   3
HETATM    3  C1  UNL     1      21.732   1.239  29.796  1.00  0.00     0.283 C 
BRANCH   3   4
HETATM    4  N1  UNL     1      21.189   1.909  30.942  1.00  0.00    -0.065 N 
ATOM      5  H13 UNL     1      21.328   2.916  30.867  1.00  0.00     0.275 HD
ATOM      6  H12 UNL     1      20.169   1.875  30.927  1.00  0.00     0.275 HD
ATOM      7  H11 UNL     1      21.545   1.563  31.833  1.00  0.00     0.275 HD
ENDBRANCH   3   4
BRANCH   3   8
HETATM    8  C7  UNL     1      22.880   2.019  29.262  1.00  0.00     0.204 C 
HETATM    9  O3  UNL     1      23.962   1.428  28.960  1.00  0.00    -0.646 OA
HETATM   10  O4  UNL     1      22.841   3.383  29.073  1.00  0.00    -0.646 OA
ENDBRANCH   3   8
ENDBRANCH   2   3
ENDBRANCH   1   2
BRANCH   1  11
HETATM   11  C4  UNL     1      18.934   1.935  27.360  1.00  0.00     0.044 C 
BRANCH  11  12
HETATM   12  C5  UNL     1      19.414   2.953  26.375  1.00  0.00     0.283 C 
BRANCH  12  13
HETATM   13  N2  UNL     1      20.096   2.264  25.252  1.00  0.00    -0.065 N 
ATOM     14  H23 UNL     1      20.405   2.914  24.530  1.00  0.00     0.275 HD
ATOM     15  H22 UNL     1      21.011   1.900  25.520  1.00  0.00     0.275 HD
ATOM     16  H21 UNL     1      19.483   1.538  24.882  1.00  0.00     0.275 HD
ENDBRANCH  12  13
BRANCH  12  17
HETATM   17  C6  UNL     1      18.316   3.748  25.833  1.00  0.00     0.204 C 
HETATM   18  O1  UNL     1      18.173   3.806  24.568  1.00  0.00    -0.646 OA
HETATM   19  O2  UNL     1      17.389   4.465  26.569  1.00  0.00    -0.646 OA
ENDBRANCH  12  17
ENDBRANCH  11  12
ENDBRANCH   1  11
TORSDOF 8
ENDMDL
