MODEL 3
REMARK VINA RESULT: -6.443190659      9.720     12.934
REMARK  6 active torsions:
REMARK  status: ('A' for Active; 'I' for Inactive)
REMARK    1  A    between atoms: C2_2  and  N1_3 
REMARK       I    between atoms: N1_3  and  C3_5 
REMARK       I    between atoms: C3_5  and  N2_7 
REMARK    2  A    between atoms: N2_7  and  C4_9 
REMARK    3  A    between atoms: C11_17  and  C12_18 
REMARK    4  A    between atoms: C12_18  and  O2_19 
REMARK    5  A    between atoms: C12_18  and  N3_21 
REMARK    6  A    between atoms: C15_24  and  N4_25 
ROOT
HETATM    1  C12 UNL     1      29.912  54.625  46.463  1.00  0.00     0.152 C 
ENDROOT
BRANCH   1   2
HETATM    2  C11 UNL     1      30.046  54.609  45.008  1.00  0.00     0.060 A 
HETATM    3  C4  UNL     1      31.313  54.976  44.489  1.00  0.00     0.094 A 
HETATM    4  S1  UNL     1      31.092  54.975  42.806  1.00  0.00    -0.071 SA
HETATM    5  C5  UNL     1      29.464  54.534  42.731  1.00  0.00     0.018 A 
HETATM    6  C6  UNL     1      28.564  54.377  41.655  1.00  0.00     0.020 A 
HETATM    7  C10 UNL     1      29.103  54.391  44.041  1.00  0.00    -0.002 A 
HETATM    8  C7  UNL     1      27.257  54.074  41.869  1.00  0.00     0.001 A 
HETATM    9  C8  UNL     1      26.864  53.934  43.163  1.00  0.00     0.001 A 
HETATM   10  C9  UNL     1      27.735  54.085  44.203  1.00  0.00     0.014 A 
BRANCH   3  11
HETATM   11  N2  UNL     1      32.530  55.265  45.193  1.00  0.00    -0.302 N 
HETATM   12  C3  UNL     1      32.692  56.628  45.641  1.00  0.00     0.321 C 
HETATM   13  N1  UNL     1      33.835  57.043  46.344  1.00  0.00    -0.343 N 
HETATM   14  O1  UNL     1      31.806  57.491  45.413  1.00  0.00    -0.247 OA
ATOM     15  H1  UNL     1      34.575  56.369  46.544  1.00  0.00     0.164 HD
ATOM     16  H2  UNL     1      33.238  54.551  45.366  1.00  0.00     0.171 HD
BRANCH  13  17
HETATM   17  C2  UNL     1      33.979  58.428  46.791  1.00  0.00     0.120 C 
HETATM   18  C1  UNL     1      33.556  58.599  48.215  1.00  0.00     0.026 C 
ENDBRANCH  13  17
ENDBRANCH   3  11
ENDBRANCH   1   2
BRANCH   1  19
HETATM   19  O2  UNL     1      30.261  53.469  47.058  1.00  0.00    -0.345 OA
ATOM     20  H2  UNL     1      29.955  52.692  46.604  1.00  0.00     0.219 HD
ENDBRANCH   1  19
BRANCH   1  21
HETATM   21  N3  UNL     1      29.486  55.555  47.396  1.00  0.00    -0.361 N 
HETATM   22  C13 UNL     1      28.310  56.323  47.554  1.00  0.00     0.127 C 
HETATM   23  C14 UNL     1      27.863  56.364  49.037  1.00  0.00     0.045 C 
HETATM   24  C15 UNL     1      28.893  57.103  49.858  1.00  0.00     0.082 C 
HETATM   25  C26 UNL     1      30.209  57.175  49.096  1.00  0.00     0.045 C 
HETATM   26  C27 UNL     1      30.489  55.842  48.495  1.00  0.00     0.127 C 
BRANCH  24  27
HETATM   27  N4  UNL     1      28.392  58.320  50.332  1.00  0.00    -0.407 N 
HETATM   28  C16 UNL     1      27.060  58.690  50.092  1.00  0.00     0.117 C 
HETATM   29  C17 UNL     1      26.866  60.204  49.966  1.00  0.00     0.021 C 
HETATM   30  C18 UNL     1      27.454  60.967  51.107  1.00  0.00     0.023 C 
HETATM   31  C19 UNL     1      28.685  60.319  51.653  1.00  0.00     0.066 C 
HETATM   32  C20 UNL     1      29.310  59.322  50.737  1.00  0.00     0.137 C 
HETATM   33  C21 UNL     1      29.682  61.425  51.978  1.00  0.00     0.059 C 
HETATM   34  C25 UNL     1      28.459  59.773  53.030  1.00  0.00     0.270 C 
HETATM   35  C22 UNL     1      29.389  61.840  53.394  1.00  0.00     0.065 C 
HETATM   36  C23 UNL     1      28.923  63.272  53.500  1.00  0.00     0.046 C 
HETATM   37  C24 UNL     1      30.600  61.614  54.289  1.00  0.00     0.046 C 
HETATM   38  O3  UNL     1      28.400  60.923  53.825  1.00  0.00    -0.310 OA
HETATM   39  O4  UNL     1      28.351  58.568  53.375  1.00  0.00    -0.264 OA
ENDBRANCH  24  27
ENDBRANCH   1  21
TORSDOF 6
ENDMDL
