MODEL 2
REMARK VINA RESULT: -6.459024004     10.312     13.193
REMARK  6 active torsions:
REMARK  status: ('A' for Active; 'I' for Inactive)
REMARK    1  A    between atoms: C2_2  and  N1_3 
REMARK       I    between atoms: N1_3  and  C3_5 
REMARK       I    between atoms: C3_5  and  N2_7 
REMARK    2  A    between atoms: N2_7  and  C4_9 
REMARK    3  A    between atoms: C11_17  and  C12_18 
REMARK    4  A    between atoms: C12_18  and  O2_19 
REMARK    5  A    between atoms: C12_18  and  N3_21 
REMARK    6  A    between atoms: C15_24  and  N4_25 
ROOT
HETATM    1  C12 UNL     1      30.126  54.061  46.163  1.00  0.00     0.152 C 
ENDROOT
BRANCH   1   2
HETATM    2  C11 UNL     1      30.209  53.909  44.711  1.00  0.00     0.060 A 
HETATM    3  C4  UNL     1      31.505  53.712  44.174  1.00  0.00     0.094 A 
HETATM    4  S1  UNL     1      31.263  53.702  42.493  1.00  0.00    -0.071 SA
HETATM    5  C5  UNL     1      29.593  53.938  42.442  1.00  0.00     0.018 A 
HETATM    6  C6  UNL     1      28.679  54.088  41.376  1.00  0.00     0.020 A 
HETATM    7  C10 UNL     1      29.234  54.027  43.758  1.00  0.00    -0.002 A 
HETATM    8  C7  UNL     1      27.365  54.341  41.606  1.00  0.00     0.001 A 
HETATM    9  C8  UNL     1      26.978  54.444  42.906  1.00  0.00     0.001 A 
HETATM   10  C9  UNL     1      27.862  54.298  43.936  1.00  0.00     0.014 A 
BRANCH   3  11
HETATM   11  N2  UNL     1      32.753  53.536  44.860  1.00  0.00    -0.302 N 
HETATM   12  C3  UNL     1      33.493  54.742  45.144  1.00  0.00     0.321 C 
HETATM   13  N1  UNL     1      34.728  54.709  45.813  1.00  0.00    -0.343 N 
HETATM   14  O1  UNL     1      33.051  55.867  44.798  1.00  0.00    -0.247 OA
ATOM     15  H1  UNL     1      35.118  53.814  46.108  1.00  0.00     0.164 HD
ATOM     16  H2  UNL     1      33.096  52.614  45.131  1.00  0.00     0.171 HD
BRANCH  13  17
HETATM   17  C2  UNL     1      35.462  55.944  46.093  1.00  0.00     0.120 C 
HETATM   18  C1  UNL     1      36.803  55.955  45.431  1.00  0.00     0.026 C 
ENDBRANCH  13  17
ENDBRANCH   3  11
ENDBRANCH   1   2
BRANCH   1  19
HETATM   19  O2  UNL     1      30.237  52.904  46.842  1.00  0.00    -0.345 OA
ATOM     20  H2  UNL     1      30.606  53.000  47.712  1.00  0.00     0.219 HD
ENDBRANCH   1  19
BRANCH   1  21
HETATM   21  N3  UNL     1      29.936  55.127  47.025  1.00  0.00    -0.361 N 
HETATM   22  C13 UNL     1      28.902  56.073  47.208  1.00  0.00     0.127 C 
HETATM   23  C14 UNL     1      28.628  56.318  48.713  1.00  0.00     0.045 C 
HETATM   24  C15 UNL     1      29.833  56.970  49.349  1.00  0.00     0.082 C 
HETATM   25  C26 UNL     1      31.056  56.774  48.463  1.00  0.00     0.045 C 
HETATM   26  C27 UNL     1      31.082  55.363  47.987  1.00  0.00     0.127 C 
BRANCH  24  27
HETATM   27  N4  UNL     1      29.559  58.287  49.733  1.00  0.00    -0.407 N 
HETATM   28  C16 UNL     1      29.416  59.300  48.772  1.00  0.00     0.117 C 
HETATM   29  C17 UNL     1      29.867  60.676  49.271  1.00  0.00     0.021 C 
HETATM   30  C18 UNL     1      29.247  61.058  50.575  1.00  0.00     0.023 C 
HETATM   31  C19 UNL     1      29.004  59.880  51.460  1.00  0.00     0.066 C 
HETATM   32  C20 UNL     1      29.778  58.661  51.083  1.00  0.00     0.137 C 
HETATM   33  C21 UNL     1      29.350  60.296  52.885  1.00  0.00     0.059 C 
HETATM   34  C25 UNL     1      27.541  59.603  51.628  1.00  0.00     0.270 C 
HETATM   35  C22 UNL     1      28.085  60.868  53.464  1.00  0.00     0.065 C 
HETATM   36  C23 UNL     1      28.213  62.331  53.816  1.00  0.00     0.046 C 
HETATM   37  C24 UNL     1      27.636  60.072  54.683  1.00  0.00     0.046 C 
HETATM   38  O3  UNL     1      27.113  60.642  52.461  1.00  0.00    -0.310 OA
HETATM   39  O4  UNL     1      26.872  58.660  51.133  1.00  0.00    -0.264 OA
ENDBRANCH  24  27
ENDBRANCH   1  21
TORSDOF 6
ENDMDL
