MODEL 1
REMARK VINA RESULT: -6.573925000      0.000      0.000
REMARK  6 active torsions:
REMARK  status: ('A' for Active; 'I' for Inactive)
REMARK    1  A    between atoms: C2_2  and  N1_3 
REMARK       I    between atoms: N1_3  and  C3_5 
REMARK       I    between atoms: C3_5  and  N2_7 
REMARK    2  A    between atoms: N2_7  and  C4_9 
REMARK    3  A    between atoms: C11_17  and  C12_18 
REMARK    4  A    between atoms: C12_18  and  O2_19 
REMARK    5  A    between atoms: C12_18  and  N3_21 
REMARK    6  A    between atoms: C15_24  and  N4_25 
ROOT
HETATM    1  C12 UNL     1      35.685  57.111  57.796  1.00  0.00     0.152 C 
ENDROOT
BRANCH   1   2
HETATM    2  C11 UNL     1      36.346  56.563  58.979  1.00  0.00     0.060 A 
HETATM    3  C4  UNL     1      35.752  55.412  59.554  1.00  0.00     0.094 A 
HETATM    4  S1  UNL     1      36.673  55.120  60.950  1.00  0.00    -0.071 SA
HETATM    5  C5  UNL     1      37.775  56.394  60.838  1.00  0.00     0.018 A 
HETATM    6  C6  UNL     1      38.824  56.828  61.678  1.00  0.00     0.020 A 
HETATM    7  C10 UNL     1      37.407  57.046  59.696  1.00  0.00    -0.002 A 
HETATM    8  C7  UNL     1      39.537  57.949  61.391  1.00  0.00     0.001 A 
HETATM    9  C8  UNL     1      39.188  58.626  60.264  1.00  0.00     0.001 A 
HETATM   10  C9  UNL     1      38.174  58.205  59.453  1.00  0.00     0.014 A 
BRANCH   3  11
HETATM   11  N2  UNL     1      34.643  54.634  59.081  1.00  0.00    -0.302 N 
HETATM   12  C3  UNL     1      33.340  55.042  59.549  1.00  0.00     0.321 C 
HETATM   13  N1  UNL     1      32.171  54.367  59.160  1.00  0.00    -0.343 N 
HETATM   14  O1  UNL     1      33.212  56.023  60.325  1.00  0.00    -0.247 OA
ATOM     15  H1  UNL     1      32.238  53.566  58.532  1.00  0.00     0.164 HD
ATOM     16  H2  UNL     1      34.768  53.840  58.453  1.00  0.00     0.171 HD
BRANCH  13  17
HETATM   17  C2  UNL     1      30.859  54.799  59.643  1.00  0.00     0.120 C 
HETATM   18  C1  UNL     1      29.765  53.905  59.153  1.00  0.00     0.026 C 
ENDBRANCH  13  17
ENDBRANCH   3  11
ENDBRANCH   1   2
BRANCH   1  19
HETATM   19  O2  UNL     1      35.804  56.342  56.696  1.00  0.00    -0.345 OA
ATOM     20  H2  UNL     1      36.354  56.717  56.019  1.00  0.00     0.219 HD
ENDBRANCH   1  19
BRANCH   1  21
HETATM   21  N3  UNL     1      34.969  58.263  57.521  1.00  0.00    -0.361 N 
HETATM   22  C13 UNL     1      33.595  58.594  57.531  1.00  0.00     0.127 C 
HETATM   23  C14 UNL     1      33.361  59.995  58.150  1.00  0.00     0.045 C 
HETATM   24  C15 UNL     1      33.983  61.050  57.266  1.00  0.00     0.082 C 
HETATM   25  C26 UNL     1      34.995  60.410  56.326  1.00  0.00     0.045 C 
HETATM   26  C27 UNL     1      35.822  59.443  57.100  1.00  0.00     0.127 C 
BRANCH  24  27
HETATM   27  N4  UNL     1      33.007  61.851  56.662  1.00  0.00    -0.407 N 
HETATM   28  C16 UNL     1      33.367  62.987  55.922  1.00  0.00     0.117 C 
HETATM   29  C17 UNL     1      32.322  64.104  55.979  1.00  0.00     0.021 C 
HETATM   30  C18 UNL     1      30.946  63.636  55.638  1.00  0.00     0.023 C 
HETATM   31  C19 UNL     1      30.697  62.228  56.071  1.00  0.00     0.066 C 
HETATM   32  C20 UNL     1      31.661  61.721  57.090  1.00  0.00     0.137 C 
HETATM   33  C21 UNL     1      29.276  62.158  56.618  1.00  0.00     0.059 C 
HETATM   34  C25 UNL     1      30.560  61.303  54.899  1.00  0.00     0.270 C 
HETATM   35  C22 UNL     1      28.396  61.848  55.437  1.00  0.00     0.065 C 
HETATM   36  C23 UNL     1      27.413  62.954  55.134  1.00  0.00     0.046 C 
HETATM   37  C24 UNL     1      27.659  60.531  55.640  1.00  0.00     0.046 C 
HETATM   38  O3  UNL     1      29.306  61.636  54.375  1.00  0.00    -0.310 OA
HETATM   39  O4  UNL     1      31.382  60.441  54.496  1.00  0.00    -0.264 OA
ENDBRANCH  24  27
ENDBRANCH   1  21
TORSDOF 6
ENDMDL
