MODEL 3
REMARK VINA RESULT: -7.548890585      4.806      6.993
REMARK  6 active torsions:
REMARK  status: ('A' for Active; 'I' for Inactive)
REMARK    1  A    between atoms: N5_13  and  C6_14 
REMARK    2  A    between atoms: C7_16  and  C8_17 
REMARK    3  A    between atoms: C8_17  and  O2_18 
REMARK    4  A    between atoms: O2_18  and  P1_19 
REMARK    5  A    between atoms: C9_23  and  O6_24 
REMARK    6  A    between atoms: C10_26  and  O7_27 
ROOT
HETATM    1  C6  UNL     1      31.599  65.658   0.657  1.00  0.00     0.262 C 
HETATM    2  O1  UNL     1      31.731  66.484   1.733  1.00  0.00    -0.353 OA
HETATM    3  C7  UNL     1      30.556  67.171   1.931  1.00  0.00     0.180 C 
HETATM    4  C9  UNL     1      29.455  66.394   1.288  1.00  0.00     0.182 C 
HETATM    5  C10 UNL     1      30.167  65.614   0.234  1.00  0.00     0.198 C 
ENDROOT
BRANCH   1   6
HETATM    6  N5  UNL     1      32.117  64.327   0.935  1.00  0.00    -0.297 N 
HETATM    7  C3  UNL     1      33.216  63.975   1.640  1.00  0.00     0.142 A 
HETATM    8  N3  UNL     1      34.142  64.704   2.279  1.00  0.00    -0.336 N 
HETATM    9  C4  UNL     1      33.333  62.595   1.654  1.00  0.00     0.119 A 
HETATM   10  C2  UNL     1      35.162  64.120   2.921  1.00  0.00     0.183 A 
ATOM     11  H3  UNL     1      34.068  65.721   2.277  1.00  0.00     0.168 HD
HETATM   12  N2  UNL     1      35.254  62.780   2.921  1.00  0.00    -0.339 N 
HETATM   13  C1  UNL     1      34.379  61.965   2.311  1.00  0.00     0.148 A 
ATOM     14  H2  UNL     1      36.039  62.355   3.415  1.00  0.00     0.167 HD
HETATM   15  N1  UNL     1      34.527  60.553   2.344  1.00  0.00    -0.080 NA
HETATM   16  N4  UNL     1      32.300  62.126   0.956  1.00  0.00    -0.346 N 
HETATM   17  C5  UNL     1      31.570  63.167   0.525  1.00  0.00     0.188 A 
ATOM     18  H4  UNL     1      32.098  61.142   0.778  1.00  0.00     0.167 HD
ENDBRANCH   1   6
BRANCH   5  19
HETATM   19  O7  UNL     1      29.953  66.106  -1.049  1.00  0.00    -0.388 OA
ATOM     20  H7  UNL     1      29.588  66.982  -1.063  1.00  0.00     0.210 HD
ENDBRANCH   5  19
BRANCH   3  21
HETATM   21  C8  UNL     1      30.335  67.241   3.448  1.00  0.00     0.217 C 
BRANCH  21  22
HETATM   22  O2  UNL     1      30.550  68.562   3.839  1.00  0.00    -0.280 OA
BRANCH  22  23
HETATM   23  P1  UNL     1      30.784  68.714   5.487  1.00  0.00     0.422 P 
HETATM   24  O3  UNL     1      30.716  67.349   6.141  1.00  0.00    -0.617 OA
HETATM   25  O4  UNL     1      29.670  69.775   6.175  1.00  0.00    -0.617 OA
HETATM   26  O5  UNL     1      32.346  69.324   5.768  1.00  0.00    -0.617 OA
ENDBRANCH  22  23
ENDBRANCH  21  22
ENDBRANCH   3  21
BRANCH   4  27
HETATM   27  O6  UNL     1      28.506  67.200   0.670  1.00  0.00    -0.390 OA
ATOM     28  H6  UNL     1      28.581  68.116   0.911  1.00  0.00     0.210 HD
ENDBRANCH   4  27
TORSDOF 6
ENDMDL
