MODEL 4
REMARK VINA RESULT: -7.518222892      2.849      4.506
REMARK  6 active torsions:
REMARK  status: ('A' for Active; 'I' for Inactive)
REMARK    1  A    between atoms: N5_13  and  C6_14 
REMARK    2  A    between atoms: C7_16  and  C8_17 
REMARK    3  A    between atoms: C8_17  and  O2_18 
REMARK    4  A    between atoms: O2_18  and  P1_19 
REMARK    5  A    between atoms: C9_23  and  O6_24 
REMARK    6  A    between atoms: C10_26  and  O7_27 
ROOT
HETATM    1  C6  UNL     1      30.120  65.558   1.305  1.00  0.00     0.262 C 
HETATM    2  O1  UNL     1      31.190  65.096   2.012  1.00  0.00    -0.353 OA
HETATM    3  C7  UNL     1      31.884  64.184   1.252  1.00  0.00     0.180 C 
HETATM    4  C9  UNL     1      31.561  64.442  -0.184  1.00  0.00     0.182 C 
HETATM    5  C10 UNL     1      30.223  65.098  -0.112  1.00  0.00     0.198 C 
ENDROOT
BRANCH   1   6
HETATM    6  N5  UNL     1      30.003  67.006   1.391  1.00  0.00    -0.297 N 
HETATM    7  C3  UNL     1      30.141  67.804   2.474  1.00  0.00     0.142 A 
HETATM    8  N3  UNL     1      30.416  67.533   3.758  1.00  0.00    -0.336 N 
HETATM    9  C4  UNL     1      29.946  69.124   2.101  1.00  0.00     0.119 A 
HETATM   10  C2  UNL     1      30.503  68.512   4.669  1.00  0.00     0.183 A 
ATOM     11  H3  UNL     1      30.561  66.566   4.046  1.00  0.00     0.168 HD
HETATM   12  N2  UNL     1      30.311  69.783   4.284  1.00  0.00    -0.339 N 
HETATM   13  C1  UNL     1      30.032  70.156   3.025  1.00  0.00     0.148 A 
ATOM     14  H2  UNL     1      30.381  70.513   4.993  1.00  0.00     0.167 HD
HETATM   15  N1  UNL     1      29.837  71.517   2.675  1.00  0.00    -0.080 NA
HETATM   16  N4  UNL     1      29.693  69.109   0.794  1.00  0.00    -0.346 N 
HETATM   17  C5  UNL     1      29.727  67.836   0.368  1.00  0.00     0.188 A 
ATOM     18  H4  UNL     1      29.504  69.927   0.214  1.00  0.00     0.167 HD
ENDBRANCH   1   6
BRANCH   5  19
HETATM   19  O7  UNL     1      29.182  64.262  -0.501  1.00  0.00    -0.388 OA
ATOM     20  H7  UNL     1      29.476  63.449  -0.896  1.00  0.00     0.210 HD
ENDBRANCH   5  19
BRANCH   3  21
HETATM   21  C8  UNL     1      33.376  64.438   1.509  1.00  0.00     0.217 C 
BRANCH  21  22
HETATM   22  O2  UNL     1      33.691  63.856   2.737  1.00  0.00    -0.280 OA
BRANCH  22  23
HETATM   23  P1  UNL     1      34.793  62.609   2.591  1.00  0.00     0.422 P 
HETATM   24  O3  UNL     1      36.138  63.161   2.164  1.00  0.00    -0.617 OA
HETATM   25  O4  UNL     1      34.251  61.428   1.518  1.00  0.00    -0.617 OA
HETATM   26  O5  UNL     1      35.011  61.885   4.114  1.00  0.00    -0.617 OA
ENDBRANCH  22  23
ENDBRANCH  21  22
ENDBRANCH   3  21
BRANCH   4  27
HETATM   27  O6  UNL     1      31.438  63.277  -0.933  1.00  0.00    -0.390 OA
ATOM     28  H6  UNL     1      31.821  63.349  -1.799  1.00  0.00     0.210 HD
ENDBRANCH   4  27
TORSDOF 6
ENDMDL
