MODEL 5
REMARK VINA RESULT: -7.501889210      2.788      4.238
REMARK  6 active torsions:
REMARK  status: ('A' for Active; 'I' for Inactive)
REMARK    1  A    between atoms: N5_13  and  C6_14 
REMARK    2  A    between atoms: C7_16  and  C8_17 
REMARK    3  A    between atoms: C8_17  and  O2_18 
REMARK    4  A    between atoms: O2_18  and  P1_19 
REMARK    5  A    between atoms: C9_23  and  O6_24 
REMARK    6  A    between atoms: C10_26  and  O7_27 
ROOT
HETATM    1  C6  UNL     1      29.631  65.647   1.055  1.00  0.00     0.262 C 
HETATM    2  O1  UNL     1      30.640  65.102   1.791  1.00  0.00    -0.353 OA
HETATM    3  C7  UNL     1      31.393  64.270   0.995  1.00  0.00     0.180 C 
HETATM    4  C9  UNL     1      31.187  64.684  -0.425  1.00  0.00     0.182 C 
HETATM    5  C10 UNL     1      29.848  65.341  -0.391  1.00  0.00     0.198 C 
ENDROOT
BRANCH   1   6
HETATM    6  N5  UNL     1      29.508  67.078   1.287  1.00  0.00    -0.297 N 
HETATM    7  C3  UNL     1      29.809  67.785   2.400  1.00  0.00     0.142 A 
HETATM    8  N3  UNL     1      30.294  67.413   3.593  1.00  0.00    -0.336 N 
HETATM    9  C4  UNL     1      29.537  69.125   2.182  1.00  0.00     0.119 A 
HETATM   10  C2  UNL     1      30.514  68.313   4.562  1.00  0.00     0.183 A 
ATOM     11  H3  UNL     1      30.498  66.430   3.767  1.00  0.00     0.168 HD
HETATM   12  N2  UNL     1      30.243  69.607   4.328  1.00  0.00    -0.339 N 
HETATM   13  C1  UNL     1      29.757  70.077   3.168  1.00  0.00     0.148 A 
ATOM     14  H2  UNL     1      30.417  70.275   5.078  1.00  0.00     0.167 HD
HETATM   15  N1  UNL     1      29.488  71.457   2.976  1.00  0.00    -0.080 NA
HETATM   16  N4  UNL     1      29.074  69.215   0.937  1.00  0.00    -0.346 N 
HETATM   17  C5  UNL     1      29.057  67.984   0.400  1.00  0.00     0.188 A 
ATOM     18  H4  UNL     1      28.781  70.074   0.470  1.00  0.00     0.167 HD
ENDBRANCH   1   6
BRANCH   5  19
HETATM   19  O7  UNL     1      28.840  64.561  -0.950  1.00  0.00    -0.388 OA
ATOM     20  H7  UNL     1      29.080  63.648  -1.049  1.00  0.00     0.210 HD
ENDBRANCH   5  19
BRANCH   3  21
HETATM   21  C8  UNL     1      32.859  64.481   1.397  1.00  0.00     0.217 C 
BRANCH  21  22
HETATM   22  O2  UNL     1      33.359  63.246   1.806  1.00  0.00    -0.280 OA
BRANCH  22  23
HETATM   23  P1  UNL     1      34.665  63.392   2.839  1.00  0.00     0.422 P 
HETATM   24  O3  UNL     1      35.953  63.366   2.041  1.00  0.00    -0.617 OA
HETATM   25  O4  UNL     1      34.657  62.192   4.021  1.00  0.00    -0.617 OA
HETATM   26  O5  UNL     1      34.589  64.904   3.613  1.00  0.00    -0.617 OA
ENDBRANCH  22  23
ENDBRANCH  21  22
ENDBRANCH   3  21
BRANCH   4  27
HETATM   27  O6  UNL     1      31.124  63.608  -1.303  1.00  0.00    -0.390 OA
ATOM     28  H6  UNL     1      31.597  63.759  -2.113  1.00  0.00     0.210 HD
ENDBRANCH   4  27
TORSDOF 6
ENDMDL
