MODEL 20
REMARK VINA RESULT: -7.090653731      1.412      2.579
REMARK  6 active torsions:
REMARK  status: ('A' for Active; 'I' for Inactive)
REMARK    1  A    between atoms: N5_13  and  C6_14 
REMARK    2  A    between atoms: C7_16  and  C8_17 
REMARK    3  A    between atoms: C8_17  and  O2_18 
REMARK    4  A    between atoms: O2_18  and  P1_19 
REMARK    5  A    between atoms: C9_23  and  O6_24 
REMARK    6  A    between atoms: C10_26  and  O7_27 
ROOT
HETATM    1  C6  UNL     1      28.785  70.195   1.817  1.00  0.00     0.262 C 
HETATM    2  O1  UNL     1      28.611  68.857   1.622  1.00  0.00    -0.353 OA
HETATM    3  C7  UNL     1      29.474  68.419   0.644  1.00  0.00     0.180 C 
HETATM    4  C9  UNL     1      30.606  69.390   0.562  1.00  0.00     0.182 C 
HETATM    5  C10 UNL     1      30.002  70.652   1.083  1.00  0.00     0.198 C 
ENDROOT
BRANCH   1   6
HETATM    6  N5  UNL     1      28.856  70.527   3.231  1.00  0.00    -0.297 N 
HETATM    7  C3  UNL     1      28.077  71.374   3.943  1.00  0.00     0.142 A 
HETATM    8  N3  UNL     1      27.039  72.146   3.591  1.00  0.00    -0.336 N 
HETATM    9  C4  UNL     1      28.498  71.388   5.262  1.00  0.00     0.119 A 
HETATM   10  C2  UNL     1      26.413  72.918   4.491  1.00  0.00     0.183 A 
ATOM     11  H3  UNL     1      26.719  72.145   2.623  1.00  0.00     0.168 HD
HETATM   12  N2  UNL     1      26.839  72.914   5.765  1.00  0.00    -0.339 N 
HETATM   13  C1  UNL     1      27.867  72.177   6.214  1.00  0.00     0.148 A 
ATOM     14  H2  UNL     1      26.349  73.509   6.433  1.00  0.00     0.167 HD
HETATM   15  N1  UNL     1      28.274  72.214   7.573  1.00  0.00    -0.080 NA
HETATM   16  N4  UNL     1      29.527  70.547   5.335  1.00  0.00    -0.346 N 
HETATM   17  C5  UNL     1      29.742  70.030   4.114  1.00  0.00     0.188 A 
ATOM     18  H4  UNL     1      30.063  70.332   6.176  1.00  0.00     0.167 HD
ENDBRANCH   1   6
BRANCH   5  19
HETATM   19  O7  UNL     1      29.732  71.582   0.084  1.00  0.00    -0.388 OA
ATOM     20  H7  UNL     1      30.216  71.428  -0.718  1.00  0.00     0.210 HD
ENDBRANCH   5  19
BRANCH   3  21
HETATM   21  C8  UNL     1      29.990  67.045   1.093  1.00  0.00     0.217 C 
BRANCH  21  22
HETATM   22  O2  UNL     1      31.384  67.109   1.103  1.00  0.00    -0.280 OA
BRANCH  22  23
HETATM   23  P1  UNL     1      32.091  65.618   1.366  1.00  0.00     0.422 P 
HETATM   24  O3  UNL     1      33.222  65.407   0.380  1.00  0.00    -0.617 OA
HETATM   25  O4  UNL     1      30.961  64.372   1.273  1.00  0.00    -0.617 OA
HETATM   26  O5  UNL     1      32.777  65.600   2.922  1.00  0.00    -0.617 OA
ENDBRANCH  22  23
ENDBRANCH  21  22
ENDBRANCH   3  21
BRANCH   4  27
HETATM   27  O6  UNL     1      31.037  69.616  -0.740  1.00  0.00    -0.390 OA
ATOM     28  H6  UNL     1      31.984  69.645  -0.819  1.00  0.00     0.210 HD
ENDBRANCH   4  27
TORSDOF 6
ENDMDL
