MODEL 4
REMARK VINA RESULT: -5.847106765      0.984      3.642
REMARK  3 active torsions:
REMARK  status: ('A' for Active; 'I' for Inactive)
REMARK    1  A    between atoms: C1_2  and  C2_4 
REMARK    2  A    between atoms: C6_8  and  O3_9 
REMARK    3  A    between atoms: C7_11  and  O4_12 
ROOT
HETATM    1  C2  UNL     1      27.673  80.548  62.220  1.00  0.00     0.076 A 
HETATM    2  C3  UNL     1      26.603  80.872  61.418  1.00  0.00     0.021 A 
HETATM    3  C4  UNL     1      25.615  79.949  61.155  1.00  0.00     0.004 A 
HETATM    4  C5  UNL     1      25.661  78.677  61.681  1.00  0.00     0.039 A 
HETATM    5  C6  UNL     1      26.759  78.366  62.494  1.00  0.00     0.099 A 
HETATM    6  C7  UNL     1      27.746  79.275  62.763  1.00  0.00     0.116 A 
ENDROOT
BRANCH   1   7
HETATM    7  C1  UNL     1      28.728  81.516  62.508  1.00  0.00     0.212 C 
HETATM    8  O1  UNL     1      29.850  81.409  61.972  1.00  0.00    -0.644 OA
HETATM    9  O2  UNL     1      28.540  82.581  63.374  1.00  0.00    -0.644 OA
ENDBRANCH   1   7
BRANCH   6  10
HETATM   10  O4  UNL     1      28.849  79.015  63.560  1.00  0.00    -0.357 OA
ATOM     11  H4  UNL     1      28.902  79.504  64.372  1.00  0.00     0.217 HD
ENDBRANCH   6  10
BRANCH   5  12
HETATM   12  O3  UNL     1      26.815  77.090  63.027  1.00  0.00    -0.358 OA
ATOM     13  H3  UNL     1      27.431  76.937  63.733  1.00  0.00     0.217 HD
ENDBRANCH   5  12
TORSDOF 3
ENDMDL
