MODEL 6
REMARK VINA RESULT: -5.819377998      4.631      5.621
REMARK  3 active torsions:
REMARK  status: ('A' for Active; 'I' for Inactive)
REMARK    1  A    between atoms: C1_2  and  C2_4 
REMARK    2  A    between atoms: C6_8  and  O3_9 
REMARK    3  A    between atoms: C7_11  and  O4_12 
ROOT
HETATM    1  C2  UNL     1      26.443  75.126  65.537  1.00  0.00     0.076 A 
HETATM    2  C3  UNL     1      25.568  74.096  65.796  1.00  0.00     0.021 A 
HETATM    3  C4  UNL     1      24.542  74.254  66.702  1.00  0.00     0.004 A 
HETATM    4  C5  UNL     1      24.357  75.439  67.377  1.00  0.00     0.039 A 
HETATM    5  C6  UNL     1      25.258  76.477  67.100  1.00  0.00     0.099 A 
HETATM    6  C7  UNL     1      26.280  76.330  66.202  1.00  0.00     0.116 A 
ENDROOT
BRANCH   1   7
HETATM    7  C1  UNL     1      27.535  74.973  64.579  1.00  0.00     0.212 C 
HETATM    8  O1  UNL     1      28.396  74.084  64.737  1.00  0.00    -0.644 OA
HETATM    9  O2  UNL     1      27.666  75.791  63.469  1.00  0.00    -0.644 OA
ENDBRANCH   1   7
BRANCH   6  10
HETATM   10  O4  UNL     1      27.195  77.325  65.894  1.00  0.00    -0.357 OA
ATOM     11  H4  UNL     1      27.012  78.186  66.251  1.00  0.00     0.217 HD
ENDBRANCH   6  10
BRANCH   5  12
HETATM   12  O3  UNL     1      25.079  77.672  67.774  1.00  0.00    -0.358 OA
ATOM     13  H3  UNL     1      24.499  77.667  68.526  1.00  0.00     0.217 HD
ENDBRANCH   5  12
TORSDOF 3
ENDMDL
