MODEL 14
REMARK VINA RESULT: -5.220557790      5.012      6.258
REMARK  3 active torsions:
REMARK  status: ('A' for Active; 'I' for Inactive)
REMARK    1  A    between atoms: C1_2  and  C2_4 
REMARK    2  A    between atoms: C6_8  and  O3_9 
REMARK    3  A    between atoms: C7_11  and  O4_12 
ROOT
HETATM    1  C2  UNL     1      25.238  76.265  67.265  1.00  0.00     0.076 A 
HETATM    2  C3  UNL     1      24.248  75.333  67.477  1.00  0.00     0.021 A 
HETATM    3  C4  UNL     1      24.248  74.136  66.795  1.00  0.00     0.004 A 
HETATM    4  C5  UNL     1      25.232  73.831  65.881  1.00  0.00     0.039 A 
HETATM    5  C6  UNL     1      26.231  74.793  65.678  1.00  0.00     0.099 A 
HETATM    6  C7  UNL     1      26.240  75.984  66.351  1.00  0.00     0.116 A 
ENDROOT
BRANCH   1   7
HETATM    7  C1  UNL     1      25.251  77.537  67.982  1.00  0.00     0.212 C 
HETATM    8  O1  UNL     1      24.242  78.271  67.986  1.00  0.00    -0.644 OA
HETATM    9  O2  UNL     1      26.362  77.984  68.678  1.00  0.00    -0.644 OA
ENDBRANCH   1   7
BRANCH   6  10
HETATM   10  O4  UNL     1      27.205  76.965  66.185  1.00  0.00    -0.357 OA
ATOM     11  H4  UNL     1      27.398  77.496  66.949  1.00  0.00     0.217 HD
ENDBRANCH   6  10
BRANCH   5  12
HETATM   12  O3  UNL     1      27.224  74.495  64.761  1.00  0.00    -0.358 OA
ATOM     13  H3  UNL     1      27.966  75.086  64.712  1.00  0.00     0.217 HD
ENDBRANCH   5  12
TORSDOF 3
ENDMDL
