MODEL 12
REMARK VINA RESULT: -5.342270178      1.421      3.266
REMARK  3 active torsions:
REMARK  status: ('A' for Active; 'I' for Inactive)
REMARK    1  A    between atoms: C1_2  and  C2_4 
REMARK    2  A    between atoms: C6_8  and  O3_9 
REMARK    3  A    between atoms: C7_11  and  O4_12 
ROOT
HETATM    1  C2  UNL     1      28.067  80.373  63.038  1.00  0.00     0.076 A 
HETATM    2  C3  UNL     1      27.379  81.242  62.222  1.00  0.00     0.021 A 
HETATM    3  C4  UNL     1      26.399  80.782  61.370  1.00  0.00     0.004 A 
HETATM    4  C5  UNL     1      26.076  79.445  61.303  1.00  0.00     0.039 A 
HETATM    5  C6  UNL     1      26.788  78.576  62.141  1.00  0.00     0.099 A 
HETATM    6  C7  UNL     1      27.763  79.023  62.991  1.00  0.00     0.116 A 
ENDROOT
BRANCH   1   7
HETATM    7  C1  UNL     1      29.108  80.847  63.946  1.00  0.00     0.212 C 
HETATM    8  O1  UNL     1      28.931  80.819  65.181  1.00  0.00    -0.644 OA
HETATM    9  O2  UNL     1      30.319  81.343  63.491  1.00  0.00    -0.644 OA
ENDBRANCH   1   7
BRANCH   6  10
HETATM   10  O4  UNL     1      28.493  78.204  63.838  1.00  0.00    -0.357 OA
ATOM     11  H4  UNL     1      29.171  77.679  63.429  1.00  0.00     0.217 HD
ENDBRANCH   6  10
BRANCH   5  12
HETATM   12  O3  UNL     1      26.470  77.230  62.080  1.00  0.00    -0.358 OA
ATOM     13  H3  UNL     1      26.918  76.648  62.681  1.00  0.00     0.217 HD
ENDBRANCH   5  12
TORSDOF 3
ENDMDL
