MODEL 10
REMARK VINA RESULT: -5.430769147      1.307      3.394
REMARK  3 active torsions:
REMARK  status: ('A' for Active; 'I' for Inactive)
REMARK    1  A    between atoms: C1_2  and  C2_4 
REMARK    2  A    between atoms: C6_8  and  O3_9 
REMARK    3  A    between atoms: C7_11  and  O4_12 
ROOT
HETATM    1  C2  UNL     1      27.857  80.478  62.813  1.00  0.00     0.076 A 
HETATM    2  C3  UNL     1      27.055  81.206  61.964  1.00  0.00     0.021 A 
HETATM    3  C4  UNL     1      26.098  80.584  61.192  1.00  0.00     0.004 A 
HETATM    4  C5  UNL     1      25.911  79.220  61.242  1.00  0.00     0.039 A 
HETATM    5  C6  UNL     1      26.738  78.496  62.112  1.00  0.00     0.099 A 
HETATM    6  C7  UNL     1      27.691  79.105  62.883  1.00  0.00     0.116 A 
ENDROOT
BRANCH   1   7
HETATM    7  C1  UNL     1      28.875  81.125  63.637  1.00  0.00     0.212 C 
HETATM    8  O1  UNL     1      29.813  81.754  63.107  1.00  0.00    -0.644 OA
HETATM    9  O2  UNL     1      28.849  81.074  65.021  1.00  0.00    -0.644 OA
ENDBRANCH   1   7
BRANCH   6  10
HETATM   10  O4  UNL     1      28.531  78.434  63.757  1.00  0.00    -0.357 OA
ATOM     11  H4  UNL     1      28.735  78.883  64.569  1.00  0.00     0.217 HD
ENDBRANCH   6  10
BRANCH   5  12
HETATM   12  O3  UNL     1      26.557  77.126  62.168  1.00  0.00    -0.358 OA
ATOM     13  H3  UNL     1      27.204  76.619  62.643  1.00  0.00     0.217 HD
ENDBRANCH   5  12
TORSDOF 3
ENDMDL
