MODEL 17
REMARK VINA RESULT: -4.973832534      5.143      6.276
REMARK  3 active torsions:
REMARK  status: ('A' for Active; 'I' for Inactive)
REMARK    1  A    between atoms: C1_2  and  C2_4 
REMARK    2  A    between atoms: C6_8  and  O3_9 
REMARK    3  A    between atoms: C7_11  and  O4_12 
ROOT
HETATM    1  C2  UNL     1      25.205  76.325  67.498  1.00  0.00     0.076 A 
HETATM    2  C3  UNL     1      24.243  75.342  67.459  1.00  0.00     0.021 A 
HETATM    3  C4  UNL     1      24.385  74.249  66.632  1.00  0.00     0.004 A 
HETATM    4  C5  UNL     1      25.487  74.103  65.819  1.00  0.00     0.039 A 
HETATM    5  C6  UNL     1      26.456  75.114  65.873  1.00  0.00     0.099 A 
HETATM    6  C7  UNL     1      26.325  76.203  66.692  1.00  0.00     0.116 A 
ENDROOT
BRANCH   1   7
HETATM    7  C1  UNL     1      25.068  77.488  68.371  1.00  0.00     0.212 C 
HETATM    8  O1  UNL     1      25.783  77.606  69.387  1.00  0.00    -0.644 OA
HETATM    9  O2  UNL     1      24.154  78.498  68.120  1.00  0.00    -0.644 OA
ENDBRANCH   1   7
BRANCH   6  10
HETATM   10  O4  UNL     1      27.254  77.228  66.780  1.00  0.00    -0.357 OA
ATOM     11  H4  UNL     1      28.028  77.138  66.237  1.00  0.00     0.217 HD
ENDBRANCH   6  10
BRANCH   5  12
HETATM   12  O3  UNL     1      27.567  74.975  65.059  1.00  0.00    -0.358 OA
ATOM     13  H3  UNL     1      28.292  75.571  65.204  1.00  0.00     0.217 HD
ENDBRANCH   5  12
TORSDOF 3
ENDMDL
