MODEL 4
REMARK VINA RESULT: -9.256189095      2.362      4.882
REMARK  7 active torsions:
REMARK  status: ('A' for Active; 'I' for Inactive)
REMARK    1  A    between atoms: C1_2  and  C2_4 
REMARK    2  A    between atoms: C2_4  and  C3_5 
REMARK    3  A    between atoms: C3_5  and  C4_6 
REMARK    4  A    between atoms: C4_6  and  C5_7 
REMARK       I    between atoms: C5_7  and  N1_9 
REMARK    5  A    between atoms: N2_12  and  C8_13 
REMARK    6  A    between atoms: C8_13  and  C9_14 
REMARK    7  A    between atoms: C8_13  and  C15_20 
ROOT
HETATM    1  C5  UNL     1       5.961  27.113   8.687  1.00  0.00     0.220 C 
HETATM    2  O3  UNL     1       6.504  26.094   8.121  1.00  0.00    -0.273 OA
HETATM    3  N1  UNL     1       4.965  27.775   7.949  1.00  0.00    -0.349 N 
HETATM    4  C6  UNL     1       4.573  27.361   6.610  1.00  0.00     0.156 C 
HETATM    5  C7  UNL     1       3.886  28.433   5.831  1.00  0.00     0.293 C 
HETATM    6  N2  UNL     1       2.765  29.028   6.508  1.00  0.00     0.105 N 
HETATM    7  C21 UNL     1       2.880  29.107   7.914  1.00  0.00     0.293 C 
HETATM    8  C22 UNL     1       4.261  28.898   8.486  1.00  0.00     0.156 C 
ENDROOT
BRANCH   6   9
HETATM    9  C8  UNL     1       1.545  28.298   6.207  1.00  0.00     0.289 C 
BRANCH   9  10
HETATM   10  C9  UNL     1       0.823  28.002   7.489  1.00  0.00    -0.021 A 
HETATM   11  C10 UNL     1       1.065  26.835   8.161  1.00  0.00     0.010 A 
HETATM   12  C11 UNL     1       0.416  26.509   9.349  1.00  0.00     0.001 A 
HETATM   13  C12 UNL     1      -0.491  27.377   9.869  1.00  0.00     0.000 A 
HETATM   14  C13 UNL     1      -0.756  28.567   9.208  1.00  0.00     0.001 A 
HETATM   15  C14 UNL     1      -0.108  28.877   8.034  1.00  0.00     0.010 A 
ENDBRANCH   9  10
BRANCH   9  16
HETATM   16  C15 UNL     1       0.670  28.961   5.229  1.00  0.00    -0.021 A 
HETATM   17  C16 UNL     1      -0.310  28.203   4.599  1.00  0.00     0.010 A 
HETATM   18  C17 UNL     1      -1.144  28.790   3.684  1.00  0.00     0.001 A 
HETATM   19  C18 UNL     1      -1.016  30.116   3.389  1.00  0.00     0.000 A 
HETATM   20  C19 UNL     1      -0.055  30.859   4.005  1.00  0.00     0.001 A 
HETATM   21  C20 UNL     1       0.791  30.291   4.925  1.00  0.00     0.010 A 
ENDBRANCH   9  16
ENDBRANCH   6   9
BRANCH   1  22
HETATM   22  C4  UNL     1       6.434  27.453  10.001  1.00  0.00     0.113 C 
BRANCH  22  23
HETATM   23  C3  UNL     1       7.742  26.961  10.485  1.00  0.00    -0.023 C 
HETATM   24  C23 UNL     1       8.815  27.725   9.667  1.00  0.00     0.010 C 
HETATM   25  C24 UNL     1      10.047  27.503  10.490  1.00  0.00     0.001 C 
HETATM   26  C25 UNL     1       9.570  27.366  11.931  1.00  0.00     0.001 C 
HETATM   27  C26 UNL     1       8.069  27.522  11.871  1.00  0.00     0.010 C 
BRANCH  23  28
HETATM   28  C2  UNL     1       8.061  25.541  10.369  1.00  0.00     0.123 C 
BRANCH  28  29
HETATM   29  C1  UNL     1       7.367  24.546  11.158  1.00  0.00     0.173 C 
HETATM   30  O1  UNL     1       6.270  24.023  10.881  1.00  0.00    -0.648 OA
HETATM   31  O2  UNL     1       7.934  24.070  12.381  1.00  0.00    -0.648 OA
ENDBRANCH  28  29
ENDBRANCH  23  28
ENDBRANCH  22  23
ENDBRANCH   1  22
TORSDOF 7
ENDMDL
