MODEL 12
REMARK VINA RESULT: -8.664187779      2.518      8.982
REMARK  7 active torsions:
REMARK  status: ('A' for Active; 'I' for Inactive)
REMARK    1  A    between atoms: C1_2  and  C2_4 
REMARK    2  A    between atoms: C2_4  and  C3_5 
REMARK    3  A    between atoms: C3_5  and  C4_6 
REMARK    4  A    between atoms: C4_6  and  C5_7 
REMARK       I    between atoms: C5_7  and  N1_9 
REMARK    5  A    between atoms: N2_12  and  C8_13 
REMARK    6  A    between atoms: C8_13  and  C9_14 
REMARK    7  A    between atoms: C8_13  and  C15_20 
ROOT
HETATM    1  C5  UNL     1       1.099  28.221   8.084  1.00  0.00     0.220 C 
HETATM    2  O3  UNL     1       0.928  29.136   8.970  1.00  0.00    -0.273 OA
HETATM    3  N1  UNL     1       2.418  27.769   7.906  1.00  0.00    -0.349 N 
HETATM    4  C6  UNL     1       3.542  28.311   8.655  1.00  0.00     0.156 C 
HETATM    5  C7  UNL     1       4.864  28.068   8.006  1.00  0.00     0.293 C 
HETATM    6  N2  UNL     1       5.114  26.691   7.674  1.00  0.00     0.105 N 
HETATM    7  C21 UNL     1       3.974  25.939   7.311  1.00  0.00     0.293 C 
HETATM    8  C22 UNL     1       2.730  26.728   6.977  1.00  0.00     0.156 C 
ENDROOT
BRANCH   6   9
HETATM    9  C8  UNL     1       5.754  26.010   8.787  1.00  0.00     0.289 C 
BRANCH   9  10
HETATM   10  C9  UNL     1       6.387  24.743   8.287  1.00  0.00    -0.021 A 
HETATM   11  C10 UNL     1       6.623  23.706   9.147  1.00  0.00     0.010 A 
HETATM   12  C11 UNL     1       7.214  22.515   8.735  1.00  0.00     0.001 A 
HETATM   13  C12 UNL     1       7.572  22.368   7.432  1.00  0.00     0.000 A 
HETATM   14  C13 UNL     1       7.344  23.403   6.539  1.00  0.00     0.001 A 
HETATM   15  C14 UNL     1       6.759  24.576   6.959  1.00  0.00     0.010 A 
ENDBRANCH   9  10
BRANCH   9  16
HETATM   16  C15 UNL     1       6.711  26.839   9.534  1.00  0.00    -0.021 A 
HETATM   17  C16 UNL     1       8.049  26.806   9.156  1.00  0.00     0.010 A 
HETATM   18  C17 UNL     1       8.967  27.568   9.830  1.00  0.00     0.001 A 
HETATM   19  C18 UNL     1       8.574  28.359  10.870  1.00  0.00     0.000 A 
HETATM   20  C19 UNL     1       7.263  28.390  11.241  1.00  0.00     0.001 A 
HETATM   21  C20 UNL     1       6.327  27.635  10.580  1.00  0.00     0.010 A 
ENDBRANCH   9  16
ENDBRANCH   6   9
BRANCH   1  22
HETATM   22  C4  UNL     1      -0.073  27.769   7.383  1.00  0.00     0.113 C 
BRANCH  22  23
HETATM   23  C3  UNL     1      -0.746  28.640   6.396  1.00  0.00    -0.023 C 
HETATM   24  C23 UNL     1       0.360  29.118   5.422  1.00  0.00     0.010 C 
HETATM   25  C24 UNL     1      -0.444  29.608   4.257  1.00  0.00     0.001 C 
HETATM   26  C25 UNL     1      -1.717  28.768   4.243  1.00  0.00     0.001 C 
HETATM   27  C26 UNL     1      -1.581  27.819   5.409  1.00  0.00     0.010 C 
BRANCH  23  28
HETATM   28  C2  UNL     1      -1.444  29.837   6.856  1.00  0.00     0.123 C 
BRANCH  28  29
HETATM   29  C1  UNL     1      -2.323  29.802   8.006  1.00  0.00     0.173 C 
HETATM   30  O1  UNL     1      -2.157  30.418   9.077  1.00  0.00    -0.648 OA
HETATM   31  O2  UNL     1      -3.513  29.010   7.982  1.00  0.00    -0.648 OA
ENDBRANCH  28  29
ENDBRANCH  23  28
ENDBRANCH  22  23
ENDBRANCH   1  22
TORSDOF 7
ENDMDL
