MODEL 16
REMARK VINA RESULT: -8.529637152      4.117     10.507
REMARK  7 active torsions:
REMARK  status: ('A' for Active; 'I' for Inactive)
REMARK    1  A    between atoms: C1_2  and  C2_4 
REMARK    2  A    between atoms: C2_4  and  C3_5 
REMARK    3  A    between atoms: C3_5  and  C4_6 
REMARK    4  A    between atoms: C4_6  and  C5_7 
REMARK       I    between atoms: C5_7  and  N1_9 
REMARK    5  A    between atoms: N2_12  and  C8_13 
REMARK    6  A    between atoms: C8_13  and  C9_14 
REMARK    7  A    between atoms: C8_13  and  C15_20 
ROOT
HETATM    1  C5  UNL     1       4.677  27.111   8.918  1.00  0.00     0.220 C 
HETATM    2  O3  UNL     1       4.540  25.959   8.365  1.00  0.00    -0.273 OA
HETATM    3  N1  UNL     1       5.771  27.256   9.787  1.00  0.00    -0.349 N 
HETATM    4  C6  UNL     1       6.694  26.169  10.077  1.00  0.00     0.156 C 
HETATM    5  C7  UNL     1       7.461  26.359  11.343  1.00  0.00     0.293 C 
HETATM    6  N2  UNL     1       8.146  27.621  11.434  1.00  0.00     0.105 N 
HETATM    7  C21 UNL     1       7.499  28.707  10.802  1.00  0.00     0.293 C 
HETATM    8  C22 UNL     1       6.050  28.501  10.433  1.00  0.00     0.156 C 
ENDROOT
BRANCH   6   9
HETATM    9  C8  UNL     1       9.481  27.515  10.869  1.00  0.00     0.289 C 
BRANCH   9  10
HETATM   10  C9  UNL     1      10.356  28.570  11.482  1.00  0.00    -0.021 A 
HETATM   11  C10 UNL     1      11.404  29.089  10.773  1.00  0.00     0.010 A 
HETATM   12  C11 UNL     1      12.251  30.063  11.298  1.00  0.00     0.001 A 
HETATM   13  C12 UNL     1      12.033  30.520  12.559  1.00  0.00     0.000 A 
HETATM   14  C13 UNL     1      10.978  30.010  13.300  1.00  0.00     0.001 A 
HETATM   15  C14 UNL     1      10.149  29.048  12.769  1.00  0.00     0.010 A 
ENDBRANCH   9  10
BRANCH   9  16
HETATM   16  C15 UNL     1      10.080  26.177  10.982  1.00  0.00    -0.021 A 
HETATM   17  C16 UNL     1      10.367  25.481   9.813  1.00  0.00     0.010 A 
HETATM   18  C17 UNL     1      10.928  24.232   9.882  1.00  0.00     0.001 A 
HETATM   19  C18 UNL     1      11.205  23.670  11.094  1.00  0.00     0.000 A 
HETATM   20  C19 UNL     1      10.923  24.351  12.239  1.00  0.00     0.001 A 
HETATM   21  C20 UNL     1      10.361  25.603  12.193  1.00  0.00     0.010 A 
ENDBRANCH   9  16
ENDBRANCH   6   9
BRANCH   1  22
HETATM   22  C4  UNL     1       3.699  28.111   8.582  1.00  0.00     0.113 C 
BRANCH  22  23
HETATM   23  C3  UNL     1       3.005  28.082   7.277  1.00  0.00    -0.023 C 
HETATM   24  C23 UNL     1       1.605  27.476   7.551  1.00  0.00     0.010 C 
HETATM   25  C24 UNL     1       0.848  27.876   6.321  1.00  0.00     0.001 C 
HETATM   26  C25 UNL     1       1.472  29.186   5.853  1.00  0.00     0.001 C 
HETATM   27  C26 UNL     1       2.566  29.485   6.849  1.00  0.00     0.010 C 
BRANCH  23  28
HETATM   28  C2  UNL     1       3.583  27.319   6.175  1.00  0.00     0.123 C 
BRANCH  28  29
HETATM   29  C1  UNL     1       4.907  27.611   5.669  1.00  0.00     0.173 C 
HETATM   30  O1  UNL     1       5.425  28.740   5.571  1.00  0.00    -0.648 OA
HETATM   31  O2  UNL     1       5.759  26.552   5.222  1.00  0.00    -0.648 OA
ENDBRANCH  28  29
ENDBRANCH  23  28
ENDBRANCH  22  23
ENDBRANCH   1  22
TORSDOF 7
ENDMDL
