MODEL 15
REMARK VINA RESULT: -8.546540078      1.283      3.590
REMARK  7 active torsions:
REMARK  status: ('A' for Active; 'I' for Inactive)
REMARK    1  A    between atoms: C1_2  and  C2_4 
REMARK    2  A    between atoms: C2_4  and  C3_5 
REMARK    3  A    between atoms: C3_5  and  C4_6 
REMARK    4  A    between atoms: C4_6  and  C5_7 
REMARK       I    between atoms: C5_7  and  N1_9 
REMARK    5  A    between atoms: N2_12  and  C8_13 
REMARK    6  A    between atoms: C8_13  and  C9_14 
REMARK    7  A    between atoms: C8_13  and  C15_20 
ROOT
HETATM    1  C5  UNL     1       3.933  26.737   6.384  1.00  0.00     0.220 C 
HETATM    2  O3  UNL     1       4.527  26.984   5.271  1.00  0.00    -0.273 OA
HETATM    3  N1  UNL     1       2.743  27.444   6.623  1.00  0.00    -0.349 N 
HETATM    4  C6  UNL     1       2.210  28.424   5.687  1.00  0.00     0.156 C 
HETATM    5  C7  UNL     1       1.253  29.385   6.311  1.00  0.00     0.293 C 
HETATM    6  N2  UNL     1       0.177  28.761   7.034  1.00  0.00     0.105 N 
HETATM    7  C21 UNL     1       0.502  27.540   7.668  1.00  0.00     0.293 C 
HETATM    8  C22 UNL     1       1.973  27.229   7.809  1.00  0.00     0.156 C 
ENDROOT
BRANCH   6   9
HETATM    9  C8  UNL     1      -0.950  28.512   6.151  1.00  0.00     0.289 C 
BRANCH   9  10
HETATM   10  C9  UNL     1      -2.224  28.801   6.891  1.00  0.00    -0.021 A 
HETATM   11  C10 UNL     1      -3.391  28.197   6.511  1.00  0.00     0.010 A 
HETATM   12  C11 UNL     1      -4.601  28.437   7.159  1.00  0.00     0.001 A 
HETATM   13  C12 UNL     1      -4.631  29.299   8.209  1.00  0.00     0.000 A 
HETATM   14  C13 UNL     1      -3.462  29.924   8.615  1.00  0.00     0.001 A 
HETATM   15  C14 UNL     1      -2.273  29.679   7.966  1.00  0.00     0.010 A 
ENDBRANCH   9  10
BRANCH   9  16
HETATM   16  C15 UNL     1      -0.887  29.234   4.872  1.00  0.00    -0.021 A 
HETATM   17  C16 UNL     1      -1.237  28.555   3.711  1.00  0.00     0.010 A 
HETATM   18  C17 UNL     1      -1.192  29.199   2.503  1.00  0.00     0.001 A 
HETATM   19  C18 UNL     1      -0.804  30.505   2.435  1.00  0.00     0.000 A 
HETATM   20  C19 UNL     1      -0.460  31.172   3.572  1.00  0.00     0.001 A 
HETATM   21  C20 UNL     1      -0.499  30.546   4.793  1.00  0.00     0.010 A 
ENDBRANCH   9  16
ENDBRANCH   6   9
BRANCH   1  22
HETATM   22  C4  UNL     1       4.554  25.769   7.249  1.00  0.00     0.113 C 
BRANCH  22  23
HETATM   23  C3  UNL     1       4.798  24.387   6.784  1.00  0.00    -0.023 C 
HETATM   24  C23 UNL     1       3.409  23.699   6.739  1.00  0.00     0.010 C 
HETATM   25  C24 UNL     1       3.683  22.505   5.877  1.00  0.00     0.001 C 
HETATM   26  C25 UNL     1       4.802  22.920   4.928  1.00  0.00     0.001 C 
HETATM   27  C26 UNL     1       5.119  24.352   5.288  1.00  0.00     0.010 C 
BRANCH  23  28
HETATM   28  C2  UNL     1       5.671  23.514   7.562  1.00  0.00     0.123 C 
BRANCH  28  29
HETATM   29  C1  UNL     1       6.672  24.052   8.458  1.00  0.00     0.173 C 
HETATM   30  O1  UNL     1       7.726  24.627   8.123  1.00  0.00    -0.648 OA
HETATM   31  O2  UNL     1       6.502  23.953   9.874  1.00  0.00    -0.648 OA
ENDBRANCH  28  29
ENDBRANCH  23  28
ENDBRANCH  22  23
ENDBRANCH   1  22
TORSDOF 7
ENDMDL
