MODEL 9
REMARK VINA RESULT: -9.288542660      1.329      2.091
REMARK  6 active torsions:
REMARK  status: ('A' for Active; 'I' for Inactive)
REMARK    1  A    between atoms: C1_2  and  C2_4 
REMARK    2  A    between atoms: C7_9  and  C8_10 
REMARK       I    between atoms: C8_10  and  N1_12 
REMARK    3  A    between atoms: N1_12  and  C9_14 
REMARK    4  A    between atoms: C9_14  and  C10_15 
REMARK    5  A    between atoms: C15_21  and  S1_22 
REMARK    6  A    between atoms: S1_22  and  C16_23 
ROOT
HETATM    1  C10 UNL     1      -2.425 -29.060   5.664  1.00  0.00    -0.002 A 
HETATM    2  C11 UNL     1      -3.161 -30.057   5.077  1.00  0.00     0.043 A 
HETATM    3 CL1  UNL     1      -4.932 -29.960   5.024  1.00  0.00    -0.084 Cl
HETATM    4  C12 UNL     1      -2.587 -31.171   4.506  1.00  0.00     0.024 A 
HETATM    5  C13 UNL     1      -1.209 -31.303   4.512  1.00  0.00     0.003 A 
HETATM    6  C14 UNL     1      -0.462 -30.306   5.095  1.00  0.00     0.019 A 
HETATM    7  C15 UNL     1      -1.033 -29.191   5.668  1.00  0.00     0.015 A 
ENDROOT
BRANCH   1   8
HETATM    8  C9  UNL     1      -2.999 -27.860   6.265  1.00  0.00     0.164 C 
BRANCH   8   9
HETATM    9  N1  UNL     1      -4.137 -28.078   7.109  1.00  0.00    -0.352 N 
HETATM   10  C8  UNL     1      -4.126 -28.027   8.543  1.00  0.00     0.253 C 
HETATM   11  O3  UNL     1      -2.985 -27.800   9.060  1.00  0.00    -0.268 OA
ATOM     12  H1  UNL     1      -5.027 -28.285   6.654  1.00  0.00     0.163 HD
BRANCH  10  13
HETATM   13  C7  UNL     1      -5.321 -28.228   9.353  1.00  0.00     0.049 A 
HETATM   14  C2  UNL     1      -6.107 -27.168   9.761  1.00  0.00     0.056 A 
HETATM   15  C3  UNL     1      -7.264 -27.386  10.492  1.00  0.00     0.019 A 
HETATM   16  C4  UNL     1      -7.673 -28.656  10.838  1.00  0.00     0.001 A 
HETATM   17  C5  UNL     1      -6.900 -29.745  10.443  1.00  0.00     0.001 A 
HETATM   18  C6  UNL     1      -5.764 -29.510   9.723  1.00  0.00     0.018 A 
BRANCH  14  19
HETATM   19  C1  UNL     1      -5.659 -25.808   9.416  1.00  0.00     0.210 C 
HETATM   20  O1  UNL     1      -5.685 -24.908  10.262  1.00  0.00    -0.644 OA
HETATM   21  O2  UNL     1      -5.195 -25.499   8.130  1.00  0.00    -0.644 OA
ENDBRANCH  14  19
ENDBRANCH  10  13
ENDBRANCH   8   9
ENDBRANCH   1   8
BRANCH   7  22
HETATM   22  S1  UNL     1       0.031 -27.918   6.305  1.00  0.00    -0.088 SA
BRANCH  22  23
HETATM   23  C16 UNL     1       1.516 -28.578   7.001  1.00  0.00     0.027 A 
HETATM   24  C17 UNL     1       2.666 -28.450   6.283  1.00  0.00     0.022 A 
HETATM   25  C18 UNL     1       3.857 -28.940   6.766  1.00  0.00     0.025 A 
HETATM   26  C19 UNL     1       3.918 -29.576   8.003  1.00  0.00     0.035 A 
HETATM   27 CL2  UNL     1       5.455 -30.187   8.592  1.00  0.00    -0.084 Cl
HETATM   28  C20 UNL     1       2.746 -29.698   8.726  1.00  0.00     0.049 A 
HETATM   29  C21 UNL     1       1.565 -29.201   8.224  1.00  0.00     0.052 A 
HETATM   30 CL3  UNL     1       0.091 -29.359   9.197  1.00  0.00    -0.083 Cl
ENDBRANCH  22  23
ENDBRANCH   7  22
TORSDOF 6
ENDMDL
