MODEL 4
REMARK VINA RESULT: -9.651963551      3.730      8.432
REMARK  6 active torsions:
REMARK  status: ('A' for Active; 'I' for Inactive)
REMARK    1  A    between atoms: C1_2  and  C2_4 
REMARK    2  A    between atoms: C7_9  and  C8_10 
REMARK       I    between atoms: C8_10  and  N1_12 
REMARK    3  A    between atoms: N1_12  and  C9_14 
REMARK    4  A    between atoms: C9_14  and  C10_15 
REMARK    5  A    between atoms: C15_21  and  S1_22 
REMARK    6  A    between atoms: S1_22  and  C16_23 
ROOT
HETATM    1  C10 UNL     1      -5.521 -28.521   8.317  1.00  0.00    -0.002 A 
HETATM    2  C11 UNL     1      -5.934 -29.700   8.881  1.00  0.00     0.043 A 
HETATM    3 CL1  UNL     1      -5.660 -31.243   8.049  1.00  0.00    -0.084 Cl
HETATM    4  C12 UNL     1      -6.573 -29.762  10.100  1.00  0.00     0.024 A 
HETATM    5  C13 UNL     1      -6.812 -28.591  10.800  1.00  0.00     0.003 A 
HETATM    6  C14 UNL     1      -6.398 -27.404  10.244  1.00  0.00     0.019 A 
HETATM    7  C15 UNL     1      -5.760 -27.339   9.024  1.00  0.00     0.015 A 
ENDROOT
BRANCH   1   8
HETATM    8  C9  UNL     1      -4.830 -28.422   7.036  1.00  0.00     0.164 C 
BRANCH   8   9
HETATM    9  N1  UNL     1      -3.401 -28.519   7.097  1.00  0.00    -0.352 N 
HETATM   10  C8  UNL     1      -2.482 -27.642   6.430  1.00  0.00     0.253 C 
HETATM   11  O3  UNL     1      -3.027 -26.744   5.712  1.00  0.00    -0.268 OA
ATOM     12  H1  UNL     1      -3.005 -29.272   7.661  1.00  0.00     0.163 HD
BRANCH  10  13
HETATM   13  C7  UNL     1      -1.034 -27.770   6.550  1.00  0.00     0.049 A 
HETATM   14  C2  UNL     1      -0.368 -27.396   7.701  1.00  0.00     0.056 A 
HETATM   15  C3  UNL     1       1.003 -27.569   7.811  1.00  0.00     0.019 A 
HETATM   16  C4  UNL     1       1.748 -28.114   6.787  1.00  0.00     0.001 A 
HETATM   17  C5  UNL     1       1.104 -28.498   5.613  1.00  0.00     0.001 A 
HETATM   18  C6  UNL     1      -0.247 -28.321   5.524  1.00  0.00     0.018 A 
BRANCH  14  19
HETATM   19  C1  UNL     1      -1.156 -26.789   8.786  1.00  0.00     0.210 C 
HETATM   20  O1  UNL     1      -1.135 -25.567   8.967  1.00  0.00    -0.644 OA
HETATM   21  O2  UNL     1      -1.947 -27.573   9.637  1.00  0.00    -0.644 OA
ENDBRANCH  14  19
ENDBRANCH  10  13
ENDBRANCH   8   9
ENDBRANCH   1   8
BRANCH   7  22
HETATM   22  S1  UNL     1      -5.181 -25.761   8.445  1.00  0.00    -0.088 SA
BRANCH  22  23
HETATM   23  C16 UNL     1      -6.478 -24.563   8.369  1.00  0.00     0.027 A 
HETATM   24  C17 UNL     1      -7.675 -24.884   8.936  1.00  0.00     0.022 A 
HETATM   25  C18 UNL     1      -8.726 -23.998   8.914  1.00  0.00     0.025 A 
HETATM   26  C19 UNL     1      -8.593 -22.748   8.314  1.00  0.00     0.035 A 
HETATM   27 CL2  UNL     1      -9.954 -21.639   8.306  1.00  0.00    -0.084 Cl
HETATM   28  C20 UNL     1      -7.374 -22.430   7.745  1.00  0.00     0.049 A 
HETATM   29  C21 UNL     1      -6.335 -23.332   7.778  1.00  0.00     0.052 A 
HETATM   30 CL3  UNL     1      -4.783 -22.871   7.056  1.00  0.00    -0.083 Cl
ENDBRANCH  22  23
ENDBRANCH   7  22
TORSDOF 6
ENDMDL
