MODEL 6
REMARK VINA RESULT: -9.538631229      4.041      5.217
REMARK  6 active torsions:
REMARK  status: ('A' for Active; 'I' for Inactive)
REMARK    1  A    between atoms: C1_2  and  C2_4 
REMARK    2  A    between atoms: C7_9  and  C8_10 
REMARK       I    between atoms: C8_10  and  N1_12 
REMARK    3  A    between atoms: N1_12  and  C9_14 
REMARK    4  A    between atoms: C9_14  and  C10_15 
REMARK    5  A    between atoms: C15_21  and  S1_22 
REMARK    6  A    between atoms: S1_22  and  C16_23 
ROOT
HETATM    1  C10 UNL     1      -5.183 -28.183   8.800  1.00  0.00    -0.002 A 
HETATM    2  C11 UNL     1      -5.940 -29.255   9.196  1.00  0.00     0.043 A 
HETATM    3 CL1  UNL     1      -7.194 -29.066  10.438  1.00  0.00    -0.084 Cl
HETATM    4  C12 UNL     1      -5.781 -30.518   8.669  1.00  0.00     0.024 A 
HETATM    5  C13 UNL     1      -4.821 -30.729   7.694  1.00  0.00     0.003 A 
HETATM    6  C14 UNL     1      -4.059 -29.659   7.287  1.00  0.00     0.019 A 
HETATM    7  C15 UNL     1      -4.216 -28.395   7.813  1.00  0.00     0.015 A 
ENDROOT
BRANCH   1   8
HETATM    8  C9  UNL     1      -5.337 -26.830   9.326  1.00  0.00     0.164 C 
BRANCH   8   9
HETATM    9  N1  UNL     1      -6.190 -25.966   8.565  1.00  0.00    -0.352 N 
HETATM   10  C8  UNL     1      -7.357 -25.301   9.069  1.00  0.00     0.253 C 
HETATM   11  O3  UNL     1      -7.634 -25.559  10.285  1.00  0.00    -0.268 OA
ATOM     12  H1  UNL     1      -5.947 -25.810   7.586  1.00  0.00     0.163 HD
BRANCH  10  13
HETATM   13  C7  UNL     1      -8.175 -24.408   8.257  1.00  0.00     0.049 A 
HETATM   14  C2  UNL     1      -7.688 -23.201   7.795  1.00  0.00     0.056 A 
HETATM   15  C3  UNL     1      -8.467 -22.389   6.986  1.00  0.00     0.019 A 
HETATM   16  C4  UNL     1      -9.744 -22.748   6.615  1.00  0.00     0.001 A 
HETATM   17  C5  UNL     1     -10.264 -23.958   7.068  1.00  0.00     0.001 A 
HETATM   18  C6  UNL     1      -9.481 -24.746   7.863  1.00  0.00     0.018 A 
BRANCH  14  19
HETATM   19  C1  UNL     1      -6.333 -22.802   8.211  1.00  0.00     0.210 C 
HETATM   20  O1  UNL     1      -6.167 -22.121   9.229  1.00  0.00    -0.644 OA
HETATM   21  O2  UNL     1      -5.204 -23.178   7.471  1.00  0.00    -0.644 OA
ENDBRANCH  14  19
ENDBRANCH  10  13
ENDBRANCH   8   9
ENDBRANCH   1   8
BRANCH   7  22
HETATM   22  S1  UNL     1      -3.245 -27.064   7.144  1.00  0.00    -0.088 SA
BRANCH  22  23
HETATM   23  C16 UNL     1      -1.526 -27.467   7.070  1.00  0.00     0.027 A 
HETATM   24  C17 UNL     1      -1.035 -27.944   5.892  1.00  0.00     0.022 A 
HETATM   25  C18 UNL     1       0.294 -28.275   5.764  1.00  0.00     0.025 A 
HETATM   26  C19 UNL     1       1.172 -28.130   6.836  1.00  0.00     0.035 A 
HETATM   27 CL2  UNL     1       2.862 -28.559   6.639  1.00  0.00    -0.084 Cl
HETATM   28  C20 UNL     1       0.665 -27.642   8.026  1.00  0.00     0.049 A 
HETATM   29  C21 UNL     1      -0.668 -27.317   8.131  1.00  0.00     0.052 A 
HETATM   30 CL3  UNL     1      -1.268 -26.673   9.671  1.00  0.00    -0.083 Cl
ENDBRANCH  22  23
ENDBRANCH   7  22
TORSDOF 6
ENDMDL
