MODEL 3
REMARK VINA RESULT: -9.761118105      1.391      2.195
REMARK  6 active torsions:
REMARK  status: ('A' for Active; 'I' for Inactive)
REMARK    1  A    between atoms: C1_2  and  C2_4 
REMARK    2  A    between atoms: C7_9  and  C8_10 
REMARK       I    between atoms: C8_10  and  N1_12 
REMARK    3  A    between atoms: N1_12  and  C9_14 
REMARK    4  A    between atoms: C9_14  and  C10_15 
REMARK    5  A    between atoms: C15_21  and  S1_22 
REMARK    6  A    between atoms: S1_22  and  C16_23 
ROOT
HETATM    1  C10 UNL     1      -1.879 -29.428   5.493  1.00  0.00    -0.002 A 
HETATM    2  C11 UNL     1      -2.594 -30.447   4.919  1.00  0.00     0.043 A 
HETATM    3 CL1  UNL     1      -4.368 -30.410   4.907  1.00  0.00    -0.084 Cl
HETATM    4  C12 UNL     1      -1.996 -31.539   4.330  1.00  0.00     0.024 A 
HETATM    5  C13 UNL     1      -0.615 -31.624   4.305  1.00  0.00     0.003 A 
HETATM    6  C14 UNL     1       0.111 -30.604   4.874  1.00  0.00     0.019 A 
HETATM    7  C15 UNL     1      -0.484 -29.511   5.465  1.00  0.00     0.015 A 
ENDROOT
BRANCH   1   8
HETATM    8  C9  UNL     1      -2.480 -28.250   6.111  1.00  0.00     0.164 C 
BRANCH   8   9
HETATM    9  N1  UNL     1      -3.296 -28.506   7.262  1.00  0.00    -0.352 N 
HETATM   10  C8  UNL     1      -4.701 -28.234   7.358  1.00  0.00     0.253 C 
HETATM   11  O3  UNL     1      -5.212 -27.692   6.326  1.00  0.00    -0.268 OA
ATOM     12  H1  UNL     1      -2.840 -28.915   8.078  1.00  0.00     0.163 HD
BRANCH  10  13
HETATM   13  C7  UNL     1      -5.489 -28.542   8.545  1.00  0.00     0.049 A 
HETATM   14  C2  UNL     1      -5.772 -27.580   9.496  1.00  0.00     0.056 A 
HETATM   15  C3  UNL     1      -6.561 -27.882  10.594  1.00  0.00     0.019 A 
HETATM   16  C4  UNL     1      -7.091 -29.141  10.780  1.00  0.00     0.001 A 
HETATM   17  C5  UNL     1      -6.821 -30.133   9.840  1.00  0.00     0.001 A 
HETATM   18  C6  UNL     1      -6.042 -29.815   8.764  1.00  0.00     0.018 A 
BRANCH  14  19
HETATM   19  C1  UNL     1      -5.187 -26.241   9.314  1.00  0.00     0.210 C 
HETATM   20  O1  UNL     1      -5.903 -25.235   9.353  1.00  0.00    -0.644 OA
HETATM   21  O2  UNL     1      -3.813 -26.070   9.093  1.00  0.00    -0.644 OA
ENDBRANCH  14  19
ENDBRANCH  10  13
ENDBRANCH   8   9
ENDBRANCH   1   8
BRANCH   7  22
HETATM   22  S1  UNL     1       0.550 -28.204   6.083  1.00  0.00    -0.088 SA
BRANCH  22  23
HETATM   23  C16 UNL     1       1.997 -28.825   6.887  1.00  0.00     0.027 A 
HETATM   24  C17 UNL     1       3.175 -28.774   6.204  1.00  0.00     0.022 A 
HETATM   25  C18 UNL     1       4.339 -29.238   6.771  1.00  0.00     0.025 A 
HETATM   26  C19 UNL     1       4.343 -29.770   8.059  1.00  0.00     0.035 A 
HETATM   27 CL2  UNL     1       5.847 -30.351   8.754  1.00  0.00    -0.084 Cl
HETATM   28  C20 UNL     1       3.144 -29.814   8.744  1.00  0.00     0.049 A 
HETATM   29  C21 UNL     1       1.991 -29.344   8.158  1.00  0.00     0.052 A 
HETATM   30 CL3  UNL     1       0.480 -29.399   9.085  1.00  0.00    -0.083 Cl
ENDBRANCH  22  23
ENDBRANCH   7  22
TORSDOF 6
ENDMDL
