MODEL 7
REMARK VINA RESULT: -9.373383404      4.063      5.243
REMARK  6 active torsions:
REMARK  status: ('A' for Active; 'I' for Inactive)
REMARK    1  A    between atoms: C1_2  and  C2_4 
REMARK    2  A    between atoms: C7_9  and  C8_10 
REMARK       I    between atoms: C8_10  and  N1_12 
REMARK    3  A    between atoms: N1_12  and  C9_14 
REMARK    4  A    between atoms: C9_14  and  C10_15 
REMARK    5  A    between atoms: C15_21  and  S1_22 
REMARK    6  A    between atoms: S1_22  and  C16_23 
ROOT
HETATM    1  C10 UNL     1      -5.442 -28.444   9.151  1.00  0.00    -0.002 A 
HETATM    2  C11 UNL     1      -6.131 -29.608   9.378  1.00  0.00     0.043 A 
HETATM    3 CL1  UNL     1      -7.502 -29.640  10.504  1.00  0.00    -0.084 Cl
HETATM    4  C12 UNL     1      -5.811 -30.797   8.762  1.00  0.00     0.024 A 
HETATM    5  C13 UNL     1      -4.753 -30.836   7.870  1.00  0.00     0.003 A 
HETATM    6  C14 UNL     1      -4.059 -29.673   7.633  1.00  0.00     0.019 A 
HETATM    7  C15 UNL     1      -4.376 -28.482   8.249  1.00  0.00     0.015 A 
ENDROOT
BRANCH   1   8
HETATM    8  C9  UNL     1      -5.764 -27.165   9.775  1.00  0.00     0.164 C 
BRANCH   8   9
HETATM    9  N1  UNL     1      -6.245 -26.149   8.886  1.00  0.00    -0.352 N 
HETATM   10  C8  UNL     1      -6.376 -24.758   9.211  1.00  0.00     0.253 C 
HETATM   11  O3  UNL     1      -6.060 -24.457  10.407  1.00  0.00    -0.268 OA
ATOM     12  H1  UNL     1      -6.516 -26.438   7.945  1.00  0.00     0.163 HD
BRANCH  10  13
HETATM   13  C7  UNL     1      -6.846 -23.760   8.257  1.00  0.00     0.049 A 
HETATM   14  C2  UNL     1      -8.192 -23.505   8.080  1.00  0.00     0.056 A 
HETATM   15  C3  UNL     1      -8.614 -22.520   7.201  1.00  0.00     0.019 A 
HETATM   16  C4  UNL     1      -7.719 -21.765   6.476  1.00  0.00     0.001 A 
HETATM   17  C5  UNL     1      -6.355 -22.001   6.631  1.00  0.00     0.001 A 
HETATM   18  C6  UNL     1      -5.958 -22.975   7.502  1.00  0.00     0.018 A 
BRANCH  14  19
HETATM   19  C1  UNL     1      -9.153 -24.328   8.834  1.00  0.00     0.210 C 
HETATM   20  O1  UNL     1      -9.689 -25.306   8.303  1.00  0.00    -0.644 OA
HETATM   21  O2  UNL     1      -9.483 -24.028  10.163  1.00  0.00    -0.644 OA
ENDBRANCH  14  19
ENDBRANCH  10  13
ENDBRANCH   8   9
ENDBRANCH   1   8
BRANCH   7  22
HETATM   22  S1  UNL     1      -3.474 -27.018   7.795  1.00  0.00    -0.088 SA
BRANCH  22  23
HETATM   23  C16 UNL     1      -1.786 -27.370   7.406  1.00  0.00     0.027 A 
HETATM   24  C17 UNL     1      -1.501 -27.808   6.148  1.00  0.00     0.022 A 
HETATM   25  C18 UNL     1      -0.208 -28.099   5.778  1.00  0.00     0.025 A 
HETATM   26  C19 UNL     1       0.842 -27.951   6.681  1.00  0.00     0.035 A 
HETATM   27 CL2  UNL     1       2.481 -28.328   6.176  1.00  0.00    -0.084 Cl
HETATM   28  C20 UNL     1       0.543 -27.503   7.954  1.00  0.00     0.049 A 
HETATM   29  C21 UNL     1      -0.757 -27.218   8.303  1.00  0.00     0.052 A 
HETATM   30 CL3  UNL     1      -1.089 -26.624   9.940  1.00  0.00    -0.083 Cl
ENDBRANCH  22  23
ENDBRANCH   7  22
TORSDOF 6
ENDMDL
