MODEL 9
REMARK VINA RESULT: -8.618503726      3.762      7.248
REMARK  10 active torsions:
REMARK  status: ('A' for Active; 'I' for Inactive)
REMARK    1  A    between atoms: C4_6  and  C5_7 
REMARK    2  A    between atoms: C5_7  and  O1_8 
REMARK    3  A    between atoms: O1_8  and  P1_9 
REMARK    4  A    between atoms: C6_13  and  C7_14 
REMARK    5  A    between atoms: N2_15  and  C8_17 
REMARK    6  A    between atoms: C11_20  and  C12_21 
REMARK    7  A    between atoms: C12_21  and  C13_22 
REMARK    8  A    between atoms: C13_22  and  C14_23 
REMARK    9  A    between atoms: C14_23  and  O5_24 
REMARK   10  A    between atoms: C16_30  and  O7_31 
ROOT
HETATM    1  C1  UNL     1      15.641  -7.522 -34.929  1.00  0.00     0.071 C 
HETATM    2  C2  UNL     1      16.435  -6.618 -34.007  1.00  0.00     0.039 A 
HETATM    3  N1  UNL     1      17.305  -5.728 -34.514  1.00  0.00    -0.367 N 
ATOM      4  H1  UNL     1      17.375  -5.637 -35.528  1.00  0.00     0.165 HD
HETATM    5  C3  UNL     1      18.080  -4.959 -33.746  1.00  0.00     0.098 A 
HETATM    6  C4  UNL     1      18.014  -5.038 -32.341  1.00  0.00    -0.004 A 
HETATM    7  C6  UNL     1      17.133  -5.917 -31.804  1.00  0.00     0.024 A 
HETATM    8  C16 UNL     1      16.321  -6.732 -32.643  1.00  0.00     0.100 A 
ENDROOT
BRANCH   7   9
HETATM    9  C7  UNL     1      17.130  -6.197 -30.338  1.00  0.00     0.103 C 
HETATM   10  N2  UNL     1      17.465  -7.457 -29.946  1.00  0.00    -0.361 N 
ATOM     11  H2  UNL     1      16.680  -8.108 -29.974  1.00  0.00     0.165 HD
BRANCH  10  12
HETATM   12  C8  UNL     1      18.530  -7.987 -29.559  1.00  0.00     0.101 A 
HETATM   13  C9  UNL     1      19.751  -7.186 -29.471  1.00  0.00     0.037 A 
HETATM   14  C10 UNL     1      20.843  -7.850 -29.109  1.00  0.00     0.027 A 
HETATM   15  C11 UNL     1      20.858  -9.274 -28.823  1.00  0.00     0.012 A 
HETATM   16  N3  UNL     1      19.760  -9.992 -28.906  1.00  0.00    -0.325 N 
HETATM   17  C15 UNL     1      18.527  -9.413 -29.271  1.00  0.00     0.272 A 
ATOM     18  H3  UNL     1      19.801 -10.991 -28.701  1.00  0.00     0.169 HD
HETATM   19  O6  UNL     1      17.475 -10.121 -29.338  1.00  0.00    -0.266 OA
BRANCH  15  20
HETATM   20  C12 UNL     1      22.038 -10.049 -28.361  1.00  0.00     0.059 C 
BRANCH  20  21
HETATM   21  C13 UNL     1      21.581 -11.397 -27.790  1.00  0.00     0.032 C 
BRANCH  21  22
HETATM   22  C14 UNL     1      22.780 -12.300 -27.727  1.00  0.00     0.164 C 
BRANCH  22  23
HETATM   23  O5  UNL     1      22.769 -13.127 -26.622  1.00  0.00    -0.401 OA
ATOM     24  H5  UNL     1      23.548 -13.667 -26.560  1.00  0.00     0.209 HD
ENDBRANCH  22  23
ENDBRANCH  21  22
ENDBRANCH  20  21
ENDBRANCH  15  20
ENDBRANCH  10  12
ENDBRANCH   7   9
BRANCH   6  25
HETATM   25  C5  UNL     1      18.836  -4.099 -31.474  1.00  0.00     0.223 C 
BRANCH  25  26
HETATM   26  O1  UNL     1      18.164  -3.028 -31.229  1.00  0.00    -0.278 OA
BRANCH  26  27
HETATM   27  P1  UNL     1      17.044  -2.115 -30.958  1.00  0.00     0.422 P 
HETATM   28  O2  UNL     1      15.449  -2.308 -31.402  1.00  0.00    -0.617 OA
HETATM   29  O3  UNL     1      16.701  -2.807 -29.593  1.00  0.00    -0.617 OA
HETATM   30  O4  UNL     1      17.321  -0.702 -29.930  1.00  0.00    -0.617 OA
ENDBRANCH  26  27
ENDBRANCH  25  26
ENDBRANCH   6  25
BRANCH   8  31
HETATM   31  O7  UNL     1      15.452  -7.620 -32.113  1.00  0.00    -0.358 OA
ATOM     32  H7  UNL     1      15.426  -7.752 -31.173  1.00  0.00     0.217 HD
ENDBRANCH   8  31
TORSDOF 10
ENDMDL
