MODEL 2
REMARK VINA RESULT: -9.107206221      3.714      7.317
REMARK  10 active torsions:
REMARK  status: ('A' for Active; 'I' for Inactive)
REMARK    1  A    between atoms: C4_6  and  C5_7 
REMARK    2  A    between atoms: C5_7  and  O1_8 
REMARK    3  A    between atoms: O1_8  and  P1_9 
REMARK    4  A    between atoms: C6_13  and  C7_14 
REMARK    5  A    between atoms: N2_15  and  C8_17 
REMARK    6  A    between atoms: C11_20  and  C12_21 
REMARK    7  A    between atoms: C12_21  and  C13_22 
REMARK    8  A    between atoms: C13_22  and  C14_23 
REMARK    9  A    between atoms: C14_23  and  O5_24 
REMARK   10  A    between atoms: C16_30  and  O7_31 
ROOT
HETATM    1  C1  UNL     1      15.617  -7.375 -34.544  1.00  0.00     0.071 C 
HETATM    2  C2  UNL     1      16.341  -6.530 -33.515  1.00  0.00     0.039 A 
HETATM    3  N1  UNL     1      17.076  -5.473 -33.903  1.00  0.00    -0.367 N 
ATOM      4  H1  UNL     1      17.088  -5.222 -34.892  1.00  0.00     0.165 HD
HETATM    5  C3  UNL     1      17.790  -4.739 -33.047  1.00  0.00     0.098 A 
HETATM    6  C4  UNL     1      17.800  -5.036 -31.670  1.00  0.00    -0.004 A 
HETATM    7  C6  UNL     1      17.054  -6.087 -31.250  1.00  0.00     0.024 A 
HETATM    8  C16 UNL     1      16.306  -6.860 -32.183  1.00  0.00     0.100 A 
ENDROOT
BRANCH   7   9
HETATM    9  C7  UNL     1      17.152  -6.583 -29.846  1.00  0.00     0.103 C 
HETATM   10  N2  UNL     1      17.638  -7.842 -29.665  1.00  0.00    -0.361 N 
ATOM     11  H2  UNL     1      16.926  -8.565 -29.768  1.00  0.00     0.165 HD
BRANCH  10  12
HETATM   12  C8  UNL     1      18.771  -8.302 -29.399  1.00  0.00     0.101 A 
HETATM   13  C9  UNL     1      19.936  -7.417 -29.413  1.00  0.00     0.037 A 
HETATM   14  C10 UNL     1      21.102  -8.007 -29.179  1.00  0.00     0.027 A 
HETATM   15  C11 UNL     1      21.245  -9.431 -28.931  1.00  0.00     0.012 A 
HETATM   16  N3  UNL     1      20.197 -10.224 -28.921  1.00  0.00    -0.325 N 
HETATM   17  C15 UNL     1      18.896  -9.729 -29.147  1.00  0.00     0.272 A 
ATOM     18  H3  UNL     1      20.327 -11.221 -28.746  1.00  0.00     0.169 HD
HETATM   19  O6  UNL     1      17.894 -10.509 -29.127  1.00  0.00    -0.266 OA
BRANCH  15  20
HETATM   20  C12 UNL     1      22.517 -10.128 -28.607  1.00  0.00     0.059 C 
BRANCH  20  21
HETATM   21  C13 UNL     1      22.347 -10.945 -27.320  1.00  0.00     0.032 C 
BRANCH  21  22
HETATM   22  C14 UNL     1      22.574 -12.390 -27.660  1.00  0.00     0.164 C 
BRANCH  22  23
HETATM   23  O5  UNL     1      22.724 -13.185 -26.541  1.00  0.00    -0.401 OA
ATOM     24  H5  UNL     1      22.034 -13.052 -25.901  1.00  0.00     0.209 HD
ENDBRANCH  22  23
ENDBRANCH  21  22
ENDBRANCH  20  21
ENDBRANCH  15  20
ENDBRANCH  10  12
ENDBRANCH   7   9
BRANCH   6  25
HETATM   25  C5  UNL     1      18.546  -4.144 -30.691  1.00  0.00     0.223 C 
BRANCH  25  26
HETATM   26  O1  UNL     1      17.783  -3.179 -30.309  1.00  0.00    -0.278 OA
BRANCH  26  27
HETATM   27  P1  UNL     1      16.895  -2.008 -30.337  1.00  0.00     0.422 P 
HETATM   28  O2  UNL     1      17.177  -0.505 -29.673  1.00  0.00    -0.617 OA
HETATM   29  O3  UNL     1      17.500  -1.476 -31.683  1.00  0.00    -0.617 OA
HETATM   30  O4  UNL     1      15.403  -2.087 -31.284  1.00  0.00    -0.617 OA
ENDBRANCH  26  27
ENDBRANCH  25  26
ENDBRANCH   6  25
BRANCH   8  31
HETATM   31  O7  UNL     1      15.573  -7.919 -31.773  1.00  0.00    -0.358 OA
ATOM     32  H7  UNL     1      14.624  -7.866 -31.779  1.00  0.00     0.217 HD
ENDBRANCH   8  31
TORSDOF 10
ENDMDL
