MODEL 8
REMARK VINA RESULT: -8.709564031      2.916      6.578
REMARK  10 active torsions:
REMARK  status: ('A' for Active; 'I' for Inactive)
REMARK    1  A    between atoms: C4_6  and  C5_7 
REMARK    2  A    between atoms: C5_7  and  O1_8 
REMARK    3  A    between atoms: O1_8  and  P1_9 
REMARK    4  A    between atoms: C6_13  and  C7_14 
REMARK    5  A    between atoms: N2_15  and  C8_17 
REMARK    6  A    between atoms: C11_20  and  C12_21 
REMARK    7  A    between atoms: C12_21  and  C13_22 
REMARK    8  A    between atoms: C13_22  and  C14_23 
REMARK    9  A    between atoms: C14_23  and  O5_24 
REMARK   10  A    between atoms: C16_30  and  O7_31 
ROOT
HETATM    1  C1  UNL     1      16.394  -6.347 -34.157  1.00  0.00     0.071 C 
HETATM    2  C2  UNL     1      17.127  -5.798 -32.950  1.00  0.00     0.039 A 
HETATM    3  N1  UNL     1      17.975  -4.764 -33.085  1.00  0.00    -0.367 N 
ATOM      4  H1  UNL     1      18.069  -4.325 -34.001  1.00  0.00     0.165 HD
HETATM    5  C3  UNL     1      18.699  -4.287 -32.069  1.00  0.00     0.098 A 
HETATM    6  C4  UNL     1      18.599  -4.849 -30.781  1.00  0.00    -0.004 A 
HETATM    7  C6  UNL     1      17.738  -5.884 -30.614  1.00  0.00     0.024 A 
HETATM    8  C16 UNL     1      16.982  -6.379 -31.714  1.00  0.00     0.100 A 
ENDROOT
BRANCH   7   9
HETATM    9  C7  UNL     1      17.707  -6.654 -29.336  1.00  0.00     0.103 C 
HETATM   10  N2  UNL     1      17.983  -7.985 -29.407  1.00  0.00    -0.361 N 
ATOM     11  H2  UNL     1      17.171  -8.551 -29.655  1.00  0.00     0.165 HD
BRANCH  10  12
HETATM   12  C8  UNL     1      19.020  -8.663 -29.233  1.00  0.00     0.101 A 
HETATM   13  C9  UNL     1      20.325  -8.002 -29.202  1.00  0.00     0.037 A 
HETATM   14  C10 UNL     1      21.371  -8.810 -29.074  1.00  0.00     0.027 A 
HETATM   15  C11 UNL     1      21.261 -10.254 -28.976  1.00  0.00     0.012 A 
HETATM   16  N3  UNL     1      20.087 -10.847 -29.006  1.00  0.00    -0.325 N 
HETATM   17  C15 UNL     1      18.892 -10.108 -29.131  1.00  0.00     0.272 A 
ATOM     18  H3  UNL     1      20.040 -11.864 -28.938  1.00  0.00     0.169 HD
HETATM   19  O6  UNL     1      17.767 -10.697 -29.151  1.00  0.00    -0.266 OA
BRANCH  15  20
HETATM   20  C12 UNL     1      22.393 -11.195 -28.774  1.00  0.00     0.059 C 
BRANCH  20  21
HETATM   21  C13 UNL     1      22.363 -11.740 -27.340  1.00  0.00     0.032 C 
BRANCH  21  22
HETATM   22  C14 UNL     1      22.539 -13.230 -27.411  1.00  0.00     0.164 C 
BRANCH  22  23
HETATM   23  O5  UNL     1      22.284 -13.856 -26.207  1.00  0.00    -0.401 OA
ATOM     24  H5  UNL     1      22.777 -14.661 -26.100  1.00  0.00     0.209 HD
ENDBRANCH  22  23
ENDBRANCH  21  22
ENDBRANCH  20  21
ENDBRANCH  15  20
ENDBRANCH  10  12
ENDBRANCH   7   9
BRANCH   6  25
HETATM   25  C5  UNL     1      19.360  -4.247 -29.612  1.00  0.00     0.223 C 
BRANCH  25  26
HETATM   26  O1  UNL     1      20.583  -4.652 -29.629  1.00  0.00    -0.278 OA
BRANCH  26  27
HETATM   27  P1  UNL     1      22.020  -4.738 -29.924  1.00  0.00     0.422 P 
HETATM   28  O2  UNL     1      22.895  -3.795 -30.985  1.00  0.00    -0.617 OA
HETATM   29  O3  UNL     1      22.399  -3.728 -28.785  1.00  0.00    -0.617 OA
HETATM   30  O4  UNL     1      23.023  -5.849 -28.982  1.00  0.00    -0.617 OA
ENDBRANCH  26  27
ENDBRANCH  25  26
ENDBRANCH   6  25
BRANCH   8  31
HETATM   31  O7  UNL     1      16.134  -7.420 -31.557  1.00  0.00    -0.358 OA
ATOM     32  H7  UNL     1      16.474  -8.274 -31.318  1.00  0.00     0.217 HD
ENDBRANCH   8  31
TORSDOF 10
ENDMDL
