MODEL 11
REMARK VINA RESULT: -8.480054527      4.474      7.889
REMARK  11 active torsions:
REMARK  status: ('A' for Active; 'I' for Inactive)
REMARK    1  A    between atoms: C2_2  and  C3_3 
REMARK    2  A    between atoms: C3_3  and  O1_4 
REMARK    3  A    between atoms: O1_4  and  C4_5 
REMARK    4  A    between atoms: C4_5  and  C5_6 
REMARK    5  A    between atoms: C5_6  and  N1_7 
REMARK    6  A    between atoms: C7_10  and  N2_11 
REMARK    7  A    between atoms: N2_11  and  C8_13 
REMARK    8  A    between atoms: C8_13  and  C9_14 
REMARK    9  A    between atoms: C9_14  and  N3_15 
REMARK   10  A    between atoms: C16_27  and  C17_28 
REMARK   11  A    between atoms: C20_31  and  O4_32 
ROOT
HETATM    1  N1  UNL     1      20.229  -8.836  12.284  1.00  0.00    -0.307 N 
HETATM    2  C6  UNL     1      21.091  -9.515  13.101  1.00  0.00     0.292 A 
HETATM    3  O2  UNL     1      21.779 -10.415  12.589  1.00  0.00    -0.264 OA
HETATM    4  C7  UNL     1      21.220  -9.246  14.433  1.00  0.00     0.171 A 
HETATM    5  N4  UNL     1      20.448  -8.262  14.922  1.00  0.00    -0.335 N 
ATOM      6  H4  UNL     1      20.524  -8.038  15.914  1.00  0.00     0.168 HD
HETATM    7  C14 UNL     1      19.579  -7.554  14.177  1.00  0.00     0.076 A 
HETATM    8  C15 UNL     1      18.800  -6.553  14.713  1.00  0.00     0.120 A 
HETATM    9  N5  UNL     1      17.957  -5.898  13.909  1.00  0.00    -0.363 N 
ATOM     10  H5  UNL     1      17.383  -5.158  14.315  1.00  0.00     0.165 HD
HETATM   11  C16 UNL     1      17.820  -6.157  12.588  1.00  0.00     0.045 A 
HETATM   12  C23 UNL     1      18.589  -7.148  12.042  1.00  0.00     0.062 A 
HETATM   13  C24 UNL     1      19.482  -7.865  12.823  1.00  0.00     0.068 A 
ENDROOT
BRANCH   4  14
HETATM   14  N2  UNL     1      22.104  -9.941  15.299  1.00  0.00    -0.370 N 
ATOM     15  H2  UNL     1      22.990  -9.519  15.575  1.00  0.00     0.161 HD
BRANCH  14  16
HETATM   16  C8  UNL     1      21.739 -11.251  15.785  1.00  0.00     0.151 C 
BRANCH  16  17
HETATM   17  C9  UNL     1      20.679 -11.096  16.837  1.00  0.00     0.292 C 
BRANCH  17  18
HETATM   18  N3  UNL     1      19.876 -12.282  17.010  1.00  0.00     0.094 N 
HETATM   19  C10 UNL     1      19.771 -12.680  18.380  1.00  0.00     0.298 C 
HETATM   20  C11 UNL     1      19.901 -14.198  18.535  1.00  0.00     0.198 C 
HETATM   21  O3  UNL     1      19.169 -14.826  17.551  1.00  0.00    -0.388 OA
HETATM   22  C12 UNL     1      19.723 -14.631  16.310  1.00  0.00     0.198 C 
HETATM   23  C13 UNL     1      20.379 -13.296  16.118  1.00  0.00     0.298 C 
ENDBRANCH  17  18
ENDBRANCH  16  17
ENDBRANCH  14  16
ENDBRANCH   4  14
BRANCH   1  24
HETATM   24  C5  UNL     1      20.120  -9.146  10.885  1.00  0.00     0.159 C 
BRANCH  24  25
HETATM   25  C4  UNL     1      21.243  -8.507  10.085  1.00  0.00     0.188 C 
BRANCH  25  26
HETATM   26  O1  UNL     1      20.860  -7.336   9.483  1.00  0.00    -0.390 OA
BRANCH  26  27
HETATM   27  C3  UNL     1      21.789  -6.777   8.645  1.00  0.00     0.167 C 
BRANCH  27  28
HETATM   28  C2  UNL     1      22.235  -5.393   9.050  1.00  0.00     0.022 C 
HETATM   29  C1  UNL     1      23.739  -5.464   9.344  1.00  0.00     0.007 C 
ENDBRANCH  27  28
ENDBRANCH  26  27
ENDBRANCH  25  26
ENDBRANCH  24  25
ENDBRANCH   1  24
BRANCH  11  30
HETATM   30  C17 UNL     1      16.858  -5.366  11.829  1.00  0.00     0.006 A 
HETATM   31  C18 UNL     1      17.075  -4.945  10.535  1.00  0.00     0.019 A 
HETATM   32  C19 UNL     1      16.112  -4.190   9.854  1.00  0.00     0.057 A 
HETATM   33  C20 UNL     1      14.923  -3.847  10.455  1.00  0.00     0.141 A 
HETATM   34  N6  UNL     1      14.721  -4.264  11.721  1.00  0.00    -0.346 N 
HETATM   35  C22 UNL     1      15.651  -4.995  12.384  1.00  0.00     0.103 A 
ATOM     36  H6  UNL     1      13.848  -4.024  12.191  1.00  0.00     0.167 HD
BRANCH  33  37
HETATM   37  O4  UNL     1      13.948  -3.094   9.794  1.00  0.00    -0.341 OA
HETATM   38  C21 UNL     1      13.896  -3.009   8.399  1.00  0.00     0.211 C 
ENDBRANCH  33  37
ENDBRANCH  11  30
TORSDOF 11
ENDMDL
