MODEL 15
REMARK VINA RESULT: -8.325852263      4.033      7.434
REMARK  11 active torsions:
REMARK  status: ('A' for Active; 'I' for Inactive)
REMARK    1  A    between atoms: C2_2  and  C3_3 
REMARK    2  A    between atoms: C3_3  and  O1_4 
REMARK    3  A    between atoms: O1_4  and  C4_5 
REMARK    4  A    between atoms: C4_5  and  C5_6 
REMARK    5  A    between atoms: C5_6  and  N1_7 
REMARK    6  A    between atoms: C7_10  and  N2_11 
REMARK    7  A    between atoms: N2_11  and  C8_13 
REMARK    8  A    between atoms: C8_13  and  C9_14 
REMARK    9  A    between atoms: C9_14  and  N3_15 
REMARK   10  A    between atoms: C16_27  and  C17_28 
REMARK   11  A    between atoms: C20_31  and  O4_32 
ROOT
HETATM    1  N1  UNL     1      20.348  -8.862  12.473  1.00  0.00    -0.307 N 
HETATM    2  C6  UNL     1      21.219  -9.600  13.228  1.00  0.00     0.292 A 
HETATM    3  O2  UNL     1      21.885 -10.475  12.647  1.00  0.00    -0.264 OA
HETATM    4  C7  UNL     1      21.378  -9.415  14.572  1.00  0.00     0.171 A 
HETATM    5  N4  UNL     1      20.629  -8.454  15.136  1.00  0.00    -0.335 N 
ATOM      6  H4  UNL     1      20.728  -8.293  16.138  1.00  0.00     0.168 HD
HETATM    7  C14 UNL     1      19.754  -7.692  14.454  1.00  0.00     0.076 A 
HETATM    8  C15 UNL     1      18.998  -6.717  15.067  1.00  0.00     0.120 A 
HETATM    9  N5  UNL     1      18.148  -6.004  14.323  1.00  0.00    -0.363 N 
ATOM     10  H5  UNL     1      17.592  -5.284  14.785  1.00  0.00     0.165 HD
HETATM   11  C16 UNL     1      17.981  -6.180  12.992  1.00  0.00     0.045 A 
HETATM   12  C23 UNL     1      18.726  -7.144  12.370  1.00  0.00     0.062 A 
HETATM   13  C24 UNL     1      19.625  -7.918  13.086  1.00  0.00     0.068 A 
ENDROOT
BRANCH   4  14
HETATM   14  N2  UNL     1      22.271 -10.172  15.374  1.00  0.00    -0.370 N 
ATOM     15  H2  UNL     1      23.202  -9.813  15.585  1.00  0.00     0.161 HD
BRANCH  14  16
HETATM   16  C8  UNL     1      21.851 -11.454  15.888  1.00  0.00     0.151 C 
BRANCH  16  17
HETATM   17  C9  UNL     1      22.219 -11.534  17.342  1.00  0.00     0.292 C 
BRANCH  17  18
HETATM   18  N3  UNL     1      21.120 -11.941  18.182  1.00  0.00     0.094 N 
HETATM   19  C10 UNL     1      19.919 -12.178  17.442  1.00  0.00     0.298 C 
HETATM   20  C11 UNL     1      18.693 -11.610  18.163  1.00  0.00     0.198 C 
HETATM   21  O3  UNL     1      18.773 -11.905  19.506  1.00  0.00    -0.388 OA
HETATM   22  C12 UNL     1      19.790 -11.212  20.115  1.00  0.00     0.198 C 
HETATM   23  C13 UNL     1      20.997 -10.983  19.252  1.00  0.00     0.298 C 
ENDBRANCH  17  18
ENDBRANCH  16  17
ENDBRANCH  14  16
ENDBRANCH   4  14
BRANCH   1  24
HETATM   24  C5  UNL     1      20.207  -9.085  11.060  1.00  0.00     0.159 C 
BRANCH  24  25
HETATM   25  C4  UNL     1      20.884  -7.988  10.254  1.00  0.00     0.188 C 
BRANCH  25  26
HETATM   26  O1  UNL     1      21.151  -8.371   8.964  1.00  0.00    -0.390 OA
BRANCH  26  27
HETATM   27  C3  UNL     1      22.041  -7.577   8.290  1.00  0.00     0.167 C 
BRANCH  27  28
HETATM   28  C2  UNL     1      21.929  -6.107   8.617  1.00  0.00     0.022 C 
HETATM   29  C1  UNL     1      23.278  -5.665   9.201  1.00  0.00     0.007 C 
ENDBRANCH  27  28
ENDBRANCH  26  27
ENDBRANCH  25  26
ENDBRANCH  24  25
ENDBRANCH   1  24
BRANCH  11  30
HETATM   30  C17 UNL     1      17.013  -5.332  12.303  1.00  0.00     0.006 A 
HETATM   31  C18 UNL     1      16.105  -4.530  12.961  1.00  0.00     0.019 A 
HETATM   32  C19 UNL     1      15.202  -3.733  12.246  1.00  0.00     0.057 A 
HETATM   33  C20 UNL     1      15.195  -3.726  10.871  1.00  0.00     0.141 A 
HETATM   34  N6  UNL     1      16.088  -4.514  10.238  1.00  0.00    -0.346 N 
HETATM   35  C22 UNL     1      16.964  -5.288  10.926  1.00  0.00     0.103 A 
ATOM     36  H6  UNL     1      16.105  -4.529   9.219  1.00  0.00     0.167 HD
BRANCH  33  37
HETATM   37  O4  UNL     1      14.302  -2.939  10.138  1.00  0.00    -0.341 OA
HETATM   38  C21 UNL     1      14.154  -3.078   8.754  1.00  0.00     0.211 C 
ENDBRANCH  33  37
ENDBRANCH  11  30
TORSDOF 11
ENDMDL
