MODEL 3
REMARK VINA RESULT: -8.974893604      1.941      8.617
REMARK  11 active torsions:
REMARK  status: ('A' for Active; 'I' for Inactive)
REMARK    1  A    between atoms: C2_2  and  C3_3 
REMARK    2  A    between atoms: C3_3  and  O1_4 
REMARK    3  A    between atoms: O1_4  and  C4_5 
REMARK    4  A    between atoms: C4_5  and  C5_6 
REMARK    5  A    between atoms: C5_6  and  N1_7 
REMARK    6  A    between atoms: C7_10  and  N2_11 
REMARK    7  A    between atoms: N2_11  and  C8_13 
REMARK    8  A    between atoms: C8_13  and  C9_14 
REMARK    9  A    between atoms: C9_14  and  N3_15 
REMARK   10  A    between atoms: C16_27  and  C17_28 
REMARK   11  A    between atoms: C20_31  and  O4_32 
ROOT
HETATM    1  N1  UNL     1      17.617  -5.280  13.569  1.00  0.00    -0.307 N 
HETATM    2  C6  UNL     1      17.869  -6.077  12.486  1.00  0.00     0.292 A 
HETATM    3  O2  UNL     1      17.308  -5.785  11.415  1.00  0.00    -0.264 OA
HETATM    4  C7  UNL     1      18.696  -7.162  12.537  1.00  0.00     0.171 A 
HETATM    5  N4  UNL     1      19.269  -7.422  13.724  1.00  0.00    -0.335 N 
ATOM      6  H4  UNL     1      19.893  -8.225  13.791  1.00  0.00     0.168 HD
HETATM    7  C14 UNL     1      19.067  -6.680  14.829  1.00  0.00     0.076 A 
HETATM    8  C15 UNL     1      19.669  -6.978  16.031  1.00  0.00     0.120 A 
HETATM    9  N5  UNL     1      19.416  -6.197  17.085  1.00  0.00    -0.363 N 
ATOM     10  H5  UNL     1      19.866  -6.425  17.972  1.00  0.00     0.165 HD
HETATM   11  C16 UNL     1      18.597  -5.121  17.046  1.00  0.00     0.045 A 
HETATM   12  C23 UNL     1      17.993  -4.813  15.858  1.00  0.00     0.062 A 
HETATM   13  C24 UNL     1      18.214  -5.584  14.728  1.00  0.00     0.068 A 
ENDROOT
BRANCH   4  14
HETATM   14  N2  UNL     1      18.965  -8.004  11.428  1.00  0.00    -0.370 N 
ATOM     15  H2  UNL     1      18.223  -8.238  10.768  1.00  0.00     0.161 HD
BRANCH  14  16
HETATM   16  C8  UNL     1      20.298  -8.529  11.239  1.00  0.00     0.151 C 
BRANCH  16  17
HETATM   17  C9  UNL     1      20.834  -8.021   9.931  1.00  0.00     0.292 C 
BRANCH  17  18
HETATM   18  N3  UNL     1      21.286  -6.653   9.998  1.00  0.00     0.094 N 
HETATM   19  C10 UNL     1      20.312  -5.727   9.508  1.00  0.00     0.298 C 
HETATM   20  C11 UNL     1      20.956  -4.638   8.645  1.00  0.00     0.198 C 
HETATM   21  O3  UNL     1      22.116  -4.202   9.245  1.00  0.00    -0.388 OA
HETATM   22  C12 UNL     1      23.088  -5.173   9.228  1.00  0.00     0.198 C 
HETATM   23  C13 UNL     1      22.575  -6.576   9.358  1.00  0.00     0.298 C 
ENDBRANCH  17  18
ENDBRANCH  16  17
ENDBRANCH  14  16
ENDBRANCH   4  14
BRANCH   1  24
HETATM   24  C5  UNL     1      16.741  -4.145  13.478  1.00  0.00     0.159 C 
BRANCH  24  25
HETATM   25  C4  UNL     1      15.283  -4.559  13.585  1.00  0.00     0.188 C 
BRANCH  25  26
HETATM   26  O1  UNL     1      14.446  -3.725  12.887  1.00  0.00    -0.390 OA
BRANCH  26  27
HETATM   27  C3  UNL     1      14.165  -4.117  11.605  1.00  0.00     0.167 C 
BRANCH  27  28
HETATM   28  C2  UNL     1      14.534  -3.100  10.552  1.00  0.00     0.022 C 
HETATM   29  C1  UNL     1      14.474  -3.807   9.191  1.00  0.00     0.007 C 
ENDBRANCH  27  28
ENDBRANCH  26  27
ENDBRANCH  25  26
ENDBRANCH  24  25
ENDBRANCH   1  24
BRANCH  11  30
HETATM   30  C17 UNL     1      18.407  -4.358  18.275  1.00  0.00     0.006 A 
HETATM   31  C18 UNL     1      17.167  -4.076  18.808  1.00  0.00     0.019 A 
HETATM   32  C19 UNL     1      17.046  -3.342  19.995  1.00  0.00     0.057 A 
HETATM   33  C20 UNL     1      18.158  -2.883  20.662  1.00  0.00     0.141 A 
HETATM   34  N6  UNL     1      19.365  -3.165  20.132  1.00  0.00    -0.346 N 
HETATM   35  C22 UNL     1      19.487  -3.876  18.983  1.00  0.00     0.103 A 
ATOM     36  H6  UNL     1      20.206  -2.837  20.606  1.00  0.00     0.167 HD
BRANCH  33  37
HETATM   37  O4  UNL     1      18.060  -2.148  21.848  1.00  0.00    -0.341 OA
HETATM   38  C21 UNL     1      19.183  -1.833  22.620  1.00  0.00     0.211 C 
ENDBRANCH  33  37
ENDBRANCH  11  30
TORSDOF 11
ENDMDL
