MODEL 2
REMARK VINA RESULT: -9.357604386      1.103      1.357
REMARK  11 active torsions:
REMARK  status: ('A' for Active; 'I' for Inactive)
REMARK    1  A    between atoms: C2_2  and  C3_3 
REMARK    2  A    between atoms: C3_3  and  O1_4 
REMARK    3  A    between atoms: O1_4  and  C4_5 
REMARK    4  A    between atoms: C4_5  and  C5_6 
REMARK    5  A    between atoms: C5_6  and  N1_7 
REMARK    6  A    between atoms: C7_10  and  N2_11 
REMARK    7  A    between atoms: N2_11  and  C8_13 
REMARK    8  A    between atoms: C8_13  and  C9_14 
REMARK    9  A    between atoms: C9_14  and  N3_15 
REMARK   10  A    between atoms: C16_27  and  C17_28 
REMARK   11  A    between atoms: C20_31  and  O4_32 
ROOT
HETATM    1  N1  UNL     1      16.941  -4.178  15.727  1.00  0.00    -0.307 N 
HETATM    2  C6  UNL     1      16.568  -3.756  16.974  1.00  0.00     0.292 A 
HETATM    3  O2  UNL     1      15.757  -2.816  17.044  1.00  0.00    -0.264 OA
HETATM    4  C7  UNL     1      17.048  -4.317  18.123  1.00  0.00     0.171 A 
HETATM    5  N4  UNL     1      17.921  -5.327  17.976  1.00  0.00    -0.335 N 
ATOM      6  H4  UNL     1      18.295  -5.766  18.817  1.00  0.00     0.168 HD
HETATM    7  C14 UNL     1      18.330  -5.792  16.781  1.00  0.00     0.076 A 
HETATM    8  C15 UNL     1      19.231  -6.828  16.668  1.00  0.00     0.120 A 
HETATM    9  N5  UNL     1      19.592  -7.233  15.447  1.00  0.00    -0.363 N 
ATOM     10  H5  UNL     1      20.259  -8.001  15.372  1.00  0.00     0.165 HD
HETATM   11  C16 UNL     1      19.124  -6.683  14.302  1.00  0.00     0.045 A 
HETATM   12  C23 UNL     1      18.228  -5.654  14.400  1.00  0.00     0.062 A 
HETATM   13  C24 UNL     1      17.814  -5.188  15.638  1.00  0.00     0.068 A 
ENDROOT
BRANCH   4  14
HETATM   14  N2  UNL     1      16.680  -3.890  19.425  1.00  0.00    -0.370 N 
ATOM     15  H2  UNL     1      15.736  -4.060  19.773  1.00  0.00     0.161 HD
BRANCH  14  16
HETATM   16  C8  UNL     1      17.650  -3.213  20.253  1.00  0.00     0.151 C 
BRANCH  16  17
HETATM   17  C9  UNL     1      17.987  -4.097  21.420  1.00  0.00     0.292 C 
BRANCH  17  18
HETATM   18  N3  UNL     1      19.183  -3.686  22.113  1.00  0.00     0.094 N 
HETATM   19  C10 UNL     1      19.845  -2.593  21.469  1.00  0.00     0.298 C 
HETATM   20  C11 UNL     1      21.364  -2.789  21.449  1.00  0.00     0.198 C 
HETATM   21  O3  UNL     1      21.784  -3.255  22.676  1.00  0.00    -0.388 OA
HETATM   22  C12 UNL     1      21.348  -4.537  22.904  1.00  0.00     0.198 C 
HETATM   23  C13 UNL     1      20.001  -4.854  22.323  1.00  0.00     0.298 C 
ENDBRANCH  17  18
ENDBRANCH  16  17
ENDBRANCH  14  16
ENDBRANCH   4  14
BRANCH   1  24
HETATM   24  C5  UNL     1      16.414  -3.564  14.539  1.00  0.00     0.159 C 
BRANCH  24  25
HETATM   25  C4  UNL     1      15.138  -4.248  14.079  1.00  0.00     0.188 C 
BRANCH  25  26
HETATM   26  O1  UNL     1      14.462  -3.521  13.132  1.00  0.00    -0.390 OA
BRANCH  26  27
HETATM   27  C3  UNL     1      13.996  -4.241  12.063  1.00  0.00     0.167 C 
BRANCH  27  28
HETATM   28  C2  UNL     1      14.390  -3.678  10.719  1.00  0.00     0.022 C 
HETATM   29  C1  UNL     1      15.668  -4.402  10.276  1.00  0.00     0.007 C 
ENDBRANCH  27  28
ENDBRANCH  26  27
ENDBRANCH  25  26
ENDBRANCH  24  25
ENDBRANCH   1  24
BRANCH  11  30
HETATM   30  C17 UNL     1      19.607  -7.221  13.035  1.00  0.00     0.006 A 
HETATM   31  C18 UNL     1      20.207  -8.456  12.916  1.00  0.00     0.019 A 
HETATM   32  C19 UNL     1      20.648  -8.923  11.671  1.00  0.00     0.057 A 
HETATM   33  C20 UNL     1      20.495  -8.165  10.534  1.00  0.00     0.141 A 
HETATM   34  N6  UNL     1      19.906  -6.958  10.662  1.00  0.00    -0.346 N 
HETATM   35  C22 UNL     1      19.478  -6.503  11.865  1.00  0.00     0.103 A 
ATOM     36  H6  UNL     1      19.780  -6.375   9.835  1.00  0.00     0.167 HD
BRANCH  33  37
HETATM   37  O4  UNL     1      20.927  -8.611   9.281  1.00  0.00    -0.341 OA
HETATM   38  C21 UNL     1      21.743  -7.829   8.457  1.00  0.00     0.211 C 
ENDBRANCH  33  37
ENDBRANCH  11  30
TORSDOF 11
ENDMDL
