MODEL 1
REMARK VINA RESULT: -9.856936045      0.000      0.000
REMARK  11 active torsions:
REMARK  status: ('A' for Active; 'I' for Inactive)
REMARK    1  A    between atoms: C2_2  and  C3_3 
REMARK    2  A    between atoms: C3_3  and  O1_4 
REMARK    3  A    between atoms: O1_4  and  C4_5 
REMARK    4  A    between atoms: C4_5  and  C5_6 
REMARK    5  A    between atoms: C5_6  and  N1_7 
REMARK    6  A    between atoms: C7_10  and  N2_11 
REMARK    7  A    between atoms: N2_11  and  C8_13 
REMARK    8  A    between atoms: C8_13  and  C9_14 
REMARK    9  A    between atoms: C9_14  and  N3_15 
REMARK   10  A    between atoms: C16_27  and  C17_28 
REMARK   11  A    between atoms: C20_31  and  O4_32 
ROOT
HETATM    1  N1  UNL     1      16.099  -4.249  14.832  1.00  0.00    -0.307 N 
HETATM    2  C6  UNL     1      15.582  -3.792  16.013  1.00  0.00     0.292 A 
HETATM    3  O2  UNL     1      14.640  -2.982  15.953  1.00  0.00    -0.264 OA
HETATM    4  C7  UNL     1      16.054  -4.184  17.233  1.00  0.00     0.171 A 
HETATM    5  N4  UNL     1      17.072  -5.061  17.227  1.00  0.00    -0.335 N 
ATOM      6  H4  UNL     1      17.444  -5.373  18.123  1.00  0.00     0.168 HD
HETATM    7  C14 UNL     1      17.628  -5.551  16.103  1.00  0.00     0.076 A 
HETATM    8  C15 UNL     1      18.674  -6.446  16.134  1.00  0.00     0.120 A 
HETATM    9  N5  UNL     1      19.175  -6.886  14.976  1.00  0.00    -0.363 N 
ATOM     10  H5  UNL     1      19.950  -7.549  15.008  1.00  0.00     0.165 HD
HETATM   11  C16 UNL     1      18.716  -6.502  13.762  1.00  0.00     0.045 A 
HETATM   12  C23 UNL     1      17.677  -5.614  13.717  1.00  0.00     0.062 A 
HETATM   13  C24 UNL     1      17.113  -5.121  14.883  1.00  0.00     0.068 A 
ENDROOT
BRANCH   4  14
HETATM   14  N2  UNL     1      15.536  -3.718  18.469  1.00  0.00    -0.370 N 
ATOM     15  H2  UNL     1      14.768  -3.048  18.483  1.00  0.00     0.161 HD
BRANCH  14  16
HETATM   16  C8  UNL     1      16.106  -4.199  19.706  1.00  0.00     0.151 C 
BRANCH  16  17
HETATM   17  C9  UNL     1      16.766  -3.050  20.411  1.00  0.00     0.292 C 
BRANCH  17  18
HETATM   18  N3  UNL     1      17.661  -3.469  21.461  1.00  0.00     0.094 N 
HETATM   19  C10 UNL     1      18.836  -2.657  21.540  1.00  0.00     0.298 C 
HETATM   20  C11 UNL     1      20.090  -3.505  21.772  1.00  0.00     0.198 C 
HETATM   21  O3  UNL     1      19.824  -4.470  22.719  1.00  0.00    -0.388 OA
HETATM   22  C12 UNL     1      18.944  -5.411  22.246  1.00  0.00     0.198 C 
HETATM   23  C13 UNL     1      17.905  -4.881  21.302  1.00  0.00     0.298 C 
ENDBRANCH  17  18
ENDBRANCH  16  17
ENDBRANCH  14  16
ENDBRANCH   4  14
BRANCH   1  24
HETATM   24  C5  UNL     1      15.575  -3.815  13.566  1.00  0.00     0.159 C 
BRANCH  24  25
HETATM   25  C4  UNL     1      14.350  -4.620  13.165  1.00  0.00     0.188 C 
BRANCH  25  26
HETATM   26  O1  UNL     1      13.729  -4.114  12.052  1.00  0.00    -0.390 OA
BRANCH  26  27
HETATM   27  C3  UNL     1      14.517  -3.340  11.241  1.00  0.00     0.167 C 
BRANCH  27  28
HETATM   28  C2  UNL     1      14.837  -3.969   9.907  1.00  0.00     0.022 C 
HETATM   29  C1  UNL     1      14.117  -3.149   8.829  1.00  0.00     0.007 C 
ENDBRANCH  27  28
ENDBRANCH  26  27
ENDBRANCH  25  26
ENDBRANCH  24  25
ENDBRANCH   1  24
BRANCH  11  30
HETATM   30  C17 UNL     1      19.361  -7.058  12.578  1.00  0.00     0.006 A 
HETATM   31  C18 UNL     1      19.874  -8.337  12.523  1.00  0.00     0.019 A 
HETATM   32  C19 UNL     1      20.479  -8.818  11.356  1.00  0.00     0.057 A 
HETATM   33  C20 UNL     1      20.578  -8.033  10.231  1.00  0.00     0.141 A 
HETATM   34  N6  UNL     1      20.073  -6.784  10.295  1.00  0.00    -0.346 N 
HETATM   35  C22 UNL     1      19.486  -6.314  11.424  1.00  0.00     0.103 A 
ATOM     36  H6  UNL     1      20.133  -6.180   9.476  1.00  0.00     0.167 HD
BRANCH  33  37
HETATM   37  O4  UNL     1      21.178  -8.493   9.055  1.00  0.00    -0.341 OA
HETATM   38  C21 UNL     1      22.028  -7.687   8.291  1.00  0.00     0.211 C 
ENDBRANCH  33  37
ENDBRANCH  11  30
TORSDOF 11
ENDMDL
