MODEL 4
REMARK VINA RESULT: -9.657808673      3.065      8.575
REMARK  9 active torsions:
REMARK  status: ('A' for Active; 'I' for Inactive)
REMARK    1  A    between atoms: N1_14  and  C10_15 
REMARK    2  A    between atoms: C10_15  and  C11_16 
REMARK    3  A    between atoms: C11_16  and  O3_17 
REMARK    4  A    between atoms: C11_16  and  C12_19 
REMARK    5  A    between atoms: C12_19  and  C13_20 
REMARK    6  A    between atoms: C12_19  and  N2_27 
REMARK    7  A    between atoms: C13_20  and  C14_21 
REMARK       I    between atoms: N2_27  and  C20_29 
REMARK    8  A    between atoms: C20_29  and  O5_31 
REMARK    9  A    between atoms: O5_31  and  C21_32 
ROOT
HETATM    1  C11 UNL     1      15.220  21.715   6.210  1.00  0.00     0.180 C 
ENDROOT
BRANCH   1   2
HETATM    2  C10 UNL     1      13.852  21.501   6.820  1.00  0.00     0.115 C 
BRANCH   2   3
HETATM    3  N1  UNL     1      12.825  22.295   6.292  1.00  0.00    -0.263 N 
HETATM    4  S1  UNL     1      11.552  21.475   5.535  1.00  0.00     0.268 S 
HETATM    5  C9  UNL     1      10.535  22.484   4.579  1.00  0.00     0.086 A 
HETATM    6  O1  UNL     1      12.165  20.439   4.599  1.00  0.00    -0.200 OA
HETATM    7  O2  UNL     1      10.724  20.688   6.517  1.00  0.00    -0.200 OA
HETATM    8  C4  UNL     1      10.218  23.831   4.794  1.00  0.00    -0.031 A 
HETATM    9  C8  UNL     1      10.003  21.829   3.491  1.00  0.00     0.029 A 
HETATM   10  C3  UNL     1      10.656  24.749   5.878  1.00  0.00     0.050 C 
HETATM   11  C5  UNL     1       9.378  24.450   3.897  1.00  0.00     0.051 A 
HETATM   12  C2  UNL     1      11.109  23.896   7.039  1.00  0.00     0.025 C 
HETATM   13  C1  UNL     1      10.833  24.580   8.368  1.00  0.00     0.016 C 
HETATM   14  C25 UNL     1      12.555  23.538   6.865  1.00  0.00     0.086 C 
HETATM   15  C6  UNL     1       8.835  23.802   2.796  1.00  0.00     0.117 A 
HETATM   16  F1  UNL     1       8.022  24.482   1.967  1.00  0.00    -0.206 F 
HETATM   17  C7  UNL     1       9.165  22.468   2.605  1.00  0.00     0.044 A 
ENDBRANCH   2   3
ENDBRANCH   1   2
BRANCH   1  18
HETATM   18  O3  UNL     1      15.949  22.622   6.943  1.00  0.00    -0.388 OA
ATOM     19  H3  UNL     1      16.751  22.857   6.491  1.00  0.00     0.210 HD
ENDBRANCH   1  18
BRANCH   1  20
HETATM   20  C12 UNL     1      15.868  20.345   6.120  1.00  0.00     0.124 C 
BRANCH  20  21
HETATM   21  C13 UNL     1      14.994  19.389   5.340  1.00  0.00     0.066 C 
BRANCH  21  22
HETATM   22  C14 UNL     1      15.631  18.749   4.202  1.00  0.00    -0.056 A 
HETATM   23  C15 UNL     1      16.550  17.744   4.382  1.00  0.00     0.007 A 
HETATM   24  C16 UNL     1      17.170  17.119   3.297  1.00  0.00     0.001 A 
HETATM   25  C17 UNL     1      16.850  17.522   2.037  1.00  0.00     0.000 A 
HETATM   26  C18 UNL     1      15.936  18.522   1.820  1.00  0.00     0.001 A 
HETATM   27  C19 UNL     1      15.330  19.132   2.918  1.00  0.00     0.007 A 
ENDBRANCH  21  22
ENDBRANCH  20  21
BRANCH  20  28
HETATM   28  N2  UNL     1      15.842  19.824   7.498  1.00  0.00    -0.329 N 
HETATM   29  C20 UNL     1      16.922  19.983   8.378  1.00  0.00     0.361 C 
HETATM   30  O4  UNL     1      17.942  20.579   7.998  1.00  0.00    -0.238 OA
ATOM     31  H2  UNL     1      15.010  19.332   7.823  1.00  0.00     0.165 HD
BRANCH  29  32
HETATM   32  O5  UNL     1      16.891  19.493   9.669  1.00  0.00    -0.294 OA
BRANCH  32  33
HETATM   33  C21 UNL     1      17.645  18.411  10.123  1.00  0.00     0.061 C 
HETATM   34  C22 UNL     1      16.697  17.380  10.710  1.00  0.00     0.046 C 
HETATM   35  C23 UNL     1      18.446  17.729   9.045  1.00  0.00     0.046 C 
HETATM   36  C24 UNL     1      18.593  18.892  11.192  1.00  0.00     0.046 C 
ENDBRANCH  32  33
ENDBRANCH  29  32
ENDBRANCH  20  28
ENDBRANCH   1  20
TORSDOF 9
ENDMDL
