MODEL 5
REMARK VINA RESULT: -9.549268038      3.394      8.874
REMARK  9 active torsions:
REMARK  status: ('A' for Active; 'I' for Inactive)
REMARK    1  A    between atoms: N1_14  and  C10_15 
REMARK    2  A    between atoms: C10_15  and  C11_16 
REMARK    3  A    between atoms: C11_16  and  O3_17 
REMARK    4  A    between atoms: C11_16  and  C12_19 
REMARK    5  A    between atoms: C12_19  and  C13_20 
REMARK    6  A    between atoms: C12_19  and  N2_27 
REMARK    7  A    between atoms: C13_20  and  C14_21 
REMARK       I    between atoms: N2_27  and  C20_29 
REMARK    8  A    between atoms: C20_29  and  O5_31 
REMARK    9  A    between atoms: O5_31  and  C21_32 
ROOT
HETATM    1  C11 UNL     1      11.788  22.441   3.679  1.00  0.00     0.180 C 
ENDROOT
BRANCH   1   2
HETATM    2  C10 UNL     1      10.989  22.146   4.928  1.00  0.00     0.115 C 
BRANCH   2   3
HETATM    3  N1  UNL     1      10.178  23.193   5.388  1.00  0.00    -0.263 N 
HETATM    4  S1  UNL     1      10.883  24.262   6.495  1.00  0.00     0.268 S 
HETATM    5  C9  UNL     1       9.753  25.274   7.312  1.00  0.00     0.086 A 
HETATM    6  O1  UNL     1      11.587  23.425   7.557  1.00  0.00    -0.200 OA
HETATM    7  O2  UNL     1      11.964  25.098   5.862  1.00  0.00    -0.200 OA
HETATM    8  C4  UNL     1       8.539  25.772   6.824  1.00  0.00    -0.031 A 
HETATM    9  C8  UNL     1      10.150  25.593   8.591  1.00  0.00     0.029 A 
HETATM   10  C3  UNL     1       7.896  25.575   5.498  1.00  0.00     0.050 C 
HETATM   11  C5  UNL     1       7.786  26.569   7.653  1.00  0.00     0.051 A 
HETATM   12  C2  UNL     1       8.976  25.162   4.527  1.00  0.00     0.025 C 
HETATM   13  C1  UNL     1       8.682  25.670   3.124  1.00  0.00     0.016 C 
HETATM   14  C25 UNL     1       9.152  23.673   4.575  1.00  0.00     0.086 C 
HETATM   15  C6  UNL     1       8.173  26.900   8.945  1.00  0.00     0.117 A 
HETATM   16  F1  UNL     1       7.376  27.687   9.690  1.00  0.00    -0.206 F 
HETATM   17  C7  UNL     1       9.380  26.393   9.405  1.00  0.00     0.044 A 
ENDBRANCH   2   3
ENDBRANCH   1   2
BRANCH   1  18
HETATM   18  O3  UNL     1      11.998  23.793   3.536  1.00  0.00    -0.388 OA
ATOM     19  H3  UNL     1      12.554  24.125   4.231  1.00  0.00     0.210 HD
ENDBRANCH   1  18
BRANCH   1  20
HETATM   20  C12 UNL     1      13.070  21.635   3.788  1.00  0.00     0.124 C 
BRANCH  20  21
HETATM   21  C13 UNL     1      12.790  20.159   3.622  1.00  0.00     0.066 C 
BRANCH  21  22
HETATM   22  C14 UNL     1      13.959  19.323   3.407  1.00  0.00    -0.056 A 
HETATM   23  C15 UNL     1      14.754  19.493   2.300  1.00  0.00     0.007 A 
HETATM   24  C16 UNL     1      15.880  18.696   2.082  1.00  0.00     0.001 A 
HETATM   25  C17 UNL     1      16.189  17.733   2.992  1.00  0.00     0.000 A 
HETATM   26  C18 UNL     1      15.418  17.535   4.109  1.00  0.00     0.001 A 
HETATM   27  C19 UNL     1      14.298  18.342   4.307  1.00  0.00     0.007 A 
ENDBRANCH  21  22
ENDBRANCH  20  21
BRANCH  20  28
HETATM   28  N2  UNL     1      13.483  21.774   5.196  1.00  0.00    -0.329 N 
HETATM   29  C20 UNL     1      14.440  22.714   5.606  1.00  0.00     0.361 C 
HETATM   30  O4  UNL     1      14.966  23.461   4.766  1.00  0.00    -0.238 OA
ATOM     31  H2  UNL     1      13.058  21.166   5.896  1.00  0.00     0.165 HD
BRANCH  29  32
HETATM   32  O5  UNL     1      14.822  22.839   6.927  1.00  0.00    -0.294 OA
BRANCH  32  33
HETATM   33  C21 UNL     1      15.341  21.803   7.702  1.00  0.00     0.061 C 
HETATM   34  C22 UNL     1      14.297  21.403   8.730  1.00  0.00     0.046 C 
HETATM   35  C23 UNL     1      15.699  20.570   6.914  1.00  0.00     0.046 C 
HETATM   36  C24 UNL     1      16.581  22.296   8.407  1.00  0.00     0.046 C 
ENDBRANCH  32  33
ENDBRANCH  29  32
ENDBRANCH  20  28
ENDBRANCH   1  20
TORSDOF 9
ENDMDL
