MODEL 3
REMARK VINA RESULT: -9.741240861      2.934      7.701
REMARK  9 active torsions:
REMARK  status: ('A' for Active; 'I' for Inactive)
REMARK    1  A    between atoms: N1_14  and  C10_15 
REMARK    2  A    between atoms: C10_15  and  C11_16 
REMARK    3  A    between atoms: C11_16  and  O3_17 
REMARK    4  A    between atoms: C11_16  and  C12_19 
REMARK    5  A    between atoms: C12_19  and  C13_20 
REMARK    6  A    between atoms: C12_19  and  N2_27 
REMARK    7  A    between atoms: C13_20  and  C14_21 
REMARK       I    between atoms: N2_27  and  C20_29 
REMARK    8  A    between atoms: C20_29  and  O5_31 
REMARK    9  A    between atoms: O5_31  and  C21_32 
ROOT
HETATM    1  C11 UNL     1      14.552  21.574   7.069  1.00  0.00     0.180 C 
ENDROOT
BRANCH   1   2
HETATM    2  C10 UNL     1      14.275  21.979   5.639  1.00  0.00     0.115 C 
BRANCH   2   3
HETATM    3  N1  UNL     1      13.004  22.521   5.399  1.00  0.00    -0.263 N 
HETATM    4  S1  UNL     1      11.817  21.446   4.852  1.00  0.00     0.268 S 
HETATM    5  C9  UNL     1      10.414  22.214   4.210  1.00  0.00     0.086 A 
HETATM    6  O1  UNL     1      12.430  20.619   3.727  1.00  0.00    -0.200 OA
HETATM    7  O2  UNL     1      11.423  20.451   5.912  1.00  0.00    -0.200 OA
HETATM    8  C4  UNL     1       9.855  23.438   4.597  1.00  0.00    -0.031 A 
HETATM    9  C8  UNL     1       9.822  21.487   3.202  1.00  0.00     0.029 A 
HETATM   10  C3  UNL     1      10.299  24.397   5.642  1.00  0.00     0.050 C 
HETATM   11  C5  UNL     1       8.723  23.867   3.945  1.00  0.00     0.051 A 
HETATM   12  C2  UNL     1      11.175  23.640   6.611  1.00  0.00     0.025 C 
HETATM   13  C1  UNL     1      11.047  24.193   8.021  1.00  0.00     0.016 C 
HETATM   14  C25 UNL     1      12.591  23.643   6.117  1.00  0.00     0.086 C 
HETATM   15  C6  UNL     1       8.114  23.145   2.927  1.00  0.00     0.117 A 
HETATM   16  F1  UNL     1       7.008  23.638   2.341  1.00  0.00    -0.206 F 
HETATM   17  C7  UNL     1       8.688  21.936   2.562  1.00  0.00     0.044 A 
ENDBRANCH   2   3
ENDBRANCH   1   2
BRANCH   1  18
HETATM   18  O3  UNL     1      13.427  21.041   7.656  1.00  0.00    -0.388 OA
ATOM     19  H3  UNL     1      13.661  20.418   8.334  1.00  0.00     0.210 HD
ENDBRANCH   1  18
BRANCH   1  20
HETATM   20  C12 UNL     1      15.726  20.613   7.023  1.00  0.00     0.124 C 
BRANCH  20  21
HETATM   21  C13 UNL     1      16.997  21.299   7.472  1.00  0.00     0.066 C 
BRANCH  21  22
HETATM   22  C14 UNL     1      17.723  20.630   8.537  1.00  0.00    -0.056 A 
HETATM   23  C15 UNL     1      17.132  19.636   9.278  1.00  0.00     0.007 A 
HETATM   24  C16 UNL     1      17.819  18.985  10.305  1.00  0.00     0.001 A 
HETATM   25  C17 UNL     1      19.103  19.349  10.570  1.00  0.00     0.000 A 
HETATM   26  C18 UNL     1      19.726  20.337   9.850  1.00  0.00     0.001 A 
HETATM   27  C19 UNL     1      19.020  20.974   8.829  1.00  0.00     0.007 A 
ENDBRANCH  21  22
ENDBRANCH  20  21
BRANCH  20  28
HETATM   28  N2  UNL     1      15.939  20.347   5.589  1.00  0.00    -0.329 N 
HETATM   29  C20 UNL     1      16.679  19.245   5.135  1.00  0.00     0.361 C 
HETATM   30  O4  UNL     1      17.177  18.459   5.955  1.00  0.00    -0.238 OA
ATOM     31  H2  UNL     1      15.536  20.986   4.904  1.00  0.00     0.165 HD
BRANCH  29  32
HETATM   32  O5  UNL     1      16.874  19.001   3.790  1.00  0.00    -0.294 OA
BRANCH  32  33
HETATM   33  C21 UNL     1      16.057  18.187   3.007  1.00  0.00     0.061 C 
HETATM   34  C22 UNL     1      16.941  17.233   2.222  1.00  0.00     0.046 C 
HETATM   35  C23 UNL     1      15.083  17.354   3.800  1.00  0.00     0.046 C 
HETATM   36  C24 UNL     1      15.277  19.054   2.051  1.00  0.00     0.046 C 
ENDBRANCH  32  33
ENDBRANCH  29  32
ENDBRANCH  20  28
ENDBRANCH   1  20
TORSDOF 9
ENDMDL
