MODEL 7
REMARK VINA RESULT: -10.162193163      4.951      6.421
REMARK  8 active torsions:
REMARK  status: ('A' for Active; 'I' for Inactive)
REMARK    1  A    between atoms: N5_13  and  C6_14 
REMARK    2  A    between atoms: C7_16  and  C8_17 
REMARK    3  A    between atoms: C8_17  and  O2_18 
REMARK    4  A    between atoms: O2_18  and  P1_19 
REMARK    5  A    between atoms: P1_19  and  O5_22 
REMARK    6  A    between atoms: O5_22  and  P2_23 
REMARK    7  A    between atoms: C9_27  and  O9_28 
REMARK    8  A    between atoms: C10_30  and  O10_31 
ROOT
HETATM    1  C6  UNL     1      32.822   5.876 -17.925  1.00  0.00     0.262 C 
HETATM    2  O1  UNL     1      32.309   5.746 -16.634  1.00  0.00    -0.353 OA
HETATM    3  C7  UNL     1      32.374   4.363 -16.467  1.00  0.00     0.180 C 
HETATM    4  C9  UNL     1      33.734   3.944 -16.957  1.00  0.00     0.182 C 
HETATM    5  C10 UNL     1      34.147   5.161 -17.795  1.00  0.00     0.198 C 
ENDROOT
BRANCH   1   6
HETATM    6  N5  UNL     1      32.957   7.244 -18.337  1.00  0.00    -0.297 N 
HETATM    7  C3  UNL     1      32.074   7.865 -19.146  1.00  0.00     0.142 A 
HETATM    8  N3  UNL     1      30.935   7.428 -19.736  1.00  0.00    -0.336 N 
HETATM    9  C4  UNL     1      32.479   9.166 -19.355  1.00  0.00     0.119 A 
HETATM   10  C2  UNL     1      30.178   8.217 -20.523  1.00  0.00     0.183 A 
ATOM     11  H3  UNL     1      30.638   6.465 -19.578  1.00  0.00     0.168 HD
HETATM   12  N2  UNL     1      30.572   9.470 -20.723  1.00  0.00    -0.339 N 
HETATM   13  C1  UNL     1      31.701   9.961 -20.158  1.00  0.00     0.148 A 
ATOM     14  H2  UNL     1      30.010  10.080 -21.318  1.00  0.00     0.167 HD
HETATM   15  N1  UNL     1      32.075  11.287 -20.396  1.00  0.00    -0.080 NA
HETATM   16  N4  UNL     1      33.619   9.301 -18.653  1.00  0.00    -0.346 N 
HETATM   17  C5  UNL     1      33.897   8.134 -18.043  1.00  0.00     0.188 A 
ATOM     18  H4  UNL     1      34.181  10.150 -18.593  1.00  0.00     0.167 HD
ENDBRANCH   1   6
BRANCH   5  19
HETATM   19  O10 UNL     1      34.685   4.780 -19.002  1.00  0.00    -0.388 OA
ATOM     20  H10 UNL     1      34.061   4.793 -19.717  1.00  0.00     0.210 HD
ENDBRANCH   5  19
BRANCH   3  21
HETATM   21  C8  UNL     1      32.123   3.953 -15.034  1.00  0.00     0.216 C 
BRANCH  21  22
HETATM   22  O2  UNL     1      30.926   4.474 -14.650  1.00  0.00    -0.287 OA
BRANCH  22  23
HETATM   23  P1  UNL     1      30.793   5.079 -13.136  1.00  0.00     0.418 P 
HETATM   24  O3  UNL     1      29.562   5.921 -13.463  1.00  0.00    -0.624 OA
HETATM   25  O4  UNL     1      29.822   4.198 -12.025  1.00  0.00    -0.624 OA
BRANCH  23  26
HETATM   26  O5  UNL     1      31.680   6.317 -12.618  1.00  0.00    -0.173 OA
BRANCH  26  27
HETATM   27  P2  UNL     1      30.988   7.803 -12.478  1.00  0.00     0.431 P 
HETATM   28  O6  UNL     1      29.902   8.101 -11.319  1.00  0.00    -0.616 OA
HETATM   29  O7  UNL     1      31.254   8.933 -13.707  1.00  0.00    -0.616 OA
HETATM   30  O8  UNL     1      32.224   8.348 -11.760  1.00  0.00    -0.616 OA
ENDBRANCH  26  27
ENDBRANCH  23  26
ENDBRANCH  22  23
ENDBRANCH  21  22
ENDBRANCH   3  21
BRANCH   4  31
HETATM   31  O9  UNL     1      33.628   2.880 -17.864  1.00  0.00    -0.390 OA
ATOM     32  H9  UNL     1      34.444   2.757 -18.334  1.00  0.00     0.210 HD
ENDBRANCH   4  31
TORSDOF 8
ENDMDL
