MODEL 9
REMARK VINA RESULT: -9.986914082      3.127      4.415
REMARK  8 active torsions:
REMARK  status: ('A' for Active; 'I' for Inactive)
REMARK    1  A    between atoms: N5_13  and  C6_14 
REMARK    2  A    between atoms: C7_16  and  C8_17 
REMARK    3  A    between atoms: C8_17  and  O2_18 
REMARK    4  A    between atoms: O2_18  and  P1_19 
REMARK    5  A    between atoms: P1_19  and  O5_22 
REMARK    6  A    between atoms: O5_22  and  P2_23 
REMARK    7  A    between atoms: C9_27  and  O9_28 
REMARK    8  A    between atoms: C10_30  and  O10_31 
ROOT
HETATM    1  C6  UNL     1      33.885   3.697 -17.326  1.00  0.00     0.262 C 
HETATM    2  O1  UNL     1      33.102   4.223 -16.299  1.00  0.00    -0.353 OA
HETATM    3  C7  UNL     1      32.729   3.056 -15.634  1.00  0.00     0.180 C 
HETATM    4  C9  UNL     1      33.980   2.231 -15.498  1.00  0.00     0.182 C 
HETATM    5  C10 UNL     1      34.891   2.880 -16.549  1.00  0.00     0.198 C 
ENDROOT
BRANCH   1   6
HETATM    6  N5  UNL     1      34.492   4.711 -18.142  1.00  0.00    -0.297 N 
HETATM    7  C3  UNL     1      34.002   5.964 -18.254  1.00  0.00     0.142 A 
HETATM    8  N3  UNL     1      32.921   6.559 -17.695  1.00  0.00    -0.336 N 
HETATM    9  C4  UNL     1      34.804   6.695 -19.104  1.00  0.00     0.119 A 
HETATM   10  C2  UNL     1      32.595   7.843 -17.937  1.00  0.00     0.183 A 
ATOM     11  H3  UNL     1      32.330   6.014 -17.066  1.00  0.00     0.168 HD
HETATM   12  N2  UNL     1      33.369   8.545 -18.757  1.00  0.00    -0.339 N 
HETATM   13  C1  UNL     1      34.463   8.002 -19.343  1.00  0.00     0.148 A 
ATOM     14  H2  UNL     1      33.134   9.519 -18.951  1.00  0.00     0.167 HD
HETATM   15  N1  UNL     1      35.249   8.780 -20.199  1.00  0.00    -0.080 NA
HETATM   16  N4  UNL     1      35.777   5.851 -19.490  1.00  0.00    -0.346 N 
HETATM   17  C5  UNL     1      35.577   4.656 -18.903  1.00  0.00     0.188 A 
ATOM     18  H4  UNL     1      36.541   6.079 -20.126  1.00  0.00     0.167 HD
ENDBRANCH   1   6
BRANCH   5  19
HETATM   19  O10 UNL     1      35.534   1.933 -17.311  1.00  0.00    -0.388 OA
ATOM     20  H10 UNL     1      35.838   1.186 -16.809  1.00  0.00     0.210 HD
ENDBRANCH   5  19
BRANCH   3  21
HETATM   21  C8  UNL     1      32.080   3.346 -14.300  1.00  0.00     0.216 C 
BRANCH  21  22
HETATM   22  O2  UNL     1      31.027   4.180 -14.516  1.00  0.00    -0.287 OA
BRANCH  22  23
HETATM   23  P1  UNL     1      30.755   5.382 -13.440  1.00  0.00     0.418 P 
HETATM   24  O3  UNL     1      29.276   5.515 -13.797  1.00  0.00    -0.624 OA
HETATM   25  O4  UNL     1      30.269   4.917 -11.858  1.00  0.00    -0.624 OA
BRANCH  23  26
HETATM   26  O5  UNL     1      31.116   6.919 -13.748  1.00  0.00    -0.173 OA
BRANCH  26  27
HETATM   27  P2  UNL     1      30.980   8.036 -12.548  1.00  0.00     0.431 P 
HETATM   28  O6  UNL     1      32.232   8.361 -11.578  1.00  0.00    -0.616 OA
HETATM   29  O7  UNL     1      29.448   8.660 -12.199  1.00  0.00    -0.616 OA
HETATM   30  O8  UNL     1      31.178   9.179 -13.545  1.00  0.00    -0.616 OA
ENDBRANCH  26  27
ENDBRANCH  23  26
ENDBRANCH  22  23
ENDBRANCH  21  22
ENDBRANCH   3  21
BRANCH   4  31
HETATM   31  O9  UNL     1      33.762   0.921 -15.947  1.00  0.00    -0.390 OA
ATOM     32  H9  UNL     1      33.953   0.847 -16.874  1.00  0.00     0.210 HD
ENDBRANCH   4  31
TORSDOF 8
ENDMDL
