MODEL 5
REMARK VINA RESULT: -10.375362380      1.318      2.488
REMARK  8 active torsions:
REMARK  status: ('A' for Active; 'I' for Inactive)
REMARK    1  A    between atoms: N5_13  and  C6_14 
REMARK    2  A    between atoms: C7_16  and  C8_17 
REMARK    3  A    between atoms: C8_17  and  O2_18 
REMARK    4  A    between atoms: O2_18  and  P1_19 
REMARK    5  A    between atoms: P1_19  and  O5_22 
REMARK    6  A    between atoms: O5_22  and  P2_23 
REMARK    7  A    between atoms: C9_27  and  O9_28 
REMARK    8  A    between atoms: C10_30  and  O10_31 
ROOT
HETATM    1  C6  UNL     1      36.682   1.162 -15.349  1.00  0.00     0.262 C 
HETATM    2  O1  UNL     1      35.310   1.172 -15.602  1.00  0.00    -0.353 OA
HETATM    3  C7  UNL     1      34.811   1.388 -14.318  1.00  0.00     0.180 C 
HETATM    4  C9  UNL     1      35.638   2.496 -13.725  1.00  0.00     0.182 C 
HETATM    5  C10 UNL     1      36.867   2.487 -14.645  1.00  0.00     0.198 C 
ENDROOT
BRANCH   1   6
HETATM    6  N5  UNL     1      37.470   1.042 -16.542  1.00  0.00    -0.297 N 
HETATM    7  C3  UNL     1      37.137   1.626 -17.713  1.00  0.00     0.142 A 
HETATM    8  N3  UNL     1      36.083   2.405 -18.060  1.00  0.00    -0.336 N 
HETATM    9  C4  UNL     1      38.090   1.326 -18.662  1.00  0.00     0.119 A 
HETATM   10  C2  UNL     1      35.928   2.899 -19.303  1.00  0.00     0.183 A 
ATOM     11  H3  UNL     1      35.381   2.624 -17.354  1.00  0.00     0.168 HD
HETATM   12  N2  UNL     1      36.847   2.607 -20.217  1.00  0.00    -0.339 N 
HETATM   13  C1  UNL     1      37.921   1.835 -19.925  1.00  0.00     0.148 A 
ATOM     14  H2  UNL     1      36.742   2.974 -21.163  1.00  0.00     0.167 HD
HETATM   15  N1  UNL     1      38.864   1.555 -20.919  1.00  0.00    -0.080 NA
HETATM   16  N4  UNL     1      38.992   0.554 -18.030  1.00  0.00    -0.346 N 
HETATM   17  C5  UNL     1      38.606   0.390 -16.751  1.00  0.00     0.188 A 
ATOM     18  H4  UNL     1      39.832   0.157 -18.452  1.00  0.00     0.167 HD
ENDBRANCH   1   6
BRANCH   5  19
HETATM   19  O10 UNL     1      38.035   2.566 -13.924  1.00  0.00    -0.388 OA
ATOM     20  H10 UNL     1      37.942   2.290 -13.020  1.00  0.00     0.210 HD
ENDBRANCH   5  19
BRANCH   3  21
HETATM   21  C8  UNL     1      33.335   1.711 -14.332  1.00  0.00     0.216 C 
BRANCH  21  22
HETATM   22  O2  UNL     1      33.195   3.056 -14.181  1.00  0.00    -0.287 OA
BRANCH  22  23
HETATM   23  P1  UNL     1      31.839   3.766 -14.760  1.00  0.00     0.418 P 
HETATM   24  O3  UNL     1      32.496   4.206 -16.067  1.00  0.00    -0.624 OA
HETATM   25  O4  UNL     1      30.781   2.784 -15.692  1.00  0.00    -0.624 OA
BRANCH  23  26
HETATM   26  O5  UNL     1      31.384   5.245 -14.323  1.00  0.00    -0.173 OA
BRANCH  26  27
HETATM   27  P2  UNL     1      30.667   5.469 -12.859  1.00  0.00     0.431 P 
HETATM   28  O6  UNL     1      30.837   6.865 -12.062  1.00  0.00    -0.616 OA
HETATM   29  O7  UNL     1      29.953   4.138 -12.100  1.00  0.00    -0.616 OA
HETATM   30  O8  UNL     1      29.322   5.764 -13.525  1.00  0.00    -0.616 OA
ENDBRANCH  26  27
ENDBRANCH  23  26
ENDBRANCH  22  23
ENDBRANCH  21  22
ENDBRANCH   3  21
BRANCH   4  31
HETATM   31  O9  UNL     1      36.115   2.135 -12.457  1.00  0.00    -0.390 OA
ATOM     32  H9  UNL     1      35.903   2.803 -11.816  1.00  0.00     0.210 HD
ENDBRANCH   4  31
TORSDOF 8
ENDMDL
