MODEL 6
REMARK VINA RESULT: -10.246833386      3.222      4.700
REMARK  8 active torsions:
REMARK  status: ('A' for Active; 'I' for Inactive)
REMARK    1  A    between atoms: N5_13  and  C6_14 
REMARK    2  A    between atoms: C7_16  and  C8_17 
REMARK    3  A    between atoms: C8_17  and  O2_18 
REMARK    4  A    between atoms: O2_18  and  P1_19 
REMARK    5  A    between atoms: P1_19  and  O5_22 
REMARK    6  A    between atoms: O5_22  and  P2_23 
REMARK    7  A    between atoms: C9_27  and  O9_28 
REMARK    8  A    between atoms: C10_30  and  O10_31 
ROOT
HETATM    1  C6  UNL     1      34.806   2.568 -14.332  1.00  0.00     0.262 C 
HETATM    2  O1  UNL     1      33.451   2.557 -14.002  1.00  0.00    -0.353 OA
HETATM    3  C7  UNL     1      32.946   3.445 -14.951  1.00  0.00     0.180 C 
HETATM    4  C9  UNL     1      33.568   3.056 -16.264  1.00  0.00     0.182 C 
HETATM    5  C10 UNL     1      34.760   2.208 -15.799  1.00  0.00     0.198 C 
ENDROOT
BRANCH   1   6
HETATM    6  N5  UNL     1      35.580   1.646 -13.550  1.00  0.00    -0.297 N 
HETATM    7  C3  UNL     1      35.059   0.543 -12.973  1.00  0.00     0.142 A 
HETATM    8  N3  UNL     1      33.799   0.044 -12.965  1.00  0.00    -0.336 N 
HETATM    9  C4  UNL     1      36.051  -0.132 -12.295  1.00  0.00     0.119 A 
HETATM   10  C2  UNL     1      33.475  -1.092 -12.318  1.00  0.00     0.183 A 
ATOM     11  H3  UNL     1      33.068   0.547 -13.469  1.00  0.00     0.168 HD
HETATM   12  N2  UNL     1      34.433  -1.741 -11.665  1.00  0.00    -0.339 N 
HETATM   13  C1  UNL     1      35.709  -1.288 -11.640  1.00  0.00     0.148 A 
ATOM     14  H2  UNL     1      34.202  -2.602 -11.169  1.00  0.00     0.167 HD
HETATM   15  N1  UNL     1      36.684  -2.005 -10.940  1.00  0.00    -0.080 NA
HETATM   16  N4  UNL     1      37.168   0.593 -12.483  1.00  0.00    -0.346 N 
HETATM   17  C5  UNL     1      36.871   1.664 -13.242  1.00  0.00     0.188 A 
ATOM     18  H4  UNL     1      38.091   0.367 -12.111  1.00  0.00     0.167 HD
ENDBRANCH   1   6
BRANCH   5  19
HETATM   19  O10 UNL     1      35.908   2.538 -16.481  1.00  0.00    -0.388 OA
ATOM     20  H10 UNL     1      35.882   3.404 -16.870  1.00  0.00     0.210 HD
ENDBRANCH   5  19
BRANCH   3  21
HETATM   21  C8  UNL     1      31.435   3.424 -14.997  1.00  0.00     0.216 C 
BRANCH  21  22
HETATM   22  O2  UNL     1      30.988   4.681 -14.731  1.00  0.00    -0.287 OA
BRANCH  22  23
HETATM   23  P1  UNL     1      30.801   5.125 -13.167  1.00  0.00     0.418 P 
HETATM   24  O3  UNL     1      29.533   5.932 -13.434  1.00  0.00    -0.624 OA
HETATM   25  O4  UNL     1      29.861   4.089 -12.169  1.00  0.00    -0.624 OA
BRANCH  23  26
HETATM   26  O5  UNL     1      31.615   6.347 -12.512  1.00  0.00    -0.173 OA
BRANCH  26  27
HETATM   27  P2  UNL     1      30.951   7.853 -12.515  1.00  0.00     0.431 P 
HETATM   28  O6  UNL     1      29.811   8.252 -11.442  1.00  0.00    -0.616 OA
HETATM   29  O7  UNL     1      31.308   8.888 -13.803  1.00  0.00    -0.616 OA
HETATM   30  O8  UNL     1      32.158   8.423 -11.770  1.00  0.00    -0.616 OA
ENDBRANCH  26  27
ENDBRANCH  23  26
ENDBRANCH  22  23
ENDBRANCH  21  22
ENDBRANCH   3  21
BRANCH   4  31
HETATM   31  O9  UNL     1      34.127   4.175 -16.898  1.00  0.00    -0.390 OA
ATOM     32  H9  UNL     1      35.047   4.031 -17.084  1.00  0.00     0.210 HD
ENDBRANCH   4  31
TORSDOF 8
ENDMDL
