MODEL 3
REMARK VINA RESULT: -8.425033031      1.840      2.363
REMARK  8 active torsions:
REMARK  status: ('A' for Active; 'I' for Inactive)
REMARK    1  A    between atoms: N1_1  and  C1_5 
REMARK    2  A    between atoms: C1_5  and  C2_6 
REMARK    3  A    between atoms: C2_6  and  N2_7 
REMARK       I    between atoms: N2_7  and  C3_9 
REMARK    4  A    between atoms: C3_9  and  C4_11 
REMARK    5  A    between atoms: C7_16  and  C8_17 
REMARK    6  A    between atoms: C10_21  and  N5_22 
REMARK    7  A    between atoms: N5_22  and  C11_24 
REMARK    8  A    between atoms: C13_26  and  N6_27 
ROOT
HETATM    1  C8  UNL     1      15.691  -6.150  14.683  1.00  0.00     0.035 A 
HETATM    2  C9  UNL     1      16.109  -4.871  14.938  1.00  0.00     0.110 A 
HETATM    3  N4  UNL     1      16.416  -4.122  13.931  1.00  0.00    -0.345 N 
ATOM      4  H4  UNL     1      16.732  -3.164  14.085  1.00  0.00     0.167 HD
HETATM    5  C10 UNL     1      16.321  -4.599  12.696  1.00  0.00     0.150 A 
HETATM    6  S1  UNL     1      15.767  -6.195  12.977  1.00  0.00    -0.052 SA
ENDROOT
BRANCH   1   7
HETATM    7  C7  UNL     1      15.293  -7.175  15.644  1.00  0.00    -0.001 A 
HETATM    8  C6  UNL     1      15.679  -8.482  15.485  1.00  0.00     0.100 A 
HETATM    9  N3  UNL     1      15.315  -9.424  16.366  1.00  0.00    -0.373 N 
HETATM   10  C5  UNL     1      14.565  -9.149  17.439  1.00  0.00     0.104 A 
ATOM     11  H3  UNL     1      15.622 -10.385  16.214  1.00  0.00     0.164 HD
HETATM   12  C4  UNL     1      14.148  -7.852  17.649  1.00  0.00     0.048 A 
HETATM   13  C20 UNL     1      14.520  -6.882  16.746  1.00  0.00     0.032 A 
BRANCH  12  14
HETATM   14  C3  UNL     1      13.315  -7.513  18.824  1.00  0.00     0.253 C 
HETATM   15  N2  UNL     1      11.995  -7.941  19.010  1.00  0.00    -0.355 N 
ATOM     16  H2  UNL     1      11.607  -8.533  18.275  1.00  0.00     0.162 HD
HETATM   17  O1  UNL     1      13.869  -6.793  19.686  1.00  0.00    -0.268 OA
BRANCH  15  18
HETATM   18  C2  UNL     1      11.123  -7.650  20.108  1.00  0.00     0.150 C 
BRANCH  18  19
HETATM   19  C1  UNL     1      10.347  -6.384  19.961  1.00  0.00     0.249 C 
BRANCH  19  20
HETATM   20  N1  UNL     1      11.121  -5.229  20.306  1.00  0.00    -0.078 N 
ATOM     21  H13 UNL     1      11.695  -5.402  21.131  1.00  0.00     0.274 HD
ATOM     22  H12 UNL     1      11.863  -5.065  19.624  1.00  0.00     0.274 HD
ATOM     23  H11 UNL     1      10.543  -4.397  20.427  1.00  0.00     0.274 HD
ENDBRANCH  19  20
ENDBRANCH  18  19
ENDBRANCH  15  18
ENDBRANCH  12  14
ENDBRANCH   1   7
BRANCH   5  24
HETATM   24  N5  UNL     1      16.612  -3.935  11.454  1.00  0.00    -0.323 N 
ATOM     25  H5  UNL     1      17.454  -4.179  10.933  1.00  0.00     0.169 HD
BRANCH  24  26
HETATM   26  C11 UNL     1      15.739  -2.948  10.952  1.00  0.00     0.108 A 
HETATM   27  C12 UNL     1      14.440  -2.800  11.370  1.00  0.00     0.077 A 
HETATM   28  C13 UNL     1      13.585  -1.824  10.871  1.00  0.00     0.035 A 
HETATM   29  C18 UNL     1      14.099  -0.990   9.918  1.00  0.00     0.046 A 
HETATM   30  C19 UNL     1      15.426  -1.132   9.482  1.00  0.00     0.092 A 
HETATM   31  N7  UNL     1      16.178  -2.092  10.010  1.00  0.00    -0.352 N 
ATOM     32  H7  UNL     1      17.140  -2.184   9.685  1.00  0.00     0.166 HD
BRANCH  28  33
HETATM   33  N6  UNL     1      12.264  -1.683  11.320  1.00  0.00    -0.377 N 
HETATM   34  C14 UNL     1      11.532  -2.786  11.924  1.00  0.00     0.149 C 
HETATM   35  C15 UNL     1      10.537  -2.370  12.950  1.00  0.00     0.187 C 
HETATM   36  O2  UNL     1      10.096  -1.076  12.885  1.00  0.00    -0.388 OA
HETATM   37  C16 UNL     1      11.050  -0.124  12.614  1.00  0.00     0.187 C 
HETATM   38  C17 UNL     1      11.555  -0.441  11.196  1.00  0.00     0.149 C 
ENDBRANCH  28  33
ENDBRANCH  24  26
ENDBRANCH   5  24
TORSDOF 8
ENDMDL
