MODEL 2
REMARK VINA RESULT: -8.443352991      4.874     11.117
REMARK  8 active torsions:
REMARK  status: ('A' for Active; 'I' for Inactive)
REMARK    1  A    between atoms: N1_1  and  C1_5 
REMARK    2  A    between atoms: C1_5  and  C2_6 
REMARK    3  A    between atoms: C2_6  and  N2_7 
REMARK       I    between atoms: N2_7  and  C3_9 
REMARK    4  A    between atoms: C3_9  and  C4_11 
REMARK    5  A    between atoms: C7_16  and  C8_17 
REMARK    6  A    between atoms: C10_21  and  N5_22 
REMARK    7  A    between atoms: N5_22  and  C11_24 
REMARK    8  A    between atoms: C13_26  and  N6_27 
ROOT
HETATM    1  C8  UNL     1      16.972  -1.050   9.405  1.00  0.00     0.035 A 
HETATM    2  C9  UNL     1      16.691   0.249   9.075  1.00  0.00     0.110 A 
HETATM    3  N4  UNL     1      15.477   0.664   9.229  1.00  0.00    -0.345 N 
ATOM      4  H4  UNL     1      15.232   1.626   8.993  1.00  0.00     0.167 HD
HETATM    5  C10 UNL     1      14.549  -0.162   9.695  1.00  0.00     0.150 A 
HETATM    6  S1  UNL     1      15.443  -1.603   9.927  1.00  0.00    -0.052 SA
ENDROOT
BRANCH   1   7
HETATM    7  C7  UNL     1      18.256  -1.742   9.319  1.00  0.00    -0.001 A 
HETATM    8  C6  UNL     1      18.444  -2.961   9.922  1.00  0.00     0.100 A 
HETATM    9  N3  UNL     1      19.620  -3.598   9.844  1.00  0.00    -0.373 N 
HETATM   10  C5  UNL     1      20.666  -3.091   9.183  1.00  0.00     0.104 A 
ATOM     11  H3  UNL     1      19.722  -4.502  10.306  1.00  0.00     0.164 HD
HETATM   12  C4  UNL     1      20.534  -1.869   8.557  1.00  0.00     0.048 A 
HETATM   13  C20 UNL     1      19.327  -1.212   8.636  1.00  0.00     0.032 A 
BRANCH  12  14
HETATM   14  C3  UNL     1      21.672  -1.277   7.819  1.00  0.00     0.253 C 
HETATM   15  N2  UNL     1      22.816  -1.983   7.427  1.00  0.00    -0.355 N 
ATOM     16  H2  UNL     1      22.839  -2.973   7.673  1.00  0.00     0.162 HD
HETATM   17  O1  UNL     1      21.560  -0.060   7.546  1.00  0.00    -0.268 OA
BRANCH  15  18
HETATM   18  C2  UNL     1      23.958  -1.484   6.722  1.00  0.00     0.150 C 
BRANCH  18  19
HETATM   19  C1  UNL     1      25.022  -0.911   7.598  1.00  0.00     0.249 C 
BRANCH  19  20
HETATM   20  N1  UNL     1      24.727   0.431   8.004  1.00  0.00    -0.078 N 
ATOM     21  H13 UNL     1      23.833   0.743   7.625  1.00  0.00     0.274 HD
ATOM     22  H12 UNL     1      24.506   0.475   8.999  1.00  0.00     0.274 HD
ATOM     23  H11 UNL     1      25.476   1.081   7.764  1.00  0.00     0.274 HD
ENDBRANCH  19  20
ENDBRANCH  18  19
ENDBRANCH  15  18
ENDBRANCH  12  14
ENDBRANCH   1   7
BRANCH   5  24
HETATM   24  N5  UNL     1      13.156   0.101   9.938  1.00  0.00    -0.323 N 
ATOM     25  H5  UNL     1      12.652   0.757   9.341  1.00  0.00     0.169 HD
BRANCH  24  26
HETATM   26  C11 UNL     1      12.482  -0.541  10.997  1.00  0.00     0.108 A 
HETATM   27  C12 UNL     1      12.962  -1.657  11.635  1.00  0.00     0.077 A 
HETATM   28  C13 UNL     1      12.293  -2.286  12.679  1.00  0.00     0.035 A 
HETATM   29  C18 UNL     1      11.101  -1.736  13.060  1.00  0.00     0.046 A 
HETATM   30  C19 UNL     1      10.600  -0.595  12.414  1.00  0.00     0.092 A 
HETATM   31  N7  UNL     1      11.302  -0.054  11.425  1.00  0.00    -0.352 N 
ATOM     32  H7  UNL     1      10.926   0.774  10.964  1.00  0.00     0.166 HD
BRANCH  28  33
HETATM   33  N6  UNL     1      12.806  -3.420  13.325  1.00  0.00    -0.377 N 
HETATM   34  C14 UNL     1      11.985  -4.589  13.600  1.00  0.00     0.149 C 
HETATM   35  C15 UNL     1      12.730  -5.878  13.586  1.00  0.00     0.187 C 
HETATM   36  O2  UNL     1      14.083  -5.803  13.783  1.00  0.00    -0.388 OA
HETATM   37  C16 UNL     1      14.732  -4.774  13.142  1.00  0.00     0.187 C 
HETATM   38  C17 UNL     1      14.171  -3.484  13.764  1.00  0.00     0.149 C 
ENDBRANCH  28  33
ENDBRANCH  24  26
ENDBRANCH   5  24
TORSDOF 8
ENDMDL
