MODEL 1
REMARK VINA RESULT: -8.453320771      0.000      0.000
REMARK  8 active torsions:
REMARK  status: ('A' for Active; 'I' for Inactive)
REMARK    1  A    between atoms: N1_1  and  C1_5 
REMARK    2  A    between atoms: C1_5  and  C2_6 
REMARK    3  A    between atoms: C2_6  and  N2_7 
REMARK       I    between atoms: N2_7  and  C3_9 
REMARK    4  A    between atoms: C3_9  and  C4_11 
REMARK    5  A    between atoms: C7_16  and  C8_17 
REMARK    6  A    between atoms: C10_21  and  N5_22 
REMARK    7  A    between atoms: N5_22  and  C11_24 
REMARK    8  A    between atoms: C13_26  and  N6_27 
ROOT
HETATM    1  C8  UNL     1      15.440  -6.932  16.203  1.00  0.00     0.035 A 
HETATM    2  C9  UNL     1      16.714  -6.543  16.522  1.00  0.00     0.110 A 
HETATM    3  N4  UNL     1      17.155  -5.439  16.013  1.00  0.00    -0.345 N 
ATOM      4  H4  UNL     1      18.099  -5.120  16.229  1.00  0.00     0.167 HD
HETATM    5  C10 UNL     1      16.378  -4.723  15.211  1.00  0.00     0.150 A 
HETATM    6  S1  UNL     1      14.947  -5.662  15.173  1.00  0.00    -0.052 SA
ENDROOT
BRANCH   1   7
HETATM    7  C7  UNL     1      14.727  -8.127  16.648  1.00  0.00    -0.001 A 
HETATM    8  C6  UNL     1      15.363  -9.341  16.728  1.00  0.00     0.100 A 
HETATM    9  N3  UNL     1      14.711 -10.439  17.136  1.00  0.00    -0.373 N 
HETATM   10  C5  UNL     1      13.421 -10.416  17.485  1.00  0.00     0.104 A 
ATOM     11  H3  UNL     1      15.218 -11.323  17.182  1.00  0.00     0.164 HD
HETATM   12  C4  UNL     1      12.731  -9.224  17.424  1.00  0.00     0.048 A 
HETATM   13  C20 UNL     1      13.398  -8.094  17.005  1.00  0.00     0.032 A 
BRANCH  12  14
HETATM   14  C3  UNL     1      11.302  -9.163  17.801  1.00  0.00     0.253 C 
HETATM   15  N2  UNL     1      10.434  -8.120  17.454  1.00  0.00    -0.355 N 
ATOM     16  H2  UNL     1      10.838  -7.366  16.898  1.00  0.00     0.162 HD
HETATM   17  O1  UNL     1      10.882 -10.132  18.474  1.00  0.00    -0.268 OA
BRANCH  15  18
HETATM   18  C2  UNL     1       9.048  -7.982  17.787  1.00  0.00     0.150 C 
BRANCH  18  19
HETATM   19  C1  UNL     1       8.792  -7.418  19.144  1.00  0.00     0.249 C 
BRANCH  19  20
HETATM   20  N1  UNL     1       9.642  -6.303  19.438  1.00  0.00    -0.078 N 
ATOM     21  H13 UNL     1      10.384  -6.213  18.746  1.00  0.00     0.274 HD
ATOM     22  H12 UNL     1       9.159  -5.419  19.275  1.00  0.00     0.274 HD
ATOM     23  H11 UNL     1      10.022  -6.345  20.384  1.00  0.00     0.274 HD
ENDBRANCH  19  20
ENDBRANCH  18  19
ENDBRANCH  15  18
ENDBRANCH  12  14
ENDBRANCH   1   7
BRANCH   5  24
HETATM   24  N5  UNL     1      16.676  -3.480  14.551  1.00  0.00    -0.323 N 
ATOM     25  H5  UNL     1      17.123  -2.724  15.071  1.00  0.00     0.169 HD
BRANCH  24  26
HETATM   26  C11 UNL     1      16.354  -3.298  13.191  1.00  0.00     0.108 A 
HETATM   27  C12 UNL     1      15.181  -2.733  12.758  1.00  0.00     0.077 A 
HETATM   28  C13 UNL     1      14.869  -2.556  11.415  1.00  0.00     0.035 A 
HETATM   29  C18 UNL     1      15.803  -2.978  10.510  1.00  0.00     0.046 A 
HETATM   30  C19 UNL     1      17.006  -3.558  10.941  1.00  0.00     0.092 A 
HETATM   31  N7  UNL     1      17.227  -3.691  12.244  1.00  0.00    -0.352 N 
ATOM     32  H7  UNL     1      18.105  -4.114  12.544  1.00  0.00     0.166 HD
BRANCH  28  33
HETATM   33  N6  UNL     1      13.669  -1.966  10.993  1.00  0.00    -0.377 N 
HETATM   34  C14 UNL     1      12.371  -2.518  11.351  1.00  0.00     0.149 C 
HETATM   35  C15 UNL     1      11.293  -1.501  11.494  1.00  0.00     0.187 C 
HETATM   36  O2  UNL     1      11.491  -0.307  10.853  1.00  0.00    -0.388 OA
HETATM   37  C16 UNL     1      12.761   0.213  10.921  1.00  0.00     0.187 C 
HETATM   38  C17 UNL     1      13.655  -0.790  10.171  1.00  0.00     0.149 C 
ENDBRANCH  28  33
ENDBRANCH  24  26
ENDBRANCH   5  24
TORSDOF 8
ENDMDL
