MODEL 3
REMARK VINA RESULT: -8.994699610      2.325      5.799
REMARK  13 active torsions:
REMARK  status: ('A' for Active; 'I' for Inactive)
REMARK    1  A    between atoms: C2_2  and  C4_4 
REMARK    2  A    between atoms: C4_4  and  N1_5 
REMARK    3  A    between atoms: N1_5  and  C5_6 
REMARK    4  A    between atoms: N1_5  and  S1_31 
REMARK    5  A    between atoms: C5_6  and  C6_7 
REMARK    6  A    between atoms: C6_7  and  O1_8 
REMARK    7  A    between atoms: C6_7  and  C7_10 
REMARK    8  A    between atoms: C7_10  and  C8_11 
REMARK    9  A    between atoms: C7_10  and  N2_18 
REMARK   10  A    between atoms: C8_11  and  C9_12 
REMARK       I    between atoms: N2_18  and  C15_20 
REMARK   11  A    between atoms: C15_20  and  O3_22 
REMARK   12  A    between atoms: O3_22  and  C16_23 
REMARK   13  A    between atoms: S1_31  and  C22_34 
ROOT
HETATM    1  C7  UNL     1     -12.496  19.981 -17.275  1.00  0.00     0.029 C 
ENDROOT
BRANCH   1   2
HETATM    2  C6  UNL     1     -12.157  19.096 -18.448  1.00  0.00     0.203 C 
BRANCH   2   3
HETATM    3  C5  UNL     1     -10.959  18.253 -18.279  1.00  0.00     0.119 C 
BRANCH   3   4
HETATM    4  N1  UNL     1      -9.718  18.895 -18.177  1.00  0.00    -0.262 N 
BRANCH   4   5
HETATM    5  C4  UNL     1      -8.775  18.536 -17.212  1.00  0.00     0.085 C 
BRANCH   5   6
HETATM    6  C2  UNL     1      -9.245  17.520 -16.179  1.00  0.00     0.017 C 
HETATM    7  C1  UNL     1      -8.381  16.292 -16.112  1.00  0.00     0.015 C 
HETATM    8  C3  UNL     1      -9.372  18.137 -14.806  1.00  0.00     0.015 C 
ENDBRANCH   5   6
ENDBRANCH   4   5
BRANCH   4   9
HETATM    9  S1  UNL     1      -9.188  19.658 -19.589  1.00  0.00     0.267 S 
HETATM   10  O6  UNL     1     -10.176  19.329 -20.698  1.00  0.00    -0.200 OA
HETATM   11  O7  UNL     1      -9.121  21.172 -19.437  1.00  0.00    -0.200 OA
BRANCH   9  12
HETATM   12  C22 UNL     1      -7.602  19.121 -20.131  1.00  0.00     0.080 A 
HETATM   13  C23 UNL     1      -6.442  19.824 -19.886  1.00  0.00     0.027 A 
HETATM   14  C24 UNL     1      -5.207  19.385 -20.326  1.00  0.00     0.028 A 
HETATM   15  C25 UNL     1      -5.090  18.210 -21.038  1.00  0.00     0.046 A 
HETATM   16  N3  UNL     1      -3.806  17.750 -21.499  1.00  0.00    -0.102 NA
HETATM   17  C26 UNL     1      -6.239  17.496 -21.292  1.00  0.00     0.028 A 
HETATM   18  C27 UNL     1      -7.465  17.938 -20.851  1.00  0.00     0.027 A 
ENDBRANCH   9  12
ENDBRANCH   4   9
ENDBRANCH   3   4
ENDBRANCH   2   3
BRANCH   2  19
HETATM   19  O1  UNL     1     -13.273  18.241 -18.614  1.00  0.00    -0.385 OA
ATOM     20  H1  UNL     1     -13.778  18.260 -17.809  1.00  0.00     0.211 HD
ENDBRANCH   2  19
ENDBRANCH   1   2
BRANCH   1  21
HETATM   21  C8  UNL     1     -12.732  19.210 -16.005  1.00  0.00     0.094 C 
BRANCH  21  22
HETATM   22  C9  UNL     1     -13.297  19.978 -14.896  1.00  0.00    -0.053 A 
HETATM   23  C10 UNL     1     -12.439  20.450 -13.903  1.00  0.00     0.007 A 
HETATM   24  C11 UNL     1     -12.856  21.151 -12.804  1.00  0.00     0.001 A 
HETATM   25  C12 UNL     1     -14.206  21.412 -12.660  1.00  0.00     0.000 A 
HETATM   26  C13 UNL     1     -15.090  20.967 -13.611  1.00  0.00     0.001 A 
HETATM   27  C14 UNL     1     -14.619  20.251 -14.723  1.00  0.00     0.007 A 
ENDBRANCH  21  22
ENDBRANCH   1  21
BRANCH   1  28
HETATM   28  N2  UNL     1     -13.335  21.076 -17.561  1.00  0.00    -0.307 N 
HETATM   29  C15 UNL     1     -12.931  22.434 -17.555  1.00  0.00     0.365 C 
HETATM   30  O2  UNL     1     -11.763  22.730 -17.275  1.00  0.00    -0.238 OA
ATOM     31  H2  UNL     1     -14.308  20.876 -17.791  1.00  0.00     0.170 HD
BRANCH  29  32
HETATM   32  O3  UNL     1     -13.836  23.456 -17.860  1.00  0.00    -0.296 OA
BRANCH  32  33
HETATM   33  C16 UNL     1     -14.986  23.209 -18.653  1.00  0.00     0.166 C 
HETATM   34  C17 UNL     1     -16.249  23.327 -17.867  1.00  0.00     0.204 C 
HETATM   35  O4  UNL     1     -17.172  24.028 -18.597  1.00  0.00    -0.358 OA
HETATM   36  C18 UNL     1     -16.619  24.385 -19.816  1.00  0.00     0.266 C 
HETATM   37  O5  UNL     1     -16.888  25.702 -20.168  1.00  0.00    -0.361 OA
HETATM   38  C21 UNL     1     -15.116  24.365 -19.624  1.00  0.00     0.075 C 
HETATM   39  C19 UNL     1     -16.073  26.531 -19.435  1.00  0.00     0.171 C 
HETATM   40  C20 UNL     1     -14.859  25.700 -19.006  1.00  0.00     0.038 C 
ENDBRANCH  32  33
ENDBRANCH  29  32
ENDBRANCH   1  28
TORSDOF 13
ENDMDL
