MODEL 1
REMARK VINA RESULT: -9.159449971      0.000      0.000
REMARK  13 active torsions:
REMARK  status: ('A' for Active; 'I' for Inactive)
REMARK    1  A    between atoms: C2_2  and  C4_4 
REMARK    2  A    between atoms: C4_4  and  N1_5 
REMARK    3  A    between atoms: N1_5  and  C5_6 
REMARK    4  A    between atoms: N1_5  and  S1_31 
REMARK    5  A    between atoms: C5_6  and  C6_7 
REMARK    6  A    between atoms: C6_7  and  O1_8 
REMARK    7  A    between atoms: C6_7  and  C7_10 
REMARK    8  A    between atoms: C7_10  and  C8_11 
REMARK    9  A    between atoms: C7_10  and  N2_18 
REMARK   10  A    between atoms: C8_11  and  C9_12 
REMARK       I    between atoms: N2_18  and  C15_20 
REMARK   11  A    between atoms: C15_20  and  O3_22 
REMARK   12  A    between atoms: O3_22  and  C16_23 
REMARK   13  A    between atoms: S1_31  and  C22_34 
ROOT
HETATM    1  C7  UNL     1     -12.144  21.165 -19.426  1.00  0.00     0.029 C 
ENDROOT
BRANCH   1   2
HETATM    2  C6  UNL     1     -11.017  20.324 -19.968  1.00  0.00     0.203 C 
BRANCH   2   3
HETATM    3  C5  UNL     1      -9.761  20.377 -19.198  1.00  0.00     0.119 C 
BRANCH   3   4
HETATM    4  N1  UNL     1      -9.298  19.187 -18.621  1.00  0.00    -0.262 N 
BRANCH   4   5
HETATM    5  C4  UNL     1      -8.080  18.611 -18.986  1.00  0.00     0.085 C 
BRANCH   5   6
HETATM    6  C2  UNL     1      -7.761  18.633 -20.475  1.00  0.00     0.017 C 
HETATM    7  C1  UNL     1      -6.377  19.131 -20.783  1.00  0.00     0.015 C 
HETATM    8  C3  UNL     1      -7.976  17.280 -21.112  1.00  0.00     0.015 C 
ENDBRANCH   5   6
ENDBRANCH   4   5
BRANCH   4   9
HETATM    9  S1  UNL     1      -9.946  18.827 -17.102  1.00  0.00     0.267 S 
HETATM   10  O6  UNL     1     -10.039  20.126 -16.314  1.00  0.00    -0.200 OA
HETATM   11  O7  UNL     1     -11.339  18.220 -17.197  1.00  0.00    -0.200 OA
BRANCH   9  12
HETATM   12  C22 UNL     1      -8.961  17.717 -16.157  1.00  0.00     0.080 A 
HETATM   13  C23 UNL     1      -8.873  16.368 -16.427  1.00  0.00     0.027 A 
HETATM   14  C24 UNL     1      -8.095  15.514 -15.667  1.00  0.00     0.028 A 
HETATM   15  C25 UNL     1      -7.369  15.987 -14.596  1.00  0.00     0.046 A 
HETATM   16  N3  UNL     1      -6.559  15.101 -13.802  1.00  0.00    -0.102 NA
HETATM   17  C26 UNL     1      -7.446  17.332 -14.311  1.00  0.00     0.028 A 
HETATM   18  C27 UNL     1      -8.221  18.178 -15.072  1.00  0.00     0.027 A 
ENDBRANCH   9  12
ENDBRANCH   4   9
ENDBRANCH   3   4
ENDBRANCH   2   3
BRANCH   2  19
HETATM   19  O1  UNL     1     -11.491  18.990 -19.940  1.00  0.00    -0.385 OA
ATOM     20  H1  UNL     1     -12.422  19.015 -19.753  1.00  0.00     0.211 HD
ENDBRANCH   2  19
ENDBRANCH   1   2
BRANCH   1  21
HETATM   21  C8  UNL     1     -12.023  22.619 -19.792  1.00  0.00     0.094 C 
BRANCH  21  22
HETATM   22  C9  UNL     1     -13.274  23.377 -19.792  1.00  0.00    -0.053 A 
HETATM   23  C10 UNL     1     -14.007  23.459 -20.977  1.00  0.00     0.007 A 
HETATM   24  C11 UNL     1     -15.173  24.164 -21.106  1.00  0.00     0.001 A 
HETATM   25  C12 UNL     1     -15.663  24.837 -20.002  1.00  0.00     0.000 A 
HETATM   26  C13 UNL     1     -14.977  24.786 -18.814  1.00  0.00     0.001 A 
HETATM   27  C14 UNL     1     -13.784  24.051 -18.727  1.00  0.00     0.007 A 
ENDBRANCH  21  22
ENDBRANCH   1  21
BRANCH   1  28
HETATM   28  N2  UNL     1     -12.582  20.834 -18.128  1.00  0.00    -0.307 N 
HETATM   29  C15 UNL     1     -13.909  20.480 -17.782  1.00  0.00     0.365 C 
HETATM   30  O2  UNL     1     -14.787  20.453 -18.652  1.00  0.00    -0.238 OA
ATOM     31  H2  UNL     1     -11.889  20.849 -17.380  1.00  0.00     0.170 HD
BRANCH  29  32
HETATM   32  O3  UNL     1     -14.248  20.158 -16.464  1.00  0.00    -0.296 OA
BRANCH  32  33
HETATM   33  C16 UNL     1     -14.550  21.167 -15.513  1.00  0.00     0.166 C 
HETATM   34  C17 UNL     1     -15.601  20.732 -14.546  1.00  0.00     0.204 C 
HETATM   35  O4  UNL     1     -15.233  21.105 -13.281  1.00  0.00    -0.358 OA
HETATM   36  C18 UNL     1     -14.013  21.760 -13.331  1.00  0.00     0.266 C 
HETATM   37  O5  UNL     1     -13.136  21.348 -12.337  1.00  0.00    -0.361 OA
HETATM   38  C21 UNL     1     -13.341  21.310 -14.612  1.00  0.00     0.075 C 
HETATM   39  C19 UNL     1     -12.614  20.125 -12.686  1.00  0.00     0.171 C 
HETATM   40  C20 UNL     1     -12.735  20.006 -14.209  1.00  0.00     0.038 C 
ENDBRANCH  32  33
ENDBRANCH  29  32
ENDBRANCH   1  28
TORSDOF 13
ENDMDL
