MODEL 1
REMARK VINA RESULT: -10.591052177      0.000      0.000
REMARK  15 active torsions:
REMARK  status: ('A' for Active; 'I' for Inactive)
REMARK    1  A    between atoms: C1_2  and  C2_4 
REMARK    2  A    between atoms: C2_4  and  C3_5 
REMARK    3  A    between atoms: C2_4  and  N2_10 
REMARK    4  A    between atoms: C3_5  and  C4_6 
REMARK    5  A    between atoms: C4_6  and  C5_7 
REMARK       I    between atoms: N2_10  and  C6_12 
REMARK    6  A    between atoms: C6_12  and  C7_14 
REMARK    7  A    between atoms: C7_14  and  C8_15 
REMARK    8  A    between atoms: C7_14  and  N3_20 
REMARK    9  A    between atoms: C8_15  and  C9_16 
REMARK   10  A    between atoms: C9_16  and  C10_17 
REMARK       I    between atoms: N3_20  and  C11_22 
REMARK   11  A    between atoms: C11_22  and  C12_24 
REMARK   12  A    between atoms: C12_24  and  C13_25 
REMARK   13  A    between atoms: C13_25  and  C14_26 
REMARK   14  A    between atoms: C17_29  and  C18_30 
REMARK   15  A    between atoms: C20_32  and  C21_33 
ROOT
HETATM    1  N3  UNL     1       7.182  24.610   3.406  1.00  0.00    -0.348 N 
ATOM      2  H3  UNL     1       7.336  23.778   2.837  1.00  0.00     0.163 HD
HETATM    3  C11 UNL     1       6.495  24.478   4.671  1.00  0.00     0.218 C 
HETATM    4  O7  UNL     1       6.348  25.535   5.311  1.00  0.00    -0.274 OA
ENDROOT
BRANCH   1   5
HETATM    5  C7  UNL     1       7.658  25.888   2.926  1.00  0.00     0.177 C 
BRANCH   5   6
HETATM    6  C6  UNL     1       7.573  25.985   1.447  1.00  0.00     0.241 C 
HETATM    7  N2  UNL     1       8.737  26.117   0.682  1.00  0.00    -0.346 N 
ATOM      8  H2  UNL     1       9.628  26.141   1.178  1.00  0.00     0.163 HD
HETATM    9  O4  UNL     1       6.457  25.947   0.898  1.00  0.00    -0.271 OA
BRANCH   7  10
HETATM   10  C2  UNL     1       8.771  26.221  -0.758  1.00  0.00     0.174 C 
BRANCH  10  11
HETATM   11  C1  UNL     1       8.388  24.895  -1.315  1.00  0.00     0.254 C 
HETATM   12  N1  UNL     1       9.053  23.696  -0.958  1.00  0.00    -0.060 NA
HETATM   13  O1  UNL     1       7.441  24.821  -2.133  1.00  0.00    -0.275 OA
ENDBRANCH  10  11
BRANCH  10  14
HETATM   14  C3  UNL     1      10.092  26.682  -1.298  1.00  0.00     0.045 C 
BRANCH  14  15
HETATM   15  C4  UNL     1      11.224  26.582  -0.318  1.00  0.00     0.116 C 
BRANCH  15  16
HETATM   16  C5  UNL     1      12.453  27.266  -0.786  1.00  0.00     0.172 C 
HETATM   17  O2  UNL     1      12.539  28.499  -0.996  1.00  0.00    -0.648 OA
HETATM   18  O3  UNL     1      13.615  26.519  -1.021  1.00  0.00    -0.648 OA
ENDBRANCH  15  16
ENDBRANCH  14  15
ENDBRANCH  10  14
ENDBRANCH   7  10
ENDBRANCH   5   6
BRANCH   5  19
HETATM   19  C8  UNL     1       9.052  26.142   3.405  1.00  0.00     0.045 C 
BRANCH  19  20
HETATM   20  C9  UNL     1       9.159  27.401   4.238  1.00  0.00     0.116 C 
BRANCH  20  21
HETATM   21  C10 UNL     1       9.438  28.580   3.353  1.00  0.00     0.172 C 
HETATM   22  O5  UNL     1      10.140  28.419   2.313  1.00  0.00    -0.648 OA
HETATM   23  O6  UNL     1       8.903  29.805   3.724  1.00  0.00    -0.648 OA
ENDBRANCH  20  21
ENDBRANCH  19  20
ENDBRANCH   5  19
ENDBRANCH   1   5
BRANCH   3  24
HETATM   24  C12 UNL     1       6.016  23.190   5.143  1.00  0.00     0.107 C 
BRANCH  24  25
HETATM   25  C13 UNL     1       5.482  23.107   6.521  1.00  0.00     0.047 C 
BRANCH  25  26
HETATM   26  C14 UNL     1       4.017  23.310   6.617  1.00  0.00    -0.058 A 
HETATM   27  C15 UNL     1       3.334  23.982   5.593  1.00  0.00     0.008 A 
HETATM   28  C16 UNL     1       1.974  24.208   5.678  1.00  0.00     0.013 A 
HETATM   29  C17 UNL     1       1.248  23.781   6.766  1.00  0.00    -0.019 A 
HETATM   30  C28 UNL     1       1.895  23.122   7.777  1.00  0.00     0.013 A 
HETATM   31  C29 UNL     1       3.274  22.894   7.690  1.00  0.00     0.008 A 
BRANCH  29  32
HETATM   32  C18 UNL     1      -0.201  24.049   6.825  1.00  0.00     0.015 A 
HETATM   33  C19 UNL     1      -1.188  23.201   7.240  1.00  0.00     0.032 A 
HETATM   34  C20 UNL     1      -2.446  23.656   7.211  1.00  0.00    -0.018 A 
HETATM   35  C27 UNL     1      -2.643  24.937   6.765  1.00  0.00     0.062 A 
HETATM   36  S1  UNL     1      -1.062  25.461   6.404  1.00  0.00    -0.100 SA
BRANCH  34  37
HETATM   37  C21 UNL     1      -3.623  22.840   7.639  1.00  0.00    -0.025 A 
HETATM   38  C22 UNL     1      -4.456  23.265   8.628  1.00  0.00     0.012 A 
HETATM   39  C23 UNL     1      -5.549  22.507   9.033  1.00  0.00     0.001 A 
HETATM   40  C24 UNL     1      -5.788  21.314   8.424  1.00  0.00     0.000 A 
HETATM   41  C25 UNL     1      -4.952  20.873   7.419  1.00  0.00     0.001 A 
HETATM   42  C26 UNL     1      -3.881  21.634   7.035  1.00  0.00     0.012 A 
ENDBRANCH  34  37
ENDBRANCH  29  32
ENDBRANCH  25  26
ENDBRANCH  24  25
ENDBRANCH   3  24
TORSDOF 15
ENDMDL
