MODEL 3
REMARK VINA RESULT: -10.044063634      1.697      2.983
REMARK  15 active torsions:
REMARK  status: ('A' for Active; 'I' for Inactive)
REMARK    1  A    between atoms: C1_2  and  C2_4 
REMARK    2  A    between atoms: C2_4  and  C3_5 
REMARK    3  A    between atoms: C2_4  and  N2_10 
REMARK    4  A    between atoms: C3_5  and  C4_6 
REMARK    5  A    between atoms: C4_6  and  C5_7 
REMARK       I    between atoms: N2_10  and  C6_12 
REMARK    6  A    between atoms: C6_12  and  C7_14 
REMARK    7  A    between atoms: C7_14  and  C8_15 
REMARK    8  A    between atoms: C7_14  and  N3_20 
REMARK    9  A    between atoms: C8_15  and  C9_16 
REMARK   10  A    between atoms: C9_16  and  C10_17 
REMARK       I    between atoms: N3_20  and  C11_22 
REMARK   11  A    between atoms: C11_22  and  C12_24 
REMARK   12  A    between atoms: C12_24  and  C13_25 
REMARK   13  A    between atoms: C13_25  and  C14_26 
REMARK   14  A    between atoms: C17_29  and  C18_30 
REMARK   15  A    between atoms: C20_32  and  C21_33 
ROOT
HETATM    1  N3  UNL     1       7.461  26.146   5.111  1.00  0.00    -0.348 N 
ATOM      2  H3  UNL     1       8.043  26.220   5.944  1.00  0.00     0.163 HD
HETATM    3  C11 UNL     1       6.483  25.084   5.029  1.00  0.00     0.218 C 
HETATM    4  O7  UNL     1       5.808  25.060   3.984  1.00  0.00    -0.274 OA
ENDROOT
BRANCH   1   5
HETATM    5  C7  UNL     1       7.635  27.105   4.044  1.00  0.00     0.177 C 
BRANCH   5   6
HETATM    6  C6  UNL     1       8.877  26.847   3.270  1.00  0.00     0.241 C 
HETATM    7  N2  UNL     1       9.127  27.548   2.085  1.00  0.00    -0.346 N 
ATOM      8  H2  UNL     1       8.431  28.230   1.784  1.00  0.00     0.163 HD
HETATM    9  O4  UNL     1       9.690  26.003   3.690  1.00  0.00    -0.271 OA
BRANCH   7  10
HETATM   10  C2  UNL     1      10.296  27.376   1.256  1.00  0.00     0.174 C 
BRANCH  10  11
HETATM   11  C1  UNL     1      10.762  28.729   0.846  1.00  0.00     0.254 C 
HETATM   12  N1  UNL     1      11.505  28.954  -0.338  1.00  0.00    -0.060 NA
HETATM   13  O1  UNL     1      10.492  29.717   1.568  1.00  0.00    -0.275 OA
ENDBRANCH  10  11
BRANCH  10  14
HETATM   14  C3  UNL     1      10.067  26.490   0.067  1.00  0.00     0.045 C 
BRANCH  14  15
HETATM   15  C4  UNL     1       8.690  26.595  -0.518  1.00  0.00     0.116 C 
BRANCH  15  16
HETATM   16  C5  UNL     1       7.806  25.476  -0.111  1.00  0.00     0.172 C 
HETATM   17  O2  UNL     1       7.956  24.287  -0.479  1.00  0.00    -0.648 OA
HETATM   18  O3  UNL     1       6.720  25.725   0.740  1.00  0.00    -0.648 OA
ENDBRANCH  15  16
ENDBRANCH  14  15
ENDBRANCH  10  14
ENDBRANCH   7  10
ENDBRANCH   5   6
BRANCH   5  19
HETATM   19  C8  UNL     1       7.617  28.500   4.586  1.00  0.00     0.045 C 
BRANCH  19  20
HETATM   20  C9  UNL     1       7.433  28.536   6.088  1.00  0.00     0.116 C 
BRANCH  20  21
HETATM   21  C10 UNL     1       7.874  29.864   6.629  1.00  0.00     0.172 C 
HETATM   22  O5  UNL     1       7.604  30.915   5.980  1.00  0.00    -0.648 OA
HETATM   23  O6  UNL     1       8.565  29.871   7.831  1.00  0.00    -0.648 OA
ENDBRANCH  20  21
ENDBRANCH  19  20
ENDBRANCH   5  19
ENDBRANCH   1   5
BRANCH   3  24
HETATM   24  C12 UNL     1       6.318  24.120   6.104  1.00  0.00     0.107 C 
BRANCH  24  25
HETATM   25  C13 UNL     1       5.435  22.956   5.867  1.00  0.00     0.047 C 
BRANCH  25  26
HETATM   26  C14 UNL     1       4.010  23.200   6.194  1.00  0.00    -0.058 A 
HETATM   27  C15 UNL     1       3.212  23.960   5.327  1.00  0.00     0.008 A 
HETATM   28  C16 UNL     1       1.891  24.224   5.629  1.00  0.00     0.013 A 
HETATM   29  C17 UNL     1       1.316  23.751   6.786  1.00  0.00    -0.019 A 
HETATM   30  C28 UNL     1       2.077  23.005   7.647  1.00  0.00     0.013 A 
HETATM   31  C29 UNL     1       3.418  22.739   7.340  1.00  0.00     0.008 A 
BRANCH  29  32
HETATM   32  C18 UNL     1      -0.095  24.062   7.078  1.00  0.00     0.015 A 
HETATM   33  C19 UNL     1      -1.114  23.179   7.300  1.00  0.00     0.032 A 
HETATM   34  C20 UNL     1      -2.327  23.683   7.549  1.00  0.00    -0.018 A 
HETATM   35  C27 UNL     1      -2.451  25.049   7.560  1.00  0.00     0.062 A 
HETATM   36  S1  UNL     1      -0.866  25.578   7.223  1.00  0.00    -0.100 SA
BRANCH  34  37
HETATM   37  C21 UNL     1      -3.530  22.837   7.813  1.00  0.00    -0.025 A 
HETATM   38  C22 UNL     1      -4.404  23.143   8.810  1.00  0.00     0.012 A 
HETATM   39  C23 UNL     1      -5.522  22.355   9.063  1.00  0.00     0.001 A 
HETATM   40  C24 UNL     1      -5.742  21.255   8.294  1.00  0.00     0.000 A 
HETATM   41  C25 UNL     1      -4.864  20.935   7.280  1.00  0.00     0.001 A 
HETATM   42  C26 UNL     1      -3.769  21.724   7.047  1.00  0.00     0.012 A 
ENDBRANCH  34  37
ENDBRANCH  29  32
ENDBRANCH  25  26
ENDBRANCH  24  25
ENDBRANCH   3  24
TORSDOF 15
ENDMDL
