MODEL 2
REMARK VINA RESULT: -10.070118338      1.135      1.777
REMARK  15 active torsions:
REMARK  status: ('A' for Active; 'I' for Inactive)
REMARK    1  A    between atoms: C1_2  and  C2_4 
REMARK    2  A    between atoms: C2_4  and  C3_5 
REMARK    3  A    between atoms: C2_4  and  N2_10 
REMARK    4  A    between atoms: C3_5  and  C4_6 
REMARK    5  A    between atoms: C4_6  and  C5_7 
REMARK       I    between atoms: N2_10  and  C6_12 
REMARK    6  A    between atoms: C6_12  and  C7_14 
REMARK    7  A    between atoms: C7_14  and  C8_15 
REMARK    8  A    between atoms: C7_14  and  N3_20 
REMARK    9  A    between atoms: C8_15  and  C9_16 
REMARK   10  A    between atoms: C9_16  and  C10_17 
REMARK       I    between atoms: N3_20  and  C11_22 
REMARK   11  A    between atoms: C11_22  and  C12_24 
REMARK   12  A    between atoms: C12_24  and  C13_25 
REMARK   13  A    between atoms: C13_25  and  C14_26 
REMARK   14  A    between atoms: C17_29  and  C18_30 
REMARK   15  A    between atoms: C20_32  and  C21_33 
ROOT
HETATM    1  N3  UNL     1       7.105  24.584   3.468  1.00  0.00    -0.348 N 
ATOM      2  H3  UNL     1       7.291  23.747   2.915  1.00  0.00     0.163 HD
HETATM    3  C11 UNL     1       6.395  24.453   4.720  1.00  0.00     0.218 C 
HETATM    4  O7  UNL     1       6.209  25.516   5.340  1.00  0.00    -0.274 OA
ENDROOT
BRANCH   1   5
HETATM    5  C7  UNL     1       7.558  25.866   2.978  1.00  0.00     0.177 C 
BRANCH   5   6
HETATM    6  C6  UNL     1       7.351  25.999   1.513  1.00  0.00     0.241 C 
HETATM    7  N2  UNL     1       8.445  26.172   0.659  1.00  0.00    -0.346 N 
ATOM      8  H2  UNL     1       9.373  26.202   1.082  1.00  0.00     0.163 HD
HETATM    9  O4  UNL     1       6.193  25.953   1.057  1.00  0.00    -0.271 OA
BRANCH   7  10
HETATM   10  C2  UNL     1       8.358  26.314  -0.775  1.00  0.00     0.174 C 
BRANCH  10  11
HETATM   11  C1  UNL     1       8.270  24.947  -1.358  1.00  0.00     0.254 C 
HETATM   12  N1  UNL     1       9.007  23.850  -0.848  1.00  0.00    -0.060 NA
HETATM   13  O1  UNL     1       7.518  24.744  -2.340  1.00  0.00    -0.275 OA
ENDBRANCH  10  11
BRANCH  10  14
HETATM   14  C3  UNL     1       9.491  27.093  -1.374  1.00  0.00     0.045 C 
BRANCH  14  15
HETATM   15  C4  UNL     1       9.246  28.572  -1.445  1.00  0.00     0.116 C 
BRANCH  15  16
HETATM   16  C5  UNL     1       7.849  28.907  -1.815  1.00  0.00     0.172 C 
HETATM   17  O2  UNL     1       7.004  29.385  -1.022  1.00  0.00    -0.648 OA
HETATM   18  O3  UNL     1       7.409  28.687  -3.127  1.00  0.00    -0.648 OA
ENDBRANCH  15  16
ENDBRANCH  14  15
ENDBRANCH  10  14
ENDBRANCH   7  10
ENDBRANCH   5   6
BRANCH   5  19
HETATM   19  C8  UNL     1       8.992  26.089   3.342  1.00  0.00     0.045 C 
BRANCH  19  20
HETATM   20  C9  UNL     1       9.205  27.391   4.085  1.00  0.00     0.116 C 
BRANCH  20  21
HETATM   21  C10 UNL     1       9.737  28.435   3.149  1.00  0.00     0.172 C 
HETATM   22  O5  UNL     1       9.534  29.657   3.406  1.00  0.00    -0.648 OA
HETATM   23  O6  UNL     1      10.438  28.002   2.032  1.00  0.00    -0.648 OA
ENDBRANCH  20  21
ENDBRANCH  19  20
ENDBRANCH   5  19
ENDBRANCH   1   5
BRANCH   3  24
HETATM   24  C12 UNL     1       5.939  23.160   5.203  1.00  0.00     0.107 C 
BRANCH  24  25
HETATM   25  C13 UNL     1       5.397  23.081   6.578  1.00  0.00     0.047 C 
BRANCH  25  26
HETATM   26  C14 UNL     1       3.935  23.301   6.667  1.00  0.00    -0.058 A 
HETATM   27  C15 UNL     1       3.250  23.905   5.602  1.00  0.00     0.008 A 
HETATM   28  C16 UNL     1       1.894  24.147   5.679  1.00  0.00     0.013 A 
HETATM   29  C17 UNL     1       1.170  23.804   6.798  1.00  0.00    -0.019 A 
HETATM   30  C28 UNL     1       1.819  23.213   7.849  1.00  0.00     0.013 A 
HETATM   31  C29 UNL     1       3.196  22.968   7.772  1.00  0.00     0.008 A 
BRANCH  29  32
HETATM   32  C18 UNL     1      -0.275  24.088   6.846  1.00  0.00     0.015 A 
HETATM   33  C19 UNL     1      -1.275  23.250   7.254  1.00  0.00     0.032 A 
HETATM   34  C20 UNL     1      -2.528  23.718   7.216  1.00  0.00    -0.018 A 
HETATM   35  C27 UNL     1      -2.708  25.000   6.767  1.00  0.00     0.062 A 
HETATM   36  S1  UNL     1      -1.119  25.508   6.417  1.00  0.00    -0.100 SA
BRANCH  34  37
HETATM   37  C21 UNL     1      -3.716  22.915   7.636  1.00  0.00    -0.025 A 
HETATM   38  C22 UNL     1      -4.628  23.410   8.518  1.00  0.00     0.012 A 
HETATM   39  C23 UNL     1      -5.732  22.665   8.915  1.00  0.00     0.001 A 
HETATM   40  C24 UNL     1      -5.902  21.413   8.409  1.00  0.00     0.000 A 
HETATM   41  C25 UNL     1      -4.986  20.901   7.515  1.00  0.00     0.001 A 
HETATM   42  C26 UNL     1      -3.905  21.651   7.136  1.00  0.00     0.012 A 
ENDBRANCH  34  37
ENDBRANCH  29  32
ENDBRANCH  25  26
ENDBRANCH  24  25
ENDBRANCH   3  24
TORSDOF 15
ENDMDL
