MODEL 6
REMARK VINA RESULT: -10.093483636      1.550      2.195
REMARK  15 active torsions:
REMARK  status: ('A' for Active; 'I' for Inactive)
REMARK    1  A    between atoms: C1_2  and  C2_4 
REMARK    2  A    between atoms: C2_4  and  C3_5 
REMARK    3  A    between atoms: C3_5  and  C4_6 
REMARK    4  A    between atoms: C4_6  and  N2_7 
REMARK    5  A    between atoms: C4_6  and  C24_30 
REMARK       I    between atoms: N2_7  and  C5_9 
REMARK    6  A    between atoms: C5_9  and  C6_11 
REMARK    7  A    between atoms: C6_11  and  C7_12 
REMARK    8  A    between atoms: C7_12  and  C8_13 
REMARK    9  A    between atoms: C11_16  and  C12_17 
REMARK   10  A    between atoms: C14_19  and  C15_20 
REMARK       I    between atoms: C24_30  and  N3_32 
REMARK   11  A    between atoms: N3_32  and  C25_34 
REMARK   12  A    between atoms: C25_34  and  C26_35 
REMARK   13  A    between atoms: C25_34  and  C29_40 
REMARK   14  A    between atoms: C26_35  and  C27_36 
REMARK   15  A    between atoms: C27_36  and  C28_37 
ROOT
HETATM    1  N2  UNL     1       7.334  23.942   4.101  1.00  0.00    -0.348 N 
ATOM      2  H2  UNL     1       7.751  23.139   3.629  1.00  0.00     0.163 HD
HETATM    3  C5  UNL     1       6.313  23.746   5.106  1.00  0.00     0.218 C 
HETATM    4  O2  UNL     1       5.867  24.789   5.622  1.00  0.00    -0.274 OA
ENDROOT
BRANCH   1   5
HETATM    5  C4  UNL     1       7.756  25.270   3.771  1.00  0.00     0.177 C 
BRANCH   5   6
HETATM    6  C3  UNL     1       9.051  25.655   4.370  1.00  0.00     0.043 C 
BRANCH   6   7
HETATM    7  C2  UNL     1       9.207  26.952   5.038  1.00  0.00     0.102 C 
BRANCH   7   8
HETATM    8  C1  UNL     1       8.054  27.789   5.233  1.00  0.00     0.231 C 
HETATM    9  N1  UNL     1       7.176  27.615   6.389  1.00  0.00    -0.062 NA
HETATM   10  O1  UNL     1       7.699  28.703   4.473  1.00  0.00    -0.277 OA
ENDBRANCH   7   8
ENDBRANCH   6   7
ENDBRANCH   5   6
BRANCH   5  11
HETATM   11  C24 UNL     1       7.632  25.547   2.344  1.00  0.00     0.241 C 
HETATM   12  O3  UNL     1       6.558  25.214   1.734  1.00  0.00    -0.271 OA
HETATM   13  N3  UNL     1       8.630  26.179   1.566  1.00  0.00    -0.346 N 
ATOM     14  H3  UNL     1       9.511  26.466   1.993  1.00  0.00     0.163 HD
BRANCH  13  15
HETATM   15  C25 UNL     1       8.389  26.416   0.154  1.00  0.00     0.174 C 
BRANCH  15  16
HETATM   16  C26 UNL     1       8.890  27.804  -0.209  1.00  0.00     0.045 C 
BRANCH  16  17
HETATM   17  C27 UNL     1       8.608  28.750   0.919  1.00  0.00     0.116 C 
BRANCH  17  18
HETATM   18  C28 UNL     1       7.316  29.441   0.597  1.00  0.00     0.172 C 
HETATM   19  O4  UNL     1       6.682  29.970   1.524  1.00  0.00    -0.648 OA
HETATM   20  O5  UNL     1       6.817  29.504  -0.690  1.00  0.00    -0.648 OA
ENDBRANCH  17  18
ENDBRANCH  16  17
ENDBRANCH  15  16
BRANCH  15  21
HETATM   21  C29 UNL     1       9.061  25.347  -0.581  1.00  0.00     0.254 C 
HETATM   22  N4  UNL     1       8.354  24.463  -1.425  1.00  0.00    -0.060 NA
HETATM   23  O6  UNL     1      10.300  25.184  -0.476  1.00  0.00    -0.275 OA
ENDBRANCH  15  21
ENDBRANCH  13  15
ENDBRANCH   5  11
ENDBRANCH   1   5
BRANCH   3  24
HETATM   24  C6  UNL     1       5.903  22.362   5.425  1.00  0.00     0.107 C 
BRANCH  24  25
HETATM   25  C7  UNL     1       5.284  22.213   6.772  1.00  0.00     0.047 C 
BRANCH  25  26
HETATM   26  C8  UNL     1       3.846  22.498   6.864  1.00  0.00    -0.058 A 
HETATM   27  C9  UNL     1       3.114  22.153   8.014  1.00  0.00     0.008 A 
HETATM   28  C10 UNL     1       1.764  22.400   8.081  1.00  0.00     0.013 A 
HETATM   29  C11 UNL     1       1.069  22.986   7.051  1.00  0.00    -0.019 A 
HETATM   30  C22 UNL     1       1.750  23.328   5.928  1.00  0.00     0.013 A 
HETATM   31  C23 UNL     1       3.127  23.081   5.846  1.00  0.00     0.008 A 
BRANCH  29  32
HETATM   32  C12 UNL     1      -0.384  23.254   7.160  1.00  0.00     0.015 A 
HETATM   33  C13 UNL     1      -1.340  22.433   7.707  1.00  0.00     0.032 A 
HETATM   34  C14 UNL     1      -2.600  22.882   7.711  1.00  0.00    -0.018 A 
HETATM   35  C21 UNL     1      -2.830  24.120   7.169  1.00  0.00     0.062 A 
HETATM   36  S1  UNL     1      -1.279  24.616   6.672  1.00  0.00    -0.100 SA
BRANCH  34  37
HETATM   37  C15 UNL     1      -3.733  22.092   8.276  1.00  0.00    -0.025 A 
HETATM   38  C16 UNL     1      -4.906  22.688   8.673  1.00  0.00     0.012 A 
HETATM   39  C17 UNL     1      -5.940  21.916   9.194  1.00  0.00     0.001 A 
HETATM   40  C18 UNL     1      -5.832  20.543   9.331  1.00  0.00     0.000 A 
HETATM   41  C19 UNL     1      -4.648  19.961   8.927  1.00  0.00     0.001 A 
HETATM   42  C20 UNL     1      -3.625  20.726   8.412  1.00  0.00     0.012 A 
ENDBRANCH  34  37
ENDBRANCH  29  32
ENDBRANCH  25  26
ENDBRANCH  24  25
ENDBRANCH   3  24
TORSDOF 15
ENDMDL
