MODEL 1
REMARK VINA RESULT: -10.361419887      0.000      0.000
REMARK  15 active torsions:
REMARK  status: ('A' for Active; 'I' for Inactive)
REMARK    1  A    between atoms: C1_2  and  C2_4 
REMARK    2  A    between atoms: C2_4  and  C3_5 
REMARK    3  A    between atoms: C3_5  and  C4_6 
REMARK    4  A    between atoms: C4_6  and  N2_7 
REMARK    5  A    between atoms: C4_6  and  C24_30 
REMARK       I    between atoms: N2_7  and  C5_9 
REMARK    6  A    between atoms: C5_9  and  C6_11 
REMARK    7  A    between atoms: C6_11  and  C7_12 
REMARK    8  A    between atoms: C7_12  and  C8_13 
REMARK    9  A    between atoms: C11_16  and  C12_17 
REMARK   10  A    between atoms: C14_19  and  C15_20 
REMARK       I    between atoms: C24_30  and  N3_32 
REMARK   11  A    between atoms: N3_32  and  C25_34 
REMARK   12  A    between atoms: C25_34  and  C26_35 
REMARK   13  A    between atoms: C25_34  and  C29_40 
REMARK   14  A    between atoms: C26_35  and  C27_36 
REMARK   15  A    between atoms: C27_36  and  C28_37 
ROOT
HETATM    1  N2  UNL     1       7.497  23.955   3.741  1.00  0.00    -0.348 N 
ATOM      2  H2  UNL     1       7.688  23.157   3.134  1.00  0.00     0.163 HD
HETATM    3  C5  UNL     1       6.750  23.775   4.965  1.00  0.00     0.218 C 
HETATM    4  O2  UNL     1       6.568  24.811   5.636  1.00  0.00    -0.274 OA
ENDROOT
BRANCH   1   5
HETATM    5  C4  UNL     1       7.968  25.260   3.385  1.00  0.00     0.177 C 
BRANCH   5   6
HETATM    6  C3  UNL     1       9.233  25.643   4.045  1.00  0.00     0.043 C 
BRANCH   6   7
HETATM    7  C2  UNL     1       9.525  27.050   4.336  1.00  0.00     0.102 C 
BRANCH   7   8
HETATM    8  C1  UNL     1       8.473  27.906   4.817  1.00  0.00     0.231 C 
HETATM    9  N1  UNL     1       7.956  29.004   4.002  1.00  0.00    -0.062 NA
HETATM   10  O1  UNL     1       7.923  27.807   5.924  1.00  0.00    -0.277 OA
ENDBRANCH   7   8
ENDBRANCH   6   7
ENDBRANCH   5   6
BRANCH   5  11
HETATM   11  C24 UNL     1       7.935  25.480   1.943  1.00  0.00     0.241 C 
HETATM   12  O3  UNL     1       6.805  25.556   1.348  1.00  0.00    -0.271 OA
HETATM   13  N3  UNL     1       9.085  25.629   1.134  1.00  0.00    -0.346 N 
ATOM     14  H3  UNL     1      10.016  25.576   1.548  1.00  0.00     0.163 HD
BRANCH  13  15
HETATM   15  C25 UNL     1       8.930  25.859  -0.291  1.00  0.00     0.174 C 
BRANCH  15  16
HETATM   16  C26 UNL     1      10.105  26.682  -0.793  1.00  0.00     0.045 C 
BRANCH  16  17
HETATM   17  C27 UNL     1      11.343  26.302  -0.038  1.00  0.00     0.116 C 
BRANCH  17  18
HETATM   18  C28 UNL     1      12.497  26.465  -0.980  1.00  0.00     0.172 C 
HETATM   19  O4  UNL     1      13.644  26.528  -0.506  1.00  0.00    -0.648 OA
HETATM   20  O5  UNL     1      12.323  26.547  -2.349  1.00  0.00    -0.648 OA
ENDBRANCH  17  18
ENDBRANCH  16  17
ENDBRANCH  15  16
BRANCH  15  21
HETATM   21  C29 UNL     1       8.826  24.548  -0.928  1.00  0.00     0.254 C 
HETATM   22  N4  UNL     1       8.155  24.367  -2.157  1.00  0.00    -0.060 NA
HETATM   23  O6  UNL     1       9.335  23.537  -0.389  1.00  0.00    -0.275 OA
ENDBRANCH  15  21
ENDBRANCH  13  15
ENDBRANCH   5  11
ENDBRANCH   1   5
BRANCH   3  24
HETATM   24  C6  UNL     1       6.281  22.415   5.305  1.00  0.00     0.107 C 
BRANCH  24  25
HETATM   25  C7  UNL     1       5.664  22.311   6.657  1.00  0.00     0.047 C 
BRANCH  25  26
HETATM   26  C8  UNL     1       4.217  22.550   6.734  1.00  0.00    -0.058 A 
HETATM   27  C9  UNL     1       3.457  22.043   7.802  1.00  0.00     0.008 A 
HETATM   28  C10 UNL     1       2.099  22.250   7.853  1.00  0.00     0.013 A 
HETATM   29  C11 UNL     1       1.424  22.950   6.883  1.00  0.00    -0.019 A 
HETATM   30  C22 UNL     1       2.133  23.450   5.838  1.00  0.00     0.013 A 
HETATM   31  C23 UNL     1       3.517  23.246   5.775  1.00  0.00     0.008 A 
BRANCH  29  32
HETATM   32  C12 UNL     1      -0.038  23.171   6.974  1.00  0.00     0.015 A 
HETATM   33  C13 UNL     1      -0.998  22.244   7.301  1.00  0.00     0.032 A 
HETATM   34  C14 UNL     1      -2.267  22.665   7.333  1.00  0.00    -0.018 A 
HETATM   35  C21 UNL     1      -2.502  23.983   7.038  1.00  0.00     0.062 A 
HETATM   36  S1  UNL     1      -0.943  24.590   6.724  1.00  0.00    -0.100 SA
BRANCH  34  37
HETATM   37  C15 UNL     1      -3.405  21.763   7.675  1.00  0.00    -0.025 A 
HETATM   38  C16 UNL     1      -4.368  22.123   8.587  1.00  0.00     0.012 A 
HETATM   39  C17 UNL     1      -5.415  21.253   8.877  1.00  0.00     0.001 A 
HETATM   40  C18 UNL     1      -5.527  20.014   8.272  1.00  0.00     0.000 A 
HETATM   41  C19 UNL     1      -4.553  19.668   7.359  1.00  0.00     0.001 A 
HETATM   42  C20 UNL     1      -3.517  20.529   7.073  1.00  0.00     0.012 A 
ENDBRANCH  34  37
ENDBRANCH  29  32
ENDBRANCH  25  26
ENDBRANCH  24  25
ENDBRANCH   3  24
TORSDOF 15
ENDMDL
