MODEL 12
REMARK VINA RESULT: -9.764058911      3.693      7.361
REMARK  15 active torsions:
REMARK  status: ('A' for Active; 'I' for Inactive)
REMARK    1  A    between atoms: C1_2  and  C2_4 
REMARK    2  A    between atoms: C2_4  and  C3_5 
REMARK    3  A    between atoms: C3_5  and  C4_6 
REMARK    4  A    between atoms: C4_6  and  N2_7 
REMARK    5  A    between atoms: C4_6  and  C24_30 
REMARK       I    between atoms: N2_7  and  C5_9 
REMARK    6  A    between atoms: C5_9  and  C6_11 
REMARK    7  A    between atoms: C6_11  and  C7_12 
REMARK    8  A    between atoms: C7_12  and  C8_13 
REMARK    9  A    between atoms: C11_16  and  C12_17 
REMARK   10  A    between atoms: C14_19  and  C15_20 
REMARK       I    between atoms: C24_30  and  N3_32 
REMARK   11  A    between atoms: N3_32  and  C25_34 
REMARK   12  A    between atoms: C25_34  and  C26_35 
REMARK   13  A    between atoms: C25_34  and  C29_40 
REMARK   14  A    between atoms: C26_35  and  C27_36 
REMARK   15  A    between atoms: C27_36  and  C28_37 
ROOT
HETATM    1  N2  UNL     1       8.026  26.952   5.779  1.00  0.00    -0.348 N 
ATOM      2  H2  UNL     1       7.329  26.376   6.251  1.00  0.00     0.163 HD
HETATM    3  C5  UNL     1       8.988  26.345   4.887  1.00  0.00     0.218 C 
HETATM    4  O2  UNL     1       9.799  27.133   4.360  1.00  0.00    -0.274 OA
ENDROOT
BRANCH   1   5
HETATM    5  C4  UNL     1       8.058  28.368   5.995  1.00  0.00     0.177 C 
BRANCH   5   6
HETATM    6  C3  UNL     1       7.354  29.150   4.958  1.00  0.00     0.043 C 
BRANCH   6   7
HETATM    7  C2  UNL     1       7.660  30.570   4.759  1.00  0.00     0.102 C 
BRANCH   7   8
HETATM    8  C1  UNL     1       8.985  31.054   5.043  1.00  0.00     0.231 C 
HETATM    9  N1  UNL     1       9.280  31.775   6.281  1.00  0.00    -0.062 NA
HETATM   10  O1  UNL     1       9.969  30.918   4.301  1.00  0.00    -0.277 OA
ENDBRANCH   7   8
ENDBRANCH   6   7
ENDBRANCH   5   6
BRANCH   5  11
HETATM   11  C24 UNL     1       7.718  28.720   7.369  1.00  0.00     0.241 C 
HETATM   12  O3  UNL     1       6.498  28.647   7.750  1.00  0.00    -0.271 OA
HETATM   13  N3  UNL     1       8.657  29.140   8.339  1.00  0.00    -0.346 N 
ATOM     14  H3  UNL     1       9.645  29.222   8.098  1.00  0.00     0.163 HD
BRANCH  13  15
HETATM   15  C25 UNL     1       8.204  29.453   9.683  1.00  0.00     0.174 C 
BRANCH  15  16
HETATM   16  C26 UNL     1       8.381  28.228  10.564  1.00  0.00     0.045 C 
BRANCH  16  17
HETATM   17  C27 UNL     1       7.520  28.358  11.785  1.00  0.00     0.116 C 
BRANCH  17  18
HETATM   18  C28 UNL     1       8.043  27.381  12.795  1.00  0.00     0.172 C 
HETATM   19  O4  UNL     1       7.855  27.618  14.000  1.00  0.00    -0.648 OA
HETATM   20  O5  UNL     1       8.723  26.236  12.426  1.00  0.00    -0.648 OA
ENDBRANCH  17  18
ENDBRANCH  16  17
ENDBRANCH  15  16
BRANCH  15  21
HETATM   21  C29 UNL     1       8.972  30.610  10.137  1.00  0.00     0.254 C 
HETATM   22  N4  UNL     1       8.388  31.889  10.263  1.00  0.00    -0.060 NA
HETATM   23  O6  UNL     1      10.186  30.493  10.426  1.00  0.00    -0.275 OA
ENDBRANCH  15  21
ENDBRANCH  13  15
ENDBRANCH   5  11
ENDBRANCH   1   5
BRANCH   3  24
HETATM   24  C6  UNL     1       8.926  24.882   4.683  1.00  0.00     0.107 C 
BRANCH  24  25
HETATM   25  C7  UNL     1       7.751  24.434   3.885  1.00  0.00     0.047 C 
BRANCH  25  26
HETATM   26  C8  UNL     1       6.581  23.978   4.648  1.00  0.00    -0.058 A 
HETATM   27  C9  UNL     1       6.679  22.903   5.547  1.00  0.00     0.008 A 
HETATM   28  C10 UNL     1       5.573  22.467   6.237  1.00  0.00     0.013 A 
HETATM   29  C11 UNL     1       4.337  23.046   6.089  1.00  0.00    -0.019 A 
HETATM   30  C22 UNL     1       4.212  24.086   5.226  1.00  0.00     0.013 A 
HETATM   31  C23 UNL     1       5.331  24.540   4.516  1.00  0.00     0.008 A 
BRANCH  29  32
HETATM   32  C12 UNL     1       3.167  22.563   6.860  1.00  0.00     0.015 A 
HETATM   33  C13 UNL     1       1.850  22.897   6.662  1.00  0.00     0.032 A 
HETATM   34  C14 UNL     1       0.948  22.332   7.474  1.00  0.00    -0.018 A 
HETATM   35  C21 UNL     1       1.415  21.470   8.431  1.00  0.00     0.062 A 
HETATM   36  S1  UNL     1       3.097  21.477   8.168  1.00  0.00    -0.100 SA
BRANCH  34  37
HETATM   37  C15 UNL     1      -0.514  22.606   7.366  1.00  0.00    -0.025 A 
HETATM   38  C16 UNL     1      -1.002  23.874   7.160  1.00  0.00     0.012 A 
HETATM   39  C17 UNL     1      -2.373  24.088   7.063  1.00  0.00     0.001 A 
HETATM   40  C18 UNL     1      -3.285  23.053   7.167  1.00  0.00     0.000 A 
HETATM   41  C19 UNL     1      -2.780  21.786   7.373  1.00  0.00     0.001 A 
HETATM   42  C20 UNL     1      -1.422  21.575   7.469  1.00  0.00     0.012 A 
ENDBRANCH  34  37
ENDBRANCH  29  32
ENDBRANCH  25  26
ENDBRANCH  24  25
ENDBRANCH   3  24
TORSDOF 15
ENDMDL
