MODEL 4
REMARK VINA RESULT: -10.103685951      6.503     14.003
REMARK  15 active torsions:
REMARK  status: ('A' for Active; 'I' for Inactive)
REMARK    1  A    between atoms: C1_2  and  C2_4 
REMARK    2  A    between atoms: C2_4  and  C3_5 
REMARK    3  A    between atoms: C3_5  and  C4_6 
REMARK    4  A    between atoms: C4_6  and  N2_7 
REMARK    5  A    between atoms: C4_6  and  C24_30 
REMARK       I    between atoms: N2_7  and  C5_9 
REMARK    6  A    between atoms: C5_9  and  C6_11 
REMARK    7  A    between atoms: C6_11  and  C7_12 
REMARK    8  A    between atoms: C7_12  and  C8_13 
REMARK    9  A    between atoms: C11_16  and  C12_17 
REMARK   10  A    between atoms: C14_19  and  C15_20 
REMARK       I    between atoms: C24_30  and  N3_32 
REMARK   11  A    between atoms: N3_32  and  C25_34 
REMARK   12  A    between atoms: C25_34  and  C26_35 
REMARK   13  A    between atoms: C25_34  and  C29_40 
REMARK   14  A    between atoms: C26_35  and  C27_36 
REMARK   15  A    between atoms: C27_36  and  C28_37 
ROOT
HETATM    1  N2  UNL     1      -0.830  21.851   7.277  1.00  0.00    -0.348 N 
ATOM      2  H2  UNL     1      -1.021  21.935   6.278  1.00  0.00     0.163 HD
HETATM    3  C5  UNL     1       0.513  21.589   7.741  1.00  0.00     0.218 C 
HETATM    4  O2  UNL     1       0.643  21.503   8.978  1.00  0.00    -0.274 OA
ENDROOT
BRANCH   1   5
HETATM    5  C4  UNL     1      -1.892  21.993   8.228  1.00  0.00     0.177 C 
BRANCH   5   6
HETATM    6  C3  UNL     1      -2.223  23.396   8.554  1.00  0.00     0.043 C 
BRANCH   6   7
HETATM    7  C2  UNL     1      -2.522  24.358   7.488  1.00  0.00     0.102 C 
BRANCH   7   8
HETATM    8  C1  UNL     1      -1.450  25.116   6.900  1.00  0.00     0.231 C 
HETATM    9  N1  UNL     1      -1.325  26.555   7.129  1.00  0.00    -0.062 NA
HETATM   10  O1  UNL     1      -0.564  24.651   6.169  1.00  0.00    -0.277 OA
ENDBRANCH   7   8
ENDBRANCH   6   7
ENDBRANCH   5   6
BRANCH   5  11
HETATM   11  C24 UNL     1      -3.037  21.150   7.901  1.00  0.00     0.241 C 
HETATM   12  O3  UNL     1      -3.085  20.575   6.759  1.00  0.00    -0.271 OA
HETATM   13  N3  UNL     1      -4.122  20.907   8.776  1.00  0.00    -0.346 N 
ATOM     14  H3  UNL     1      -4.145  21.338   9.700  1.00  0.00     0.163 HD
BRANCH  13  15
HETATM   15  C25 UNL     1      -5.203  20.037   8.347  1.00  0.00     0.174 C 
BRANCH  15  16
HETATM   16  C26 UNL     1      -5.311  18.868   9.311  1.00  0.00     0.045 C 
BRANCH  16  17
HETATM   17  C27 UNL     1      -5.714  19.368  10.665  1.00  0.00     0.116 C 
BRANCH  17  18
HETATM   18  C28 UNL     1      -6.877  18.533  11.112  1.00  0.00     0.172 C 
HETATM   19  O4  UNL     1      -7.176  18.534  12.317  1.00  0.00    -0.648 OA
HETATM   20  O5  UNL     1      -7.616  17.771  10.228  1.00  0.00    -0.648 OA
ENDBRANCH  17  18
ENDBRANCH  16  17
ENDBRANCH  15  16
BRANCH  15  21
HETATM   21  C29 UNL     1      -6.413  20.854   8.287  1.00  0.00     0.254 C 
HETATM   22  N4  UNL     1      -7.645  20.329   7.840  1.00  0.00    -0.060 NA
HETATM   23  O6  UNL     1      -6.385  22.058   8.634  1.00  0.00    -0.275 OA
ENDBRANCH  15  21
ENDBRANCH  13  15
ENDBRANCH   5  11
ENDBRANCH   1   5
BRANCH   3  24
HETATM   24  C6  UNL     1       1.587  21.452   6.734  1.00  0.00     0.107 C 
BRANCH  24  25
HETATM   25  C7  UNL     1       2.959  21.443   7.313  1.00  0.00     0.047 C 
BRANCH  25  26
HETATM   26  C8  UNL     1       3.953  22.297   6.650  1.00  0.00    -0.058 A 
HETATM   27  C9  UNL     1       3.553  23.358   5.819  1.00  0.00     0.008 A 
HETATM   28  C10 UNL     1       4.489  24.137   5.182  1.00  0.00     0.013 A 
HETATM   29  C11 UNL     1       5.839  23.926   5.320  1.00  0.00    -0.019 A 
HETATM   30  C22 UNL     1       6.255  22.908   6.116  1.00  0.00     0.013 A 
HETATM   31  C23 UNL     1       5.311  22.107   6.770  1.00  0.00     0.008 A 
BRANCH  29  32
HETATM   32  C12 UNL     1       6.825  24.794   4.633  1.00  0.00     0.015 A 
HETATM   33  C13 UNL     1       7.334  24.630   3.368  1.00  0.00     0.032 A 
HETATM   34  C14 UNL     1       8.211  25.544   2.940  1.00  0.00    -0.018 A 
HETATM   35  C21 UNL     1       8.529  26.564   3.798  1.00  0.00     0.062 A 
HETATM   36  S1  UNL     1       7.591  26.213   5.176  1.00  0.00    -0.100 SA
BRANCH  34  37
HETATM   37  C15 UNL     1       8.837  25.486   1.586  1.00  0.00    -0.025 A 
HETATM   38  C16 UNL     1       9.584  26.526   1.087  1.00  0.00     0.012 A 
HETATM   39  C17 UNL     1      10.152  26.432  -0.180  1.00  0.00     0.001 A 
HETATM   40  C18 UNL     1       9.993  25.309  -0.973  1.00  0.00     0.000 A 
HETATM   41  C19 UNL     1       9.242  24.274  -0.456  1.00  0.00     0.001 A 
HETATM   42  C20 UNL     1       8.679  24.368   0.797  1.00  0.00     0.012 A 
ENDBRANCH  34  37
ENDBRANCH  29  32
ENDBRANCH  25  26
ENDBRANCH  24  25
ENDBRANCH   3  24
TORSDOF 15
ENDMDL
