MODEL 2
REMARK VINA RESULT: -9.610762127      2.381      3.344
REMARK  9 active torsions:
REMARK  status: ('A' for Active; 'I' for Inactive)
REMARK    1  A    between atoms: C5_5  and  C6_6 
REMARK    2  A    between atoms: C9_9  and  C10_10 
REMARK    3  A    between atoms: C10_10  and  C11_11 
REMARK    4  A    between atoms: C11_11  and  C12_12 
REMARK       I    between atoms: C12_12  and  N1_14 
REMARK    5  A    between atoms: N1_14  and  C13_16 
REMARK    6  A    between atoms: C13_16  and  C14_17 
REMARK    7  A    between atoms: C13_16  and  C17_22 
REMARK    8  A    between atoms: C14_17  and  C15_18 
REMARK    9  A    between atoms: C15_18  and  C16_19 
ROOT
HETATM    1  C11 UNL     1      -5.063  10.023 -13.228  1.00  0.00     0.107 C 
ENDROOT
BRANCH   1   2
HETATM    2  C10 UNL     1      -6.530  10.400 -13.252  1.00  0.00     0.047 C 
BRANCH   2   3
HETATM    3  C9  UNL     1      -6.753  11.784 -12.798  1.00  0.00    -0.058 A 
HETATM    4  C8  UNL     1      -7.688  12.023 -11.814  1.00  0.00     0.008 A 
HETATM    5  C7  UNL     1      -7.933  13.280 -11.358  1.00  0.00     0.013 A 
HETATM    6  C6  UNL     1      -7.241  14.351 -11.878  1.00  0.00    -0.019 A 
HETATM    7  C19 UNL     1      -6.315  14.148 -12.847  1.00  0.00     0.013 A 
HETATM    8  C18 UNL     1      -6.068  12.867 -13.309  1.00  0.00     0.008 A 
BRANCH   6   9
HETATM    9  C5  UNL     1      -7.546  15.702 -11.345  1.00  0.00     0.015 A 
HETATM   10  C4  UNL     1      -7.079  16.903 -11.816  1.00  0.00     0.021 A 
HETATM   11  C3  UNL     1      -7.485  18.009 -11.180  1.00  0.00     0.015 A 
HETATM   12  C2  UNL     1      -8.331  17.849 -10.115  1.00  0.00    -0.021 A 
HETATM   13  C1  UNL     1      -8.925  18.927  -9.240  1.00  0.00     0.056 C 
HETATM   14  S1  UNL     1      -8.531  16.159 -10.035  1.00  0.00    -0.095 SA
ENDBRANCH   6   9
ENDBRANCH   2   3
ENDBRANCH   1   2
BRANCH   1  15
HETATM   15  C12 UNL     1      -4.828   8.909 -14.172  1.00  0.00     0.218 C 
HETATM   16  O1  UNL     1      -5.565   7.897 -14.105  1.00  0.00    -0.274 OA
HETATM   17  N1  UNL     1      -3.778   9.017 -15.125  1.00  0.00    -0.348 N 
ATOM     18  H1  UNL     1      -3.201   9.858 -15.147  1.00  0.00     0.163 HD
BRANCH  17  19
HETATM   19  C13 UNL     1      -3.515   7.930 -16.079  1.00  0.00     0.174 C 
BRANCH  19  20
HETATM   20  C14 UNL     1      -3.944   8.471 -17.424  1.00  0.00     0.045 C 
BRANCH  20  21
HETATM   21  C15 UNL     1      -5.410   8.386 -17.685  1.00  0.00     0.116 C 
BRANCH  21  22
HETATM   22  C16 UNL     1      -5.901   9.781 -17.922  1.00  0.00     0.172 C 
HETATM   23  O2  UNL     1      -6.582  10.086 -18.934  1.00  0.00    -0.648 OA
HETATM   24  O3  UNL     1      -5.626  10.818 -17.023  1.00  0.00    -0.648 OA
ENDBRANCH  21  22
ENDBRANCH  20  21
ENDBRANCH  19  20
BRANCH  19  25
HETATM   25  C17 UNL     1      -2.101   7.568 -15.995  1.00  0.00     0.254 C 
HETATM   26  N2  UNL     1      -1.398   7.174 -17.154  1.00  0.00    -0.060 NA
HETATM   27  O4  UNL     1      -1.495   7.601 -14.902  1.00  0.00    -0.275 OA
ENDBRANCH  19  25
ENDBRANCH  17  19
ENDBRANCH   1  15
TORSDOF 9
ENDMDL
