MODEL 18
REMARK VINA RESULT: -8.675271570      3.855      5.794
REMARK  9 active torsions:
REMARK  status: ('A' for Active; 'I' for Inactive)
REMARK    1  A    between atoms: C5_5  and  C6_6 
REMARK    2  A    between atoms: C9_9  and  C10_10 
REMARK    3  A    between atoms: C10_10  and  C11_11 
REMARK    4  A    between atoms: C11_11  and  C12_12 
REMARK       I    between atoms: C12_12  and  N1_14 
REMARK    5  A    between atoms: N1_14  and  C13_16 
REMARK    6  A    between atoms: C13_16  and  C14_17 
REMARK    7  A    between atoms: C13_16  and  C17_22 
REMARK    8  A    between atoms: C14_17  and  C15_18 
REMARK    9  A    between atoms: C15_18  and  C16_19 
ROOT
HETATM    1  C11 UNL     1      -5.145  10.509 -14.197  1.00  0.00     0.107 C 
ENDROOT
BRANCH   1   2
HETATM    2  C10 UNL     1      -6.443  10.468 -13.416  1.00  0.00     0.047 C 
BRANCH   2   3
HETATM    3  C9  UNL     1      -6.780  11.781 -12.836  1.00  0.00    -0.058 A 
HETATM    4  C8  UNL     1      -6.097  12.898 -13.269  1.00  0.00     0.008 A 
HETATM    5  C7  UNL     1      -6.368  14.133 -12.768  1.00  0.00     0.013 A 
HETATM    6  C6  UNL     1      -7.341  14.291 -11.807  1.00  0.00    -0.019 A 
HETATM    7  C19 UNL     1      -8.029  13.212 -11.361  1.00  0.00     0.013 A 
HETATM    8  C18 UNL     1      -7.752  11.956 -11.873  1.00  0.00     0.008 A 
BRANCH   6   9
HETATM    9  C5  UNL     1      -7.597  15.660 -11.294  1.00  0.00     0.015 A 
HETATM   10  C4  UNL     1      -7.113  16.839 -11.803  1.00  0.00     0.021 A 
HETATM   11  C3  UNL     1      -7.473  17.967 -11.179  1.00  0.00     0.015 A 
HETATM   12  C2  UNL     1      -8.291  17.851 -10.087  1.00  0.00    -0.021 A 
HETATM   13  C1  UNL     1      -8.833  18.960  -9.218  1.00  0.00     0.056 C 
HETATM   14  S1  UNL     1      -8.532  16.168  -9.966  1.00  0.00    -0.095 SA
ENDBRANCH   6   9
ENDBRANCH   2   3
ENDBRANCH   1   2
BRANCH   1  15
HETATM   15  C12 UNL     1      -4.066   9.909 -13.384  1.00  0.00     0.218 C 
HETATM   16  O1  UNL     1      -4.094   8.677 -13.159  1.00  0.00    -0.274 OA
HETATM   17  N1  UNL     1      -3.030  10.745 -12.882  1.00  0.00    -0.348 N 
ATOM     18  H1  UNL     1      -3.043  11.744 -13.088  1.00  0.00     0.163 HD
BRANCH  17  19
HETATM   19  C13 UNL     1      -1.940  10.185 -12.069  1.00  0.00     0.174 C 
BRANCH  19  20
HETATM   20  C14 UNL     1      -0.712  10.263 -12.947  1.00  0.00     0.045 C 
BRANCH  20  21
HETATM   21  C15 UNL     1       0.169   9.062 -12.885  1.00  0.00     0.116 C 
BRANCH  21  22
HETATM   22  C16 UNL     1       0.985   9.172 -11.634  1.00  0.00     0.172 C 
HETATM   23  O2  UNL     1       0.873   8.350 -10.690  1.00  0.00    -0.648 OA
HETATM   24  O3  UNL     1       1.916  10.201 -11.455  1.00  0.00    -0.648 OA
ENDBRANCH  21  22
ENDBRANCH  20  21
ENDBRANCH  19  20
BRANCH  19  25
HETATM   25  C17 UNL     1      -1.846  10.948 -10.826  1.00  0.00     0.254 C 
HETATM   26  N2  UNL     1      -1.255  12.229 -10.821  1.00  0.00    -0.060 NA
HETATM   27  O4  UNL     1      -2.285  10.480  -9.752  1.00  0.00    -0.275 OA
ENDBRANCH  19  25
ENDBRANCH  17  19
ENDBRANCH   1  15
TORSDOF 9
ENDMDL
