MODEL 10
REMARK VINA RESULT: -9.049313842      3.808      6.063
REMARK  9 active torsions:
REMARK  status: ('A' for Active; 'I' for Inactive)
REMARK    1  A    between atoms: C5_5  and  C6_6 
REMARK    2  A    between atoms: C9_9  and  C10_10 
REMARK    3  A    between atoms: C10_10  and  C11_11 
REMARK    4  A    between atoms: C11_11  and  C12_12 
REMARK       I    between atoms: C12_12  and  N1_14 
REMARK    5  A    between atoms: N1_14  and  C13_16 
REMARK    6  A    between atoms: C13_16  and  C14_17 
REMARK    7  A    between atoms: C13_16  and  C17_22 
REMARK    8  A    between atoms: C14_17  and  C15_18 
REMARK    9  A    between atoms: C15_18  and  C16_19 
ROOT
HETATM    1  C11 UNL     1      -4.721   9.228 -13.252  1.00  0.00     0.107 C 
ENDROOT
BRANCH   1   2
HETATM    2  C10 UNL     1      -5.687  10.021 -14.107  1.00  0.00     0.047 C 
BRANCH   2   3
HETATM    3  C9  UNL     1      -6.203  11.209 -13.402  1.00  0.00    -0.058 A 
HETATM    4  C8  UNL     1      -5.716  12.453 -13.743  1.00  0.00     0.008 A 
HETATM    5  C7  UNL     1      -6.156  13.581 -13.124  1.00  0.00     0.013 A 
HETATM    6  C6  UNL     1      -7.109  13.499 -12.133  1.00  0.00    -0.019 A 
HETATM    7  C19 UNL     1      -7.607  12.289 -11.776  1.00  0.00     0.013 A 
HETATM    8  C18 UNL     1      -7.157  11.143 -12.407  1.00  0.00     0.008 A 
BRANCH   6   9
HETATM    9  C5  UNL     1      -7.555  14.759 -11.491  1.00  0.00     0.015 A 
HETATM   10  C4  UNL     1      -8.537  14.903 -10.543  1.00  0.00     0.021 A 
HETATM   11  C3  UNL     1      -8.778  16.142 -10.096  1.00  0.00     0.015 A 
HETATM   12  C2  UNL     1      -8.027  17.159 -10.622  1.00  0.00    -0.021 A 
HETATM   13  C1  UNL     1      -8.106  18.630 -10.289  1.00  0.00     0.056 C 
HETATM   14  S1  UNL     1      -7.008  16.354 -11.724  1.00  0.00    -0.095 SA
ENDBRANCH   6   9
ENDBRANCH   2   3
ENDBRANCH   1   2
BRANCH   1  15
HETATM   15  C12 UNL     1      -3.362   9.792 -13.397  1.00  0.00     0.218 C 
HETATM   16  O1  UNL     1      -3.045  10.327 -14.485  1.00  0.00    -0.274 OA
HETATM   17  N1  UNL     1      -2.458   9.713 -12.302  1.00  0.00    -0.348 N 
ATOM     18  H1  UNL     1      -2.755   9.270 -11.433  1.00  0.00     0.163 HD
BRANCH  17  19
HETATM   19  C13 UNL     1      -1.098  10.263 -12.410  1.00  0.00     0.174 C 
BRANCH  19  20
HETATM   20  C14 UNL     1      -0.827  10.912 -11.071  1.00  0.00     0.045 C 
BRANCH  20  21
HETATM   21  C15 UNL     1      -1.825  10.585 -10.013  1.00  0.00     0.116 C 
BRANCH  21  22
HETATM   22  C16 UNL     1      -1.116   9.785  -8.964  1.00  0.00     0.172 C 
HETATM   23  O2  UNL     1      -0.522  10.328  -7.999  1.00  0.00    -0.648 OA
HETATM   24  O3  UNL     1      -1.080   8.386  -9.009  1.00  0.00    -0.648 OA
ENDBRANCH  21  22
ENDBRANCH  20  21
ENDBRANCH  19  20
BRANCH  19  25
HETATM   25  C17 UNL     1      -0.181   9.177 -12.753  1.00  0.00     0.254 C 
HETATM   26  N2  UNL     1       0.813   8.770 -11.838  1.00  0.00    -0.060 NA
HETATM   27  O4  UNL     1      -0.263   8.596 -13.857  1.00  0.00    -0.275 OA
ENDBRANCH  19  25
ENDBRANCH  17  19
ENDBRANCH   1  15
TORSDOF 9
ENDMDL
