MODEL 17
REMARK VINA RESULT: -2.500746465      4.099      4.900
REMARK  5 active torsions:
REMARK  status: ('A' for Active; 'I' for Inactive)
REMARK    1  A    between atoms: N1_1  and  C1_5 
REMARK    2  A    between atoms: C1_5  and  C2_6 
REMARK    3  A    between atoms: C2_6  and  C3_7 
REMARK    4  A    between atoms: C3_7  and  C4_8 
REMARK    5  A    between atoms: C4_8  and  N2_9 
ROOT
HETATM    1  C2  UNL     1      19.407  15.222  24.142  1.00  0.00     0.029 C 
ENDROOT
BRANCH   1   2
HETATM    2  C1  UNL     1      18.084  14.603  24.497  1.00  0.00     0.229 C 
BRANCH   2   3
HETATM    3  N1  UNL     1      17.604  13.831  23.365  1.00  0.00    -0.079 N 
ATOM      4  H13 UNL     1      16.935  14.352  22.797  1.00  0.00     0.274 HD
ATOM      5  H12 UNL     1      18.322  13.697  22.654  1.00  0.00     0.274 HD
ATOM      6  H11 UNL     1      17.220  12.949  23.703  1.00  0.00     0.274 HD
ENDBRANCH   2   3
ENDBRANCH   1   2
BRANCH   1   7
HETATM    7  C3  UNL     1      20.171  14.290  23.264  1.00  0.00     0.029 C 
BRANCH   7   8
HETATM    8  C4  UNL     1      20.995  13.287  24.009  1.00  0.00     0.229 C 
BRANCH   8   9
HETATM    9  N2  UNL     1      21.040  12.016  23.272  1.00  0.00    -0.079 N 
ATOM     10  H23 UNL     1      20.245  11.417  23.496  1.00  0.00     0.274 HD
ATOM     11  H22 UNL     1      20.855  12.146  22.277  1.00  0.00     0.274 HD
ATOM     12  H21 UNL     1      21.929  11.543  23.434  1.00  0.00     0.274 HD
ENDBRANCH   8   9
ENDBRANCH   7   8
ENDBRANCH   1   7
TORSDOF 5
ENDMDL
