MODEL 2
REMARK VINA RESULT: -4.945863370      0.973      3.974
REMARK  5 active torsions:
REMARK  status: ('A' for Active; 'I' for Inactive)
REMARK    1  A    between atoms: N1_1  and  C1_5 
REMARK    2  A    between atoms: C1_5  and  C2_6 
REMARK    3  A    between atoms: C2_6  and  C3_7 
REMARK    4  A    between atoms: C3_7  and  C4_8 
REMARK    5  A    between atoms: C4_8  and  N2_9 
ROOT
HETATM    1  C2  UNL     1      17.912  15.205  27.042  1.00  0.00     0.029 C 
ENDROOT
BRANCH   1   2
HETATM    2  C1  UNL     1      18.399  15.078  25.625  1.00  0.00     0.229 C 
BRANCH   2   3
HETATM    3  N1  UNL     1      19.222  13.888  25.512  1.00  0.00    -0.079 N 
ATOM      4  H13 UNL     1      19.933  13.838  26.243  1.00  0.00     0.274 HD
ATOM      5  H12 UNL     1      18.712  13.038  25.750  1.00  0.00     0.274 HD
ATOM      6  H11 UNL     1      19.626  13.850  24.576  1.00  0.00     0.274 HD
ENDBRANCH   2   3
ENDBRANCH   1   2
BRANCH   1   7
HETATM    7  C3  UNL     1      16.783  16.177  27.092  1.00  0.00     0.029 C 
BRANCH   7   8
HETATM    8  C4  UNL     1      17.208  17.611  27.034  1.00  0.00     0.229 C 
BRANCH   8   9
HETATM    9  N2  UNL     1      16.084  18.460  26.612  1.00  0.00    -0.079 N 
ATOM     10  H23 UNL     1      15.205  17.944  26.590  1.00  0.00     0.274 HD
ATOM     11  H22 UNL     1      15.838  19.147  27.324  1.00  0.00     0.274 HD
ATOM     12  H21 UNL     1      16.289  18.899  25.714  1.00  0.00     0.274 HD
ENDBRANCH   8   9
ENDBRANCH   7   8
ENDBRANCH   1   7
TORSDOF 5
ENDMDL
