MODEL 2
REMARK VINA RESULT: -6.324170572      0.699      6.269
REMARK  9 active torsions:
REMARK  status: ('A' for Active; 'I' for Inactive)
REMARK    1  A    between atoms: N1_1  and  C1_5 
REMARK    2  A    between atoms: C1_5  and  C2_6 
REMARK    3  A    between atoms: C2_6  and  C3_7 
REMARK    4  A    between atoms: C3_7  and  C4_8 
REMARK    5  A    between atoms: C4_8  and  N2_9 
REMARK    6  A    between atoms: N2_9  and  C5_12 
REMARK    7  A    between atoms: C5_12  and  C6_13 
REMARK    8  A    between atoms: C6_13  and  C7_14 
REMARK    9  A    between atoms: C7_14  and  N3_15 
ROOT
HETATM    1  N2  UNL     1      22.739  30.274  33.684  1.00  0.00    -0.075 N 
ATOM      2  H21 UNL     1      22.911  31.276  33.598  1.00  0.00     0.277 HD
ATOM      3  H22 UNL     1      23.181  30.144  34.594  1.00  0.00     0.277 HD
ENDROOT
BRANCH   1   4
HETATM    4  C4  UNL     1      23.362  29.497  32.632  1.00  0.00     0.232 C 
BRANCH   4   5
HETATM    5  C3  UNL     1      24.866  29.432  32.741  1.00  0.00     0.029 C 
BRANCH   5   6
HETATM    6  C2  UNL     1      25.303  28.143  32.066  1.00  0.00     0.029 C 
BRANCH   6   7
HETATM    7  C1  UNL     1      25.377  26.981  33.028  1.00  0.00     0.229 C 
BRANCH   7   8
HETATM    8  N1  UNL     1      26.204  25.899  32.549  1.00  0.00    -0.079 N 
ATOM      9  H13 UNL     1      25.937  25.630  31.602  1.00  0.00     0.274 HD
ATOM     10  H12 UNL     1      27.155  26.221  32.370  1.00  0.00     0.274 HD
ATOM     11  H11 UNL     1      26.206  25.090  33.170  1.00  0.00     0.274 HD
ENDBRANCH   7   8
ENDBRANCH   6   7
ENDBRANCH   5   6
ENDBRANCH   4   5
ENDBRANCH   1   4
BRANCH   1  12
HETATM   12  C5  UNL     1      21.324  29.932  33.679  1.00  0.00     0.233 C 
BRANCH  12  13
HETATM   13  C6  UNL     1      20.520  30.855  34.596  1.00  0.00     0.055 C 
BRANCH  13  14
HETATM   14  C7  UNL     1      19.158  30.224  34.844  1.00  0.00     0.231 C 
BRANCH  14  15
HETATM   15  N3  UNL     1      18.981  29.841  36.213  1.00  0.00    -0.079 N 
ATOM     16  H33 UNL     1      19.614  30.358  36.825  1.00  0.00     0.274 HD
ATOM     17  H32 UNL     1      18.091  30.178  36.579  1.00  0.00     0.274 HD
ATOM     18  H31 UNL     1      19.078  28.835  36.348  1.00  0.00     0.274 HD
ENDBRANCH  14  15
ENDBRANCH  13  14
ENDBRANCH  12  13
ENDBRANCH   1  12
TORSDOF 9
ENDMDL
