MODEL 3
REMARK VINA RESULT: -6.190009934      0.857      1.114
REMARK  9 active torsions:
REMARK  status: ('A' for Active; 'I' for Inactive)
REMARK    1  A    between atoms: N1_1  and  C1_5 
REMARK    2  A    between atoms: C1_5  and  C2_6 
REMARK    3  A    between atoms: C2_6  and  C3_7 
REMARK    4  A    between atoms: C3_7  and  C4_8 
REMARK    5  A    between atoms: C4_8  and  N2_9 
REMARK    6  A    between atoms: N2_9  and  C5_12 
REMARK    7  A    between atoms: C5_12  and  C6_13 
REMARK    8  A    between atoms: C6_13  and  C7_14 
REMARK    9  A    between atoms: C7_14  and  N3_15 
ROOT
HETATM    1  N2  UNL     1      23.375  29.477  32.408  1.00  0.00    -0.075 N 
ATOM      2  H21 UNL     1      23.142  30.051  31.597  1.00  0.00     0.277 HD
ATOM      3  H22 UNL     1      23.074  28.581  32.023  1.00  0.00     0.277 HD
ENDROOT
BRANCH   1   4
HETATM    4  C4  UNL     1      22.649  29.857  33.603  1.00  0.00     0.232 C 
BRANCH   4   5
HETATM    5  C3  UNL     1      21.152  29.881  33.416  1.00  0.00     0.029 C 
BRANCH   5   6
HETATM    6  C2  UNL     1      20.575  30.670  34.579  1.00  0.00     0.029 C 
BRANCH   6   7
HETATM    7  C1  UNL     1      19.137  30.309  34.869  1.00  0.00     0.229 C 
BRANCH   7   8
HETATM    8  N1  UNL     1      18.906  29.965  36.252  1.00  0.00    -0.079 N 
ATOM      9  H13 UNL     1      18.875  28.952  36.374  1.00  0.00     0.274 HD
ATOM     10  H12 UNL     1      19.726  30.177  36.821  1.00  0.00     0.274 HD
ATOM     11  H11 UNL     1      18.071  30.403  36.641  1.00  0.00     0.274 HD
ENDBRANCH   7   8
ENDBRANCH   6   7
ENDBRANCH   5   6
ENDBRANCH   4   5
ENDBRANCH   1   4
BRANCH   1  12
HETATM   12  C5  UNL     1      24.791  29.509  32.745  1.00  0.00     0.233 C 
BRANCH  12  13
HETATM   13  C6  UNL     1      25.558  28.380  32.057  1.00  0.00     0.055 C 
BRANCH  13  14
HETATM   14  C7  UNL     1      25.395  27.111  32.880  1.00  0.00     0.231 C 
BRANCH  14  15
HETATM   15  N3  UNL     1      26.231  26.048  32.406  1.00  0.00    -0.079 N 
ATOM     16  H33 UNL     1      26.147  25.935  31.396  1.00  0.00     0.274 HD
ATOM     17  H32 UNL     1      27.217  26.302  32.459  1.00  0.00     0.274 HD
ATOM     18  H31 UNL     1      26.050  25.170  32.892  1.00  0.00     0.274 HD
ENDBRANCH  14  15
ENDBRANCH  13  14
ENDBRANCH  12  13
ENDBRANCH   1  12
TORSDOF 9
ENDMDL
