MODEL 5
REMARK VINA RESULT: -5.939034661      1.955      3.012
REMARK  9 active torsions:
REMARK  status: ('A' for Active; 'I' for Inactive)
REMARK    1  A    between atoms: N1_1  and  C1_5 
REMARK    2  A    between atoms: C1_5  and  C2_6 
REMARK    3  A    between atoms: C2_6  and  C3_7 
REMARK    4  A    between atoms: C3_7  and  C4_8 
REMARK    5  A    between atoms: C4_8  and  N2_9 
REMARK    6  A    between atoms: N2_9  and  C5_12 
REMARK    7  A    between atoms: C5_12  and  C6_13 
REMARK    8  A    between atoms: C6_13  and  C7_14 
REMARK    9  A    between atoms: C7_14  and  N3_15 
ROOT
HETATM    1  N2  UNL     1      24.734  28.024  31.758  1.00  0.00    -0.075 N 
ATOM      2  H21 UNL     1      24.904  28.182  30.765  1.00  0.00     0.277 HD
ATOM      3  H22 UNL     1      23.888  27.463  31.657  1.00  0.00     0.277 HD
ENDROOT
BRANCH   1   4
HETATM    4  C4  UNL     1      24.519  29.249  32.502  1.00  0.00     0.232 C 
BRANCH   4   5
HETATM    5  C3  UNL     1      23.122  29.804  32.358  1.00  0.00     0.029 C 
BRANCH   5   6
HETATM    6  C2  UNL     1      22.435  29.622  33.700  1.00  0.00     0.029 C 
BRANCH   6   7
HETATM    7  C1  UNL     1      21.023  30.158  33.706  1.00  0.00     0.229 C 
BRANCH   7   8
HETATM    8  N1  UNL     1      20.781  31.110  34.764  1.00  0.00    -0.079 N 
ATOM      9  H13 UNL     1      19.781  31.227  34.927  1.00  0.00     0.274 HD
ATOM     10  H12 UNL     1      21.054  30.725  35.669  1.00  0.00     0.274 HD
ATOM     11  H11 UNL     1      21.231  32.012  34.603  1.00  0.00     0.274 HD
ENDBRANCH   7   8
ENDBRANCH   6   7
ENDBRANCH   5   6
ENDBRANCH   4   5
ENDBRANCH   1   4
BRANCH   1  12
HETATM   12  C5  UNL     1      25.818  27.314  32.421  1.00  0.00     0.233 C 
BRANCH  12  13
HETATM   13  C6  UNL     1      25.405  26.827  33.810  1.00  0.00     0.055 C 
BRANCH  13  14
HETATM   14  C7  UNL     1      24.847  25.417  33.682  1.00  0.00     0.231 C 
BRANCH  14  15
HETATM   15  N3  UNL     1      25.617  24.610  32.782  1.00  0.00    -0.079 N 
ATOM     16  H33 UNL     1      25.475  24.900  31.814  1.00  0.00     0.274 HD
ATOM     17  H32 UNL     1      26.613  24.811  32.866  1.00  0.00     0.274 HD
ATOM     18  H31 UNL     1      25.429  23.615  32.900  1.00  0.00     0.274 HD
ENDBRANCH  14  15
ENDBRANCH  13  14
ENDBRANCH  12  13
ENDBRANCH   1  12
TORSDOF 9
ENDMDL
