MODEL 12
REMARK VINA RESULT: -9.357909615      2.250      9.383
REMARK  13 active torsions:
REMARK  status: ('A' for Active; 'I' for Inactive)
REMARK    1  A    between atoms: C2_2  and  C4_4 
REMARK    2  A    between atoms: C4_4  and  N1_5 
REMARK    3  A    between atoms: N1_5  and  C5_6 
REMARK    4  A    between atoms: N1_5  and  S1_31 
REMARK    5  A    between atoms: C5_6  and  C6_7 
REMARK    6  A    between atoms: C6_7  and  O1_8 
REMARK    7  A    between atoms: C6_7  and  C7_10 
REMARK    8  A    between atoms: C7_10  and  C8_11 
REMARK    9  A    between atoms: C7_10  and  N2_18 
REMARK   10  A    between atoms: C8_11  and  C9_12 
REMARK       I    between atoms: N2_18  and  C15_20 
REMARK   11  A    between atoms: C15_20  and  O3_22 
REMARK   12  A    between atoms: O3_22  and  C16_23 
REMARK   13  A    between atoms: S1_31  and  C22_34 
ROOT
HETATM    1  C7  UNL     1      -8.773  16.951  26.268  1.00  0.00     0.029 C 
ENDROOT
BRANCH   1   2
HETATM    2  C6  UNL     1     -10.204  17.215  26.659  1.00  0.00     0.203 C 
BRANCH   2   3
HETATM    3  C5  UNL     1     -10.646  16.576  27.912  1.00  0.00     0.119 C 
BRANCH   3   4
HETATM    4  N1  UNL     1     -11.022  15.227  27.860  1.00  0.00    -0.262 N 
BRANCH   4   5
HETATM    5  C4  UNL     1     -11.551  14.650  26.704  1.00  0.00     0.085 C 
BRANCH   5   6
HETATM    6  C2  UNL     1     -13.044  14.347  26.743  1.00  0.00     0.017 C 
HETATM    7  C1  UNL     1     -13.374  12.924  26.393  1.00  0.00     0.015 C 
HETATM    8  C3  UNL     1     -13.652  14.704  28.079  1.00  0.00     0.015 C 
ENDBRANCH   5   6
ENDBRANCH   4   5
BRANCH   4   9
HETATM    9  S1  UNL     1     -10.272  14.229  28.999  1.00  0.00     0.267 S 
HETATM   10  O6  UNL     1     -10.986  12.886  28.986  1.00  0.00    -0.200 OA
HETATM   11  O7  UNL     1      -8.801  13.995  28.682  1.00  0.00    -0.200 OA
BRANCH   9  12
HETATM   12  C22 UNL     1     -10.355  14.846  30.645  1.00  0.00     0.080 A 
HETATM   13  C23 UNL     1      -9.312  15.505  31.258  1.00  0.00     0.027 A 
HETATM   14  C24 UNL     1      -9.399  15.977  32.555  1.00  0.00     0.028 A 
HETATM   15  C25 UNL     1     -10.550  15.803  33.292  1.00  0.00     0.046 A 
HETATM   16  N3  UNL     1     -10.645  16.292  34.643  1.00  0.00    -0.102 NA
HETATM   17  C26 UNL     1     -11.602  15.145  32.695  1.00  0.00     0.028 A 
HETATM   18  C27 UNL     1     -11.510  14.678  31.404  1.00  0.00     0.027 A 
ENDBRANCH   9  12
ENDBRANCH   4   9
ENDBRANCH   3   4
ENDBRANCH   2   3
BRANCH   2  19
HETATM   19  O1  UNL     1     -10.299  18.618  26.828  1.00  0.00    -0.385 OA
ATOM     20  H1  UNL     1      -9.428  18.949  27.016  1.00  0.00     0.211 HD
ENDBRANCH   2  19
ENDBRANCH   1   2
BRANCH   1  21
HETATM   21  C8  UNL     1      -7.825  16.998  27.435  1.00  0.00     0.094 C 
BRANCH  21  22
HETATM   22  C9  UNL     1      -6.449  17.380  27.118  1.00  0.00    -0.053 A 
HETATM   23  C10 UNL     1      -5.574  16.400  26.648  1.00  0.00     0.007 A 
HETATM   24  C11 UNL     1      -4.259  16.633  26.348  1.00  0.00     0.001 A 
HETATM   25  C12 UNL     1      -3.758  17.911  26.517  1.00  0.00     0.000 A 
HETATM   26  C13 UNL     1      -4.582  18.908  26.977  1.00  0.00     0.001 A 
HETATM   27  C14 UNL     1      -5.925  18.626  27.273  1.00  0.00     0.007 A 
ENDBRANCH  21  22
ENDBRANCH   1  21
BRANCH   1  28
HETATM   28  N2  UNL     1      -8.361  17.517  25.046  1.00  0.00    -0.307 N 
HETATM   29  C15 UNL     1      -8.426  16.872  23.786  1.00  0.00     0.365 C 
HETATM   30  O2  UNL     1      -8.866  15.719  23.706  1.00  0.00    -0.238 OA
ATOM     31  H2  UNL     1      -7.986  18.465  25.069  1.00  0.00     0.170 HD
BRANCH  29  32
HETATM   32  O3  UNL     1      -7.999  17.519  22.622  1.00  0.00    -0.296 OA
BRANCH  32  33
HETATM   33  C16 UNL     1      -6.919  17.017  21.853  1.00  0.00     0.166 C 
HETATM   34  C17 UNL     1      -6.651  17.852  20.645  1.00  0.00     0.204 C 
HETATM   35  O4  UNL     1      -5.301  18.037  20.513  1.00  0.00    -0.358 OA
HETATM   36  C18 UNL     1      -4.645  17.384  21.545  1.00  0.00     0.266 C 
HETATM   37  O5  UNL     1      -3.637  18.151  22.117  1.00  0.00    -0.361 OA
HETATM   38  C21 UNL     1      -5.656  17.229  22.662  1.00  0.00     0.075 C 
HETATM   39  C19 UNL     1      -4.210  19.094  22.935  1.00  0.00     0.171 C 
HETATM   40  C20 UNL     1      -5.590  18.562  23.333  1.00  0.00     0.038 C 
ENDBRANCH  32  33
ENDBRANCH  29  32
ENDBRANCH   1  28
TORSDOF 13
ENDMDL
