MODEL 5
REMARK VINA RESULT: -9.632942998      1.197      1.992
REMARK  13 active torsions:
REMARK  status: ('A' for Active; 'I' for Inactive)
REMARK    1  A    between atoms: C2_2  and  C4_4 
REMARK    2  A    between atoms: C4_4  and  N1_5 
REMARK    3  A    between atoms: N1_5  and  C5_6 
REMARK    4  A    between atoms: N1_5  and  S1_31 
REMARK    5  A    between atoms: C5_6  and  C6_7 
REMARK    6  A    between atoms: C6_7  and  O1_8 
REMARK    7  A    between atoms: C6_7  and  C7_10 
REMARK    8  A    between atoms: C7_10  and  C8_11 
REMARK    9  A    between atoms: C7_10  and  N2_18 
REMARK   10  A    between atoms: C8_11  and  C9_12 
REMARK       I    between atoms: N2_18  and  C15_20 
REMARK   11  A    between atoms: C15_20  and  O3_22 
REMARK   12  A    between atoms: O3_22  and  C16_23 
REMARK   13  A    between atoms: S1_31  and  C22_34 
ROOT
HETATM    1  C7  UNL     1     -10.264  16.066  28.060  1.00  0.00     0.029 C 
ENDROOT
BRANCH   1   2
HETATM    2  C6  UNL     1      -9.687  17.418  27.724  1.00  0.00     0.203 C 
BRANCH   2   3
HETATM    3  C5  UNL     1      -8.908  17.481  26.474  1.00  0.00     0.119 C 
BRANCH   3   4
HETATM    4  N1  UNL     1      -7.560  17.103  26.525  1.00  0.00    -0.262 N 
BRANCH   4   5
HETATM    5  C4  UNL     1      -6.804  17.211  27.693  1.00  0.00     0.085 C 
BRANCH   5   6
HETATM    6  C2  UNL     1      -5.805  18.361  27.727  1.00  0.00     0.017 C 
HETATM    7  C1  UNL     1      -4.390  17.917  27.965  1.00  0.00     0.015 C 
HETATM    8  C3  UNL     1      -5.879  19.203  26.475  1.00  0.00     0.015 C 
ENDBRANCH   5   6
ENDBRANCH   4   5
BRANCH   4   9
HETATM    9  S1  UNL     1      -7.082  15.990  25.346  1.00  0.00     0.267 S 
HETATM   10  O6  UNL     1      -5.561  15.947  25.333  1.00  0.00    -0.200 OA
HETATM   11  O7  UNL     1      -7.601  14.588  25.631  1.00  0.00    -0.200 OA
BRANCH   9  12
HETATM   12  C22 UNL     1      -7.602  16.414  23.720  1.00  0.00     0.080 A 
HETATM   13  C23 UNL     1      -8.686  15.833  23.097  1.00  0.00     0.027 A 
HETATM   14  C24 UNL     1      -9.073  16.179  21.817  1.00  0.00     0.028 A 
HETATM   15  C25 UNL     1      -8.380  17.133  21.104  1.00  0.00     0.046 A 
HETATM   16  N3  UNL     1      -8.780  17.496  19.770  1.00  0.00    -0.102 NA
HETATM   17  C26 UNL     1      -7.294  17.724  21.710  1.00  0.00     0.028 A 
HETATM   18  C27 UNL     1      -6.913  17.375  22.986  1.00  0.00     0.027 A 
ENDBRANCH   9  12
ENDBRANCH   4   9
ENDBRANCH   3   4
ENDBRANCH   2   3
BRANCH   2  19
HETATM   19  O1  UNL     1     -10.801  18.282  27.589  1.00  0.00    -0.385 OA
ATOM     20  H1  UNL     1     -11.464  17.828  27.082  1.00  0.00     0.211 HD
ENDBRANCH   2  19
ENDBRANCH   1   2
BRANCH   1  21
HETATM   21  C8  UNL     1     -10.775  15.328  26.853  1.00  0.00     0.094 C 
BRANCH  21  22
HETATM   22  C9  UNL     1     -11.801  14.319  27.117  1.00  0.00    -0.053 A 
HETATM   23  C10 UNL     1     -11.398  13.047  27.526  1.00  0.00     0.007 A 
HETATM   24  C11 UNL     1     -12.263  12.015  27.772  1.00  0.00     0.001 A 
HETATM   25  C12 UNL     1     -13.619  12.235  27.609  1.00  0.00     0.000 A 
HETATM   26  C13 UNL     1     -14.063  13.471  27.208  1.00  0.00     0.001 A 
HETATM   27  C14 UNL     1     -13.140  14.502  26.966  1.00  0.00     0.007 A 
ENDBRANCH  21  22
ENDBRANCH   1  21
BRANCH   1  28
HETATM   28  N2  UNL     1     -11.011  16.002  29.253  1.00  0.00    -0.307 N 
HETATM   29  C15 UNL     1     -10.533  15.493  30.486  1.00  0.00     0.365 C 
HETATM   30  O2  UNL     1      -9.380  15.055  30.568  1.00  0.00    -0.238 OA
ATOM     31  H2  UNL     1     -11.969  16.348  29.227  1.00  0.00     0.170 HD
BRANCH  29  32
HETATM   32  O3  UNL     1     -11.348  15.477  31.622  1.00  0.00    -0.296 OA
BRANCH  32  33
HETATM   33  C16 UNL     1     -11.620  14.272  32.319  1.00  0.00     0.166 C 
HETATM   34  C17 UNL     1     -12.522  14.487  33.488  1.00  0.00     0.204 C 
HETATM   35  O4  UNL     1     -13.469  13.499  33.516  1.00  0.00    -0.358 OA
HETATM   36  C18 UNL     1     -13.265  12.636  32.451  1.00  0.00     0.266 C 
HETATM   37  O5  UNL     1     -14.442  12.301  31.793  1.00  0.00    -0.361 OA
HETATM   38  C21 UNL     1     -12.483  13.416  31.414  1.00  0.00     0.075 C 
HETATM   39  C19 UNL     1     -14.822  13.358  31.001  1.00  0.00     0.171 C 
HETATM   40  C20 UNL     1     -13.561  14.180  30.716  1.00  0.00     0.038 C 
ENDBRANCH  32  33
ENDBRANCH  29  32
ENDBRANCH   1  28
TORSDOF 13
ENDMDL
