MODEL 3
REMARK VINA RESULT: -9.725537522      2.279      9.320
REMARK  13 active torsions:
REMARK  status: ('A' for Active; 'I' for Inactive)
REMARK    1  A    between atoms: C2_2  and  C4_4 
REMARK    2  A    between atoms: C4_4  and  N1_5 
REMARK    3  A    between atoms: N1_5  and  C5_6 
REMARK    4  A    between atoms: N1_5  and  S1_31 
REMARK    5  A    between atoms: C5_6  and  C6_7 
REMARK    6  A    between atoms: C6_7  and  O1_8 
REMARK    7  A    between atoms: C6_7  and  C7_10 
REMARK    8  A    between atoms: C7_10  and  C8_11 
REMARK    9  A    between atoms: C7_10  and  N2_18 
REMARK   10  A    between atoms: C8_11  and  C9_12 
REMARK       I    between atoms: N2_18  and  C15_20 
REMARK   11  A    between atoms: C15_20  and  O3_22 
REMARK   12  A    between atoms: O3_22  and  C16_23 
REMARK   13  A    between atoms: S1_31  and  C22_34 
ROOT
HETATM    1  C7  UNL     1      -8.784  16.788  26.784  1.00  0.00     0.029 C 
ENDROOT
BRANCH   1   2
HETATM    2  C6  UNL     1     -10.243  17.142  26.921  1.00  0.00     0.203 C 
BRANCH   2   3
HETATM    3  C5  UNL     1     -10.893  16.679  28.160  1.00  0.00     0.119 C 
BRANCH   3   4
HETATM    4  N1  UNL     1     -11.430  15.385  28.172  1.00  0.00    -0.262 N 
BRANCH   4   5
HETATM    5  C4  UNL     1     -12.154  14.873  27.094  1.00  0.00     0.085 C 
BRANCH   5   6
HETATM    6  C2  UNL     1     -11.395  13.912  26.187  1.00  0.00     0.017 C 
HETATM    7  C1  UNL     1     -12.117  12.616  25.954  1.00  0.00     0.015 C 
HETATM    8  C3  UNL     1     -11.043  14.553  24.865  1.00  0.00     0.015 C 
ENDBRANCH   5   6
ENDBRANCH   4   5
BRANCH   4   9
HETATM    9  S1  UNL     1     -10.676  14.305  29.232  1.00  0.00     0.267 S 
HETATM   10  O6  UNL     1     -11.477  13.012  29.230  1.00  0.00    -0.200 OA
HETATM   11  O7  UNL     1      -9.247  13.987  28.813  1.00  0.00    -0.200 OA
BRANCH   9  12
HETATM   12  C22 UNL     1     -10.613  14.875  30.895  1.00  0.00     0.080 A 
HETATM   13  C23 UNL     1     -11.648  14.708  31.791  1.00  0.00     0.027 A 
HETATM   14  C24 UNL     1     -11.577  15.169  33.092  1.00  0.00     0.028 A 
HETATM   15  C25 UNL     1     -10.452  15.821  33.549  1.00  0.00     0.046 A 
HETATM   16  N3  UNL     1     -10.375  16.302  34.904  1.00  0.00    -0.102 NA
HETATM   17  C26 UNL     1      -9.409  15.996  32.668  1.00  0.00     0.028 A 
HETATM   18  C27 UNL     1      -9.485  15.535  31.373  1.00  0.00     0.027 A 
ENDBRANCH   9  12
ENDBRANCH   4   9
ENDBRANCH   3   4
ENDBRANCH   2   3
BRANCH   2  19
HETATM   19  O1  UNL     1     -10.293  18.557  26.904  1.00  0.00    -0.385 OA
ATOM     20  H1  UNL     1     -10.803  18.823  26.148  1.00  0.00     0.211 HD
ENDBRANCH   2  19
ENDBRANCH   1   2
BRANCH   1  21
HETATM   21  C8  UNL     1      -7.970  17.169  27.990  1.00  0.00     0.094 C 
BRANCH  21  22
HETATM   22  C9  UNL     1      -6.593  17.583  27.719  1.00  0.00    -0.053 A 
HETATM   23  C10 UNL     1      -5.559  16.690  28.001  1.00  0.00     0.007 A 
HETATM   24  C11 UNL     1      -4.232  16.977  27.819  1.00  0.00     0.001 A 
HETATM   25  C12 UNL     1      -3.887  18.222  27.326  1.00  0.00     0.000 A 
HETATM   26  C13 UNL     1      -4.871  19.134  27.033  1.00  0.00     0.001 A 
HETATM   27  C14 UNL     1      -6.219  18.798  27.236  1.00  0.00     0.007 A 
ENDBRANCH  21  22
ENDBRANCH   1  21
BRANCH   1  28
HETATM   28  N2  UNL     1      -8.225  16.989  25.506  1.00  0.00    -0.307 N 
HETATM   29  C15 UNL     1      -7.653  15.975  24.699  1.00  0.00     0.365 C 
HETATM   30  O2  UNL     1      -7.614  14.809  25.108  1.00  0.00    -0.238 OA
ATOM     31  H2  UNL     1      -8.233  17.938  25.134  1.00  0.00     0.170 HD
BRANCH  29  32
HETATM   32  O3  UNL     1      -7.129  16.270  23.436  1.00  0.00    -0.296 OA
BRANCH  32  33
HETATM   33  C16 UNL     1      -7.714  17.262  22.608  1.00  0.00     0.166 C 
HETATM   34  C17 UNL     1      -6.720  17.880  21.682  1.00  0.00     0.204 C 
HETATM   35  O4  UNL     1      -7.274  17.992  20.434  1.00  0.00    -0.358 OA
HETATM   36  C18 UNL     1      -8.567  17.495  20.460  1.00  0.00     0.266 C 
HETATM   37  O5  UNL     1      -8.857  16.682  19.371  1.00  0.00    -0.361 OA
HETATM   38  C21 UNL     1      -8.638  16.551  21.642  1.00  0.00     0.075 C 
HETATM   39  C19 UNL     1      -8.268  15.456  19.566  1.00  0.00     0.171 C 
HETATM   40  C20 UNL     1      -8.062  15.294  21.076  1.00  0.00     0.038 C 
ENDBRANCH  32  33
ENDBRANCH  29  32
ENDBRANCH   1  28
TORSDOF 13
ENDMDL
