MODEL 2
REMARK VINA RESULT: -9.797198228      2.253      9.431
REMARK  13 active torsions:
REMARK  status: ('A' for Active; 'I' for Inactive)
REMARK    1  A    between atoms: C2_2  and  C4_4 
REMARK    2  A    between atoms: C4_4  and  N1_5 
REMARK    3  A    between atoms: N1_5  and  C5_6 
REMARK    4  A    between atoms: N1_5  and  S1_31 
REMARK    5  A    between atoms: C5_6  and  C6_7 
REMARK    6  A    between atoms: C6_7  and  O1_8 
REMARK    7  A    between atoms: C6_7  and  C7_10 
REMARK    8  A    between atoms: C7_10  and  C8_11 
REMARK    9  A    between atoms: C7_10  and  N2_18 
REMARK   10  A    between atoms: C8_11  and  C9_12 
REMARK       I    between atoms: N2_18  and  C15_20 
REMARK   11  A    between atoms: C15_20  and  O3_22 
REMARK   12  A    between atoms: O3_22  and  C16_23 
REMARK   13  A    between atoms: S1_31  and  C22_34 
ROOT
HETATM    1  C7  UNL     1      -8.835  16.713  26.773  1.00  0.00     0.029 C 
ENDROOT
BRANCH   1   2
HETATM    2  C6  UNL     1     -10.305  17.033  26.862  1.00  0.00     0.203 C 
BRANCH   2   3
HETATM    3  C5  UNL     1     -11.013  16.441  28.012  1.00  0.00     0.119 C 
BRANCH   3   4
HETATM    4  N1  UNL     1     -11.318  15.074  27.958  1.00  0.00    -0.262 N 
BRANCH   4   5
HETATM    5  C4  UNL     1     -11.838  14.476  26.809  1.00  0.00     0.085 C 
BRANCH   5   6
HETATM    6  C2  UNL     1     -13.317  14.117  26.865  1.00  0.00     0.017 C 
HETATM    7  C1  UNL     1     -13.593  12.671  26.561  1.00  0.00     0.015 C 
HETATM    8  C3  UNL     1     -13.933  14.492  28.192  1.00  0.00     0.015 C 
ENDBRANCH   5   6
ENDBRANCH   4   5
BRANCH   4   9
HETATM    9  S1  UNL     1     -10.494  14.111  29.075  1.00  0.00     0.267 S 
HETATM   10  O6  UNL     1     -11.199  12.765  29.142  1.00  0.00    -0.200 OA
HETATM   11  O7  UNL     1      -9.043  13.876  28.676  1.00  0.00    -0.200 OA
BRANCH   9  12
HETATM   12  C22 UNL     1     -10.481  14.772  30.706  1.00  0.00     0.080 A 
HETATM   13  C23 UNL     1      -9.400  15.438  31.243  1.00  0.00     0.027 A 
HETATM   14  C24 UNL     1      -9.412  15.944  32.529  1.00  0.00     0.028 A 
HETATM   15  C25 UNL     1     -10.523  15.801  33.333  1.00  0.00     0.046 A 
HETATM   16  N3  UNL     1     -10.538  16.326  34.673  1.00  0.00    -0.102 NA
HETATM   17  C26 UNL     1     -11.611  15.138  32.813  1.00  0.00     0.028 A 
HETATM   18  C27 UNL     1     -11.593  14.636  31.531  1.00  0.00     0.027 A 
ENDBRANCH   9  12
ENDBRANCH   4   9
ENDBRANCH   3   4
ENDBRANCH   2   3
BRANCH   2  19
HETATM   19  O1  UNL     1     -10.379  18.442  26.982  1.00  0.00    -0.385 OA
ATOM     20  H1  UNL     1      -9.698  18.818  26.437  1.00  0.00     0.211 HD
ENDBRANCH   2  19
ENDBRANCH   1   2
BRANCH   1  21
HETATM   21  C8  UNL     1      -8.063  17.144  27.989  1.00  0.00     0.094 C 
BRANCH  21  22
HETATM   22  C9  UNL     1      -6.700  17.612  27.740  1.00  0.00    -0.053 A 
HETATM   23  C10 UNL     1      -5.633  16.789  28.102  1.00  0.00     0.007 A 
HETATM   24  C11 UNL     1      -4.317  17.132  27.946  1.00  0.00     0.001 A 
HETATM   25  C12 UNL     1      -4.016  18.366  27.398  1.00  0.00     0.000 A 
HETATM   26  C13 UNL     1      -5.032  19.211  27.026  1.00  0.00     0.001 A 
HETATM   27  C14 UNL     1      -6.369  18.818  27.205  1.00  0.00     0.007 A 
ENDBRANCH  21  22
ENDBRANCH   1  21
BRANCH   1  28
HETATM   28  N2  UNL     1      -8.247  16.895  25.505  1.00  0.00    -0.307 N 
HETATM   29  C15 UNL     1      -7.799  15.852  24.657  1.00  0.00     0.365 C 
HETATM   30  O2  UNL     1      -7.906  14.674  25.019  1.00  0.00    -0.238 OA
ATOM     31  H2  UNL     1      -8.136  17.852  25.171  1.00  0.00     0.170 HD
BRANCH  29  32
HETATM   32  O3  UNL     1      -7.234  16.131  23.409  1.00  0.00    -0.296 OA
BRANCH  32  33
HETATM   33  C16 UNL     1      -7.720  17.190  22.600  1.00  0.00     0.166 C 
HETATM   34  C17 UNL     1      -6.643  17.802  21.767  1.00  0.00     0.204 C 
HETATM   35  O4  UNL     1      -7.114  18.002  20.496  1.00  0.00    -0.358 OA
HETATM   36  C18 UNL     1      -8.428  17.570  20.419  1.00  0.00     0.266 C 
HETATM   37  O5  UNL     1      -8.688  16.826  19.275  1.00  0.00    -0.361 OA
HETATM   38  C21 UNL     1      -8.616  16.573  21.545  1.00  0.00     0.075 C 
HETATM   39  C19 UNL     1      -8.171  15.564  19.442  1.00  0.00     0.171 C 
HETATM   40  C20 UNL     1      -8.066  15.319  20.950  1.00  0.00     0.038 C 
ENDBRANCH  32  33
ENDBRANCH  29  32
ENDBRANCH   1  28
TORSDOF 13
ENDMDL
