MODEL 1
REMARK VINA RESULT: -9.876846382      0.000      0.000
REMARK  13 active torsions:
REMARK  status: ('A' for Active; 'I' for Inactive)
REMARK    1  A    between atoms: C2_2  and  C4_4 
REMARK    2  A    between atoms: C4_4  and  N1_5 
REMARK    3  A    between atoms: N1_5  and  C5_6 
REMARK    4  A    between atoms: N1_5  and  S1_31 
REMARK    5  A    between atoms: C5_6  and  C6_7 
REMARK    6  A    between atoms: C6_7  and  O1_8 
REMARK    7  A    between atoms: C6_7  and  C7_10 
REMARK    8  A    between atoms: C7_10  and  C8_11 
REMARK    9  A    between atoms: C7_10  and  N2_18 
REMARK   10  A    between atoms: C8_11  and  C9_12 
REMARK       I    between atoms: N2_18  and  C15_20 
REMARK   11  A    between atoms: C15_20  and  O3_22 
REMARK   12  A    between atoms: O3_22  and  C16_23 
REMARK   13  A    between atoms: S1_31  and  C22_34 
ROOT
HETATM    1  C7  UNL     1     -10.002  16.035  27.562  1.00  0.00     0.029 C 
ENDROOT
BRANCH   1   2
HETATM    2  C6  UNL     1      -9.517  17.462  27.555  1.00  0.00     0.203 C 
BRANCH   2   3
HETATM    3  C5  UNL     1      -8.614  17.818  26.446  1.00  0.00     0.119 C 
BRANCH   3   4
HETATM    4  N1  UNL     1      -7.299  17.336  26.494  1.00  0.00    -0.262 N 
BRANCH   4   5
HETATM    5  C4  UNL     1      -6.517  17.430  27.646  1.00  0.00     0.085 C 
BRANCH   5   6
HETATM    6  C2  UNL     1      -5.471  18.538  27.644  1.00  0.00     0.017 C 
HETATM    7  C1  UNL     1      -4.074  18.042  27.888  1.00  0.00     0.015 C 
HETATM    8  C3  UNL     1      -5.516  19.346  26.368  1.00  0.00     0.015 C 
ENDBRANCH   5   6
ENDBRANCH   4   5
BRANCH   4   9
HETATM    9  S1  UNL     1      -6.932  16.142  25.356  1.00  0.00     0.267 S 
HETATM   10  O6  UNL     1      -5.417  16.029  25.269  1.00  0.00    -0.200 OA
HETATM   11  O7  UNL     1      -7.494  14.781  25.744  1.00  0.00    -0.200 OA
BRANCH   9  12
HETATM   12  C22 UNL     1      -7.519  16.502  23.737  1.00  0.00     0.080 A 
HETATM   13  C23 UNL     1      -8.590  15.853  23.160  1.00  0.00     0.027 A 
HETATM   14  C24 UNL     1      -9.030  16.149  21.884  1.00  0.00     0.028 A 
HETATM   15  C25 UNL     1      -8.406  17.121  21.131  1.00  0.00     0.046 A 
HETATM   16  N3  UNL     1      -8.862  17.432  19.801  1.00  0.00    -0.102 NA
HETATM   17  C26 UNL     1      -7.335  17.779  21.692  1.00  0.00     0.028 A 
HETATM   18  C27 UNL     1      -6.901  17.479  22.963  1.00  0.00     0.027 A 
ENDBRANCH   9  12
ENDBRANCH   4   9
ENDBRANCH   3   4
ENDBRANCH   2   3
BRANCH   2  19
HETATM   19  O1  UNL     1     -10.684  18.258  27.441  1.00  0.00    -0.385 OA
ATOM     20  H1  UNL     1     -11.364  17.857  27.970  1.00  0.00     0.211 HD
ENDBRANCH   2  19
ENDBRANCH   1   2
BRANCH   1  21
HETATM   21  C8  UNL     1     -10.895  15.710  26.397  1.00  0.00     0.094 C 
BRANCH  21  22
HETATM   22  C9  UNL     1     -11.870  14.644  26.625  1.00  0.00    -0.053 A 
HETATM   23  C10 UNL     1     -11.535  13.340  26.258  1.00  0.00     0.007 A 
HETATM   24  C11 UNL     1     -12.376  12.269  26.395  1.00  0.00     0.001 A 
HETATM   25  C12 UNL     1     -13.634  12.480  26.928  1.00  0.00     0.000 A 
HETATM   26  C13 UNL     1     -14.010  13.746  27.304  1.00  0.00     0.001 A 
HETATM   27  C14 UNL     1     -13.115  14.817  27.145  1.00  0.00     0.007 A 
ENDBRANCH  21  22
ENDBRANCH   1  21
BRANCH   1  28
HETATM   28  N2  UNL     1     -10.331  15.509  28.828  1.00  0.00    -0.307 N 
HETATM   29  C15 UNL     1      -9.527  14.610  29.571  1.00  0.00     0.365 C 
HETATM   30  O2  UNL     1      -8.447  14.223  29.110  1.00  0.00    -0.238 OA
ATOM     31  H2  UNL     1     -11.217  15.799  29.241  1.00  0.00     0.170 HD
BRANCH  29  32
HETATM   32  O3  UNL     1      -9.936  14.148  30.826  1.00  0.00    -0.296 OA
BRANCH  32  33
HETATM   33  C16 UNL     1     -11.047  14.719  31.496  1.00  0.00     0.166 C 
HETATM   34  C17 UNL     1     -11.777  13.719  32.330  1.00  0.00     0.204 C 
HETATM   35  O4  UNL     1     -12.079  14.277  33.544  1.00  0.00    -0.358 OA
HETATM   36  C18 UNL     1     -11.605  15.579  33.582  1.00  0.00     0.266 C 
HETATM   37  O5  UNL     1     -10.964  15.888  34.775  1.00  0.00    -0.361 OA
HETATM   38  C21 UNL     1     -10.500  15.661  32.549  1.00  0.00     0.075 C 
HETATM   39  C19 UNL     1      -9.713  15.321  34.765  1.00  0.00     0.171 C 
HETATM   40  C20 UNL     1      -9.330  15.110  33.296  1.00  0.00     0.038 C 
ENDBRANCH  32  33
ENDBRANCH  29  32
ENDBRANCH   1  28
TORSDOF 13
ENDMDL
