MODEL 12
REMARK VINA RESULT: -8.034075943      2.870      7.831
REMARK  10 active torsions:
REMARK  status: ('A' for Active; 'I' for Inactive)
REMARK    1  A    between atoms: S1_2  and  N1_5 
REMARK    2  A    between atoms: N1_5  and  C2_7 
REMARK    3  A    between atoms: C2_7  and  C3_8 
REMARK    4  A    between atoms: C2_7  and  C10_15 
REMARK    5  A    between atoms: C3_8  and  C4_9 
REMARK    6  A    between atoms: C10_15  and  O3_16 
REMARK    7  A    between atoms: C10_15  and  N2_18 
REMARK    8  A    between atoms: C14_22  and  C15_23 
REMARK       I    between atoms: C15_23  and  N3_25 
REMARK    9  A    between atoms: N3_25  and  C16_27 
REMARK   10  A    between atoms: C16_27  and  C17_28 
ROOT
HETATM    1  N2  UNL     1      25.031   5.785  22.129  1.00  0.00    -0.350 N 
HETATM    2  C11 UNL     1      23.677   6.498  22.121  1.00  0.00     0.126 C 
HETATM    3  C12 UNL     1      23.072   5.779  23.332  1.00  0.00     0.022 C 
HETATM    4  C13 UNL     1      24.267   5.403  24.227  1.00  0.00     0.037 C 
HETATM    5  C14 UNL     1      25.411   6.068  23.458  1.00  0.00     0.178 C 
ENDROOT
BRANCH   1   6
HETATM    6  C10 UNL     1      25.447   5.138  20.975  1.00  0.00     0.138 C 
BRANCH   6   7
HETATM    7  C2  UNL     1      24.797   4.099  20.185  1.00  0.00     0.171 C 
BRANCH   7   8
HETATM    8  N1  UNL     1      23.687   4.632  19.409  1.00  0.00    -0.307 N 
ATOM      9  H1  UNL     1      23.011   5.276  19.820  1.00  0.00     0.173 HD
BRANCH   8  10
HETATM   10  S1  UNL     1      23.567   4.141  17.814  1.00  0.00     0.223 S 
HETATM   11  C1  UNL     1      24.466   5.160  16.670  1.00  0.00     0.185 C 
HETATM   12  O1  UNL     1      22.115   4.237  17.407  1.00  0.00    -0.206 OA
HETATM   13  O2  UNL     1      23.937   2.676  17.619  1.00  0.00    -0.206 OA
ENDBRANCH   8  10
ENDBRANCH   7   8
BRANCH   7  14
HETATM   14  C3  UNL     1      24.281   2.951  21.034  1.00  0.00     0.072 C 
BRANCH  14  15
HETATM   15  C4  UNL     1      25.321   1.958  21.394  1.00  0.00    -0.056 A 
HETATM   16  C5  UNL     1      25.205   0.598  21.089  1.00  0.00     0.007 A 
HETATM   17  C6  UNL     1      26.181  -0.312  21.414  1.00  0.00     0.001 A 
HETATM   18  C7  UNL     1      27.320   0.079  22.059  1.00  0.00     0.000 A 
HETATM   19  C8  UNL     1      27.465   1.409  22.374  1.00  0.00     0.001 A 
HETATM   20  C9  UNL     1      26.468   2.337  22.041  1.00  0.00     0.007 A 
ENDBRANCH  14  15
ENDBRANCH   7  14
ENDBRANCH   6   7
BRANCH   6  21
HETATM   21  O3  UNL     1      26.619   5.538  20.527  1.00  0.00    -0.348 OA
ATOM     22  H3  UNL     1      26.676   5.661  19.586  1.00  0.00     0.219 HD
ENDBRANCH   6  21
ENDBRANCH   1   6
BRANCH   5  23
HETATM   23  C15 UNL     1      26.722   5.867  23.975  1.00  0.00     0.240 C 
HETATM   24  O4  UNL     1      27.000   5.687  25.163  1.00  0.00    -0.271 OA
HETATM   25  N3  UNL     1      27.829   5.869  23.057  1.00  0.00    -0.359 N 
ATOM     26  H3  UNL     1      27.644   6.016  22.065  1.00  0.00     0.162 HD
BRANCH  25  27
HETATM   27  C16 UNL     1      29.185   5.672  23.481  1.00  0.00     0.127 C 
BRANCH  27  28
HETATM   28  C17 UNL     1      29.554   4.234  23.742  1.00  0.00     0.006 C 
HETATM   29  C18 UNL     1      30.338   4.124  25.036  1.00  0.00     0.026 C 
HETATM   30  C19 UNL     1      30.558   2.668  25.340  1.00  0.00     0.125 C 
HETATM   31  N4  UNL     1      31.038   1.938  24.174  1.00  0.00    -0.358 N 
HETATM   32  C20 UNL     1      31.314   0.697  24.337  1.00  0.00     0.199 C 
HETATM   33  C21 UNL     1      31.213   2.531  22.886  1.00  0.00     0.125 C 
HETATM   34  N5  UNL     1      31.168   0.038  25.582  1.00  0.00    -0.067 NA
HETATM   35  N6  UNL     1      31.786  -0.053  23.229  1.00  0.00    -0.067 NA
HETATM   36  C22 UNL     1      30.433   3.769  22.626  1.00  0.00     0.026 C 
ENDBRANCH  27  28
ENDBRANCH  25  27
ENDBRANCH   5  23
TORSDOF 10
ENDMDL
