MODEL 10
REMARK VINA RESULT: -8.135055408      1.225      1.949
REMARK  10 active torsions:
REMARK  status: ('A' for Active; 'I' for Inactive)
REMARK    1  A    between atoms: S1_2  and  N1_5 
REMARK    2  A    between atoms: N1_5  and  C2_7 
REMARK    3  A    between atoms: C2_7  and  C3_8 
REMARK    4  A    between atoms: C2_7  and  C10_15 
REMARK    5  A    between atoms: C3_8  and  C4_9 
REMARK    6  A    between atoms: C10_15  and  O3_16 
REMARK    7  A    between atoms: C10_15  and  N2_18 
REMARK    8  A    between atoms: C14_22  and  C15_23 
REMARK       I    between atoms: C15_23  and  N3_25 
REMARK    9  A    between atoms: N3_25  and  C16_27 
REMARK   10  A    between atoms: C16_27  and  C17_28 
ROOT
HETATM    1  N2  UNL     1      25.774   2.501  21.306  1.00  0.00    -0.350 N 
HETATM    2  C11 UNL     1      26.980   1.614  21.625  1.00  0.00     0.126 C 
HETATM    3  C12 UNL     1      26.199   0.401  22.139  1.00  0.00     0.022 C 
HETATM    4  C13 UNL     1      24.849   0.435  21.397  1.00  0.00     0.037 C 
HETATM    5  C14 UNL     1      25.082   1.617  20.452  1.00  0.00     0.178 C 
ENDROOT
BRANCH   1   6
HETATM    6  C10 UNL     1      25.708   3.762  21.879  1.00  0.00     0.138 C 
BRANCH   6   7
HETATM    7  C2  UNL     1      26.674   4.480  22.703  1.00  0.00     0.171 C 
BRANCH   7   8
HETATM    8  N1  UNL     1      26.101   5.692  23.268  1.00  0.00    -0.307 N 
ATOM      9  H1  UNL     1      26.112   6.575  22.757  1.00  0.00     0.173 HD
BRANCH   8  10
HETATM   10  S1  UNL     1      25.423   5.575  24.793  1.00  0.00     0.223 S 
HETATM   11  C1  UNL     1      26.275   4.465  25.887  1.00  0.00     0.185 C 
HETATM   12  O1  UNL     1      24.026   5.019  24.639  1.00  0.00    -0.206 OA
HETATM   13  O2  UNL     1      25.236   6.932  25.460  1.00  0.00    -0.206 OA
ENDBRANCH   8  10
ENDBRANCH   7   8
BRANCH   7  14
HETATM   14  C3  UNL     1      27.933   4.854  21.942  1.00  0.00     0.072 C 
BRANCH  14  15
HETATM   15  C4  UNL     1      29.176   4.305  22.535  1.00  0.00    -0.056 A 
HETATM   16  C5  UNL     1      30.132   3.618  21.780  1.00  0.00     0.007 A 
HETATM   17  C6  UNL     1      31.288   3.124  22.336  1.00  0.00     0.001 A 
HETATM   18  C7  UNL     1      31.554   3.287  23.666  1.00  0.00     0.000 A 
HETATM   19  C8  UNL     1      30.633   3.958  24.435  1.00  0.00     0.001 A 
HETATM   20  C9  UNL     1      29.455   4.461  23.868  1.00  0.00     0.007 A 
ENDBRANCH  14  15
ENDBRANCH   7  14
ENDBRANCH   6   7
BRANCH   6  21
HETATM   21  O3  UNL     1      24.589   4.408  21.628  1.00  0.00    -0.348 OA
ATOM     22  H3  UNL     1      24.445   4.637  20.717  1.00  0.00     0.219 HD
ENDBRANCH   6  21
ENDBRANCH   1   6
BRANCH   5  23
HETATM   23  C15 UNL     1      23.983   1.995  19.630  1.00  0.00     0.240 C 
HETATM   24  O4  UNL     1      22.960   1.328  19.456  1.00  0.00    -0.271 OA
HETATM   25  N3  UNL     1      24.047   3.253  18.936  1.00  0.00    -0.359 N 
ATOM     26  H3  UNL     1      24.876   3.835  19.050  1.00  0.00     0.162 HD
BRANCH  25  27
HETATM   27  C16 UNL     1      22.990   3.722  18.087  1.00  0.00     0.127 C 
BRANCH  27  28
HETATM   28  C17 UNL     1      23.343   4.936  17.266  1.00  0.00     0.006 C 
HETATM   29  C18 UNL     1      24.584   4.662  16.438  1.00  0.00     0.026 C 
HETATM   30  C19 UNL     1      24.816   5.833  15.524  1.00  0.00     0.125 C 
HETATM   31  N4  UNL     1      24.723   7.102  16.234  1.00  0.00    -0.358 N 
HETATM   32  C20 UNL     1      24.963   8.166  15.561  1.00  0.00     0.199 C 
HETATM   33  C21 UNL     1      24.386   7.210  17.618  1.00  0.00     0.125 C 
HETATM   34  N5  UNL     1      25.304   8.140  14.187  1.00  0.00    -0.067 NA
HETATM   35  N6  UNL     1      24.884   9.423  16.212  1.00  0.00    -0.067 NA
HETATM   36  C22 UNL     1      23.649   6.060  18.203  1.00  0.00     0.026 C 
ENDBRANCH  27  28
ENDBRANCH  25  27
ENDBRANCH   5  23
TORSDOF 10
ENDMDL
