MODEL 8
REMARK VINA RESULT: -8.270702631      1.185      1.547
REMARK  10 active torsions:
REMARK  status: ('A' for Active; 'I' for Inactive)
REMARK    1  A    between atoms: S1_2  and  N1_5 
REMARK    2  A    between atoms: N1_5  and  C2_7 
REMARK    3  A    between atoms: C2_7  and  C3_8 
REMARK    4  A    between atoms: C2_7  and  C10_15 
REMARK    5  A    between atoms: C3_8  and  C4_9 
REMARK    6  A    between atoms: C10_15  and  O3_16 
REMARK    7  A    between atoms: C10_15  and  N2_18 
REMARK    8  A    between atoms: C14_22  and  C15_23 
REMARK       I    between atoms: C15_23  and  N3_25 
REMARK    9  A    between atoms: N3_25  and  C16_27 
REMARK   10  A    between atoms: C16_27  and  C17_28 
ROOT
HETATM    1  N2  UNL     1      26.898   3.151  21.695  1.00  0.00    -0.350 N 
HETATM    2  C11 UNL     1      27.682   2.155  22.552  1.00  0.00     0.126 C 
HETATM    3  C12 UNL     1      26.477   1.418  23.147  1.00  0.00     0.022 C 
HETATM    4  C13 UNL     1      25.362   1.533  22.090  1.00  0.00     0.037 C 
HETATM    5  C14 UNL     1      26.122   2.232  20.959  1.00  0.00     0.178 C 
ENDROOT
BRANCH   1   6
HETATM    6  C10 UNL     1      27.136   4.507  21.868  1.00  0.00     0.138 C 
BRANCH   6   7
HETATM    7  C2  UNL     1      27.472   5.263  23.068  1.00  0.00     0.171 C 
BRANCH   7   8
HETATM    8  N1  UNL     1      26.588   6.405  23.247  1.00  0.00    -0.307 N 
ATOM      9  H1  UNL     1      26.948   7.360  23.262  1.00  0.00     0.173 HD
BRANCH   8  10
HETATM   10  S1  UNL     1      24.956   6.085  23.427  1.00  0.00     0.223 S 
HETATM   11  C1  UNL     1      24.065   7.331  24.327  1.00  0.00     0.185 C 
HETATM   12  O1  UNL     1      24.818   4.812  24.229  1.00  0.00    -0.206 OA
HETATM   13  O2  UNL     1      24.263   5.795  22.102  1.00  0.00    -0.206 OA
ENDBRANCH   8  10
ENDBRANCH   7   8
BRANCH   7  14
HETATM   14  C3  UNL     1      28.906   5.762  23.067  1.00  0.00     0.072 C 
BRANCH  14  15
HETATM   15  C4  UNL     1      29.916   4.681  23.150  1.00  0.00    -0.056 A 
HETATM   16  C5  UNL     1      30.627   4.225  22.034  1.00  0.00     0.007 A 
HETATM   17  C6  UNL     1      31.571   3.231  22.123  1.00  0.00     0.001 A 
HETATM   18  C7  UNL     1      31.859   2.640  23.320  1.00  0.00     0.000 A 
HETATM   19  C8  UNL     1      31.178   3.065  24.436  1.00  0.00     0.001 A 
HETATM   20  C9  UNL     1      30.215   4.078  24.344  1.00  0.00     0.007 A 
ENDBRANCH  14  15
ENDBRANCH   7  14
ENDBRANCH   6   7
BRANCH   6  21
HETATM   21  O3  UNL     1      27.046   5.213  20.761  1.00  0.00    -0.348 OA
ATOM     22  H3  UNL     1      27.842   5.270  20.246  1.00  0.00     0.219 HD
ENDBRANCH   6  21
ENDBRANCH   1   6
BRANCH   5  23
HETATM   23  C15 UNL     1      25.364   2.570  19.803  1.00  0.00     0.240 C 
HETATM   24  O4  UNL     1      25.403   1.973  18.725  1.00  0.00    -0.271 OA
HETATM   25  N3  UNL     1      24.471   3.696  19.873  1.00  0.00    -0.359 N 
ATOM     26  H3  UNL     1      24.410   4.218  20.747  1.00  0.00     0.162 HD
BRANCH  25  27
HETATM   27  C16 UNL     1      23.664   4.113  18.764  1.00  0.00     0.127 C 
BRANCH  27  28
HETATM   28  C17 UNL     1      24.303   5.161  17.888  1.00  0.00     0.006 C 
HETATM   29  C18 UNL     1      23.525   6.460  17.981  1.00  0.00     0.026 C 
HETATM   30  C19 UNL     1      24.271   7.519  17.218  1.00  0.00     0.125 C 
HETATM   31  N4  UNL     1      24.683   7.050  15.902  1.00  0.00    -0.358 N 
HETATM   32  C20 UNL     1      25.278   7.894  15.142  1.00  0.00     0.199 C 
HETATM   33  C21 UNL     1      24.456   5.721  15.430  1.00  0.00     0.125 C 
HETATM   34  N5  UNL     1      25.538   9.229  15.538  1.00  0.00    -0.067 NA
HETATM   35  N6  UNL     1      25.695   7.481  13.851  1.00  0.00    -0.067 NA
HETATM   36  C22 UNL     1      24.243   4.684  16.473  1.00  0.00     0.026 C 
ENDBRANCH  27  28
ENDBRANCH  25  27
ENDBRANCH   5  23
TORSDOF 10
ENDMDL
