MODEL 1
REMARK VINA RESULT: -9.076074936      0.000      0.000
REMARK  10 active torsions:
REMARK  status: ('A' for Active; 'I' for Inactive)
REMARK    1  A    between atoms: S1_2  and  N1_5 
REMARK    2  A    between atoms: N1_5  and  C2_7 
REMARK    3  A    between atoms: C2_7  and  C3_8 
REMARK    4  A    between atoms: C2_7  and  C10_15 
REMARK    5  A    between atoms: C3_8  and  C4_9 
REMARK    6  A    between atoms: C10_15  and  O3_16 
REMARK    7  A    between atoms: C10_15  and  N2_18 
REMARK    8  A    between atoms: C14_22  and  C15_23 
REMARK       I    between atoms: C15_23  and  N3_25 
REMARK    9  A    between atoms: N3_25  and  C16_27 
REMARK   10  A    between atoms: C16_27  and  C17_28 
ROOT
HETATM    1  N2  UNL     1      26.607   2.767  22.043  1.00  0.00    -0.350 N 
HETATM    2  C11 UNL     1      27.572   1.581  22.096  1.00  0.00     0.126 C 
HETATM    3  C12 UNL     1      26.516   0.470  22.083  1.00  0.00     0.022 C 
HETATM    4  C13 UNL     1      25.313   1.054  21.318  1.00  0.00     0.037 C 
HETATM    5  C14 UNL     1      25.890   2.404  20.884  1.00  0.00     0.178 C 
ENDROOT
BRANCH   1   6
HETATM    6  C10 UNL     1      26.694   3.739  23.029  1.00  0.00     0.138 C 
BRANCH   6   7
HETATM    7  C2  UNL     1      27.264   5.080  22.989  1.00  0.00     0.171 C 
BRANCH   7   8
HETATM    8  N1  UNL     1      26.296   6.060  22.521  1.00  0.00    -0.307 N 
ATOM      9  H1  UNL     1      26.030   6.119  21.538  1.00  0.00     0.173 HD
BRANCH   8  10
HETATM   10  S1  UNL     1      25.636   7.086  23.665  1.00  0.00     0.223 S 
HETATM   11  C1  UNL     1      26.838   7.963  24.637  1.00  0.00     0.185 C 
HETATM   12  O1  UNL     1      24.844   6.247  24.641  1.00  0.00    -0.206 OA
HETATM   13  O2  UNL     1      24.626   8.060  23.072  1.00  0.00    -0.206 OA
ENDBRANCH   8  10
ENDBRANCH   7   8
BRANCH   7  14
HETATM   14  C3  UNL     1      28.499   5.169  22.110  1.00  0.00     0.072 C 
BRANCH  14  15
HETATM   15  C4  UNL     1      29.680   4.463  22.663  1.00  0.00    -0.056 A 
HETATM   16  C5  UNL     1      29.926   4.367  24.037  1.00  0.00     0.007 A 
HETATM   17  C6  UNL     1      31.016   3.699  24.541  1.00  0.00     0.001 A 
HETATM   18  C7  UNL     1      31.915   3.093  23.710  1.00  0.00     0.000 A 
HETATM   19  C8  UNL     1      31.701   3.170  22.354  1.00  0.00     0.001 A 
HETATM   20  C9  UNL     1      30.590   3.852  21.841  1.00  0.00     0.007 A 
ENDBRANCH  14  15
ENDBRANCH   7  14
ENDBRANCH   6   7
BRANCH   6  21
HETATM   21  O3  UNL     1      26.171   3.381  24.183  1.00  0.00    -0.348 OA
ATOM     22  H3  UNL     1      25.499   2.711  24.136  1.00  0.00     0.219 HD
ENDBRANCH   6  21
ENDBRANCH   1   6
BRANCH   5  23
HETATM   23  C15 UNL     1      25.005   3.273  20.186  1.00  0.00     0.240 C 
HETATM   24  O4  UNL     1      24.634   4.381  20.581  1.00  0.00    -0.271 OA
HETATM   25  N3  UNL     1      24.489   2.848  18.912  1.00  0.00    -0.359 N 
ATOM     26  H3  UNL     1      24.770   1.938  18.549  1.00  0.00     0.162 HD
BRANCH  25  27
HETATM   27  C16 UNL     1      23.595   3.654  18.133  1.00  0.00     0.127 C 
BRANCH  27  28
HETATM   28  C17 UNL     1      24.244   4.843  17.471  1.00  0.00     0.006 C 
HETATM   29  C18 UNL     1      23.483   6.110  17.816  1.00  0.00     0.026 C 
HETATM   30  C19 UNL     1      24.241   7.287  17.267  1.00  0.00     0.125 C 
HETATM   31  N4  UNL     1      24.642   7.074  15.883  1.00  0.00    -0.358 N 
HETATM   32  C20 UNL     1      25.245   8.041  15.295  1.00  0.00     0.199 C 
HETATM   33  C21 UNL     1      24.396   5.864  15.165  1.00  0.00     0.125 C 
HETATM   34  N5  UNL     1      25.524   9.271  15.939  1.00  0.00    -0.067 NA
HETATM   35  N6  UNL     1      25.653   7.879  13.947  1.00  0.00    -0.067 NA
HETATM   36  C22 UNL     1      24.173   4.648  15.990  1.00  0.00     0.026 C 
ENDBRANCH  27  28
ENDBRANCH  25  27
ENDBRANCH   5  23
TORSDOF 10
ENDMDL
