MODEL 6
REMARK VINA RESULT: -8.334920418      1.011      1.312
REMARK  10 active torsions:
REMARK  status: ('A' for Active; 'I' for Inactive)
REMARK    1  A    between atoms: S1_2  and  N1_5 
REMARK    2  A    between atoms: N1_5  and  C2_7 
REMARK    3  A    between atoms: C2_7  and  C3_8 
REMARK    4  A    between atoms: C2_7  and  C10_15 
REMARK    5  A    between atoms: C3_8  and  C4_9 
REMARK    6  A    between atoms: C10_15  and  O3_16 
REMARK    7  A    between atoms: C10_15  and  N2_18 
REMARK    8  A    between atoms: C14_22  and  C15_23 
REMARK       I    between atoms: C15_23  and  N3_25 
REMARK    9  A    between atoms: N3_25  and  C16_27 
REMARK   10  A    between atoms: C16_27  and  C17_28 
ROOT
HETATM    1  N2  UNL     1      26.029   2.689  21.609  1.00  0.00    -0.350 N 
HETATM    2  C11 UNL     1      27.033   1.595  21.979  1.00  0.00     0.126 C 
HETATM    3  C12 UNL     1      26.029   0.446  22.115  1.00  0.00     0.022 C 
HETATM    4  C13 UNL     1      24.874   0.793  21.156  1.00  0.00     0.037 C 
HETATM    5  C14 UNL     1      25.430   2.059  20.499  1.00  0.00     0.178 C 
ENDROOT
BRANCH   1   6
HETATM    6  C10 UNL     1      25.991   3.843  22.378  1.00  0.00     0.138 C 
BRANCH   6   7
HETATM    7  C2  UNL     1      27.019   4.845  22.632  1.00  0.00     0.171 C 
BRANCH   7   8
HETATM    8  N1  UNL     1      26.505   6.196  22.457  1.00  0.00    -0.307 N 
ATOM      9  H1  UNL     1      26.273   6.561  21.534  1.00  0.00     0.173 HD
BRANCH   8  10
HETATM   10  S1  UNL     1      26.313   7.123  23.836  1.00  0.00     0.223 S 
HETATM   11  C1  UNL     1      27.821   7.427  24.725  1.00  0.00     0.185 C 
HETATM   12  O1  UNL     1      25.416   6.363  24.785  1.00  0.00    -0.206 OA
HETATM   13  O2  UNL     1      25.585   8.434  23.568  1.00  0.00    -0.206 OA
ENDBRANCH   8  10
ENDBRANCH   7   8
BRANCH   7  14
HETATM   14  C3  UNL     1      28.238   4.677  21.743  1.00  0.00     0.072 C 
BRANCH  14  15
HETATM   15  C4  UNL     1      29.437   4.180  22.459  1.00  0.00    -0.056 A 
HETATM   16  C5  UNL     1      30.542   3.638  21.795  1.00  0.00     0.007 A 
HETATM   17  C6  UNL     1      31.655   3.192  22.467  1.00  0.00     0.001 A 
HETATM   18  C7  UNL     1      31.728   3.262  23.829  1.00  0.00     0.000 A 
HETATM   19  C8  UNL     1      30.657   3.789  24.512  1.00  0.00     0.001 A 
HETATM   20  C9  UNL     1      29.523   4.242  23.825  1.00  0.00     0.007 A 
ENDBRANCH  14  15
ENDBRANCH   7  14
ENDBRANCH   6   7
BRANCH   6  21
HETATM   21  O3  UNL     1      24.833   4.060  22.964  1.00  0.00    -0.348 OA
ATOM     22  H3  UNL     1      24.512   3.351  23.510  1.00  0.00     0.219 HD
ENDBRANCH   6  21
ENDBRANCH   1   6
BRANCH   5  23
HETATM   23  C15 UNL     1      24.575   2.716  19.571  1.00  0.00     0.240 C 
HETATM   24  O4  UNL     1      23.959   2.166  18.654  1.00  0.00    -0.271 OA
HETATM   25  N3  UNL     1      24.397   4.139  19.690  1.00  0.00    -0.359 N 
ATOM     26  H3  UNL     1      24.890   4.633  20.434  1.00  0.00     0.162 HD
BRANCH  25  27
HETATM   27  C16 UNL     1      23.555   4.889  18.806  1.00  0.00     0.127 C 
BRANCH  27  28
HETATM   28  C17 UNL     1      24.297   5.666  17.747  1.00  0.00     0.006 C 
HETATM   29  C18 UNL     1      23.472   6.860  17.304  1.00  0.00     0.026 C 
HETATM   30  C19 UNL     1      24.302   7.690  16.364  1.00  0.00     0.125 C 
HETATM   31  N4  UNL     1      24.945   6.874  15.343  1.00  0.00    -0.358 N 
HETATM   32  C20 UNL     1      25.631   7.488  14.452  1.00  0.00     0.199 C 
HETATM   33  C21 UNL     1      24.844   5.449  15.291  1.00  0.00     0.125 C 
HETATM   34  N5  UNL     1      25.777   8.897  14.436  1.00  0.00    -0.067 NA
HETATM   35  N6  UNL     1      26.273   6.733  13.438  1.00  0.00    -0.067 NA
HETATM   36  C22 UNL     1      24.492   4.772  16.566  1.00  0.00     0.026 C 
ENDBRANCH  27  28
ENDBRANCH  25  27
ENDBRANCH   5  23
TORSDOF 10
ENDMDL
