MODEL 9
REMARK VINA RESULT: -8.197658234      1.141      1.245
REMARK  10 active torsions:
REMARK  status: ('A' for Active; 'I' for Inactive)
REMARK    1  A    between atoms: S1_2  and  N1_5 
REMARK    2  A    between atoms: N1_5  and  C2_7 
REMARK    3  A    between atoms: C2_7  and  C3_8 
REMARK    4  A    between atoms: C2_7  and  C10_15 
REMARK    5  A    between atoms: C3_8  and  C4_9 
REMARK    6  A    between atoms: C10_15  and  O3_16 
REMARK    7  A    between atoms: C10_15  and  N2_18 
REMARK    8  A    between atoms: C14_22  and  C15_23 
REMARK       I    between atoms: C15_23  and  N3_25 
REMARK    9  A    between atoms: N3_25  and  C16_27 
REMARK   10  A    between atoms: C16_27  and  C17_28 
ROOT
HETATM    1  N2  UNL     1      26.423   2.950  22.166  1.00  0.00    -0.350 N 
HETATM    2  C11 UNL     1      27.444   1.819  22.315  1.00  0.00     0.126 C 
HETATM    3  C12 UNL     1      26.454   0.652  22.242  1.00  0.00     0.022 C 
HETATM    4  C13 UNL     1      25.284   1.158  21.376  1.00  0.00     0.037 C 
HETATM    5  C14 UNL     1      25.818   2.532  20.963  1.00  0.00     0.178 C 
ENDROOT
BRANCH   1   6
HETATM    6  C10 UNL     1      26.382   3.938  23.138  1.00  0.00     0.138 C 
BRANCH   6   7
HETATM    7  C2  UNL     1      27.444   4.777  23.682  1.00  0.00     0.171 C 
BRANCH   7   8
HETATM    8  N1  UNL     1      26.921   6.027  24.213  1.00  0.00    -0.307 N 
ATOM      9  H1  UNL     1      26.187   6.544  23.730  1.00  0.00     0.173 HD
BRANCH   8  10
HETATM   10  S1  UNL     1      27.577   6.579  25.649  1.00  0.00     0.223 S 
HETATM   11  C1  UNL     1      29.090   7.490  25.457  1.00  0.00     0.185 C 
HETATM   12  O1  UNL     1      27.921   5.375  26.495  1.00  0.00    -0.206 OA
HETATM   13  O2  UNL     1      26.583   7.377  26.483  1.00  0.00    -0.206 OA
ENDBRANCH   8  10
ENDBRANCH   7   8
BRANCH   7  14
HETATM   14  C3  UNL     1      28.519   5.101  22.660  1.00  0.00     0.072 C 
BRANCH  14  15
HETATM   15  C4  UNL     1      29.803   4.401  22.900  1.00  0.00    -0.056 A 
HETATM   16  C5  UNL     1      30.240   4.043  24.179  1.00  0.00     0.007 A 
HETATM   17  C6  UNL     1      31.426   3.382  24.390  1.00  0.00     0.001 A 
HETATM   18  C7  UNL     1      32.237   3.041  23.345  1.00  0.00     0.000 A 
HETATM   19  C8  UNL     1      31.836   3.380  22.074  1.00  0.00     0.001 A 
HETATM   20  C9  UNL     1      30.626   4.054  21.860  1.00  0.00     0.007 A 
ENDBRANCH  14  15
ENDBRANCH   7  14
ENDBRANCH   6   7
BRANCH   6  21
HETATM   21  O3  UNL     1      25.183   4.147  23.641  1.00  0.00    -0.348 OA
ATOM     22  H3  UNL     1      24.468   3.721  23.182  1.00  0.00     0.219 HD
ENDBRANCH   6  21
ENDBRANCH   1   6
BRANCH   5  23
HETATM   23  C15 UNL     1      24.945   3.340  20.183  1.00  0.00     0.240 C 
HETATM   24  O4  UNL     1      24.502   4.442  20.520  1.00  0.00    -0.271 OA
HETATM   25  N3  UNL     1      24.530   2.857  18.894  1.00  0.00    -0.359 N 
ATOM     26  H3  UNL     1      24.872   1.950  18.577  1.00  0.00     0.162 HD
BRANCH  25  27
HETATM   27  C16 UNL     1      23.655   3.599  18.034  1.00  0.00     0.127 C 
BRANCH  27  28
HETATM   28  C17 UNL     1      24.285   4.817  17.404  1.00  0.00     0.006 C 
HETATM   29  C18 UNL     1      23.507   6.061  17.788  1.00  0.00     0.026 C 
HETATM   30  C19 UNL     1      24.246   7.264  17.270  1.00  0.00     0.125 C 
HETATM   31  N4  UNL     1      24.646   7.097  15.879  1.00  0.00    -0.358 N 
HETATM   32  C20 UNL     1      25.233   8.089  15.318  1.00  0.00     0.199 C 
HETATM   33  C21 UNL     1      24.415   5.904  15.128  1.00  0.00     0.125 C 
HETATM   34  N5  UNL     1      25.496   9.305  15.995  1.00  0.00    -0.067 NA
HETATM   35  N6  UNL     1      25.638   7.971  13.964  1.00  0.00    -0.067 NA
HETATM   36  C22 UNL     1      24.212   4.663  15.920  1.00  0.00     0.026 C 
ENDBRANCH  27  28
ENDBRANCH  25  27
ENDBRANCH   5  23
TORSDOF 10
ENDMDL
