MODEL 7
REMARK VINA RESULT: -8.309668648      2.113      4.740
REMARK  10 active torsions:
REMARK  status: ('A' for Active; 'I' for Inactive)
REMARK    1  A    between atoms: S1_2  and  N1_5 
REMARK    2  A    between atoms: N1_5  and  C2_7 
REMARK    3  A    between atoms: C2_7  and  C3_8 
REMARK    4  A    between atoms: C2_7  and  C10_15 
REMARK    5  A    between atoms: C3_8  and  C4_9 
REMARK    6  A    between atoms: C10_15  and  O3_16 
REMARK    7  A    between atoms: C10_15  and  N2_18 
REMARK    8  A    between atoms: C14_22  and  C15_23 
REMARK       I    between atoms: C15_23  and  N3_25 
REMARK    9  A    between atoms: N3_25  and  C16_27 
REMARK   10  A    between atoms: C16_27  and  C17_28 
ROOT
HETATM    1  N2  UNL     1      26.438   6.091  23.437  1.00  0.00    -0.350 N 
HETATM    2  C11 UNL     1      26.846   6.199  24.908  1.00  0.00     0.126 C 
HETATM    3  C12 UNL     1      27.024   7.720  24.950  1.00  0.00     0.022 C 
HETATM    4  C13 UNL     1      26.054   8.277  23.890  1.00  0.00     0.037 C 
HETATM    5  C14 UNL     1      25.351   6.989  23.453  1.00  0.00     0.178 C 
ENDROOT
BRANCH   1   6
HETATM    6  C10 UNL     1      27.166   5.251  22.607  1.00  0.00     0.138 C 
BRANCH   6   7
HETATM    7  C2  UNL     1      27.689   3.910  22.840  1.00  0.00     0.171 C 
BRANCH   7   8
HETATM    8  N1  UNL     1      29.011   3.949  23.448  1.00  0.00    -0.307 N 
ATOM      9  H1  UNL     1      29.708   4.636  23.162  1.00  0.00     0.173 HD
BRANCH   8  10
HETATM   10  S1  UNL     1      29.336   2.819  24.638  1.00  0.00     0.223 S 
HETATM   11  C1  UNL     1      30.683   3.258  25.711  1.00  0.00     0.185 C 
HETATM   12  O1  UNL     1      29.747   1.534  23.958  1.00  0.00    -0.206 OA
HETATM   13  O2  UNL     1      28.105   2.456  25.459  1.00  0.00    -0.206 OA
ENDBRANCH   8  10
ENDBRANCH   7   8
BRANCH   7  14
HETATM   14  C3  UNL     1      27.770   3.080  21.571  1.00  0.00     0.072 C 
BRANCH  14  15
HETATM   15  C4  UNL     1      26.657   2.113  21.417  1.00  0.00    -0.056 A 
HETATM   16  C5  UNL     1      25.468   2.431  20.753  1.00  0.00     0.007 A 
HETATM   17  C6  UNL     1      24.447   1.523  20.603  1.00  0.00     0.001 A 
HETATM   18  C7  UNL     1      24.554   0.256  21.103  1.00  0.00     0.000 A 
HETATM   19  C8  UNL     1      25.711  -0.087  21.762  1.00  0.00     0.001 A 
HETATM   20  C9  UNL     1      26.751   0.840  21.914  1.00  0.00     0.007 A 
ENDBRANCH  14  15
ENDBRANCH   7  14
ENDBRANCH   6   7
BRANCH   6  21
HETATM   21  O3  UNL     1      27.413   5.755  21.416  1.00  0.00    -0.348 OA
ATOM     22  H3  UNL     1      26.854   5.440  20.715  1.00  0.00     0.219 HD
ENDBRANCH   6  21
ENDBRANCH   1   6
BRANCH   5  23
HETATM   23  C15 UNL     1      24.401   7.114  22.401  1.00  0.00     0.240 C 
HETATM   24  O4  UNL     1      23.595   8.039  22.274  1.00  0.00    -0.271 OA
HETATM   25  N3  UNL     1      24.358   6.091  21.390  1.00  0.00    -0.359 N 
ATOM     26  H3  UNL     1      25.007   5.308  21.458  1.00  0.00     0.162 HD
BRANCH  25  27
HETATM   27  C16 UNL     1      23.440   6.129  20.290  1.00  0.00     0.127 C 
BRANCH  27  28
HETATM   28  C17 UNL     1      24.081   6.391  18.951  1.00  0.00     0.006 C 
HETATM   29  C18 UNL     1      23.146   7.204  18.076  1.00  0.00     0.026 C 
HETATM   30  C19 UNL     1      23.873   7.573  16.813  1.00  0.00     0.125 C 
HETATM   31  N4  UNL     1      24.551   6.426  16.224  1.00  0.00    -0.358 N 
HETATM   32  C20 UNL     1      25.156   6.616  15.110  1.00  0.00     0.199 C 
HETATM   33  C21 UNL     1      24.570   5.127  16.819  1.00  0.00     0.125 C 
HETATM   34  N5  UNL     1      25.182   7.872  14.458  1.00  0.00    -0.067 NA
HETATM   35  N6  UNL     1      25.829   5.527  14.499  1.00  0.00    -0.067 NA
HETATM   36  C22 UNL     1      24.315   5.075  18.282  1.00  0.00     0.026 C 
ENDBRANCH  27  28
ENDBRANCH  25  27
ENDBRANCH   5  23
TORSDOF 10
ENDMDL
