MODEL 14
REMARK VINA RESULT: -7.932389807      2.497      4.961
REMARK  10 active torsions:
REMARK  status: ('A' for Active; 'I' for Inactive)
REMARK    1  A    between atoms: S1_2  and  N1_5 
REMARK    2  A    between atoms: N1_5  and  C2_7 
REMARK    3  A    between atoms: C2_7  and  C3_8 
REMARK    4  A    between atoms: C2_7  and  C10_15 
REMARK    5  A    between atoms: C3_8  and  C4_9 
REMARK    6  A    between atoms: C10_15  and  O3_16 
REMARK    7  A    between atoms: C10_15  and  N2_18 
REMARK    8  A    between atoms: C14_22  and  C15_23 
REMARK       I    between atoms: C15_23  and  N3_25 
REMARK    9  A    between atoms: N3_25  and  C16_27 
REMARK   10  A    between atoms: C16_27  and  C17_28 
ROOT
HETATM    1  N2  UNL     1      27.112   5.180  24.453  1.00  0.00    -0.350 N 
HETATM    2  C11 UNL     1      27.856   5.970  25.532  1.00  0.00     0.126 C 
HETATM    3  C12 UNL     1      28.240   7.173  24.664  1.00  0.00     0.022 C 
HETATM    4  C13 UNL     1      27.137   7.276  23.594  1.00  0.00     0.037 C 
HETATM    5  C14 UNL     1      26.187   6.172  24.065  1.00  0.00     0.178 C 
ENDROOT
BRANCH   1   6
HETATM    6  C10 UNL     1      27.512   3.878  24.189  1.00  0.00     0.138 C 
BRANCH   6   7
HETATM    7  C2  UNL     1      28.296   3.334  23.087  1.00  0.00     0.171 C 
BRANCH   7   8
HETATM    8  N1  UNL     1      29.559   4.040  22.928  1.00  0.00    -0.307 N 
ATOM      9  H1  UNL     1      29.588   5.030  22.685  1.00  0.00     0.173 HD
BRANCH   8  10
HETATM   10  S1  UNL     1      30.961   3.158  23.161  1.00  0.00     0.223 S 
HETATM   11  C1  UNL     1      31.714   3.394  24.752  1.00  0.00     0.185 C 
HETATM   12  O1  UNL     1      31.977   3.624  22.145  1.00  0.00    -0.206 OA
HETATM   13  O2  UNL     1      30.775   1.672  22.881  1.00  0.00    -0.206 OA
ENDBRANCH   8  10
ENDBRANCH   7   8
BRANCH   7  14
HETATM   14  C3  UNL     1      27.556   3.372  21.762  1.00  0.00     0.072 C 
BRANCH  14  15
HETATM   15  C4  UNL     1      26.643   2.222  21.554  1.00  0.00    -0.056 A 
HETATM   16  C5  UNL     1      26.968   0.920  21.947  1.00  0.00     0.007 A 
HETATM   17  C6  UNL     1      26.110  -0.137  21.762  1.00  0.00     0.001 A 
HETATM   18  C7  UNL     1      24.887   0.043  21.180  1.00  0.00     0.000 A 
HETATM   19  C8  UNL     1      24.538   1.312  20.782  1.00  0.00     0.001 A 
HETATM   20  C9  UNL     1      25.415   2.389  20.971  1.00  0.00     0.007 A 
ENDBRANCH  14  15
ENDBRANCH   7  14
ENDBRANCH   6   7
BRANCH   6  21
HETATM   21  O3  UNL     1      27.117   3.002  25.088  1.00  0.00    -0.348 OA
ATOM     22  H3  UNL     1      26.217   3.094  25.380  1.00  0.00     0.219 HD
ENDBRANCH   6  21
ENDBRANCH   1   6
BRANCH   5  23
HETATM   23  C15 UNL     1      25.048   5.928  23.249  1.00  0.00     0.240 C 
HETATM   24  O4  UNL     1      24.380   4.890  23.248  1.00  0.00    -0.271 OA
HETATM   25  N3  UNL     1      24.619   6.959  22.343  1.00  0.00    -0.359 N 
ATOM     26  H3  UNL     1      25.144   7.833  22.311  1.00  0.00     0.162 HD
BRANCH  25  27
HETATM   27  C16 UNL     1      23.482   6.809  21.483  1.00  0.00     0.127 C 
BRANCH  27  28
HETATM   28  C17 UNL     1      23.814   6.758  20.013  1.00  0.00     0.006 C 
HETATM   29  C18 UNL     1      22.570   7.030  19.189  1.00  0.00     0.026 C 
HETATM   30  C19 UNL     1      22.968   7.121  17.741  1.00  0.00     0.125 C 
HETATM   31  N4  UNL     1      23.833   6.018  17.346  1.00  0.00    -0.358 N 
HETATM   32  C20 UNL     1      24.185   5.965  16.115  1.00  0.00     0.199 C 
HETATM   33  C21 UNL     1      24.296   5.013  18.251  1.00  0.00     0.125 C 
HETATM   34  N5  UNL     1      23.768   6.922  15.158  1.00  0.00    -0.067 NA
HETATM   35  N6  UNL     1      25.027   4.907  15.686  1.00  0.00    -0.067 NA
HETATM   36  C22 UNL     1      24.292   5.379  19.691  1.00  0.00     0.026 C 
ENDBRANCH  27  28
ENDBRANCH  25  27
ENDBRANCH   5  23
TORSDOF 10
ENDMDL
