MODEL 14
REMARK VINA RESULT: -10.480459335      7.380     12.829
REMARK  10 active torsions:
REMARK  status: ('A' for Active; 'I' for Inactive)
REMARK    1  A    between atoms: C1_2  and  C2_4 
REMARK    2  A    between atoms: C2_4  and  C3_5 
REMARK    3  A    between atoms: C2_4  and  N2_10 
REMARK    4  A    between atoms: C3_5  and  C4_6 
REMARK    5  A    between atoms: C4_6  and  C5_7 
REMARK       I    between atoms: N2_10  and  C6_12 
REMARK    6  A    between atoms: C6_12  and  C7_14 
REMARK    7  A    between atoms: C7_14  and  C8_15 
REMARK    8  A    between atoms: C8_15  and  C9_16 
REMARK    9  A    between atoms: C12_19  and  C13_20 
REMARK   10  A    between atoms: C16_23  and  C17_24 
ROOT
HETATM    1  C9  UNL     1      -9.440 -17.514   4.969  1.00  0.00    -0.058 A 
HETATM    2  C10 UNL     1      -8.670 -17.764   3.856  1.00  0.00     0.008 A 
HETATM    3  C11 UNL     1      -8.859 -18.900   3.110  1.00  0.00     0.013 A 
HETATM    4  C12 UNL     1      -9.828 -19.847   3.436  1.00  0.00    -0.026 A 
HETATM    5  C25 UNL     1     -10.595 -19.580   4.559  1.00  0.00     0.013 A 
HETATM    6  C26 UNL     1     -10.404 -18.433   5.313  1.00  0.00     0.008 A 
ENDROOT
BRANCH   1   7
HETATM    7  C8  UNL     1      -9.241 -16.290   5.785  1.00  0.00     0.047 C 
BRANCH   7   8
HETATM    8  C7  UNL     1     -10.201 -16.296   6.944  1.00  0.00     0.107 C 
BRANCH   8   9
HETATM    9  C6  UNL     1     -10.638 -14.945   7.330  1.00  0.00     0.218 C 
HETATM   10  N2  UNL     1      -9.976 -13.755   6.974  1.00  0.00    -0.348 N 
ATOM     11  H2  UNL     1      -9.130 -13.820   6.408  1.00  0.00     0.163 HD
HETATM   12  O4  UNL     1     -11.685 -14.851   8.031  1.00  0.00    -0.274 OA
BRANCH  10  13
HETATM   13  C2  UNL     1     -10.451 -12.417   7.384  1.00  0.00     0.174 C 
BRANCH  13  14
HETATM   14  C1  UNL     1     -10.992 -11.694   6.222  1.00  0.00     0.254 C 
HETATM   15  N1  UNL     1     -12.001 -12.182   5.384  1.00  0.00    -0.060 NA
HETATM   16  O1  UNL     1     -10.518 -10.535   5.939  1.00  0.00    -0.275 OA
ENDBRANCH  13  14
BRANCH  13  17
HETATM   17  C3  UNL     1      -9.381 -11.697   8.145  1.00  0.00     0.045 C 
BRANCH  17  18
HETATM   18  C4  UNL     1      -8.033 -12.304   8.000  1.00  0.00     0.116 C 
BRANCH  18  19
HETATM   19  C5  UNL     1      -7.201 -11.616   6.975  1.00  0.00     0.172 C 
HETATM   20  O2  UNL     1      -7.409 -11.917   5.776  1.00  0.00    -0.648 OA
HETATM   21  O3  UNL     1      -6.226 -10.678   7.257  1.00  0.00    -0.648 OA
ENDBRANCH  18  19
ENDBRANCH  17  18
ENDBRANCH  13  17
ENDBRANCH  10  13
ENDBRANCH   8   9
ENDBRANCH   7   8
ENDBRANCH   1   7
BRANCH   4  22
HETATM   22  C13 UNL     1     -10.022 -21.048   2.640  1.00  0.00    -0.026 A 
HETATM   23  C14 UNL     1     -10.853 -22.047   3.077  1.00  0.00     0.013 A 
HETATM   24  C15 UNL     1     -11.027 -23.188   2.301  1.00  0.00     0.013 A 
HETATM   25  C16 UNL     1     -10.395 -23.362   1.098  1.00  0.00    -0.026 A 
HETATM   26  C23 UNL     1      -9.561 -22.357   0.661  1.00  0.00     0.013 A 
HETATM   27  C24 UNL     1      -9.375 -21.209   1.426  1.00  0.00     0.013 A 
BRANCH  25  28
HETATM   28  C17 UNL     1     -10.587 -24.562   0.294  1.00  0.00    -0.026 A 
HETATM   29  C18 UNL     1     -11.820 -25.169   0.183  1.00  0.00     0.012 A 
HETATM   30  C19 UNL     1     -11.968 -26.298  -0.583  1.00  0.00     0.001 A 
HETATM   31  C20 UNL     1     -10.896 -26.853  -1.260  1.00  0.00     0.000 A 
HETATM   32  C21 UNL     1      -9.664 -26.253  -1.155  1.00  0.00     0.001 A 
HETATM   33  C22 UNL     1      -9.523 -25.114  -0.379  1.00  0.00     0.012 A 
ENDBRANCH  25  28
ENDBRANCH   4  22
TORSDOF 10
ENDMDL
