MODEL 5
REMARK VINA RESULT: -10.998302267      0.409      1.503
REMARK  10 active torsions:
REMARK  status: ('A' for Active; 'I' for Inactive)
REMARK    1  A    between atoms: C1_2  and  C2_4 
REMARK    2  A    between atoms: C2_4  and  C3_5 
REMARK    3  A    between atoms: C2_4  and  N2_10 
REMARK    4  A    between atoms: C3_5  and  C4_6 
REMARK    5  A    between atoms: C4_6  and  C5_7 
REMARK       I    between atoms: N2_10  and  C6_12 
REMARK    6  A    between atoms: C6_12  and  C7_14 
REMARK    7  A    between atoms: C7_14  and  C8_15 
REMARK    8  A    between atoms: C8_15  and  C9_16 
REMARK    9  A    between atoms: C12_19  and  C13_20 
REMARK   10  A    between atoms: C16_23  and  C17_24 
ROOT
HETATM    1  C9  UNL     1     -10.398 -24.177   0.787  1.00  0.00    -0.058 A 
HETATM    2  C10 UNL     1      -9.496 -23.211   0.403  1.00  0.00     0.008 A 
HETATM    3  C11 UNL     1      -9.360 -22.050   1.121  1.00  0.00     0.013 A 
HETATM    4  C12 UNL     1     -10.118 -21.791   2.262  1.00  0.00    -0.026 A 
HETATM    5  C25 UNL     1     -11.021 -22.774   2.634  1.00  0.00     0.013 A 
HETATM    6  C26 UNL     1     -11.160 -23.947   1.910  1.00  0.00     0.008 A 
ENDROOT
BRANCH   1   7
HETATM    7  C8  UNL     1     -10.556 -25.435   0.015  1.00  0.00     0.047 C 
BRANCH   7   8
HETATM    8  C7  UNL     1     -11.633 -25.259  -1.021  1.00  0.00     0.107 C 
BRANCH   8   9
HETATM    9  C6  UNL     1     -12.517 -26.430  -1.129  1.00  0.00     0.218 C 
HETATM   10  N2  UNL     1     -13.458 -26.818  -0.158  1.00  0.00    -0.348 N 
ATOM     11  H2  UNL     1     -13.543 -26.255   0.689  1.00  0.00     0.163 HD
HETATM   12  O4  UNL     1     -12.422 -27.135  -2.173  1.00  0.00    -0.274 OA
BRANCH  10  13
HETATM   13  C2  UNL     1     -14.327 -28.003  -0.308  1.00  0.00     0.174 C 
BRANCH  13  14
HETATM   14  C1  UNL     1     -15.738 -27.590  -0.385  1.00  0.00     0.254 C 
HETATM   15  N1  UNL     1     -16.784 -28.207   0.312  1.00  0.00    -0.060 NA
HETATM   16  O1  UNL     1     -16.053 -26.601  -1.140  1.00  0.00    -0.275 OA
ENDBRANCH  13  14
BRANCH  13  17
HETATM   17  C3  UNL     1     -14.013 -29.015   0.751  1.00  0.00     0.045 C 
BRANCH  17  18
HETATM   18  C4  UNL     1     -12.646 -29.585   0.645  1.00  0.00     0.116 C 
BRANCH  18  19
HETATM   19  C5  UNL     1     -11.708 -29.017   1.653  1.00  0.00     0.172 C 
HETATM   20  O2  UNL     1     -10.667 -29.671   1.897  1.00  0.00    -0.648 OA
HETATM   21  O3  UNL     1     -11.910 -27.829   2.330  1.00  0.00    -0.648 OA
ENDBRANCH  18  19
ENDBRANCH  17  18
ENDBRANCH  13  17
ENDBRANCH  10  13
ENDBRANCH   8   9
ENDBRANCH   7   8
ENDBRANCH   1   7
BRANCH   4  22
HETATM   22  C13 UNL     1      -9.967 -20.559   3.017  1.00  0.00    -0.026 A 
HETATM   23  C14 UNL     1      -9.047 -19.616   2.634  1.00  0.00     0.013 A 
HETATM   24  C15 UNL     1      -8.919 -18.441   3.367  1.00  0.00     0.013 A 
HETATM   25  C16 UNL     1      -9.681 -18.179   4.475  1.00  0.00    -0.026 A 
HETATM   26  C23 UNL     1     -10.604 -19.127   4.857  1.00  0.00     0.013 A 
HETATM   27  C24 UNL     1     -10.746 -20.308   4.134  1.00  0.00     0.013 A 
BRANCH  25  28
HETATM   28  C17 UNL     1      -9.537 -16.943   5.234  1.00  0.00    -0.026 A 
HETATM   29  C18 UNL     1      -9.303 -16.952   6.593  1.00  0.00     0.012 A 
HETATM   30  C19 UNL     1      -9.171 -15.771   7.279  1.00  0.00     0.001 A 
HETATM   31  C20 UNL     1      -9.268 -14.551   6.634  1.00  0.00     0.000 A 
HETATM   32  C21 UNL     1      -9.501 -14.534   5.280  1.00  0.00     0.001 A 
HETATM   33  C22 UNL     1      -9.633 -15.730   4.594  1.00  0.00     0.012 A 
ENDBRANCH  25  28
ENDBRANCH   4  22
TORSDOF 10
ENDMDL
