MODEL 12
REMARK VINA RESULT: -10.505319373      7.400     12.873
REMARK  10 active torsions:
REMARK  status: ('A' for Active; 'I' for Inactive)
REMARK    1  A    between atoms: C1_2  and  C2_4 
REMARK    2  A    between atoms: C2_4  and  C3_5 
REMARK    3  A    between atoms: C2_4  and  N2_10 
REMARK    4  A    between atoms: C3_5  and  C4_6 
REMARK    5  A    between atoms: C4_6  and  C5_7 
REMARK       I    between atoms: N2_10  and  C6_12 
REMARK    6  A    between atoms: C6_12  and  C7_14 
REMARK    7  A    between atoms: C7_14  and  C8_15 
REMARK    8  A    between atoms: C8_15  and  C9_16 
REMARK    9  A    between atoms: C12_19  and  C13_20 
REMARK   10  A    between atoms: C16_23  and  C17_24 
ROOT
HETATM    1  C9  UNL     1      -9.479 -17.988   4.623  1.00  0.00    -0.058 A 
HETATM    2  C10 UNL     1     -10.430 -18.915   4.984  1.00  0.00     0.008 A 
HETATM    3  C11 UNL     1     -10.617 -20.056   4.245  1.00  0.00     0.013 A 
HETATM    4  C12 UNL     1      -9.865 -20.331   3.105  1.00  0.00    -0.026 A 
HETATM    5  C25 UNL     1      -8.912 -19.388   2.756  1.00  0.00     0.013 A 
HETATM    6  C26 UNL     1      -8.722 -18.236   3.501  1.00  0.00     0.008 A 
ENDROOT
BRANCH   1   7
HETATM    7  C8  UNL     1      -9.271 -16.749   5.414  1.00  0.00     0.047 C 
BRANCH   7   8
HETATM    8  C7  UNL     1      -9.922 -15.589   4.713  1.00  0.00     0.107 C 
BRANCH   8   9
HETATM    9  C6  UNL     1      -9.931 -14.362   5.527  1.00  0.00     0.218 C 
HETATM   10  N2  UNL     1      -8.874 -13.941   6.354  1.00  0.00    -0.348 N 
ATOM     11  H2  UNL     1      -8.035 -14.519   6.403  1.00  0.00     0.163 HD
HETATM   12  O4  UNL     1     -10.965 -13.638   5.474  1.00  0.00    -0.274 OA
BRANCH  10  13
HETATM   13  C2  UNL     1      -8.925 -12.700   7.155  1.00  0.00     0.174 C 
BRANCH  13  14
HETATM   14  C1  UNL     1      -7.898 -11.754   6.689  1.00  0.00     0.254 C 
HETATM   15  N1  UNL     1      -6.526 -11.896   6.922  1.00  0.00    -0.060 NA
HETATM   16  O1  UNL     1      -8.267 -10.719   6.025  1.00  0.00    -0.275 OA
ENDBRANCH  13  14
BRANCH  13  17
HETATM   17  C3  UNL     1      -8.882 -13.023   8.617  1.00  0.00     0.045 C 
BRANCH  17  18
HETATM   18  C4  UNL     1     -10.203 -13.394   9.185  1.00  0.00     0.116 C 
BRANCH  18  19
HETATM   19  C5  UNL     1     -10.156 -13.602  10.659  1.00  0.00     0.172 C 
HETATM   20  O2  UNL     1     -11.222 -13.943  11.222  1.00  0.00    -0.648 OA
HETATM   21  O3  UNL     1      -9.024 -13.444  11.437  1.00  0.00    -0.648 OA
ENDBRANCH  18  19
ENDBRANCH  17  18
ENDBRANCH  13  17
ENDBRANCH  10  13
ENDBRANCH   8   9
ENDBRANCH   7   8
ENDBRANCH   1   7
BRANCH   4  22
HETATM   22  C13 UNL     1     -10.070 -21.542   2.328  1.00  0.00    -0.026 A 
HETATM   23  C14 UNL     1      -9.388 -21.741   1.154  1.00  0.00     0.013 A 
HETATM   24  C15 UNL     1      -9.596 -22.907   0.425  1.00  0.00     0.013 A 
HETATM   25  C16 UNL     1     -10.467 -23.883   0.832  1.00  0.00    -0.026 A 
HETATM   26  C23 UNL     1     -11.151 -23.681   2.011  1.00  0.00     0.013 A 
HETATM   27  C24 UNL     1     -10.954 -22.520   2.753  1.00  0.00     0.013 A 
BRANCH  25  28
HETATM   28  C17 UNL     1     -10.675 -25.101   0.059  1.00  0.00    -0.026 A 
HETATM   29  C18 UNL     1      -9.664 -25.663  -0.691  1.00  0.00     0.012 A 
HETATM   30  C19 UNL     1      -9.891 -26.811  -1.408  1.00  0.00     0.001 A 
HETATM   31  C20 UNL     1     -11.129 -27.431  -1.397  1.00  0.00     0.000 A 
HETATM   32  C21 UNL     1     -12.141 -26.877  -0.651  1.00  0.00     0.001 A 
HETATM   33  C22 UNL     1     -11.903 -25.717   0.069  1.00  0.00     0.012 A 
ENDBRANCH  25  28
ENDBRANCH   4  22
TORSDOF 10
ENDMDL
