MODEL 2
REMARK VINA RESULT: -11.025779199      0.757      1.218
REMARK  10 active torsions:
REMARK  status: ('A' for Active; 'I' for Inactive)
REMARK    1  A    between atoms: C1_2  and  C2_4 
REMARK    2  A    between atoms: C2_4  and  C3_5 
REMARK    3  A    between atoms: C2_4  and  N2_10 
REMARK    4  A    between atoms: C3_5  and  C4_6 
REMARK    5  A    between atoms: C4_6  and  C5_7 
REMARK       I    between atoms: N2_10  and  C6_12 
REMARK    6  A    between atoms: C6_12  and  C7_14 
REMARK    7  A    between atoms: C7_14  and  C8_15 
REMARK    8  A    between atoms: C8_15  and  C9_16 
REMARK    9  A    between atoms: C12_19  and  C13_20 
REMARK   10  A    between atoms: C16_23  and  C17_24 
ROOT
HETATM    1  C9  UNL     1     -10.394 -24.525   0.500  1.00  0.00    -0.058 A 
HETATM    2  C10 UNL     1     -11.155 -24.292   1.623  1.00  0.00     0.008 A 
HETATM    3  C11 UNL     1     -11.022 -23.127   2.335  1.00  0.00     0.013 A 
HETATM    4  C12 UNL     1     -10.120 -22.131   1.963  1.00  0.00    -0.026 A 
HETATM    5  C25 UNL     1      -9.362 -22.381   0.831  1.00  0.00     0.013 A 
HETATM    6  C26 UNL     1      -9.496 -23.557   0.111  1.00  0.00     0.008 A 
ENDROOT
BRANCH   1   7
HETATM    7  C8  UNL     1     -10.529 -25.783  -0.275  1.00  0.00     0.047 C 
BRANCH   7   8
HETATM    8  C7  UNL     1     -11.794 -25.741  -1.088  1.00  0.00     0.107 C 
BRANCH   8   9
HETATM    9  C6  UNL     1     -12.562 -26.995  -1.015  1.00  0.00     0.218 C 
HETATM   10  N2  UNL     1     -13.211 -27.471   0.138  1.00  0.00    -0.348 N 
ATOM     11  H2  UNL     1     -13.155 -26.917   0.993  1.00  0.00     0.163 HD
HETATM   12  O4  UNL     1     -12.640 -27.690  -2.067  1.00  0.00    -0.274 OA
BRANCH  10  13
HETATM   13  C2  UNL     1     -13.972 -28.738   0.167  1.00  0.00     0.174 C 
BRANCH  13  14
HETATM   14  C1  UNL     1     -15.418 -28.460   0.194  1.00  0.00     0.254 C 
HETATM   15  N1  UNL     1     -16.147 -27.949  -0.885  1.00  0.00    -0.060 NA
HETATM   16  O1  UNL     1     -16.072 -28.693   1.274  1.00  0.00    -0.275 OA
ENDBRANCH  13  14
BRANCH  13  17
HETATM   17  C3  UNL     1     -13.469 -29.621   1.266  1.00  0.00     0.045 C 
BRANCH  17  18
HETATM   18  C4  UNL     1     -12.189 -30.302   0.946  1.00  0.00     0.116 C 
BRANCH  18  19
HETATM   19  C5  UNL     1     -11.064 -29.846   1.808  1.00  0.00     0.172 C 
HETATM   20  O2  UNL     1     -10.660 -28.671   1.645  1.00  0.00    -0.648 OA
HETATM   21  O3  UNL     1     -10.444 -30.626   2.766  1.00  0.00    -0.648 OA
ENDBRANCH  18  19
ENDBRANCH  17  18
ENDBRANCH  13  17
ENDBRANCH  10  13
ENDBRANCH   8   9
ENDBRANCH   7   8
ENDBRANCH   1   7
BRANCH   4  22
HETATM   22  C13 UNL     1      -9.985 -20.900   2.723  1.00  0.00    -0.026 A 
HETATM   23  C14 UNL     1      -9.096 -19.932   2.330  1.00  0.00     0.013 A 
HETATM   24  C15 UNL     1      -8.983 -18.759   3.069  1.00  0.00     0.013 A 
HETATM   25  C16 UNL     1      -9.731 -18.523   4.192  1.00  0.00    -0.026 A 
HETATM   26  C23 UNL     1     -10.623 -19.496   4.585  1.00  0.00     0.013 A 
HETATM   27  C24 UNL     1     -10.749 -20.675   3.857  1.00  0.00     0.013 A 
BRANCH  25  28
HETATM   28  C17 UNL     1      -9.603 -17.288   4.957  1.00  0.00    -0.026 A 
HETATM   29  C18 UNL     1      -9.572 -16.055   4.341  1.00  0.00     0.012 A 
HETATM   30  C19 UNL     1      -9.452 -14.911   5.089  1.00  0.00     0.001 A 
HETATM   31  C20 UNL     1      -9.358 -14.963   6.469  1.00  0.00     0.000 A 
HETATM   32  C21 UNL     1      -9.389 -16.188   7.091  1.00  0.00     0.001 A 
HETATM   33  C22 UNL     1      -9.510 -17.338   6.327  1.00  0.00     0.012 A 
ENDBRANCH  25  28
ENDBRANCH   4  22
TORSDOF 10
ENDMDL
