MODEL 11
REMARK VINA RESULT: -10.528368411      1.627      2.074
REMARK  10 active torsions:
REMARK  status: ('A' for Active; 'I' for Inactive)
REMARK    1  A    between atoms: C1_2  and  C2_4 
REMARK    2  A    between atoms: C2_4  and  C3_5 
REMARK    3  A    between atoms: C2_4  and  N2_10 
REMARK    4  A    between atoms: C3_5  and  C4_6 
REMARK    5  A    between atoms: C4_6  and  C5_7 
REMARK       I    between atoms: N2_10  and  C6_12 
REMARK    6  A    between atoms: C6_12  and  C7_14 
REMARK    7  A    between atoms: C7_14  and  C8_15 
REMARK    8  A    between atoms: C8_15  and  C9_16 
REMARK    9  A    between atoms: C12_19  and  C13_20 
REMARK   10  A    between atoms: C16_23  and  C17_24 
ROOT
HETATM    1  C9  UNL     1     -10.382 -24.507   0.531  1.00  0.00    -0.058 A 
HETATM    2  C10 UNL     1      -9.474 -23.539   0.167  1.00  0.00     0.008 A 
HETATM    3  C11 UNL     1      -9.358 -22.377   0.887  1.00  0.00     0.013 A 
HETATM    4  C12 UNL     1     -10.142 -22.119   2.010  1.00  0.00    -0.026 A 
HETATM    5  C25 UNL     1     -11.050 -23.104   2.363  1.00  0.00     0.013 A 
HETATM    6  C26 UNL     1     -11.169 -24.278   1.637  1.00  0.00     0.008 A 
ENDROOT
BRANCH   1   7
HETATM    7  C8  UNL     1     -10.518 -25.766  -0.243  1.00  0.00     0.047 C 
BRANCH   7   8
HETATM    8  C7  UNL     1     -10.998 -26.866   0.666  1.00  0.00     0.107 C 
BRANCH   8   9
HETATM    9  C6  UNL     1     -11.280 -28.118  -0.054  1.00  0.00     0.218 C 
HETATM   10  N2  UNL     1     -12.011 -29.199   0.472  1.00  0.00    -0.348 N 
ATOM     11  H2  UNL     1     -12.379 -29.122   1.420  1.00  0.00     0.163 HD
HETATM   12  O4  UNL     1     -10.830 -28.226  -1.230  1.00  0.00    -0.274 OA
BRANCH  10  13
HETATM   13  C2  UNL     1     -12.271 -30.440  -0.287  1.00  0.00     0.174 C 
BRANCH  13  14
HETATM   14  C1  UNL     1     -13.643 -30.431  -0.819  1.00  0.00     0.254 C 
HETATM   15  N1  UNL     1     -14.644 -31.336  -0.444  1.00  0.00    -0.060 NA
HETATM   16  O1  UNL     1     -13.964 -29.544  -1.689  1.00  0.00    -0.275 OA
ENDBRANCH  13  14
BRANCH  13  17
HETATM   17  C3  UNL     1     -11.910 -31.637   0.536  1.00  0.00     0.045 C 
BRANCH  17  18
HETATM   18  C4  UNL     1     -10.457 -31.944   0.540  1.00  0.00     0.116 C 
BRANCH  18  19
HETATM   19  C5  UNL     1      -9.772 -31.465   1.772  1.00  0.00     0.172 C 
HETATM   20  O2  UNL     1      -8.584 -31.825   1.942  1.00  0.00    -0.648 OA
HETATM   21  O3  UNL     1     -10.357 -30.658   2.730  1.00  0.00    -0.648 OA
ENDBRANCH  18  19
ENDBRANCH  17  18
ENDBRANCH  13  17
ENDBRANCH  10  13
ENDBRANCH   8   9
ENDBRANCH   7   8
ENDBRANCH   1   7
BRANCH   4  22
HETATM   22  C13 UNL     1     -10.012 -20.885   2.766  1.00  0.00    -0.026 A 
HETATM   23  C14 UNL     1     -10.802 -20.654   3.864  1.00  0.00     0.013 A 
HETATM   24  C15 UNL     1     -10.661 -19.468   4.577  1.00  0.00     0.013 A 
HETATM   25  C16 UNL     1      -9.755 -18.503   4.226  1.00  0.00    -0.026 A 
HETATM   26  C23 UNL     1      -8.962 -18.737   3.124  1.00  0.00     0.013 A 
HETATM   27  C24 UNL     1      -9.090 -19.919   2.400  1.00  0.00     0.013 A 
BRANCH  25  28
HETATM   28  C17 UNL     1      -9.617 -17.265   4.983  1.00  0.00    -0.026 A 
HETATM   29  C18 UNL     1      -9.579 -16.036   4.358  1.00  0.00     0.012 A 
HETATM   30  C19 UNL     1      -9.449 -14.888   5.099  1.00  0.00     0.001 A 
HETATM   31  C20 UNL     1      -9.353 -14.931   6.480  1.00  0.00     0.000 A 
HETATM   32  C21 UNL     1      -9.390 -16.152   7.109  1.00  0.00     0.001 A 
HETATM   33  C22 UNL     1      -9.521 -17.306   6.353  1.00  0.00     0.012 A 
ENDBRANCH  25  28
ENDBRANCH   4  22
TORSDOF 10
ENDMDL
