MODEL 18
REMARK VINA RESULT: -10.447764056      6.973     12.496
REMARK  10 active torsions:
REMARK  status: ('A' for Active; 'I' for Inactive)
REMARK    1  A    between atoms: C1_2  and  C2_4 
REMARK    2  A    between atoms: C2_4  and  C3_5 
REMARK    3  A    between atoms: C2_4  and  N2_10 
REMARK    4  A    between atoms: C3_5  and  C4_6 
REMARK    5  A    between atoms: C4_6  and  C5_7 
REMARK       I    between atoms: N2_10  and  C6_12 
REMARK    6  A    between atoms: C6_12  and  C7_14 
REMARK    7  A    between atoms: C7_14  and  C8_15 
REMARK    8  A    between atoms: C8_15  and  C9_16 
REMARK    9  A    between atoms: C12_19  and  C13_20 
REMARK   10  A    between atoms: C16_23  and  C17_24 
ROOT
HETATM    1  C9  UNL     1      -9.394 -18.465   3.912  1.00  0.00    -0.058 A 
HETATM    2  C10 UNL     1     -10.305 -19.352   4.438  1.00  0.00     0.008 A 
HETATM    3  C11 UNL     1     -10.549 -20.556   3.827  1.00  0.00     0.013 A 
HETATM    4  C12 UNL     1      -9.896 -20.939   2.656  1.00  0.00    -0.026 A 
HETATM    5  C25 UNL     1      -8.982 -20.034   2.140  1.00  0.00     0.013 A 
HETATM    6  C26 UNL     1      -8.735 -18.818   2.757  1.00  0.00     0.008 A 
ENDROOT
BRANCH   1   7
HETATM    7  C8  UNL     1      -9.125 -17.159   4.564  1.00  0.00     0.047 C 
BRANCH   7   8
HETATM    8  C7  UNL     1      -9.044 -17.348   6.055  1.00  0.00     0.107 C 
BRANCH   8   9
HETATM    9  C6  UNL     1      -9.715 -16.273   6.803  1.00  0.00     0.218 C 
HETATM   10  N2  UNL     1      -9.355 -14.915   6.752  1.00  0.00    -0.348 N 
ATOM     11  H2  UNL     1      -8.573 -14.640   6.158  1.00  0.00     0.163 HD
HETATM   12  O4  UNL     1     -10.686 -16.599   7.543  1.00  0.00    -0.274 OA
BRANCH  10  13
HETATM   13  C2  UNL     1     -10.058 -13.867   7.522  1.00  0.00     0.174 C 
BRANCH  13  14
HETATM   14  C1  UNL     1     -11.247 -13.409   6.785  1.00  0.00     0.254 C 
HETATM   15  N1  UNL     1     -12.563 -13.757   7.111  1.00  0.00    -0.060 NA
HETATM   16  O1  UNL     1     -11.088 -12.640   5.770  1.00  0.00    -0.275 OA
ENDBRANCH  13  14
BRANCH  13  17
HETATM   17  C3  UNL     1      -9.100 -12.788   7.926  1.00  0.00     0.045 C 
BRANCH  17  18
HETATM   18  C4  UNL     1      -7.783 -12.873   7.245  1.00  0.00     0.116 C 
BRANCH  18  19
HETATM   19  C5  UNL     1      -7.361 -11.578   6.646  1.00  0.00     0.172 C 
HETATM   20  O2  UNL     1      -8.255 -10.873   6.120  1.00  0.00    -0.648 OA
HETATM   21  O3  UNL     1      -6.061 -11.107   6.632  1.00  0.00    -0.648 OA
ENDBRANCH  18  19
ENDBRANCH  17  18
ENDBRANCH  13  17
ENDBRANCH  10  13
ENDBRANCH   8   9
ENDBRANCH   7   8
ENDBRANCH   1   7
BRANCH   4  22
HETATM   22  C13 UNL     1     -10.161 -22.216   2.016  1.00  0.00    -0.026 A 
HETATM   23  C14 UNL     1     -11.128 -23.055   2.508  1.00  0.00     0.013 A 
HETATM   24  C15 UNL     1     -11.369 -24.273   1.880  1.00  0.00     0.013 A 
HETATM   25  C16 UNL     1     -10.672 -24.679   0.773  1.00  0.00    -0.026 A 
HETATM   26  C23 UNL     1      -9.701 -23.834   0.280  1.00  0.00     0.013 A 
HETATM   27  C24 UNL     1      -9.448 -22.613   0.896  1.00  0.00     0.013 A 
BRANCH  25  28
HETATM   28  C17 UNL     1     -10.935 -25.957   0.124  1.00  0.00    -0.026 A 
HETATM   29  C18 UNL     1     -10.162 -26.408  -0.925  1.00  0.00     0.012 A 
HETATM   30  C19 UNL     1     -10.436 -27.617  -1.515  1.00  0.00     0.001 A 
HETATM   31  C20 UNL     1     -11.484 -28.408  -1.078  1.00  0.00     0.000 A 
HETATM   32  C21 UNL     1     -12.258 -27.966  -0.033  1.00  0.00     0.001 A 
HETATM   33  C22 UNL     1     -11.975 -26.744   0.557  1.00  0.00     0.012 A 
ENDBRANCH  25  28
ENDBRANCH   4  22
TORSDOF 10
ENDMDL
