MODEL 3
REMARK VINA RESULT: -11.018110789      0.673      1.359
REMARK  10 active torsions:
REMARK  status: ('A' for Active; 'I' for Inactive)
REMARK    1  A    between atoms: C1_2  and  C2_4 
REMARK    2  A    between atoms: C2_4  and  C3_5 
REMARK    3  A    between atoms: C2_4  and  N2_10 
REMARK    4  A    between atoms: C3_5  and  C4_6 
REMARK    5  A    between atoms: C4_6  and  C5_7 
REMARK       I    between atoms: N2_10  and  C6_12 
REMARK    6  A    between atoms: C6_12  and  C7_14 
REMARK    7  A    between atoms: C7_14  and  C8_15 
REMARK    8  A    between atoms: C8_15  and  C9_16 
REMARK    9  A    between atoms: C12_19  and  C13_20 
REMARK   10  A    between atoms: C16_23  and  C17_24 
ROOT
HETATM    1  C9  UNL     1     -10.391 -24.188   0.778  1.00  0.00    -0.058 A 
HETATM    2  C10 UNL     1      -9.493 -23.217   0.398  1.00  0.00     0.008 A 
HETATM    3  C11 UNL     1      -9.365 -22.057   1.119  1.00  0.00     0.013 A 
HETATM    4  C12 UNL     1     -10.127 -21.804   2.259  1.00  0.00    -0.026 A 
HETATM    5  C25 UNL     1     -11.026 -22.792   2.627  1.00  0.00     0.013 A 
HETATM    6  C26 UNL     1     -11.156 -23.964   1.900  1.00  0.00     0.008 A 
ENDROOT
BRANCH   1   7
HETATM    7  C8  UNL     1     -10.540 -25.446   0.003  1.00  0.00     0.047 C 
BRANCH   7   8
HETATM    8  C7  UNL     1     -11.624 -25.277  -1.026  1.00  0.00     0.107 C 
BRANCH   8   9
HETATM    9  C6  UNL     1     -12.509 -26.449  -1.121  1.00  0.00     0.218 C 
HETATM   10  N2  UNL     1     -13.436 -26.836  -0.137  1.00  0.00    -0.348 N 
ATOM     11  H2  UNL     1     -13.512 -26.271   0.710  1.00  0.00     0.163 HD
HETATM   12  O4  UNL     1     -12.425 -27.157  -2.164  1.00  0.00    -0.274 OA
BRANCH  10  13
HETATM   13  C2  UNL     1     -14.306 -28.023  -0.273  1.00  0.00     0.174 C 
BRANCH  13  14
HETATM   14  C1  UNL     1     -15.718 -27.611  -0.348  1.00  0.00     0.254 C 
HETATM   15  N1  UNL     1     -16.197 -26.564  -1.144  1.00  0.00    -0.060 NA
HETATM   16  O1  UNL     1     -16.584 -28.240   0.360  1.00  0.00    -0.275 OA
ENDBRANCH  13  14
BRANCH  13  17
HETATM   17  C3  UNL     1     -13.988 -29.026   0.792  1.00  0.00     0.045 C 
BRANCH  17  18
HETATM   18  C4  UNL     1     -12.635 -29.625   0.663  1.00  0.00     0.116 C 
BRANCH  18  19
HETATM   19  C5  UNL     1     -11.657 -29.047   1.625  1.00  0.00     0.172 C 
HETATM   20  O2  UNL     1     -10.602 -29.694   1.824  1.00  0.00    -0.648 OA
HETATM   21  O3  UNL     1     -11.835 -27.856   2.304  1.00  0.00    -0.648 OA
ENDBRANCH  18  19
ENDBRANCH  17  18
ENDBRANCH  13  17
ENDBRANCH  10  13
ENDBRANCH   8   9
ENDBRANCH   7   8
ENDBRANCH   1   7
BRANCH   4  22
HETATM   22  C13 UNL     1      -9.984 -20.572   3.016  1.00  0.00    -0.026 A 
HETATM   23  C14 UNL     1     -10.773 -20.333   4.112  1.00  0.00     0.013 A 
HETATM   24  C15 UNL     1     -10.620 -19.149   4.826  1.00  0.00     0.013 A 
HETATM   25  C16 UNL     1      -9.702 -18.194   4.477  1.00  0.00    -0.026 A 
HETATM   26  C23 UNL     1      -8.911 -18.436   3.376  1.00  0.00     0.013 A 
HETATM   27  C24 UNL     1      -9.050 -19.616   2.651  1.00  0.00     0.013 A 
BRANCH  25  28
HETATM   28  C17 UNL     1      -9.551 -16.957   5.235  1.00  0.00    -0.026 A 
HETATM   29  C18 UNL     1      -9.301 -16.966   6.590  1.00  0.00     0.012 A 
HETATM   30  C19 UNL     1      -9.163 -15.784   7.275  1.00  0.00     0.001 A 
HETATM   31  C20 UNL     1      -9.272 -14.564   6.631  1.00  0.00     0.000 A 
HETATM   32  C21 UNL     1      -9.521 -14.548   5.279  1.00  0.00     0.001 A 
HETATM   33  C22 UNL     1      -9.659 -15.745   4.596  1.00  0.00     0.012 A 
ENDBRANCH  25  28
ENDBRANCH   4  22
TORSDOF 10
ENDMDL
