MODEL 1
REMARK VINA RESULT: -11.047565727      0.000      0.000
REMARK  10 active torsions:
REMARK  status: ('A' for Active; 'I' for Inactive)
REMARK    1  A    between atoms: C1_2  and  C2_4 
REMARK    2  A    between atoms: C2_4  and  C3_5 
REMARK    3  A    between atoms: C2_4  and  N2_10 
REMARK    4  A    between atoms: C3_5  and  C4_6 
REMARK    5  A    between atoms: C4_6  and  C5_7 
REMARK       I    between atoms: N2_10  and  C6_12 
REMARK    6  A    between atoms: C6_12  and  C7_14 
REMARK    7  A    between atoms: C7_14  and  C8_15 
REMARK    8  A    between atoms: C8_15  and  C9_16 
REMARK    9  A    between atoms: C12_19  and  C13_20 
REMARK   10  A    between atoms: C16_23  and  C17_24 
ROOT
HETATM    1  C9  UNL     1     -10.398 -24.514   0.563  1.00  0.00    -0.058 A 
HETATM    2  C10 UNL     1     -11.178 -24.265   1.669  1.00  0.00     0.008 A 
HETATM    3  C11 UNL     1     -11.046 -23.096   2.376  1.00  0.00     0.013 A 
HETATM    4  C12 UNL     1     -10.127 -22.113   2.016  1.00  0.00    -0.026 A 
HETATM    5  C25 UNL     1      -9.349 -22.379   0.900  1.00  0.00     0.013 A 
HETATM    6  C26 UNL     1      -9.481 -23.558   0.186  1.00  0.00     0.008 A 
ENDROOT
BRANCH   1   7
HETATM    7  C8  UNL     1     -10.530 -25.776  -0.206  1.00  0.00     0.047 C 
BRANCH   7   8
HETATM    8  C7  UNL     1     -11.696 -25.668  -1.152  1.00  0.00     0.107 C 
BRANCH   8   9
HETATM    9  C6  UNL     1     -12.582 -26.843  -1.101  1.00  0.00     0.218 C 
HETATM   10  N2  UNL     1     -13.523 -27.094  -0.087  1.00  0.00    -0.348 N 
ATOM     11  H2  UNL     1     -13.608 -26.422   0.676  1.00  0.00     0.163 HD
HETATM   12  O4  UNL     1     -12.487 -27.683  -2.040  1.00  0.00    -0.274 OA
BRANCH  10  13
HETATM   13  C2  UNL     1     -14.394 -28.288  -0.075  1.00  0.00     0.174 C 
BRANCH  13  14
HETATM   14  C1  UNL     1     -15.807 -27.886  -0.168  1.00  0.00     0.254 C 
HETATM   15  N1  UNL     1     -16.772 -28.151   0.810  1.00  0.00    -0.060 NA
HETATM   16  O1  UNL     1     -16.202 -27.250  -1.211  1.00  0.00    -0.275 OA
ENDBRANCH  13  14
BRANCH  13  17
HETATM   17  C3  UNL     1     -14.054 -29.168   1.088  1.00  0.00     0.045 C 
BRANCH  17  18
HETATM   18  C4  UNL     1     -12.745 -29.858   0.952  1.00  0.00     0.116 C 
BRANCH  18  19
HETATM   19  C5  UNL     1     -11.649 -29.157   1.677  1.00  0.00     0.172 C 
HETATM   20  O2  UNL     1     -10.524 -29.708   1.681  1.00  0.00    -0.648 OA
HETATM   21  O3  UNL     1     -11.792 -27.951   2.338  1.00  0.00    -0.648 OA
ENDBRANCH  18  19
ENDBRANCH  17  18
ENDBRANCH  13  17
ENDBRANCH  10  13
ENDBRANCH   8   9
ENDBRANCH   7   8
ENDBRANCH   1   7
BRANCH   4  22
HETATM   22  C13 UNL     1      -9.994 -20.878   2.770  1.00  0.00    -0.026 A 
HETATM   23  C14 UNL     1     -10.785 -20.642   3.866  1.00  0.00     0.013 A 
HETATM   24  C15 UNL     1     -10.641 -19.455   4.577  1.00  0.00     0.013 A 
HETATM   25  C16 UNL     1      -9.731 -18.494   4.226  1.00  0.00    -0.026 A 
HETATM   26  C23 UNL     1      -8.938 -18.733   3.126  1.00  0.00     0.013 A 
HETATM   27  C24 UNL     1      -9.068 -19.915   2.403  1.00  0.00     0.013 A 
BRANCH  25  28
HETATM   28  C17 UNL     1      -9.590 -17.255   4.981  1.00  0.00    -0.026 A 
HETATM   29  C18 UNL     1      -9.575 -16.026   4.357  1.00  0.00     0.012 A 
HETATM   30  C19 UNL     1      -9.442 -14.877   5.096  1.00  0.00     0.001 A 
HETATM   31  C20 UNL     1      -9.321 -14.920   6.474  1.00  0.00     0.000 A 
HETATM   32  C21 UNL     1      -9.335 -16.141   7.103  1.00  0.00     0.001 A 
HETATM   33  C22 UNL     1      -9.469 -17.296   6.349  1.00  0.00     0.012 A 
ENDBRANCH  25  28
ENDBRANCH   4  22
TORSDOF 10
ENDMDL
