MODEL 11
REMARK VINA RESULT: -5.368275620      3.734      8.869
REMARK  10 active torsions:
REMARK  status: ('A' for Active; 'I' for Inactive)
REMARK    1  A    between atoms: O1_2  and  C2_3 
REMARK    2  A    between atoms: C4_5  and  O2_6 
REMARK    3  A    between atoms: C6_8  and  S1_9 
REMARK    4  A    between atoms: S1_9  and  N1_12 
REMARK    5  A    between atoms: N1_12  and  C7_13 
REMARK    6  A    between atoms: N1_12  and  C13_19 
REMARK    7  A    between atoms: C20_27  and  N3_28 
REMARK       I    between atoms: N3_28  and  C21_30 
REMARK    8  A    between atoms: C21_30  and  C22_32 
REMARK    9  A    between atoms: C22_32  and  C23_33 
REMARK   10  A    between atoms: C23_33  and  C24_34 
ROOT
HETATM    1  C2  UNL     1      23.965 -22.041 -23.440  1.00  0.00     0.097 A 
HETATM    2  C3  UNL     1      24.316 -23.216 -22.827  1.00  0.00     0.077 A 
HETATM    3  C4  UNL     1      25.160 -23.189 -21.720  1.00  0.00     0.094 A 
HETATM    4  C6  UNL     1      25.652 -22.028 -21.223  1.00  0.00     0.116 A 
HETATM    5  C19 UNL     1      25.273 -20.845 -21.873  1.00  0.00     0.060 A 
HETATM    6  C20 UNL     1      24.444 -20.805 -22.968  1.00  0.00     0.070 A 
ENDROOT
BRANCH   4   7
HETATM    7  S1  UNL     1      26.713 -21.935 -19.893  1.00  0.00     0.272 S 
HETATM    8  O3  UNL     1      28.062 -22.575 -20.251  1.00  0.00    -0.200 OA
HETATM    9  O4  UNL     1      27.085 -20.450 -19.754  1.00  0.00    -0.200 OA
BRANCH   7  10
HETATM   10  N1  UNL     1      26.159 -22.477 -18.391  1.00  0.00    -0.236 N 
BRANCH  10  11
HETATM   11  C7  UNL     1      24.880 -22.145 -17.904  1.00  0.00     0.051 A 
HETATM   12  C8  UNL     1      24.252 -23.046 -17.030  1.00  0.00     0.031 A 
HETATM   13  C9  UNL     1      23.004 -22.816 -16.499  1.00  0.00     0.002 A 
HETATM   14  C10 UNL     1      22.312 -21.666 -16.812  1.00  0.00     0.000 A 
HETATM   15  C11 UNL     1      22.915 -20.772 -17.668  1.00  0.00     0.002 A 
HETATM   16  C12 UNL     1      24.165 -21.015 -18.193  1.00  0.00     0.031 A 
ENDBRANCH  10  11
BRANCH  10  17
HETATM   17  C13 UNL     1      26.949 -23.298 -17.534  1.00  0.00     0.051 A 
HETATM   18  C14 UNL     1      27.620 -22.697 -16.491  1.00  0.00     0.032 A 
HETATM   19  C15 UNL     1      28.412 -23.447 -15.615  1.00  0.00     0.029 A 
HETATM   20  C16 UNL     1      28.547 -24.811 -15.766  1.00  0.00     0.046 A 
HETATM   21  N2  UNL     1      29.363 -25.553 -14.854  1.00  0.00    -0.102 NA
HETATM   22  C17 UNL     1      27.874 -25.410 -16.808  1.00  0.00     0.029 A 
HETATM   23  C18 UNL     1      27.092 -24.662 -17.673  1.00  0.00     0.032 A 
ENDBRANCH  10  17
ENDBRANCH   7  10
ENDBRANCH   4   7
BRANCH   3  24
HETATM   24  O2  UNL     1      25.491 -24.380 -21.126  1.00  0.00    -0.354 OA
HETATM   25  C5  UNL     1      26.187 -25.383 -21.837  1.00  0.00     0.210 C 
ENDBRANCH   3  24
BRANCH   6  26
HETATM   26  N3  UNL     1      24.029 -19.654 -23.661  1.00  0.00    -0.325 N 
HETATM   27  C21 UNL     1      23.140 -18.664 -23.198  1.00  0.00     0.222 C 
HETATM   28  O5  UNL     1      22.635 -18.761 -22.062  1.00  0.00    -0.273 OA
ATOM     29  H3  UNL     1      24.412 -19.522 -24.597  1.00  0.00     0.169 HD
BRANCH  27  30
HETATM   30  C22 UNL     1      22.786 -17.478 -24.061  1.00  0.00     0.113 C 
BRANCH  30  31
HETATM   31  C23 UNL     1      21.995 -16.470 -23.287  1.00  0.00     0.122 C 
BRANCH  31  32
HETATM   32  C24 UNL     1      22.544 -15.125 -23.585  1.00  0.00     0.172 C 
HETATM   33  O6  UNL     1      22.679 -14.702 -24.758  1.00  0.00    -0.648 OA
HETATM   34  O7  UNL     1      22.928 -14.291 -22.551  1.00  0.00    -0.648 OA
ENDBRANCH  31  32
ENDBRANCH  30  31
ENDBRANCH  27  30
ENDBRANCH   6  26
BRANCH   1  35
HETATM   35  O1  UNL     1      23.110 -22.046 -24.565  1.00  0.00    -0.354 OA
HETATM   36  C1  UNL     1      21.783 -22.475 -24.396  1.00  0.00     0.210 C 
ENDBRANCH   1  35
TORSDOF 10
ENDMDL
