MODEL 14
REMARK VINA RESULT: -5.310977684      3.174      9.072
REMARK  10 active torsions:
REMARK  status: ('A' for Active; 'I' for Inactive)
REMARK    1  A    between atoms: O1_2  and  C2_3 
REMARK    2  A    between atoms: C4_5  and  O2_6 
REMARK    3  A    between atoms: C6_8  and  S1_9 
REMARK    4  A    between atoms: S1_9  and  N1_12 
REMARK    5  A    between atoms: N1_12  and  C7_13 
REMARK    6  A    between atoms: N1_12  and  C13_19 
REMARK    7  A    between atoms: C20_27  and  N3_28 
REMARK       I    between atoms: N3_28  and  C21_30 
REMARK    8  A    between atoms: C21_30  and  C22_32 
REMARK    9  A    between atoms: C22_32  and  C23_33 
REMARK   10  A    between atoms: C23_33  and  C24_34 
ROOT
HETATM    1  C2  UNL     1      27.941 -24.702 -16.048  1.00  0.00     0.097 A 
HETATM    2  C3  UNL     1      27.948 -25.535 -14.959  1.00  0.00     0.077 A 
HETATM    3  C4  UNL     1      27.769 -25.003 -13.685  1.00  0.00     0.094 A 
HETATM    4  C6  UNL     1      27.586 -23.676 -13.483  1.00  0.00     0.116 A 
HETATM    5  C19 UNL     1      27.585 -22.851 -14.618  1.00  0.00     0.060 A 
HETATM    6  C20 UNL     1      27.756 -23.315 -15.899  1.00  0.00     0.070 A 
ENDROOT
BRANCH   4   7
HETATM    7  S1  UNL     1      27.394 -22.963 -11.947  1.00  0.00     0.272 S 
HETATM    8  O3  UNL     1      28.620 -23.263 -11.071  1.00  0.00    -0.200 OA
HETATM    9  O4  UNL     1      27.514 -21.447 -12.166  1.00  0.00    -0.200 OA
BRANCH   7  10
HETATM   10  N1  UNL     1      25.957 -23.257 -11.106  1.00  0.00    -0.236 N 
BRANCH  10  11
HETATM   11  C7  UNL     1      24.747 -23.533 -11.771  1.00  0.00     0.051 A 
HETATM   12  C8  UNL     1      24.513 -24.848 -12.198  1.00  0.00     0.031 A 
HETATM   13  C9  UNL     1      23.365 -25.222 -12.856  1.00  0.00     0.002 A 
HETATM   14  C10 UNL     1      22.380 -24.297 -13.124  1.00  0.00     0.000 A 
HETATM   15  C11 UNL     1      22.594 -23.000 -12.711  1.00  0.00     0.002 A 
HETATM   16  C12 UNL     1      23.749 -22.640 -12.053  1.00  0.00     0.031 A 
ENDBRANCH  10  11
BRANCH  10  17
HETATM   17  C13 UNL     1      25.886 -23.242  -9.682  1.00  0.00     0.051 A 
HETATM   18  C14 UNL     1      25.882 -22.022  -9.041  1.00  0.00     0.032 A 
HETATM   19  C15 UNL     1      25.814 -21.940  -7.645  1.00  0.00     0.029 A 
HETATM   20  C16 UNL     1      25.749 -23.076  -6.867  1.00  0.00     0.046 A 
HETATM   21  N2  UNL     1      25.680 -22.962  -5.442  1.00  0.00    -0.102 NA
HETATM   22  C17 UNL     1      25.753 -24.295  -7.510  1.00  0.00     0.029 A 
HETATM   23  C18 UNL     1      25.821 -24.369  -8.891  1.00  0.00     0.032 A 
ENDBRANCH  10  17
ENDBRANCH   7  10
ENDBRANCH   4   7
BRANCH   3  24
HETATM   24  O2  UNL     1      27.776 -25.862 -12.616  1.00  0.00    -0.354 OA
HETATM   25  C5  UNL     1      28.803 -26.819 -12.454  1.00  0.00     0.210 C 
ENDBRANCH   3  24
BRANCH   6  26
HETATM   26  N3  UNL     1      27.765 -22.542 -17.073  1.00  0.00    -0.325 N 
HETATM   27  C21 UNL     1      26.650 -22.188 -17.860  1.00  0.00     0.222 C 
HETATM   28  O5  UNL     1      25.509 -22.569 -17.532  1.00  0.00    -0.273 OA
ATOM     29  H3  UNL     1      28.672 -22.201 -17.389  1.00  0.00     0.169 HD
BRANCH  27  30
HETATM   30  C22 UNL     1      26.816 -21.347 -19.102  1.00  0.00     0.113 C 
BRANCH  30  31
HETATM   31  C23 UNL     1      26.383 -22.102 -20.321  1.00  0.00     0.122 C 
BRANCH  31  32
HETATM   32  C24 UNL     1      27.588 -22.703 -20.942  1.00  0.00     0.172 C 
HETATM   33  O6  UNL     1      27.765 -22.716 -22.182  1.00  0.00    -0.648 OA
HETATM   34  O7  UNL     1      28.562 -23.276 -20.145  1.00  0.00    -0.648 OA
ENDBRANCH  31  32
ENDBRANCH  30  31
ENDBRANCH  27  30
ENDBRANCH   6  26
BRANCH   1  35
HETATM   35  O1  UNL     1      28.123 -25.221 -17.349  1.00  0.00    -0.354 OA
HETATM   36  C1  UNL     1      27.134 -26.068 -17.876  1.00  0.00     0.210 C 
ENDBRANCH   1  35
TORSDOF 10
ENDMDL
