MODEL 8
REMARK VINA RESULT: -5.478738620      2.919      4.585
REMARK  10 active torsions:
REMARK  status: ('A' for Active; 'I' for Inactive)
REMARK    1  A    between atoms: O1_2  and  C2_3 
REMARK    2  A    between atoms: C4_5  and  O2_6 
REMARK    3  A    between atoms: C6_8  and  S1_9 
REMARK    4  A    between atoms: S1_9  and  N1_12 
REMARK    5  A    between atoms: N1_12  and  C7_13 
REMARK    6  A    between atoms: N1_12  and  C13_19 
REMARK    7  A    between atoms: C20_27  and  N3_28 
REMARK       I    between atoms: N3_28  and  C21_30 
REMARK    8  A    between atoms: C21_30  and  C22_32 
REMARK    9  A    between atoms: C22_32  and  C23_33 
REMARK   10  A    between atoms: C23_33  and  C24_34 
ROOT
HETATM    1  C2  UNL     1      26.503 -24.667 -10.790  1.00  0.00     0.097 A 
HETATM    2  C3  UNL     1      26.522 -25.761 -11.616  1.00  0.00     0.077 A 
HETATM    3  C4  UNL     1      26.960 -25.623 -12.931  1.00  0.00     0.094 A 
HETATM    4  C6  UNL     1      27.373 -24.431 -13.426  1.00  0.00     0.116 A 
HETATM    5  C19 UNL     1      27.341 -23.332 -12.554  1.00  0.00     0.060 A 
HETATM    6  C20 UNL     1      26.921 -23.404 -11.249  1.00  0.00     0.070 A 
ENDROOT
BRANCH   4   7
HETATM    7  S1  UNL     1      27.890 -24.194 -15.032  1.00  0.00     0.272 S 
HETATM    8  O3  UNL     1      28.764 -22.934 -15.123  1.00  0.00    -0.200 OA
HETATM    9  O4  UNL     1      28.903 -25.313 -15.320  1.00  0.00    -0.200 OA
BRANCH   7  10
HETATM   10  N1  UNL     1      26.725 -24.217 -16.257  1.00  0.00    -0.236 N 
BRANCH  10  11
HETATM   11  C7  UNL     1      25.411 -24.671 -16.027  1.00  0.00     0.051 A 
HETATM   12  C8  UNL     1      24.496 -23.778 -15.450  1.00  0.00     0.031 A 
HETATM   13  C9  UNL     1      23.191 -24.121 -15.185  1.00  0.00     0.002 A 
HETATM   14  C10 UNL     1      22.725 -25.383 -15.485  1.00  0.00     0.000 A 
HETATM   15  C11 UNL     1      23.611 -26.272 -16.052  1.00  0.00     0.002 A 
HETATM   16  C12 UNL     1      24.916 -25.914 -16.311  1.00  0.00     0.031 A 
ENDBRANCH  10  11
BRANCH  10  17
HETATM   17  C13 UNL     1      27.001 -23.783 -17.586  1.00  0.00     0.051 A 
HETATM   18  C14 UNL     1      27.499 -24.702 -18.483  1.00  0.00     0.032 A 
HETATM   19  C15 UNL     1      27.791 -24.338 -19.803  1.00  0.00     0.029 A 
HETATM   20  C16 UNL     1      27.590 -23.048 -20.247  1.00  0.00     0.046 A 
HETATM   21  N2  UNL     1      27.897 -22.704 -21.602  1.00  0.00    -0.102 NA
HETATM   22  C17 UNL     1      27.091 -22.131 -19.348  1.00  0.00     0.029 A 
HETATM   23  C18 UNL     1      26.805 -22.497 -18.044  1.00  0.00     0.032 A 
ENDBRANCH  10  17
ENDBRANCH   7  10
ENDBRANCH   4   7
BRANCH   3  24
HETATM   24  O2  UNL     1      26.971 -26.736 -13.732  1.00  0.00    -0.354 OA
HETATM   25  C5  UNL     1      27.273 -28.012 -13.206  1.00  0.00     0.210 C 
ENDBRANCH   3  24
BRANCH   6  26
HETATM   26  N3  UNL     1      26.866 -22.342 -10.329  1.00  0.00    -0.325 N 
HETATM   27  C21 UNL     1      27.830 -22.019  -9.353  1.00  0.00     0.222 C 
HETATM   28  O5  UNL     1      28.863 -22.709  -9.245  1.00  0.00    -0.273 OA
ATOM     29  H3  UNL     1      26.042 -21.742 -10.373  1.00  0.00     0.169 HD
BRANCH  27  30
HETATM   30  C22 UNL     1      27.632 -20.841  -8.430  1.00  0.00     0.113 C 
BRANCH  30  31
HETATM   31  C23 UNL     1      26.542 -21.115  -7.441  1.00  0.00     0.122 C 
BRANCH  31  32
HETATM   32  C24 UNL     1      26.860 -20.382  -6.191  1.00  0.00     0.172 C 
HETATM   33  O6  UNL     1      26.725 -20.901  -5.059  1.00  0.00    -0.648 OA
HETATM   34  O7  UNL     1      27.324 -19.081  -6.254  1.00  0.00    -0.648 OA
ENDBRANCH  31  32
ENDBRANCH  30  31
ENDBRANCH  27  30
ENDBRANCH   6  26
BRANCH   1  35
HETATM   35  O1  UNL     1      26.061 -24.785  -9.454  1.00  0.00    -0.354 OA
HETATM   36  C1  UNL     1      25.008 -25.671  -9.172  1.00  0.00     0.210 C 
ENDBRANCH   1  35
TORSDOF 10
ENDMDL
