MODEL 6
REMARK VINA RESULT: -5.549938186      1.441      1.774
REMARK  10 active torsions:
REMARK  status: ('A' for Active; 'I' for Inactive)
REMARK    1  A    between atoms: O1_2  and  C2_3 
REMARK    2  A    between atoms: C4_5  and  O2_6 
REMARK    3  A    between atoms: C6_8  and  S1_9 
REMARK    4  A    between atoms: S1_9  and  N1_12 
REMARK    5  A    between atoms: N1_12  and  C7_13 
REMARK    6  A    between atoms: N1_12  and  C13_19 
REMARK    7  A    between atoms: C20_27  and  N3_28 
REMARK       I    between atoms: N3_28  and  C21_30 
REMARK    8  A    between atoms: C21_30  and  C22_32 
REMARK    9  A    between atoms: C22_32  and  C23_33 
REMARK   10  A    between atoms: C23_33  and  C24_34 
ROOT
HETATM    1  C2  UNL     1      25.905 -25.445 -16.130  1.00  0.00     0.097 A 
HETATM    2  C3  UNL     1      26.028 -25.806 -17.447  1.00  0.00     0.077 A 
HETATM    3  C4  UNL     1      26.428 -24.859 -18.386  1.00  0.00     0.094 A 
HETATM    4  C6  UNL     1      26.704 -23.579 -18.038  1.00  0.00     0.116 A 
HETATM    5  C19 UNL     1      26.568 -23.242 -16.683  1.00  0.00     0.060 A 
HETATM    6  C20 UNL     1      26.178 -24.129 -15.710  1.00  0.00     0.070 A 
ENDROOT
BRANCH   4   7
HETATM    7  S1  UNL     1      27.166 -22.369 -19.145  1.00  0.00     0.272 S 
HETATM    8  O3  UNL     1      27.720 -21.150 -18.391  1.00  0.00    -0.200 OA
HETATM    9  O4  UNL     1      28.418 -22.905 -19.857  1.00  0.00    -0.200 OA
BRANCH   7  10
HETATM   10  N1  UNL     1      26.053 -21.901 -20.327  1.00  0.00    -0.236 N 
BRANCH  10  11
HETATM   11  C7  UNL     1      24.867 -21.213 -20.004  1.00  0.00     0.051 A 
HETATM   12  C8  UNL     1      24.528 -21.083 -18.649  1.00  0.00     0.031 A 
HETATM   13  C9  UNL     1      23.393 -20.431 -18.227  1.00  0.00     0.002 A 
HETATM   14  C10 UNL     1      22.531 -19.866 -19.142  1.00  0.00     0.000 A 
HETATM   15  C11 UNL     1      22.850 -19.984 -20.476  1.00  0.00     0.002 A 
HETATM   16  C12 UNL     1      23.990 -20.641 -20.884  1.00  0.00     0.031 A 
ENDBRANCH  10  11
BRANCH  10  17
HETATM   17  C13 UNL     1      26.246 -22.174 -21.713  1.00  0.00     0.051 A 
HETATM   18  C14 UNL     1      25.771 -23.365 -22.216  1.00  0.00     0.032 A 
HETATM   19  C15 UNL     1      25.930 -23.692 -23.568  1.00  0.00     0.029 A 
HETATM   20  C16 UNL     1      26.566 -22.833 -24.439  1.00  0.00     0.046 A 
HETATM   21  N2  UNL     1      26.714 -23.194 -25.816  1.00  0.00    -0.102 NA
HETATM   22  C17 UNL     1      27.040 -21.643 -23.933  1.00  0.00     0.029 A 
HETATM   23  C18 UNL     1      26.880 -21.325 -22.595  1.00  0.00     0.032 A 
ENDBRANCH  10  17
ENDBRANCH   7  10
ENDBRANCH   4   7
BRANCH   3  24
HETATM   24  O2  UNL     1      26.546 -25.251 -19.694  1.00  0.00    -0.354 OA
HETATM   25  C5  UNL     1      27.388 -26.324 -20.063  1.00  0.00     0.210 C 
ENDBRANCH   3  24
BRANCH   6  26
HETATM   26  N3  UNL     1      26.024 -23.854 -14.340  1.00  0.00    -0.325 N 
HETATM   27  C21 UNL     1      27.037 -23.851 -13.360  1.00  0.00     0.222 C 
HETATM   28  O5  UNL     1      28.214 -24.111 -13.679  1.00  0.00    -0.273 OA
ATOM     29  H3  UNL     1      25.081 -23.632 -14.022  1.00  0.00     0.169 HD
BRANCH  27  30
HETATM   30  C22 UNL     1      26.718 -23.534 -11.919  1.00  0.00     0.113 C 
BRANCH  30  31
HETATM   31  C23 UNL     1      27.462 -22.317 -11.462  1.00  0.00     0.122 C 
BRANCH  31  32
HETATM   32  C24 UNL     1      28.334 -22.709 -10.329  1.00  0.00     0.172 C 
HETATM   33  O6  UNL     1      29.406 -23.336 -10.495  1.00  0.00    -0.648 OA
HETATM   34  O7  UNL     1      27.972 -22.382  -9.034  1.00  0.00    -0.648 OA
ENDBRANCH  31  32
ENDBRANCH  30  31
ENDBRANCH  27  30
ENDBRANCH   6  26
BRANCH   1  35
HETATM   35  O1  UNL     1      25.499 -26.390 -15.162  1.00  0.00    -0.354 OA
HETATM   36  C1  UNL     1      26.359 -27.460 -14.868  1.00  0.00     0.210 C 
ENDBRANCH   1  35
TORSDOF 10
ENDMDL
