MODEL 1
REMARK VINA RESULT: -6.078217918      0.000      0.000
REMARK  10 active torsions:
REMARK  status: ('A' for Active; 'I' for Inactive)
REMARK    1  A    between atoms: O1_2  and  C2_3 
REMARK    2  A    between atoms: C4_5  and  O2_6 
REMARK    3  A    between atoms: C6_8  and  S1_9 
REMARK    4  A    between atoms: S1_9  and  N1_12 
REMARK    5  A    between atoms: N1_12  and  C7_13 
REMARK    6  A    between atoms: N1_12  and  C13_19 
REMARK    7  A    between atoms: C20_27  and  N3_28 
REMARK       I    between atoms: N3_28  and  C21_30 
REMARK    8  A    between atoms: C21_30  and  C22_32 
REMARK    9  A    between atoms: C22_32  and  C23_33 
REMARK   10  A    between atoms: C23_33  and  C24_34 
ROOT
HETATM    1  C2  UNL     1      27.639 -25.564 -15.655  1.00  0.00     0.097 A 
HETATM    2  C3  UNL     1      27.335 -25.905 -16.948  1.00  0.00     0.077 A 
HETATM    3  C4  UNL     1      27.224 -24.909 -17.914  1.00  0.00     0.094 A 
HETATM    4  C6  UNL     1      27.407 -23.600 -17.616  1.00  0.00     0.116 A 
HETATM    5  C19 UNL     1      27.716 -23.285 -16.285  1.00  0.00     0.060 A 
HETATM    6  C20 UNL     1      27.840 -24.221 -15.287  1.00  0.00     0.070 A 
ENDROOT
BRANCH   4   7
HETATM    7  S1  UNL     1      27.253 -22.335 -18.747  1.00  0.00     0.272 S 
HETATM    8  O3  UNL     1      27.899 -21.055 -18.195  1.00  0.00    -0.200 OA
HETATM    9  O4  UNL     1      28.188 -22.694 -19.913  1.00  0.00    -0.200 OA
BRANCH   7  10
HETATM   10  N1  UNL     1      25.720 -22.018 -19.386  1.00  0.00    -0.236 N 
BRANCH  10  11
HETATM   11  C7  UNL     1      24.626 -21.681 -18.566  1.00  0.00     0.051 A 
HETATM   12  C8  UNL     1      24.069 -20.401 -18.702  1.00  0.00     0.031 A 
HETATM   13  C9  UNL     1      23.000 -19.973 -17.949  1.00  0.00     0.002 A 
HETATM   14  C10 UNL     1      22.424 -20.807 -17.016  1.00  0.00     0.000 A 
HETATM   15  C11 UNL     1      22.959 -22.068 -16.870  1.00  0.00     0.002 A 
HETATM   16  C12 UNL     1      24.030 -22.482 -17.631  1.00  0.00     0.031 A 
ENDBRANCH  10  11
BRANCH  10  17
HETATM   17  C13 UNL     1      25.446 -22.073 -20.784  1.00  0.00     0.051 A 
HETATM   18  C14 UNL     1      24.738 -23.151 -21.268  1.00  0.00     0.032 A 
HETATM   19  C15 UNL     1      24.437 -23.264 -22.631  1.00  0.00     0.029 A 
HETATM   20  C16 UNL     1      24.840 -22.301 -23.532  1.00  0.00     0.046 A 
HETATM   21  N2  UNL     1      24.518 -22.442 -24.919  1.00  0.00    -0.102 NA
HETATM   22  C17 UNL     1      25.548 -21.224 -23.045  1.00  0.00     0.029 A 
HETATM   23  C18 UNL     1      25.842 -21.118 -21.696  1.00  0.00     0.032 A 
ENDBRANCH  10  17
ENDBRANCH   7  10
ENDBRANCH   4   7
BRANCH   3  24
HETATM   24  O2  UNL     1      26.923 -25.281 -19.199  1.00  0.00    -0.354 OA
HETATM   25  C5  UNL     1      25.876 -26.190 -19.471  1.00  0.00     0.210 C 
ENDBRANCH   3  24
BRANCH   6  26
HETATM   26  N3  UNL     1      28.147 -23.969 -13.938  1.00  0.00    -0.325 N 
HETATM   27  C21 UNL     1      27.233 -23.692 -12.901  1.00  0.00     0.222 C 
HETATM   28  O5  UNL     1      26.010 -23.653 -13.142  1.00  0.00    -0.273 OA
ATOM     29  H3  UNL     1      29.134 -23.990 -13.683  1.00  0.00     0.169 HD
BRANCH  27  30
HETATM   30  C22 UNL     1      27.714 -23.441 -11.493  1.00  0.00     0.113 C 
BRANCH  30  31
HETATM   31  C23 UNL     1      27.151 -22.162 -10.955  1.00  0.00     0.122 C 
BRANCH  31  32
HETATM   32  C24 UNL     1      27.753 -21.919  -9.622  1.00  0.00     0.172 C 
HETATM   33  O6  UNL     1      27.403 -20.960  -8.895  1.00  0.00    -0.648 OA
HETATM   34  O7  UNL     1      28.738 -22.764  -9.145  1.00  0.00    -0.648 OA
ENDBRANCH  31  32
ENDBRANCH  30  31
ENDBRANCH  27  30
ENDBRANCH   6  26
BRANCH   1  35
HETATM   35  O1  UNL     1      27.755 -26.559 -14.659  1.00  0.00    -0.354 OA
HETATM   36  C1  UNL     1      26.603 -27.270 -14.284  1.00  0.00     0.210 C 
ENDBRANCH   1  35
TORSDOF 10
ENDMDL
