MODEL 8
REMARK VINA RESULT: -5.102078688      7.949      9.048
REMARK  2 active torsions:
REMARK  status: ('A' for Active; 'I' for Inactive)
REMARK    1  A    between atoms: C1_2  and  C2_4 
REMARK    2  A    between atoms: C7_9  and  O3_10 
ROOT
HETATM    1  C2  UNL     1      74.320  80.129  34.158  1.00  0.00     0.073 A 
HETATM    2  C3  UNL     1      75.317  79.643  35.010  1.00  0.00     0.021 A 
HETATM    3  C4  UNL     1      75.611  78.300  35.010  1.00  0.00     0.001 A 
HETATM    4  C5  UNL     1      74.956  77.403  34.198  1.00  0.00     0.003 A 
HETATM    5  C6  UNL     1      73.982  77.901  33.371  1.00  0.00     0.037 A 
HETATM    6  C7  UNL     1      73.652  79.275  33.342  1.00  0.00     0.082 A 
ENDROOT
BRANCH   1   7
HETATM    7  C1  UNL     1      74.029  81.546  34.175  1.00  0.00     0.212 C 
HETATM    8  O1  UNL     1      74.124  82.273  35.177  1.00  0.00    -0.644 OA
HETATM    9  O2  UNL     1      73.600  82.201  32.990  1.00  0.00    -0.644 OA
ENDBRANCH   1   7
BRANCH   6  10
HETATM   10  O3  UNL     1      72.668  79.678  32.487  1.00  0.00    -0.360 OA
ATOM     11  H3  UNL     1      71.787  79.322  32.504  1.00  0.00     0.217 HD
ENDBRANCH   6  10
TORSDOF 2
ENDMDL
