MODEL 15
REMARK VINA RESULT: -4.997083763      2.364      3.598
REMARK  2 active torsions:
REMARK  status: ('A' for Active; 'I' for Inactive)
REMARK    1  A    between atoms: C1_2  and  C2_4 
REMARK    2  A    between atoms: C7_9  and  O3_10 
ROOT
HETATM    1  C2  UNL     1      71.248  81.588  27.478  1.00  0.00     0.073 A 
HETATM    2  C3  UNL     1      70.832  80.395  28.076  1.00  0.00     0.021 A 
HETATM    3  C4  UNL     1      69.876  79.625  27.457  1.00  0.00     0.001 A 
HETATM    4  C5  UNL     1      69.304  79.986  26.259  1.00  0.00     0.003 A 
HETATM    5  C6  UNL     1      69.727  81.160  25.690  1.00  0.00     0.037 A 
HETATM    6  C7  UNL     1      70.707  81.977  26.296  1.00  0.00     0.082 A 
ENDROOT
BRANCH   1   7
HETATM    7  C1  UNL     1      72.256  82.381  28.148  1.00  0.00     0.212 C 
HETATM    8  O1  UNL     1      73.365  82.665  27.665  1.00  0.00    -0.644 OA
HETATM    9  O2  UNL     1      72.012  82.896  29.449  1.00  0.00    -0.644 OA
ENDBRANCH   1   7
BRANCH   6  10
HETATM   10  O3  UNL     1      71.065  83.128  25.656  1.00  0.00    -0.360 OA
ATOM     11  H3  UNL     1      71.335  83.915  26.116  1.00  0.00     0.217 HD
ENDBRANCH   6  10
TORSDOF 2
ENDMDL
