MODEL 10
REMARK VINA RESULT: -5.081791637      5.000      6.618
REMARK  2 active torsions:
REMARK  status: ('A' for Active; 'I' for Inactive)
REMARK    1  A    between atoms: C1_2  and  C2_4 
REMARK    2  A    between atoms: C7_9  and  O3_10 
ROOT
HETATM    1  C2  UNL     1      70.291  78.802  31.399  1.00  0.00     0.073 A 
HETATM    2  C3  UNL     1      69.836  78.155  30.245  1.00  0.00     0.021 A 
HETATM    3  C4  UNL     1      70.113  78.695  29.013  1.00  0.00     0.001 A 
HETATM    4  C5  UNL     1      70.827  79.862  28.865  1.00  0.00     0.003 A 
HETATM    5  C6  UNL     1      71.263  80.480  30.008  1.00  0.00     0.037 A 
HETATM    6  C7  UNL     1      70.998  79.955  31.293  1.00  0.00     0.082 A 
ENDROOT
BRANCH   1   7
HETATM    7  C1  UNL     1      69.988  78.214  32.686  1.00  0.00     0.212 C 
HETATM    8  O1  UNL     1      70.204  77.028  32.986  1.00  0.00    -0.644 OA
HETATM    9  O2  UNL     1      69.403  79.003  33.711  1.00  0.00    -0.644 OA
ENDBRANCH   1   7
BRANCH   6  10
HETATM   10  O3  UNL     1      71.472  80.640  32.374  1.00  0.00    -0.360 OA
ATOM     11  H3  UNL     1      71.068  81.435  32.703  1.00  0.00     0.217 HD
ENDBRANCH   6  10
TORSDOF 2
ENDMDL
