MODEL 4
REMARK VINA RESULT: -5.181180761      6.075      6.935
REMARK  2 active torsions:
REMARK  status: ('A' for Active; 'I' for Inactive)
REMARK    1  A    between atoms: C1_2  and  C2_4 
REMARK    2  A    between atoms: C7_9  and  O3_10 
ROOT
HETATM    1  C2  UNL     1      70.846  80.594  32.510  1.00  0.00     0.073 A 
HETATM    2  C3  UNL     1      71.054  79.858  31.339  1.00  0.00     0.021 A 
HETATM    3  C4  UNL     1      70.472  78.620  31.206  1.00  0.00     0.001 A 
HETATM    4  C5  UNL     1      69.684  78.068  32.190  1.00  0.00     0.003 A 
HETATM    5  C6  UNL     1      69.495  78.806  33.329  1.00  0.00     0.037 A 
HETATM    6  C7  UNL     1      70.076  80.082  33.503  1.00  0.00     0.082 A 
ENDROOT
BRANCH   1   7
HETATM    7  C1  UNL     1      71.469  81.895  32.627  1.00  0.00     0.212 C 
HETATM    8  O1  UNL     1      70.854  82.974  32.597  1.00  0.00    -0.644 OA
HETATM    9  O2  UNL     1      72.875  82.002  32.789  1.00  0.00    -0.644 OA
ENDBRANCH   1   7
BRANCH   6  10
HETATM   10  O3  UNL     1      69.831  80.744  34.671  1.00  0.00    -0.360 OA
ATOM     11  H3  UNL     1      70.464  81.320  35.083  1.00  0.00     0.217 HD
ENDBRANCH   6  10
TORSDOF 2
ENDMDL
