MODEL 6
REMARK VINA RESULT: -5.148270266      2.680      4.227
REMARK  2 active torsions:
REMARK  status: ('A' for Active; 'I' for Inactive)
REMARK    1  A    between atoms: C1_2  and  C2_4 
REMARK    2  A    between atoms: C7_9  and  O3_10 
ROOT
HETATM    1  C2  UNL     1      70.511  80.302  27.789  1.00  0.00     0.073 A 
HETATM    2  C3  UNL     1      69.484  79.802  26.982  1.00  0.00     0.021 A 
HETATM    3  C4  UNL     1      69.275  80.348  25.739  1.00  0.00     0.001 A 
HETATM    4  C5  UNL     1      70.044  81.379  25.249  1.00  0.00     0.003 A 
HETATM    5  C6  UNL     1      71.045  81.853  26.057  1.00  0.00     0.037 A 
HETATM    6  C7  UNL     1      71.291  81.318  27.341  1.00  0.00     0.082 A 
ENDROOT
BRANCH   1   7
HETATM    7  C1  UNL     1      70.713  79.711  29.095  1.00  0.00     0.212 C 
HETATM    8  O1  UNL     1      71.364  80.237  30.012  1.00  0.00    -0.644 OA
HETATM    9  O2  UNL     1      70.150  78.444  29.400  1.00  0.00    -0.644 OA
ENDBRANCH   1   7
BRANCH   6  10
HETATM   10  O3  UNL     1      72.310  81.854  28.073  1.00  0.00    -0.360 OA
ATOM     11  H3  UNL     1      72.823  82.598  27.781  1.00  0.00     0.217 HD
ENDBRANCH   6  10
TORSDOF 2
ENDMDL
