MODEL 18
REMARK VINA RESULT: -4.734086392      3.824      4.536
REMARK  3 active torsions:
REMARK  status: ('A' for Active; 'I' for Inactive)
REMARK    1  A    between atoms: C2_2  and  C4_4 
REMARK    2  A    between atoms: C4_4  and  C5_5 
REMARK    3  A    between atoms: C5_5  and  C6_7 
ROOT
HETATM    1  C5  UNL     1      -8.989 -32.175  17.889  1.00  0.00     0.183 C 
HETATM    2 CL1  UNL     1      -8.784 -33.340  19.176  1.00  0.00    -0.114 Cl
ENDROOT
BRANCH   1   3
HETATM    3  C4  UNL     1      -9.243 -32.782  16.539  1.00  0.00     0.035 C 
BRANCH   3   4
HETATM    4  C2  UNL     1      -8.350 -32.280  15.455  1.00  0.00    -0.021 C 
HETATM    5  C1  UNL     1      -6.977 -31.943  15.968  1.00  0.00     0.009 C 
HETATM    6  C3  UNL     1      -8.958 -30.972  14.946  1.00  0.00     0.009 C 
ENDBRANCH   3   4
ENDBRANCH   1   3
BRANCH   1   7
HETATM    7  C6  UNL     1     -10.046 -31.209  18.278  1.00  0.00     0.192 C 
HETATM    8  O1  UNL     1      -9.858 -30.255  19.049  1.00  0.00    -0.647 OA
HETATM    9  O2  UNL     1     -11.313 -31.424  17.718  1.00  0.00    -0.647 OA
ENDBRANCH   1   7
TORSDOF 3
ENDMDL
