MODEL 14
REMARK VINA RESULT: -4.932329804      3.867      4.902
REMARK  3 active torsions:
REMARK  status: ('A' for Active; 'I' for Inactive)
REMARK    1  A    between atoms: C2_2  and  C4_4 
REMARK    2  A    between atoms: C4_4  and  C5_5 
REMARK    3  A    between atoms: C5_5  and  C6_7 
ROOT
HETATM    1  C5  UNL     1      -9.642 -31.983  18.481  1.00  0.00     0.183 C 
HETATM    2 CL1  UNL     1      -9.782 -30.316  18.987  1.00  0.00    -0.114 Cl
ENDROOT
BRANCH   1   3
HETATM    3  C4  UNL     1      -8.712 -32.203  17.321  1.00  0.00     0.035 C 
BRANCH   3   4
HETATM    4  C2  UNL     1      -9.377 -32.210  15.986  1.00  0.00    -0.021 C 
HETATM    5  C1  UNL     1      -9.045 -30.981  15.185  1.00  0.00     0.009 C 
HETATM    6  C3  UNL     1     -10.885 -32.171  16.239  1.00  0.00     0.009 C 
ENDBRANCH   3   4
ENDBRANCH   1   3
BRANCH   1   7
HETATM    7  C6  UNL     1      -9.279 -32.814  19.655  1.00  0.00     0.192 C 
HETATM    8  O1  UNL     1     -10.032 -33.004  20.624  1.00  0.00    -0.647 OA
HETATM    9  O2  UNL     1      -8.006 -33.400  19.626  1.00  0.00    -0.647 OA
ENDBRANCH   1   7
TORSDOF 3
ENDMDL
