MODEL 1
REMARK VINA RESULT: -5.521374696      0.000      0.000
REMARK  3 active torsions:
REMARK  status: ('A' for Active; 'I' for Inactive)
REMARK    1  A    between atoms: C2_2  and  C4_4 
REMARK    2  A    between atoms: C4_4  and  C5_5 
REMARK    3  A    between atoms: C5_5  and  C6_7 
ROOT
HETATM    1  C5  UNL     1      -7.953 -30.720  14.794  1.00  0.00     0.183 C 
HETATM    2 CL1  UNL     1      -7.954 -29.052  14.272  1.00  0.00    -0.114 Cl
ENDROOT
BRANCH   1   3
HETATM    3  C4  UNL     1      -9.218 -31.155  15.479  1.00  0.00     0.035 C 
BRANCH   3   4
HETATM    4  C2  UNL     1      -9.024 -31.685  16.860  1.00  0.00    -0.021 C 
HETATM    5  C1  UNL     1      -8.657 -33.144  16.857  1.00  0.00     0.009 C 
HETATM    6  C3  UNL     1     -10.375 -31.578  17.571  1.00  0.00     0.009 C 
ENDBRANCH   3   4
ENDBRANCH   1   3
BRANCH   1   7
HETATM    7  C6  UNL     1      -7.615 -31.586  13.639  1.00  0.00     0.192 C 
HETATM    8  O1  UNL     1      -6.888 -32.590  13.719  1.00  0.00    -0.647 OA
HETATM    9  O2  UNL     1      -8.170 -31.214  12.406  1.00  0.00    -0.647 OA
ENDBRANCH   1   7
TORSDOF 3
ENDMDL
