MODEL 19
REMARK VINA RESULT: -4.691313408      3.771      4.714
REMARK  3 active torsions:
REMARK  status: ('A' for Active; 'I' for Inactive)
REMARK    1  A    between atoms: C2_2  and  C4_4 
REMARK    2  A    between atoms: C4_4  and  C5_5 
REMARK    3  A    between atoms: C5_5  and  C6_7 
ROOT
HETATM    1  C5  UNL     1      -8.506 -31.668  18.930  1.00  0.00     0.183 C 
HETATM    2 CL1  UNL     1      -6.864 -31.799  18.346  1.00  0.00    -0.114 Cl
ENDROOT
BRANCH   1   3
HETATM    3  C4  UNL     1      -9.475 -31.101  17.932  1.00  0.00     0.035 C 
BRANCH   3   4
HETATM    4  C2  UNL     1      -9.569 -31.866  16.654  1.00  0.00    -0.021 C 
HETATM    5  C1  UNL     1      -9.132 -31.045  15.472  1.00  0.00     0.009 C 
HETATM    6  C3  UNL     1     -11.048 -32.190  16.437  1.00  0.00     0.009 C 
ENDBRANCH   3   4
ENDBRANCH   1   3
BRANCH   1   7
HETATM    7  C6  UNL     1      -8.941 -32.990  19.444  1.00  0.00     0.192 C 
HETATM    8  O1  UNL     1      -8.489 -34.072  19.033  1.00  0.00    -0.647 OA
HETATM    9  O2  UNL     1      -9.917 -32.970  20.449  1.00  0.00    -0.647 OA
ENDBRANCH   1   7
TORSDOF 3
ENDMDL
