MODEL 6
REMARK VINA RESULT: -8.478681259      2.655      6.430
REMARK  8 active torsions:
REMARK  status: ('A' for Active; 'I' for Inactive)
REMARK    1  A    between atoms: N1_1  and  C1_5 
REMARK    2  A    between atoms: C1_5  and  C2_6 
REMARK    3  A    between atoms: C1_5  and  C12_22 
REMARK    4  A    between atoms: C2_6  and  C3_7 
REMARK    5  A    between atoms: C6_11  and  N2_12 
REMARK    6  A    between atoms: C8_16  and  C9_17 
REMARK    7  A    between atoms: C9_17  and  C10_18 
REMARK    8  A    between atoms: C10_18  and  C11_19 
ROOT
HETATM    1  C3  UNL     1      -3.315  26.647  54.507  1.00  0.00    -0.044 A 
HETATM    2  C4  UNL     1      -2.338  25.894  53.896  1.00  0.00     0.034 A 
HETATM    3  C5  UNL     1      -1.358  25.224  54.621  1.00  0.00     0.067 A 
HETATM    4 CL1  UNL     1      -0.108  24.267  53.843  1.00  0.00    -0.082 Cl
HETATM    5  C6  UNL     1      -1.335  25.294  55.985  1.00  0.00     0.125 A 
HETATM    6  C7  UNL     1      -2.305  26.045  56.591  1.00  0.00     0.049 A 
HETATM    7  C8  UNL     1      -3.306  26.733  55.882  1.00  0.00    -0.031 A 
ENDROOT
BRANCH   1   8
HETATM    8  C2  UNL     1      -4.385  27.217  53.720  1.00  0.00     0.083 C 
BRANCH   8   9
HETATM    9  C1  UNL     1      -5.387  26.345  53.081  1.00  0.00     0.287 C 
BRANCH   9  10
HETATM   10  N1  UNL     1      -6.425  27.067  52.404  1.00  0.00    -0.065 N 
ATOM     11  H13 UNL     1      -6.598  27.962  52.860  1.00  0.00     0.275 HD
ATOM     12  H12 UNL     1      -6.100  27.399  51.497  1.00  0.00     0.275 HD
ATOM     13  H11 UNL     1      -7.291  26.538  52.306  1.00  0.00     0.275 HD
ENDBRANCH   9  10
BRANCH   9  14
HETATM   14  C12 UNL     1      -5.983  25.478  54.130  1.00  0.00     0.204 C 
HETATM   15  O5  UNL     1      -6.837  25.825  54.972  1.00  0.00    -0.646 OA
HETATM   16  O6  UNL     1      -5.532  24.161  54.163  1.00  0.00    -0.646 OA
ENDBRANCH   9  14
ENDBRANCH   8   9
ENDBRANCH   1   8
BRANCH   7  17
HETATM   17  C9  UNL     1      -4.248  27.607  56.563  1.00  0.00    -0.004 C 
BRANCH  17  18
HETATM   18  C10 UNL     1      -4.260  27.763  58.002  1.00  0.00     0.141 C 
BRANCH  18  19
HETATM   19  C11 UNL     1      -5.397  28.477  58.634  1.00  0.00     0.176 C 
HETATM   20  O3  UNL     1      -5.541  29.691  58.767  1.00  0.00    -0.648 OA
HETATM   21  O4  UNL     1      -6.469  27.683  59.154  1.00  0.00    -0.648 OA
ENDBRANCH  18  19
ENDBRANCH  17  18
ENDBRANCH   7  17
BRANCH   5  22
HETATM   22  N2  UNL     1      -0.328  24.593  56.736  1.00  0.00    -0.114 N 
HETATM   23  O1  UNL     1       0.571  25.165  57.360  1.00  0.00    -0.532 OA
HETATM   24  O2  UNL     1      -0.341  23.211  56.784  1.00  0.00    -0.532 OA
ENDBRANCH   5  22
TORSDOF 8
ENDMDL
