MODEL 1
REMARK VINA RESULT: -8.897893110      0.000      0.000
REMARK  8 active torsions:
REMARK  status: ('A' for Active; 'I' for Inactive)
REMARK    1  A    between atoms: N1_1  and  C1_5 
REMARK    2  A    between atoms: C1_5  and  C2_6 
REMARK    3  A    between atoms: C1_5  and  C12_22 
REMARK    4  A    between atoms: C2_6  and  C3_7 
REMARK    5  A    between atoms: C6_11  and  N2_12 
REMARK    6  A    between atoms: C8_16  and  C9_17 
REMARK    7  A    between atoms: C9_17  and  C10_18 
REMARK    8  A    between atoms: C10_18  and  C11_19 
ROOT
HETATM    1  C3  UNL     1      -3.101  26.841  56.134  1.00  0.00    -0.044 A 
HETATM    2  C4  UNL     1      -3.716  27.484  57.185  1.00  0.00     0.034 A 
HETATM    3  C5  UNL     1      -5.008  27.991  57.087  1.00  0.00     0.067 A 
HETATM    4 CL1  UNL     1      -5.793  28.815  58.424  1.00  0.00    -0.082 Cl
HETATM    5  C6  UNL     1      -5.717  27.865  55.927  1.00  0.00     0.125 A 
HETATM    6  C7  UNL     1      -5.103  27.228  54.883  1.00  0.00     0.049 A 
HETATM    7  C8  UNL     1      -3.799  26.707  54.954  1.00  0.00    -0.031 A 
ENDROOT
BRANCH   1   8
HETATM    8  C2  UNL     1      -1.810  26.218  56.325  1.00  0.00     0.083 C 
BRANCH   8   9
HETATM    9  C1  UNL     1      -1.702  24.921  57.016  1.00  0.00     0.287 C 
BRANCH   9  10
HETATM   10  N1  UNL     1      -2.102  24.971  58.392  1.00  0.00    -0.065 N 
ATOM     11  H13 UNL     1      -1.305  24.798  59.006  1.00  0.00     0.275 HD
ATOM     12  H12 UNL     1      -2.324  25.927  58.669  1.00  0.00     0.275 HD
ATOM     13  H11 UNL     1      -2.873  24.342  58.616  1.00  0.00     0.275 HD
ENDBRANCH   9  10
BRANCH   9  14
HETATM   14  C12 UNL     1      -0.293  24.462  56.920  1.00  0.00     0.204 C 
HETATM   15  O5  UNL     1       0.703  25.042  57.401  1.00  0.00    -0.646 OA
HETATM   16  O6  UNL     1      -0.083  23.276  56.223  1.00  0.00    -0.646 OA
ENDBRANCH   9  14
ENDBRANCH   8   9
ENDBRANCH   1   8
BRANCH   7  17
HETATM   17  C9  UNL     1      -3.149  26.138  53.785  1.00  0.00    -0.004 C 
BRANCH  17  18
HETATM   18  C10 UNL     1      -3.895  25.613  52.661  1.00  0.00     0.141 C 
BRANCH  18  19
HETATM   19  C11 UNL     1      -4.401  24.219  52.727  1.00  0.00     0.176 C 
HETATM   20  O3  UNL     1      -4.607  23.541  53.731  1.00  0.00    -0.648 OA
HETATM   21  O4  UNL     1      -4.698  23.566  51.488  1.00  0.00    -0.648 OA
ENDBRANCH  18  19
ENDBRANCH  17  18
ENDBRANCH   7  17
BRANCH   5  22
HETATM   22  N2  UNL     1      -7.057  28.380  55.829  1.00  0.00    -0.114 N 
HETATM   23  O1  UNL     1      -7.310  29.559  55.563  1.00  0.00    -0.532 OA
HETATM   24  O2  UNL     1      -8.135  27.539  56.034  1.00  0.00    -0.532 OA
ENDBRANCH   5  22
TORSDOF 8
ENDMDL
