MODEL 5
REMARK VINA RESULT: -8.492012031      1.468      1.622
REMARK  8 active torsions:
REMARK  status: ('A' for Active; 'I' for Inactive)
REMARK    1  A    between atoms: N1_1  and  C1_5 
REMARK    2  A    between atoms: C1_5  and  C2_6 
REMARK    3  A    between atoms: C1_5  and  C12_22 
REMARK    4  A    between atoms: C2_6  and  C3_7 
REMARK    5  A    between atoms: C6_11  and  N2_12 
REMARK    6  A    between atoms: C8_16  and  C9_17 
REMARK    7  A    between atoms: C9_17  and  C10_18 
REMARK    8  A    between atoms: C10_18  and  C11_19 
ROOT
HETATM    1  C3  UNL     1      -3.419  26.473  55.966  1.00  0.00    -0.044 A 
HETATM    2  C4  UNL     1      -3.906  27.461  56.791  1.00  0.00     0.034 A 
HETATM    3  C5  UNL     1      -5.243  27.846  56.775  1.00  0.00     0.067 A 
HETATM    4 CL1  UNL     1      -5.866  29.109  57.824  1.00  0.00    -0.082 Cl
HETATM    5  C6  UNL     1      -6.128  27.244  55.926  1.00  0.00     0.125 A 
HETATM    6  C7  UNL     1      -5.641  26.264  55.105  1.00  0.00     0.049 A 
HETATM    7  C8  UNL     1      -4.295  25.857  55.099  1.00  0.00    -0.031 A 
ENDROOT
BRANCH   1   8
HETATM    8  C2  UNL     1      -2.054  26.020  56.110  1.00  0.00     0.083 C 
BRANCH   8   9
HETATM    9  C1  UNL     1      -1.741  24.850  56.949  1.00  0.00     0.287 C 
BRANCH   9  10
HETATM   10  N1  UNL     1      -2.037  25.046  58.338  1.00  0.00    -0.065 N 
ATOM     11  H13 UNL     1      -1.183  25.221  58.869  1.00  0.00     0.275 HD
ATOM     12  H12 UNL     1      -2.511  25.937  58.484  1.00  0.00     0.275 HD
ATOM     13  H11 UNL     1      -2.570  24.282  58.754  1.00  0.00     0.275 HD
ENDBRANCH   9  10
BRANCH   9  14
HETATM   14  C12 UNL     1      -0.298  24.535  56.785  1.00  0.00     0.204 C 
HETATM   15  O5  UNL     1       0.647  25.092  57.381  1.00  0.00    -0.646 OA
HETATM   16  O6  UNL     1       0.008  23.526  55.876  1.00  0.00    -0.646 OA
ENDBRANCH   9  14
ENDBRANCH   8   9
ENDBRANCH   1   8
BRANCH   7  17
HETATM   17  C9  UNL     1      -3.804  24.890  54.132  1.00  0.00    -0.004 C 
BRANCH  17  18
HETATM   18  C10 UNL     1      -3.500  25.248  52.762  1.00  0.00     0.141 C 
BRANCH  18  19
HETATM   19  C11 UNL     1      -2.119  25.673  52.424  1.00  0.00     0.176 C 
HETATM   20  O3  UNL     1      -1.773  26.667  51.789  1.00  0.00    -0.648 OA
HETATM   21  O4  UNL     1      -1.043  24.848  52.884  1.00  0.00    -0.648 OA
ENDBRANCH  18  19
ENDBRANCH  17  18
ENDBRANCH   7  17
BRANCH   5  22
HETATM   22  N2  UNL     1      -7.513  27.634  55.917  1.00  0.00    -0.114 N 
HETATM   23  O1  UNL     1      -7.901  28.740  55.528  1.00  0.00    -0.532 OA
HETATM   24  O2  UNL     1      -8.481  26.749  56.356  1.00  0.00    -0.532 OA
ENDBRANCH   5  22
TORSDOF 8
ENDMDL
