MODEL 3
REMARK VINA RESULT: -8.742086355      2.008      4.490
REMARK  8 active torsions:
REMARK  status: ('A' for Active; 'I' for Inactive)
REMARK    1  A    between atoms: N1_1  and  C1_5 
REMARK    2  A    between atoms: C1_5  and  C2_6 
REMARK    3  A    between atoms: C1_5  and  C12_22 
REMARK    4  A    between atoms: C2_6  and  C3_7 
REMARK    5  A    between atoms: C6_11  and  N2_12 
REMARK    6  A    between atoms: C8_16  and  C9_17 
REMARK    7  A    between atoms: C9_17  and  C10_18 
REMARK    8  A    between atoms: C10_18  and  C11_19 
ROOT
HETATM    1  C3  UNL     1      -4.321  26.485  55.332  1.00  0.00    -0.044 A 
HETATM    2  C4  UNL     1      -5.610  26.953  55.455  1.00  0.00     0.034 A 
HETATM    3  C5  UNL     1      -6.021  27.709  56.548  1.00  0.00     0.067 A 
HETATM    4 CL1  UNL     1      -7.665  28.304  56.708  1.00  0.00    -0.082 Cl
HETATM    5  C6  UNL     1      -5.144  28.015  57.549  1.00  0.00     0.125 A 
HETATM    6  C7  UNL     1      -3.864  27.547  57.426  1.00  0.00     0.049 A 
HETATM    7  C8  UNL     1      -3.422  26.780  56.334  1.00  0.00    -0.031 A 
ENDROOT
BRANCH   1   8
HETATM    8  C2  UNL     1      -3.908  25.816  54.119  1.00  0.00     0.083 C 
BRANCH   8   9
HETATM    9  C1  UNL     1      -4.708  24.707  53.569  1.00  0.00     0.287 C 
BRANCH   9  10
HETATM   10  N1  UNL     1      -4.696  23.531  54.389  1.00  0.00    -0.065 N 
ATOM     11  H13 UNL     1      -5.350  22.835  54.032  1.00  0.00     0.275 HD
ATOM     12  H12 UNL     1      -3.823  23.018  54.273  1.00  0.00     0.275 HD
ATOM     13  H11 UNL     1      -4.874  23.721  55.376  1.00  0.00     0.275 HD
ENDBRANCH   9  10
BRANCH   9  14
HETATM   14  C12 UNL     1      -4.180  24.381  52.219  1.00  0.00     0.204 C 
HETATM   15  O5  UNL     1      -4.693  23.587  51.403  1.00  0.00    -0.646 OA
HETATM   16  O6  UNL     1      -3.004  25.026  51.850  1.00  0.00    -0.646 OA
ENDBRANCH   9  14
ENDBRANCH   8   9
ENDBRANCH   1   8
BRANCH   7  17
HETATM   17  C9  UNL     1      -2.084  26.212  56.302  1.00  0.00    -0.004 C 
BRANCH  17  18
HETATM   18  C10 UNL     1      -1.710  25.063  57.100  1.00  0.00     0.141 C 
BRANCH  18  19
HETATM   19  C11 UNL     1      -0.380  24.443  56.881  1.00  0.00     0.176 C 
HETATM   20  O3  UNL     1      -0.117  23.445  56.213  1.00  0.00    -0.648 OA
HETATM   21  O4  UNL     1       0.749  25.065  57.504  1.00  0.00    -0.648 OA
ENDBRANCH  18  19
ENDBRANCH  17  18
ENDBRANCH   7  17
BRANCH   5  22
HETATM   22  N2  UNL     1      -5.566  28.806  58.674  1.00  0.00    -0.114 N 
HETATM   23  O1  UNL     1      -5.413  30.030  58.736  1.00  0.00    -0.532 OA
HETATM   24  O2  UNL     1      -6.178  28.196  59.754  1.00  0.00    -0.532 OA
ENDBRANCH   5  22
TORSDOF 8
ENDMDL
