MODEL 7
REMARK VINA RESULT: -8.452219740      3.771      6.928
REMARK  8 active torsions:
REMARK  status: ('A' for Active; 'I' for Inactive)
REMARK    1  A    between atoms: N1_1  and  C1_5 
REMARK    2  A    between atoms: C1_5  and  C2_6 
REMARK    3  A    between atoms: C1_5  and  C12_22 
REMARK    4  A    between atoms: C2_6  and  C3_7 
REMARK    5  A    between atoms: C6_11  and  N2_12 
REMARK    6  A    between atoms: C8_16  and  C9_17 
REMARK    7  A    between atoms: C9_17  and  C10_18 
REMARK    8  A    between atoms: C10_18  and  C11_19 
ROOT
HETATM    1  C3  UNL     1      -2.446  26.391  53.160  1.00  0.00    -0.044 A 
HETATM    2  C4  UNL     1      -2.002  26.917  51.967  1.00  0.00     0.034 A 
HETATM    3  C5  UNL     1      -0.738  26.635  51.459  1.00  0.00     0.067 A 
HETATM    4 CL1  UNL     1      -0.168  27.308  49.940  1.00  0.00    -0.082 Cl
HETATM    5  C6  UNL     1       0.116  25.814  52.140  1.00  0.00     0.125 A 
HETATM    6  C7  UNL     1      -0.326  25.295  53.326  1.00  0.00     0.049 A 
HETATM    7  C8  UNL     1      -1.597  25.564  53.863  1.00  0.00    -0.031 A 
ENDROOT
BRANCH   1   8
HETATM    8  C2  UNL     1      -3.811  26.609  53.580  1.00  0.00     0.083 C 
BRANCH   8   9
HETATM    9  C1  UNL     1      -4.927  25.982  52.849  1.00  0.00     0.287 C 
BRANCH   9  10
HETATM   10  N1  UNL     1      -6.119  26.778  52.832  1.00  0.00    -0.065 N 
ATOM     11  H13 UNL     1      -6.718  26.515  52.050  1.00  0.00     0.275 HD
ATOM     12  H12 UNL     1      -6.732  26.527  53.607  1.00  0.00     0.275 HD
ATOM     13  H11 UNL     1      -5.938  27.783  52.826  1.00  0.00     0.275 HD
ENDBRANCH   9  10
BRANCH   9  14
HETATM   14  C12 UNL     1      -5.212  24.667  53.478  1.00  0.00     0.204 C 
HETATM   15  O5  UNL     1      -6.065  24.446  54.362  1.00  0.00    -0.646 OA
HETATM   16  O6  UNL     1      -4.446  23.595  53.029  1.00  0.00    -0.646 OA
ENDBRANCH   9  14
ENDBRANCH   8   9
ENDBRANCH   1   8
BRANCH   7  17
HETATM   17  C9  UNL     1      -1.979  25.079  55.179  1.00  0.00    -0.004 C 
BRANCH  17  18
HETATM   18  C10 UNL     1      -1.305  25.502  56.388  1.00  0.00     0.141 C 
BRANCH  18  19
HETATM   19  C11 UNL     1      -0.198  24.668  56.918  1.00  0.00     0.176 C 
HETATM   20  O3  UNL     1       0.751  25.030  57.609  1.00  0.00    -0.648 OA
HETATM   21  O4  UNL     1      -0.218  23.270  56.607  1.00  0.00    -0.648 OA
ENDBRANCH  18  19
ENDBRANCH  17  18
ENDBRANCH   7  17
BRANCH   5  22
HETATM   22  N2  UNL     1       1.419  25.514  51.610  1.00  0.00    -0.114 N 
HETATM   23  O1  UNL     1       1.684  24.463  51.019  1.00  0.00    -0.532 OA
HETATM   24  O2  UNL     1       2.447  26.429  51.750  1.00  0.00    -0.532 OA
ENDBRANCH   5  22
TORSDOF 8
ENDMDL
