MODEL 1
REMARK VINA RESULT: -10.872451030      0.000      0.000
REMARK  4 active torsions:
REMARK  status: ('A' for Active; 'I' for Inactive)
REMARK    1  A    between atoms: C1_2  and  C2_4 
REMARK    2  A    between atoms: C5_7  and  C6_8 
REMARK    3  A    between atoms: C7_11  and  C8_12 
REMARK    4  A    between atoms: C15_21  and  C16_22 
ROOT
HETATM    1  C6  UNL     1       3.957   8.839   8.493  1.00  0.00     0.116 A 
HETATM    2  N2  UNL     1       4.868   9.753   8.054  1.00  0.00    -0.339 N 
ATOM      3  H2  UNL     1       5.384  10.412   8.637  1.00  0.00     0.167 HD
HETATM    4  C7  UNL     1       4.969   9.633   6.721  1.00  0.00     0.073 A 
HETATM    5  C15 UNL     1       4.116   8.638   6.305  1.00  0.00     0.088 A 
HETATM    6  N4  UNL     1       3.512   8.173   7.418  1.00  0.00    -0.338 N 
ATOM      7  H4  UNL     1       2.819   7.424   7.439  1.00  0.00     0.167 HD
ENDROOT
BRANCH   1   8
HETATM    8  C5  UNL     1       3.586   8.680   9.901  1.00  0.00     0.008 A 
HETATM    9  C4  UNL     1       2.419   8.060  10.277  1.00  0.00     0.016 A 
HETATM   10  C3  UNL     1       2.060   7.904  11.595  1.00  0.00     0.017 A 
HETATM   11  C2  UNL     1       2.891   8.384  12.581  1.00  0.00     0.029 A 
HETATM   12  C22 UNL     1       4.059   9.005  12.202  1.00  0.00     0.017 A 
HETATM   13  C21 UNL     1       4.411   9.156  10.880  1.00  0.00     0.016 A 
BRANCH  11  14
HETATM   14  C1  UNL     1       2.560   8.246  13.981  1.00  0.00     0.264 C 
HETATM   15  N1  UNL     1       2.857   9.285  14.880  1.00  0.00    -0.057 NA
HETATM   16  O1  UNL     1       2.012   7.199  14.378  1.00  0.00    -0.271 OA
ENDBRANCH  11  14
ENDBRANCH   1   8
BRANCH   4  17
HETATM   17  C8  UNL     1       5.828  10.412   5.821  1.00  0.00    -0.004 A 
HETATM   18  C9  UNL     1       5.306  11.248   4.861  1.00  0.00     0.017 A 
HETATM   19  C10 UNL     1       6.140  11.960   4.041  1.00  0.00     0.040 A 
HETATM   20  C11 UNL     1       7.518  11.858   4.154  1.00  0.00     0.105 A 
HETATM   21  C12 UNL     1       8.052  11.030   5.104  1.00  0.00     0.105 A 
HETATM   22  O3  UNL     1       8.587  12.431   3.492  1.00  0.00    -0.323 OA
HETATM   23  C13 UNL     1       7.205  10.330   5.910  1.00  0.00     0.053 A 
HETATM   24  O2  UNL     1       9.433  11.069   5.055  1.00  0.00    -0.323 OA
HETATM   25  C14 UNL     1       9.800  12.116   4.158  1.00  0.00     0.352 C 
ENDBRANCH   4  17
BRANCH   5  26
HETATM   26  C16 UNL     1       3.933   8.201   4.931  1.00  0.00     0.061 A 
HETATM   27  C17 UNL     1       2.658   8.098   4.363  1.00  0.00     0.032 A 
HETATM   28  C18 UNL     1       2.478   7.684   3.062  1.00  0.00     0.004 A 
HETATM   29  C19 UNL     1       3.573   7.358   2.284  1.00  0.00     0.017 A 
HETATM   30  C20 UNL     1       4.821   7.464   2.856  1.00  0.00     0.088 A 
HETATM   31  N3  UNL     1       4.965   7.870   4.128  1.00  0.00    -0.364 N 
ATOM     32  H3  UNL     1       5.909   7.932   4.508  1.00  0.00     0.165 HD
ENDBRANCH   5  26
TORSDOF 4
ENDMDL
