MODEL 2
REMARK VINA RESULT: -10.791073520      0.500      1.237
REMARK  4 active torsions:
REMARK  status: ('A' for Active; 'I' for Inactive)
REMARK    1  A    between atoms: C1_2  and  C2_4 
REMARK    2  A    between atoms: C5_7  and  C6_8 
REMARK    3  A    between atoms: C7_11  and  C8_12 
REMARK    4  A    between atoms: C15_21  and  C16_22 
ROOT
HETATM    1  C6  UNL     1       3.984   8.885   8.544  1.00  0.00     0.116 A 
HETATM    2  N2  UNL     1       4.901   9.789   8.096  1.00  0.00    -0.339 N 
ATOM      3  H2  UNL     1       5.429  10.443   8.672  1.00  0.00     0.167 HD
HETATM    4  C7  UNL     1       4.987   9.666   6.761  1.00  0.00     0.073 A 
HETATM    5  C15 UNL     1       4.119   8.679   6.355  1.00  0.00     0.088 A 
HETATM    6  N4  UNL     1       3.522   8.222   7.476  1.00  0.00    -0.338 N 
ATOM      7  H4  UNL     1       2.822   7.480   7.505  1.00  0.00     0.167 HD
ENDROOT
BRANCH   1   8
HETATM    8  C5  UNL     1       3.626   8.732   9.957  1.00  0.00     0.008 A 
HETATM    9  C4  UNL     1       4.426   9.219  10.963  1.00  0.00     0.016 A 
HETATM   10  C3  UNL     1       4.100   9.082  12.292  1.00  0.00     0.017 A 
HETATM   11  C2  UNL     1       2.938   8.434  12.638  1.00  0.00     0.029 A 
HETATM   12  C22 UNL     1       2.139   7.946  11.629  1.00  0.00     0.017 A 
HETATM   13  C21 UNL     1       2.472   8.088  10.300  1.00  0.00     0.016 A 
BRANCH  11  14
HETATM   14  C1  UNL     1       2.551   8.263  14.020  1.00  0.00     0.264 C 
HETATM   15  N1  UNL     1       2.820   9.275  14.958  1.00  0.00    -0.057 NA
HETATM   16  O1  UNL     1       1.979   7.210  14.367  1.00  0.00    -0.271 OA
ENDBRANCH  11  14
ENDBRANCH   1   8
BRANCH   4  17
HETATM   17  C8  UNL     1       5.845  10.434   5.852  1.00  0.00    -0.004 A 
HETATM   18  C9  UNL     1       5.322  11.269   4.891  1.00  0.00     0.017 A 
HETATM   19  C10 UNL     1       6.154  11.972   4.062  1.00  0.00     0.040 A 
HETATM   20  C11 UNL     1       7.533  11.862   4.166  1.00  0.00     0.105 A 
HETATM   21  C12 UNL     1       8.068  11.035   5.116  1.00  0.00     0.105 A 
HETATM   22  O3  UNL     1       8.601  12.424   3.494  1.00  0.00    -0.323 OA
HETATM   23  C13 UNL     1       7.221  10.344   5.932  1.00  0.00     0.053 A 
HETATM   24  O2  UNL     1       9.449  11.064   5.058  1.00  0.00    -0.323 OA
HETATM   25  C14 UNL     1       9.816  12.104   4.153  1.00  0.00     0.352 C 
ENDBRANCH   4  17
BRANCH   5  26
HETATM   26  C16 UNL     1       3.918   8.242   4.984  1.00  0.00     0.061 A 
HETATM   27  C17 UNL     1       4.995   7.871   4.172  1.00  0.00     0.032 A 
HETATM   28  C18 UNL     1       4.811   7.457   2.872  1.00  0.00     0.004 A 
HETATM   29  C19 UNL     1       3.537   7.402   2.339  1.00  0.00     0.017 A 
HETATM   30  C20 UNL     1       2.486   7.770   3.150  1.00  0.00     0.088 A 
HETATM   31  N3  UNL     1       2.697   8.169   4.414  1.00  0.00    -0.364 N 
ATOM     32  H3  UNL     1       1.888   8.433   4.976  1.00  0.00     0.165 HD
ENDBRANCH   5  26
TORSDOF 4
ENDMDL
