MODEL 3
REMARK VINA RESULT: -10.748861490      0.652      1.085
REMARK  4 active torsions:
REMARK  status: ('A' for Active; 'I' for Inactive)
REMARK    1  A    between atoms: C1_2  and  C2_4 
REMARK    2  A    between atoms: C5_7  and  C6_8 
REMARK    3  A    between atoms: C7_11  and  C8_12 
REMARK    4  A    between atoms: C15_21  and  C16_22 
ROOT
HETATM    1  C6  UNL     1       3.995   8.646   8.637  1.00  0.00     0.116 A 
HETATM    2  N2  UNL     1       4.919   9.559   8.225  1.00  0.00    -0.339 N 
ATOM      3  H2  UNL     1       5.456  10.182   8.827  1.00  0.00     0.167 HD
HETATM    4  C7  UNL     1       4.999   9.494   6.886  1.00  0.00     0.073 A 
HETATM    5  C15 UNL     1       4.120   8.535   6.440  1.00  0.00     0.088 A 
HETATM    6  N4  UNL     1       3.522   8.036   7.542  1.00  0.00    -0.338 N 
ATOM      7  H4  UNL     1       2.814   7.301   7.541  1.00  0.00     0.167 HD
ENDROOT
BRANCH   1   8
HETATM    8  C5  UNL     1       3.640   8.434  10.042  1.00  0.00     0.008 A 
HETATM    9  C4  UNL     1       4.324   9.053  11.063  1.00  0.00     0.016 A 
HETATM   10  C3  UNL     1       4.000   8.862  12.385  1.00  0.00     0.017 A 
HETATM   11  C2  UNL     1       2.959   8.025  12.711  1.00  0.00     0.029 A 
HETATM   12  C22 UNL     1       2.277   7.406  11.688  1.00  0.00     0.017 A 
HETATM   13  C21 UNL     1       2.607   7.603  10.366  1.00  0.00     0.016 A 
BRANCH  11  14
HETATM   14  C1  UNL     1       2.580   7.790  14.086  1.00  0.00     0.264 C 
HETATM   15  N1  UNL     1       1.406   7.075  14.380  1.00  0.00    -0.057 NA
HETATM   16  O1  UNL     1       3.303   8.230  15.001  1.00  0.00    -0.271 OA
ENDBRANCH  11  14
ENDBRANCH   1   8
BRANCH   4  17
HETATM   17  C8  UNL     1       5.862  10.293   6.008  1.00  0.00    -0.004 A 
HETATM   18  C9  UNL     1       5.344  11.152   5.066  1.00  0.00     0.017 A 
HETATM   19  C10 UNL     1       6.181  11.882   4.265  1.00  0.00     0.040 A 
HETATM   20  C11 UNL     1       7.559  11.777   4.381  1.00  0.00     0.105 A 
HETATM   21  C12 UNL     1       8.089  10.927   5.314  1.00  0.00     0.105 A 
HETATM   22  O3  UNL     1       8.631  12.365   3.737  1.00  0.00    -0.323 OA
HETATM   23  C13 UNL     1       7.238  10.209   6.100  1.00  0.00     0.053 A 
HETATM   24  O2  UNL     1       9.470  10.966   5.271  1.00  0.00    -0.323 OA
HETATM   25  C14 UNL     1       9.841  12.033   4.400  1.00  0.00     0.352 C 
ENDBRANCH   4  17
BRANCH   5  26
HETATM   26  C16 UNL     1       3.909   8.162   5.052  1.00  0.00     0.061 A 
HETATM   27  C17 UNL     1       2.624   8.102   4.501  1.00  0.00     0.032 A 
HETATM   28  C18 UNL     1       2.418   7.748   3.186  1.00  0.00     0.004 A 
HETATM   29  C19 UNL     1       3.495   7.440   2.377  1.00  0.00     0.017 A 
HETATM   30  C20 UNL     1       4.753   7.504   2.933  1.00  0.00     0.088 A 
HETATM   31  N3  UNL     1       4.924   7.852   4.218  1.00  0.00    -0.364 N 
ATOM     32  H3  UNL     1       5.874   7.884   4.586  1.00  0.00     0.165 HD
ENDBRANCH   5  26
TORSDOF 4
ENDMDL
