MODEL 4
REMARK VINA RESULT: -10.537676096      2.409      4.426
REMARK  4 active torsions:
REMARK  status: ('A' for Active; 'I' for Inactive)
REMARK    1  A    between atoms: C1_2  and  C2_4 
REMARK    2  A    between atoms: C5_7  and  C6_8 
REMARK    3  A    between atoms: C7_11  and  C8_12 
REMARK    4  A    between atoms: C15_21  and  C16_22 
ROOT
HETATM    1  C6  UNL     1       4.325   8.811   8.619  1.00  0.00     0.116 A 
HETATM    2  N2  UNL     1       3.865   8.085   7.561  1.00  0.00    -0.339 N 
ATOM      3  H2  UNL     1       3.227   7.292   7.611  1.00  0.00     0.167 HD
HETATM    4  C7  UNL     1       4.400   8.599   6.442  1.00  0.00     0.073 A 
HETATM    5  C15 UNL     1       5.207   9.658   6.787  1.00  0.00     0.088 A 
HETATM    6  N4  UNL     1       5.136   9.759   8.131  1.00  0.00    -0.338 N 
ATOM      7  H4  UNL     1       5.628  10.455   8.692  1.00  0.00     0.167 HD
ENDROOT
BRANCH   1   8
HETATM    8  C5  UNL     1       3.952   8.537  10.009  1.00  0.00     0.008 A 
HETATM    9  C4  UNL     1       3.069   7.536  10.338  1.00  0.00     0.016 A 
HETATM   10  C3  UNL     1       2.711   7.269  11.639  1.00  0.00     0.017 A 
HETATM   11  C2  UNL     1       3.249   8.024  12.654  1.00  0.00     0.029 A 
HETATM   12  C22 UNL     1       4.133   9.026  12.323  1.00  0.00     0.017 A 
HETATM   13  C21 UNL     1       4.486   9.286  11.018  1.00  0.00     0.016 A 
BRANCH  11  14
HETATM   14  C1  UNL     1       2.906   7.784  14.038  1.00  0.00     0.264 C 
HETATM   15  N1  UNL     1       3.735   8.270  15.064  1.00  0.00    -0.057 NA
HETATM   16  O1  UNL     1       1.870   7.143  14.306  1.00  0.00    -0.271 OA
ENDBRANCH  11  14
ENDBRANCH   1   8
BRANCH   4  17
HETATM   17  C8  UNL     1       4.187   8.139   5.064  1.00  0.00    -0.004 A 
HETATM   18  C9  UNL     1       5.235   7.945   4.193  1.00  0.00     0.017 A 
HETATM   19  C10 UNL     1       4.998   7.514   2.916  1.00  0.00     0.040 A 
HETATM   20  C11 UNL     1       3.709   7.263   2.470  1.00  0.00     0.105 A 
HETATM   21  C12 UNL     1       2.656   7.451   3.324  1.00  0.00     0.105 A 
HETATM   22  O3  UNL     1       3.167   6.833   1.274  1.00  0.00    -0.323 OA
HETATM   23  C13 UNL     1       2.915   7.881   4.592  1.00  0.00     0.053 A 
HETATM   24  O2  UNL     1       1.464   7.149   2.694  1.00  0.00    -0.323 OA
HETATM   25  C14 UNL     1       1.784   6.558   1.435  1.00  0.00     0.352 C 
ENDBRANCH   4  17
BRANCH   5  26
HETATM   26  C16 UNL     1       5.964  10.480   5.859  1.00  0.00     0.061 A 
HETATM   27  C17 UNL     1       5.326  11.271   4.898  1.00  0.00     0.032 A 
HETATM   28  C18 UNL     1       6.038  12.052   4.015  1.00  0.00     0.004 A 
HETATM   29  C19 UNL     1       7.419  12.067   4.066  1.00  0.00     0.017 A 
HETATM   30  C20 UNL     1       8.034  11.284   5.018  1.00  0.00     0.088 A 
HETATM   31  N3  UNL     1       7.312  10.532   5.865  1.00  0.00    -0.364 N 
ATOM     32  H3  UNL     1       7.812   9.968   6.551  1.00  0.00     0.165 HD
ENDBRANCH   5  26
TORSDOF 4
ENDMDL
