MODEL 8
REMARK VINA RESULT: -6.852088403      3.970      6.723
REMARK  2 active torsions:
REMARK  status: ('A' for Active; 'I' for Inactive)
REMARK    1  A    between atoms: N5_13  and  C6_14 
REMARK    2  A    between atoms: C10_24  and  O6_25 
ROOT
HETATM    1  N1  UNL     1      -8.413 -23.764  -8.864  1.00  0.00    -0.080 NA
HETATM    2  C1  UNL     1      -8.405 -22.346  -8.965  1.00  0.00     0.148 A 
HETATM    3  N2  UNL     1      -9.387 -21.633  -9.531  1.00  0.00    -0.339 N 
ATOM      4  H2  UNL     1     -10.197 -22.119  -9.917  1.00  0.00     0.167 HD
HETATM    5  C2  UNL     1      -9.332 -20.289  -9.605  1.00  0.00     0.183 A 
HETATM    6  N3  UNL     1      -8.291 -19.595  -9.114  1.00  0.00    -0.336 N 
ATOM      7  H3  UNL     1      -8.267 -18.577  -9.178  1.00  0.00     0.168 HD
HETATM    8  C3  UNL     1      -7.287 -20.265  -8.540  1.00  0.00     0.142 A 
HETATM    9  C4  UNL     1      -7.330 -21.639  -8.459  1.00  0.00     0.119 A 
HETATM   10  N4  UNL     1      -6.211 -22.023  -7.846  1.00  0.00    -0.346 N 
ATOM     11  H4  UNL     1      -5.948 -22.986  -7.637  1.00  0.00     0.167 HD
HETATM   12  C5  UNL     1      -5.491 -20.938  -7.552  1.00  0.00     0.188 A 
HETATM   13  N5  UNL     1      -6.160 -19.838  -7.984  1.00  0.00    -0.297 N 
ENDROOT
BRANCH  13  14
HETATM   14  C6  UNL     1      -5.653 -18.503  -7.820  1.00  0.00     0.262 C 
HETATM   15  O1  UNL     1      -6.517 -17.850  -6.910  1.00  0.00    -0.353 OA
HETATM   16  C7  UNL     1      -6.083 -16.516  -7.100  1.00  0.00     0.180 C 
HETATM   17  C8  UNL     1      -6.958 -15.590  -6.309  1.00  0.00     0.216 C 
HETATM   18  C9  UNL     1      -6.304 -16.387  -8.595  1.00  0.00     0.198 C 
HETATM   19  O2  UNL     1      -6.849 -14.280  -6.669  1.00  0.00    -0.287 OA
HETATM   20  P1  UNL     1      -5.874 -14.060  -7.987  1.00  0.00     0.408 P 
HETATM   21  O3  UNL     1      -4.952 -12.689  -8.118  1.00  0.00    -0.624 OA
HETATM   22  O4  UNL     1      -7.005 -13.466  -8.813  1.00  0.00    -0.624 OA
HETATM   23  O5  UNL     1      -5.638 -15.277  -9.069  1.00  0.00    -0.279 OA
HETATM   24  C10 UNL     1      -5.697 -17.686  -9.085  1.00  0.00     0.199 C 
BRANCH  24  25
HETATM   25  O6  UNL     1      -4.432 -17.437  -9.600  1.00  0.00    -0.388 OA
ATOM     26  H6  UNL     1      -4.234 -17.980 -10.355  1.00  0.00     0.210 HD
ENDBRANCH  24  25
ENDBRANCH  13  14
TORSDOF 2
ENDMDL
