MODEL 5
REMARK VINA RESULT: -7.799950403      4.166      6.901
REMARK  2 active torsions:
REMARK  status: ('A' for Active; 'I' for Inactive)
REMARK    1  A    between atoms: N5_13  and  C6_14 
REMARK    2  A    between atoms: C10_24  and  O6_25 
ROOT
HETATM    1  N1  UNL     1      -9.559 -23.133  -9.117  1.00  0.00    -0.080 NA
HETATM    2  C1  UNL     1      -8.402 -22.507  -8.578  1.00  0.00     0.148 A 
HETATM    3  N2  UNL     1      -7.416 -23.169  -7.958  1.00  0.00    -0.339 N 
ATOM      4  H2  UNL     1      -7.483 -24.183  -7.859  1.00  0.00     0.167 HD
HETATM    5  C2  UNL     1      -6.338 -22.532  -7.463  1.00  0.00     0.183 A 
HETATM    6  N3  UNL     1      -6.196 -21.199  -7.565  1.00  0.00    -0.336 N 
ATOM      7  H3  UNL     1      -5.372 -20.733  -7.184  1.00  0.00     0.168 HD
HETATM    8  C3  UNL     1      -7.154 -20.496  -8.175  1.00  0.00     0.142 A 
HETATM    9  C4  UNL     1      -8.262 -21.136  -8.686  1.00  0.00     0.119 A 
HETATM   10  N4  UNL     1      -9.033 -20.195  -9.228  1.00  0.00    -0.346 N 
ATOM     11  H4  UNL     1      -9.929 -20.354  -9.690  1.00  0.00     0.167 HD
HETATM   12  C5  UNL     1      -8.440 -19.010  -9.068  1.00  0.00     0.188 A 
HETATM   13  N5  UNL     1      -7.266 -19.194  -8.410  1.00  0.00    -0.297 N 
ENDROOT
BRANCH  13  14
HETATM   14  C6  UNL     1      -6.380 -18.112  -8.079  1.00  0.00     0.262 C 
HETATM   15  O1  UNL     1      -7.067 -17.295  -7.150  1.00  0.00    -0.353 OA
HETATM   16  C7  UNL     1      -6.221 -16.161  -7.174  1.00  0.00     0.180 C 
HETATM   17  C8  UNL     1      -6.824 -15.073  -6.336  1.00  0.00     0.216 C 
HETATM   18  C9  UNL     1      -6.265 -15.841  -8.657  1.00  0.00     0.198 C 
HETATM   19  O2  UNL     1      -6.279 -13.842  -6.548  1.00  0.00    -0.287 OA
HETATM   20  P1  UNL     1      -5.177 -13.837  -7.782  1.00  0.00     0.408 P 
HETATM   21  O3  UNL     1      -3.863 -12.828  -7.718  1.00  0.00    -0.624 OA
HETATM   22  O4  UNL     1      -5.991 -12.843  -8.598  1.00  0.00    -0.624 OA
HETATM   23  O5  UNL     1      -5.247 -14.969  -8.975  1.00  0.00    -0.279 OA
HETATM   24  C10 UNL     1      -6.059 -17.221  -9.250  1.00  0.00     0.199 C 
BRANCH  24  25
HETATM   25  O6  UNL     1      -4.742 -17.349  -9.669  1.00  0.00    -0.388 OA
ATOM     26  H6  UNL     1      -4.562 -16.853 -10.460  1.00  0.00     0.210 HD
ENDBRANCH  24  25
ENDBRANCH  13  14
TORSDOF 2
ENDMDL
