MODEL 2
REMARK VINA RESULT: -8.094397651      0.968      1.881
REMARK  2 active torsions:
REMARK  status: ('A' for Active; 'I' for Inactive)
REMARK    1  A    between atoms: N5_13  and  C6_14 
REMARK    2  A    between atoms: C10_24  and  O6_25 
ROOT
HETATM    1  N1  UNL     1      -6.155 -12.790  -5.662  1.00  0.00    -0.080 NA
HETATM    2  C1  UNL     1      -5.987 -13.696  -6.745  1.00  0.00     0.148 A 
HETATM    3  N2  UNL     1      -5.371 -13.383  -7.892  1.00  0.00    -0.339 N 
ATOM      4  H2  UNL     1      -4.994 -12.442  -8.013  1.00  0.00     0.167 HD
HETATM    5  C2  UNL     1      -5.237 -14.277  -8.890  1.00  0.00     0.183 A 
HETATM    6  N3  UNL     1      -5.714 -15.529  -8.787  1.00  0.00    -0.336 N 
ATOM      7  H3  UNL     1      -5.602 -16.193  -9.553  1.00  0.00     0.168 HD
HETATM    8  C3  UNL     1      -6.336 -15.888  -7.661  1.00  0.00     0.142 A 
HETATM    9  C4  UNL     1      -6.481 -14.983  -6.632  1.00  0.00     0.119 A 
HETATM   10  N4  UNL     1      -7.130 -15.613  -5.655  1.00  0.00    -0.346 N 
ATOM     11  H4  UNL     1      -7.389 -15.207  -4.755  1.00  0.00     0.167 HD
HETATM   12  C5  UNL     1      -7.386 -16.863  -6.047  1.00  0.00     0.188 A 
HETATM   13  N5  UNL     1      -6.892 -17.038  -7.300  1.00  0.00    -0.297 N 
ENDROOT
BRANCH  13  14
HETATM   14  C6  UNL     1      -7.002 -18.281  -8.015  1.00  0.00     0.262 C 
HETATM   15  O1  UNL     1      -8.248 -18.846  -7.655  1.00  0.00    -0.353 OA
HETATM   16  C7  UNL     1      -8.064 -20.151  -8.170  1.00  0.00     0.180 C 
HETATM   17  C8  UNL     1      -9.237 -21.005  -7.794  1.00  0.00     0.216 C 
HETATM   18  C9  UNL     1      -6.800 -20.543  -7.427  1.00  0.00     0.198 C 
HETATM   19  O2  UNL     1      -9.022 -22.343  -7.944  1.00  0.00    -0.287 OA
HETATM   20  P1  UNL     1      -7.464 -22.693  -8.377  1.00  0.00     0.408 P 
HETATM   21  O3  UNL     1      -7.147 -23.984  -9.367  1.00  0.00    -0.624 OA
HETATM   22  O4  UNL     1      -7.222 -23.508  -7.116  1.00  0.00    -0.624 OA
HETATM   23  O5  UNL     1      -6.239 -21.654  -8.017  1.00  0.00    -0.279 OA
HETATM   24  C10 UNL     1      -5.961 -19.295  -7.617  1.00  0.00     0.199 C 
BRANCH  24  25
HETATM   25  O6  UNL     1      -5.027 -19.517  -8.620  1.00  0.00    -0.388 OA
ATOM     26  H6  UNL     1      -4.162 -19.198  -8.387  1.00  0.00     0.210 HD
ENDBRANCH  24  25
ENDBRANCH  13  14
TORSDOF 2
ENDMDL
