MODEL 7
REMARK VINA RESULT: -7.455646529      4.165      6.962
REMARK  2 active torsions:
REMARK  status: ('A' for Active; 'I' for Inactive)
REMARK    1  A    between atoms: N5_13  and  C6_14 
REMARK    2  A    between atoms: C10_24  and  O6_25 
ROOT
HETATM    1  N1  UNL     1      -6.653 -24.032  -7.713  1.00  0.00    -0.080 NA
HETATM    2  C1  UNL     1      -7.400 -22.840  -7.919  1.00  0.00     0.148 A 
HETATM    3  N2  UNL     1      -8.719 -22.816  -8.147  1.00  0.00    -0.339 N 
ATOM      4  H2  UNL     1      -9.236 -23.696  -8.176  1.00  0.00     0.167 HD
HETATM    5  C2  UNL     1      -9.383 -21.659  -8.338  1.00  0.00     0.183 A 
HETATM    6  N3  UNL     1      -8.755 -20.471  -8.310  1.00  0.00    -0.336 N 
ATOM      7  H3  UNL     1      -9.274 -19.605  -8.456  1.00  0.00     0.168 HD
HETATM    8  C3  UNL     1      -7.438 -20.446  -8.087  1.00  0.00     0.142 A 
HETATM    9  C4  UNL     1      -6.748 -21.621  -7.890  1.00  0.00     0.119 A 
HETATM   10  N4  UNL     1      -5.473 -21.290  -7.694  1.00  0.00    -0.346 N 
ATOM     11  H4  UNL     1      -4.709 -21.943  -7.520  1.00  0.00     0.167 HD
HETATM   12  C5  UNL     1      -5.360 -19.961  -7.763  1.00  0.00     0.188 A 
HETATM   13  N5  UNL     1      -6.587 -19.430  -8.009  1.00  0.00    -0.297 N 
ENDROOT
BRANCH  13  14
HETATM   14  C6  UNL     1      -6.812 -18.017  -8.141  1.00  0.00     0.262 C 
HETATM   15  O1  UNL     1      -5.831 -17.532  -9.038  1.00  0.00    -0.353 OA
HETATM   16  C7  UNL     1      -5.986 -16.143  -8.817  1.00  0.00     0.180 C 
HETATM   17  C8  UNL     1      -4.939 -15.397  -9.588  1.00  0.00     0.216 C 
HETATM   18  C9  UNL     1      -5.747 -16.095  -7.320  1.00  0.00     0.198 C 
HETATM   19  O2  UNL     1      -4.780 -14.100  -9.199  1.00  0.00    -0.287 OA
HETATM   20  P1  UNL     1      -5.694 -13.717  -7.874  1.00  0.00     0.408 P 
HETATM   21  O3  UNL     1      -6.320 -12.190  -7.710  1.00  0.00    -0.624 OA
HETATM   22  O4  UNL     1      -4.468 -13.383  -7.037  1.00  0.00    -0.624 OA
HETATM   23  O5  UNL     1      -6.175 -14.885  -6.819  1.00  0.00    -0.279 OA
HETATM   24  C10 UNL     1      -6.606 -17.255  -6.858  1.00  0.00     0.199 C 
BRANCH  24  25
HETATM   25  O6  UNL     1      -7.796 -16.766  -6.335  1.00  0.00    -0.388 OA
ATOM     26  H6  UNL     1      -8.407 -17.459  -6.114  1.00  0.00     0.210 HD
ENDBRANCH  24  25
ENDBRANCH  13  14
TORSDOF 2
ENDMDL
