MODEL 1
REMARK VINA RESULT: -10.092341049      0.000      0.000
REMARK  2 active torsions:
REMARK  status: ('A' for Active; 'I' for Inactive)
REMARK    1  A    between atoms: N5_13  and  C6_14 
REMARK    2  A    between atoms: C10_24  and  O6_25 
ROOT
HETATM    1  N1  UNL     1      -5.755 -12.744  -7.110  1.00  0.00    -0.080 NA
HETATM    2  C1  UNL     1      -6.270 -14.045  -6.862  1.00  0.00     0.148 A 
HETATM    3  N2  UNL     1      -6.990 -14.370  -5.780  1.00  0.00    -0.339 N 
ATOM      4  H2  UNL     1      -7.190 -13.653  -5.082  1.00  0.00     0.167 HD
HETATM    5  C2  UNL     1      -7.456 -15.619  -5.589  1.00  0.00     0.183 A 
HETATM    6  N3  UNL     1      -7.224 -16.603  -6.474  1.00  0.00    -0.336 N 
ATOM      7  H3  UNL     1      -7.585 -17.544  -6.313  1.00  0.00     0.168 HD
HETATM    8  C3  UNL     1      -6.510 -16.327  -7.569  1.00  0.00     0.142 A 
HETATM    9  C4  UNL     1      -6.027 -15.054  -7.776  1.00  0.00     0.119 A 
HETATM   10  N4  UNL     1      -5.365 -15.077  -8.932  1.00  0.00    -0.346 N 
ATOM     11  H4  UNL     1      -4.890 -14.283  -9.361  1.00  0.00     0.167 HD
HETATM   12  C5  UNL     1      -5.426 -16.312  -9.435  1.00  0.00     0.188 A 
HETATM   13  N5  UNL     1      -6.140 -17.096  -8.586  1.00  0.00    -0.297 N 
ENDROOT
BRANCH  13  14
HETATM   14  C6  UNL     1      -6.392 -18.488  -8.837  1.00  0.00     0.262 C 
HETATM   15  O1  UNL     1      -7.753 -18.717  -8.526  1.00  0.00    -0.353 OA
HETATM   16  C7  UNL     1      -7.752 -20.132  -8.520  1.00  0.00     0.180 C 
HETATM   17  C8  UNL     1      -9.097 -20.629  -8.082  1.00  0.00     0.216 C 
HETATM   18  C9  UNL     1      -6.675 -20.381  -7.481  1.00  0.00     0.198 C 
HETATM   19  O2  UNL     1      -9.113 -21.944  -7.723  1.00  0.00    -0.287 OA
HETATM   20  P1  UNL     1      -7.606 -22.626  -7.732  1.00  0.00     0.408 P 
HETATM   21  O3  UNL     1      -7.418 -24.220  -8.146  1.00  0.00    -0.624 OA
HETATM   22  O4  UNL     1      -7.664 -22.943  -6.246  1.00  0.00    -0.624 OA
HETATM   23  O5  UNL     1      -6.262 -21.694  -7.546  1.00  0.00    -0.279 OA
HETATM   24  C10 UNL     1      -5.607 -19.410  -7.941  1.00  0.00     0.199 C 
BRANCH  24  25
HETATM   25  O6  UNL     1      -4.619 -20.103  -8.628  1.00  0.00    -0.388 OA
ATOM     26  H6  UNL     1      -3.746 -19.892  -8.319  1.00  0.00     0.210 HD
ENDBRANCH  24  25
ENDBRANCH  13  14
TORSDOF 2
ENDMDL
