MODEL 6
REMARK VINA RESULT: -7.109317790      1.797      2.670
REMARK  16 active torsions:
REMARK  status: ('A' for Active; 'I' for Inactive)
REMARK    1  A    between atoms: C2_2  and  C3_3 
REMARK    2  A    between atoms: C3_3  and  C4_4 
REMARK    3  A    between atoms: C4_4  and  C5_5 
REMARK    4  A    between atoms: C5_5  and  C6_6 
REMARK    5  A    between atoms: C7_7  and  C8_8 
REMARK    6  A    between atoms: C8_8  and  C9_9 
REMARK    7  A    between atoms: C10_10  and  C11_11 
REMARK    8  A    between atoms: C12_12  and  C13_13 
REMARK    9  A    between atoms: C13_13  and  C14_14 
REMARK   10  A    between atoms: C14_14  and  C15_15 
REMARK   11  A    between atoms: C15_15  and  C16_16 
REMARK   12  A    between atoms: C16_16  and  O1_17 
REMARK   13  A    between atoms: C16_16  and  C17_19 
REMARK   14  A    between atoms: C17_19  and  C18_20 
REMARK   15  A    between atoms: C18_20  and  C19_21 
REMARK   16  A    between atoms: C19_21  and  C20_22 
ROOT
HETATM    1  C11 UNL     1      20.908  -8.121  11.260  1.00  0.00     0.000 C 
HETATM    2  C12 UNL     1      22.180  -7.937  11.496  1.00  0.00     0.008 C 
ENDROOT
BRANCH   2   3
HETATM    3  C13 UNL     1      22.834  -7.791  12.812  1.00  0.00     0.051 C 
BRANCH   3   4
HETATM    4  C14 UNL     1      22.820  -8.973  13.479  1.00  0.00    -0.153 C 
BRANCH   4   5
HETATM    5  C15 UNL     1      22.786 -10.121  14.114  1.00  0.00     0.116 C 
BRANCH   5   6
HETATM    6  C16 UNL     1      23.852 -10.232  15.290  1.00  0.00     0.128 C 
BRANCH   6   7
HETATM    7  O1  UNL     1      25.033  -9.970  14.656  1.00  0.00    -0.395 OA
ATOM      8  H1  UNL     1      24.788  -9.311  14.018  1.00  0.00     0.210 HD
ENDBRANCH   6   7
BRANCH   6   9
HETATM    9  C17 UNL     1      23.418  -9.184  16.302  1.00  0.00     0.033 C 
BRANCH   9  10
HETATM   10  C18 UNL     1      22.806  -9.853  17.483  1.00  0.00     0.013 C 
BRANCH  10  11
HETATM   11  C19 UNL     1      22.715  -8.889  18.679  1.00  0.00     0.113 C 
BRANCH  11  12
HETATM   12  C20 UNL     1      21.337  -8.514  18.960  1.00  0.00     0.172 C 
HETATM   13  O2  UNL     1      20.970  -8.001  20.096  1.00  0.00    -0.648 OA
HETATM   14  O3  UNL     1      20.243  -8.657  18.075  1.00  0.00    -0.648 OA
ENDBRANCH  11  12
ENDBRANCH  10  11
ENDBRANCH   9  10
ENDBRANCH   6   9
ENDBRANCH   5   6
ENDBRANCH   4   5
ENDBRANCH   3   4
ENDBRANCH   2   3
BRANCH   1  15
HETATM   15  C10 UNL     1      20.484  -8.247   9.849  1.00  0.00    -0.004 C 
HETATM   16  C9  UNL     1      19.843  -7.297   9.263  1.00  0.00    -0.023 C 
BRANCH  16  17
HETATM   17  C8  UNL     1      19.451  -6.000   9.845  1.00  0.00     0.054 C 
BRANCH  17  18
HETATM   18  C7  UNL     1      20.367  -5.029   9.106  1.00  0.00    -0.027 C 
HETATM   19  C6  UNL     1      21.114  -4.192   9.694  1.00  0.00    -0.030 C 
BRANCH  19  20
HETATM   20  C5  UNL     1      21.313  -3.917  11.107  1.00  0.00     0.027 C 
BRANCH  20  21
HETATM   21  C4  UNL     1      22.792  -3.773  11.380  1.00  0.00     0.004 C 
BRANCH  21  22
HETATM   22  C3  UNL     1      23.155  -2.301  11.374  1.00  0.00    -0.000 C 
BRANCH  22  23
HETATM   23  C2  UNL     1      22.087  -1.531  12.093  1.00  0.00    -0.005 C 
HETATM   24  C1  UNL     1      21.994  -0.115  11.571  1.00  0.00     0.005 C 
ENDBRANCH  22  23
ENDBRANCH  21  22
ENDBRANCH  20  21
ENDBRANCH  19  20
ENDBRANCH  17  18
ENDBRANCH  16  17
ENDBRANCH   1  15
TORSDOF 16
ENDMDL
