MODEL 16
REMARK VINA RESULT: -6.793158009      1.730      2.850
REMARK  16 active torsions:
REMARK  status: ('A' for Active; 'I' for Inactive)
REMARK    1  A    between atoms: C2_2  and  C3_3 
REMARK    2  A    between atoms: C3_3  and  C4_4 
REMARK    3  A    between atoms: C4_4  and  C5_5 
REMARK    4  A    between atoms: C5_5  and  C6_6 
REMARK    5  A    between atoms: C7_7  and  C8_8 
REMARK    6  A    between atoms: C8_8  and  C9_9 
REMARK    7  A    between atoms: C10_10  and  C11_11 
REMARK    8  A    between atoms: C12_12  and  C13_13 
REMARK    9  A    between atoms: C13_13  and  C14_14 
REMARK   10  A    between atoms: C14_14  and  C15_15 
REMARK   11  A    between atoms: C15_15  and  C16_16 
REMARK   12  A    between atoms: C16_16  and  O1_17 
REMARK   13  A    between atoms: C16_16  and  C17_19 
REMARK   14  A    between atoms: C17_19  and  C18_20 
REMARK   15  A    between atoms: C18_20  and  C19_21 
REMARK   16  A    between atoms: C19_21  and  C20_22 
ROOT
HETATM    1  C11 UNL     1      22.482  -8.437  12.948  1.00  0.00     0.000 C 
HETATM    2  C12 UNL     1      22.733  -9.414  13.779  1.00  0.00     0.008 C 
ENDROOT
BRANCH   2   3
HETATM    3  C13 UNL     1      23.875  -9.527  14.710  1.00  0.00     0.051 C 
BRANCH   3   4
HETATM    4  C14 UNL     1      24.005 -10.808  15.140  1.00  0.00    -0.153 C 
BRANCH   4   5
HETATM    5  C15 UNL     1      24.152 -12.048  15.545  1.00  0.00     0.116 C 
BRANCH   5   6
HETATM    6  C16 UNL     1      25.656 -12.565  15.483  1.00  0.00     0.128 C 
BRANCH   6   7
HETATM    7  O1  UNL     1      26.176 -12.129  16.668  1.00  0.00    -0.395 OA
ATOM      8  H1  UNL     1      27.093 -11.995  16.460  1.00  0.00     0.210 HD
ENDBRANCH   6   7
BRANCH   6   9
HETATM    9  C17 UNL     1      25.538 -14.075  15.347  1.00  0.00     0.033 C 
BRANCH   9  10
HETATM   10  C18 UNL     1      24.204 -14.517  15.838  1.00  0.00     0.013 C 
BRANCH  10  11
HETATM   11  C19 UNL     1      24.338 -15.717  16.793  1.00  0.00     0.113 C 
BRANCH  11  12
HETATM   12  C20 UNL     1      23.036 -16.236  17.186  1.00  0.00     0.172 C 
HETATM   13  O2  UNL     1      22.579 -17.374  16.755  1.00  0.00    -0.648 OA
HETATM   14  O3  UNL     1      22.118 -15.598  18.052  1.00  0.00    -0.648 OA
ENDBRANCH  11  12
ENDBRANCH  10  11
ENDBRANCH   9  10
ENDBRANCH   6   9
ENDBRANCH   5   6
ENDBRANCH   4   5
ENDBRANCH   3   4
ENDBRANCH   2   3
BRANCH   1  15
HETATM   15  C10 UNL     1      21.265  -8.542  12.115  1.00  0.00    -0.004 C 
HETATM   16  C9  UNL     1      20.966  -7.625  11.263  1.00  0.00    -0.023 C 
BRANCH  16  17
HETATM   17  C8  UNL     1      21.730  -6.397  10.975  1.00  0.00     0.054 C 
BRANCH  17  18
HETATM   18  C7  UNL     1      20.645  -5.325  11.029  1.00  0.00    -0.027 C 
HETATM   19  C6  UNL     1      20.681  -4.263  10.341  1.00  0.00    -0.030 C 
BRANCH  19  20
HETATM   20  C5  UNL     1      21.662  -3.777   9.385  1.00  0.00     0.027 C 
BRANCH  20  21
HETATM   21  C4  UNL     1      22.130  -2.404   9.811  1.00  0.00     0.004 C 
BRANCH  21  22
HETATM   22  C3  UNL     1      22.989  -2.538  11.053  1.00  0.00    -0.000 C 
BRANCH  22  23
HETATM   23  C2  UNL     1      22.565  -1.506  12.055  1.00  0.00    -0.005 C 
HETATM   24  C1  UNL     1      21.783  -0.395  11.392  1.00  0.00     0.005 C 
ENDBRANCH  22  23
ENDBRANCH  21  22
ENDBRANCH  20  21
ENDBRANCH  19  20
ENDBRANCH  17  18
ENDBRANCH  16  17
ENDBRANCH   1  15
TORSDOF 16
ENDMDL
