MODEL 4
REMARK VINA RESULT: -7.181242828      4.733      9.204
REMARK  16 active torsions:
REMARK  status: ('A' for Active; 'I' for Inactive)
REMARK    1  A    between atoms: C2_2  and  C3_3 
REMARK    2  A    between atoms: C3_3  and  C4_4 
REMARK    3  A    between atoms: C4_4  and  C5_5 
REMARK    4  A    between atoms: C5_5  and  C6_6 
REMARK    5  A    between atoms: C7_7  and  C8_8 
REMARK    6  A    between atoms: C8_8  and  C9_9 
REMARK    7  A    between atoms: C10_10  and  C11_11 
REMARK    8  A    between atoms: C12_12  and  C13_13 
REMARK    9  A    between atoms: C13_13  and  C14_14 
REMARK   10  A    between atoms: C14_14  and  C15_15 
REMARK   11  A    between atoms: C15_15  and  C16_16 
REMARK   12  A    between atoms: C16_16  and  O1_17 
REMARK   13  A    between atoms: C16_16  and  C17_19 
REMARK   14  A    between atoms: C17_19  and  C18_20 
REMARK   15  A    between atoms: C18_20  and  C19_21 
REMARK   16  A    between atoms: C19_21  and  C20_22 
ROOT
HETATM    1  C11 UNL     1      21.058  -7.971  10.498  1.00  0.00     0.000 C 
HETATM    2  C12 UNL     1      20.088  -7.783   9.644  1.00  0.00     0.008 C 
ENDROOT
BRANCH   2   3
HETATM    3  C13 UNL     1      19.613  -6.496   9.097  1.00  0.00     0.051 C 
BRANCH   3   4
HETATM    4  C14 UNL     1      20.662  -5.764   8.641  1.00  0.00    -0.153 C 
BRANCH   4   5
HETATM    5  C15 UNL     1      21.675  -5.068   8.180  1.00  0.00     0.116 C 
BRANCH   5   6
HETATM    6  C16 UNL     1      21.977  -3.749   9.018  1.00  0.00     0.128 C 
BRANCH   6   7
HETATM    7  O1  UNL     1      20.941  -2.928   8.676  1.00  0.00    -0.395 OA
ATOM      8  H1  UNL     1      21.327  -2.062   8.742  1.00  0.00     0.210 HD
ENDBRANCH   6   7
BRANCH   6   9
HETATM    9  C17 UNL     1      21.985  -4.207  10.467  1.00  0.00     0.033 C 
BRANCH   9  10
HETATM   10  C18 UNL     1      21.262  -3.215  11.309  1.00  0.00     0.013 C 
BRANCH  10  11
HETATM   11  C19 UNL     1      22.209  -2.095  11.778  1.00  0.00     0.113 C 
BRANCH  11  12
HETATM   12  C20 UNL     1      21.692  -0.779  11.434  1.00  0.00     0.172 C 
HETATM   13  O2  UNL     1      22.098   0.306  12.024  1.00  0.00    -0.648 OA
HETATM   14  O3  UNL     1      20.711  -0.505  10.454  1.00  0.00    -0.648 OA
ENDBRANCH  11  12
ENDBRANCH  10  11
ENDBRANCH   9  10
ENDBRANCH   6   9
ENDBRANCH   5   6
ENDBRANCH   4   5
ENDBRANCH   3   4
ENDBRANCH   2   3
BRANCH   1  15
HETATM   15  C10 UNL     1      21.359  -9.363  10.898  1.00  0.00    -0.004 C 
HETATM   16  C9  UNL     1      21.611  -9.659  12.125  1.00  0.00    -0.023 C 
BRANCH  16  17
HETATM   17  C8  UNL     1      21.635  -8.735  13.274  1.00  0.00     0.054 C 
BRANCH  17  18
HETATM   18  C7  UNL     1      23.131  -8.595  13.540  1.00  0.00    -0.027 C 
HETATM   19  C6  UNL     1      23.697  -9.032  14.585  1.00  0.00    -0.030 C 
BRANCH  19  20
HETATM   20  C5  UNL     1      23.159  -9.727  15.742  1.00  0.00     0.027 C 
BRANCH  20  21
HETATM   21  C4  UNL     1      24.211 -10.663  16.291  1.00  0.00     0.004 C 
BRANCH  21  22
HETATM   22  C3  UNL     1      25.002 -11.249  15.137  1.00  0.00    -0.000 C 
BRANCH  22  23
HETATM   23  C2  UNL     1      25.391 -12.657  15.475  1.00  0.00    -0.005 C 
HETATM   24  C1  UNL     1      24.311 -13.631  15.065  1.00  0.00     0.005 C 
ENDBRANCH  22  23
ENDBRANCH  21  22
ENDBRANCH  20  21
ENDBRANCH  19  20
ENDBRANCH  17  18
ENDBRANCH  16  17
ENDBRANCH   1  15
TORSDOF 16
ENDMDL
