MODEL 10
REMARK VINA RESULT: -7.018804600      3.706      9.339
REMARK  16 active torsions:
REMARK  status: ('A' for Active; 'I' for Inactive)
REMARK    1  A    between atoms: C2_2  and  C3_3 
REMARK    2  A    between atoms: C3_3  and  C4_4 
REMARK    3  A    between atoms: C4_4  and  C5_5 
REMARK    4  A    between atoms: C5_5  and  C6_6 
REMARK    5  A    between atoms: C7_7  and  C8_8 
REMARK    6  A    between atoms: C8_8  and  C9_9 
REMARK    7  A    between atoms: C10_10  and  C11_11 
REMARK    8  A    between atoms: C12_12  and  C13_13 
REMARK    9  A    between atoms: C13_13  and  C14_14 
REMARK   10  A    between atoms: C14_14  and  C15_15 
REMARK   11  A    between atoms: C15_15  and  C16_16 
REMARK   12  A    between atoms: C16_16  and  O1_17 
REMARK   13  A    between atoms: C16_16  and  C17_19 
REMARK   14  A    between atoms: C17_19  and  C18_20 
REMARK   15  A    between atoms: C18_20  and  C19_21 
REMARK   16  A    between atoms: C19_21  and  C20_22 
ROOT
HETATM    1  C11 UNL     1      21.648  -7.846  12.072  1.00  0.00     0.000 C 
HETATM    2  C12 UNL     1      21.669  -8.402  10.890  1.00  0.00     0.008 C 
ENDROOT
BRANCH   2   3
HETATM    3  C13 UNL     1      20.514  -8.690  10.016  1.00  0.00     0.051 C 
BRANCH   3   4
HETATM    4  C14 UNL     1      20.067  -7.548   9.434  1.00  0.00    -0.153 C 
BRANCH   4   5
HETATM    5  C15 UNL     1      19.625  -6.437   8.892  1.00  0.00     0.116 C 
BRANCH   5   6
HETATM    6  C16 UNL     1      19.902  -5.142   9.775  1.00  0.00     0.128 C 
BRANCH   6   7
HETATM    7  O1  UNL     1      19.470  -5.522  11.014  1.00  0.00    -0.395 OA
ATOM      8  H1  UNL     1      18.949  -4.778  11.293  1.00  0.00     0.210 HD
ENDBRANCH   6   7
BRANCH   6   9
HETATM    9  C17 UNL     1      21.399  -4.910   9.657  1.00  0.00     0.033 C 
BRANCH   9  10
HETATM   10  C18 UNL     1      21.883  -4.157  10.847  1.00  0.00     0.013 C 
BRANCH  10  11
HETATM   11  C19 UNL     1      21.296  -2.735  10.877  1.00  0.00     0.113 C 
BRANCH  11  12
HETATM   12  C20 UNL     1      22.136  -1.825  11.642  1.00  0.00     0.172 C 
HETATM   13  O2  UNL     1      23.340  -2.137  12.018  1.00  0.00    -0.648 OA
HETATM   14  O3  UNL     1      21.774  -0.528  12.073  1.00  0.00    -0.648 OA
ENDBRANCH  11  12
ENDBRANCH  10  11
ENDBRANCH   9  10
ENDBRANCH   6   9
ENDBRANCH   5   6
ENDBRANCH   4   5
ENDBRANCH   3   4
ENDBRANCH   2   3
BRANCH   1  15
HETATM   15  C10 UNL     1      22.942  -7.651  12.761  1.00  0.00    -0.004 C 
HETATM   16  C9  UNL     1      23.303  -8.427  13.723  1.00  0.00    -0.023 C 
BRANCH  16  17
HETATM   17  C8  UNL     1      22.552  -9.573  14.269  1.00  0.00     0.054 C 
BRANCH  17  18
HETATM   18  C7  UNL     1      23.114  -9.678  15.684  1.00  0.00    -0.027 C 
HETATM   19  C6  UNL     1      24.132 -10.371  15.979  1.00  0.00    -0.030 C 
BRANCH  19  20
HETATM   20  C5  UNL     1      24.994 -11.200  15.154  1.00  0.00     0.027 C 
BRANCH  20  21
HETATM   21  C4  UNL     1      25.536 -12.336  15.991  1.00  0.00     0.004 C 
BRANCH  21  22
HETATM   22  C3  UNL     1      25.670 -13.571  15.121  1.00  0.00    -0.000 C 
BRANCH  22  23
HETATM   23  C2  UNL     1      24.311 -14.166  14.904  1.00  0.00    -0.005 C 
HETATM   24  C1  UNL     1      23.909 -15.042  16.069  1.00  0.00     0.005 C 
ENDBRANCH  22  23
ENDBRANCH  21  22
ENDBRANCH  20  21
ENDBRANCH  19  20
ENDBRANCH  17  18
ENDBRANCH  16  17
ENDBRANCH   1  15
TORSDOF 16
ENDMDL
