MODEL 3
REMARK VINA RESULT: -8.607106488      1.925      4.694
REMARK  0 active torsions:
REMARK  status: ('A' for Active; 'I' for Inactive)
ROOT
HETATM    1  C1  UNL     1      33.574  15.411  -1.549  1.00  0.00     0.091 C 
HETATM    2  C2  UNL     1      32.282  15.454  -2.249  1.00  0.00     0.100 A 
HETATM    3  N1  UNL     1      31.944  14.906  -3.460  1.00  0.00    -0.287 N 
ATOM      4  H1  UNL     1      32.583  14.413  -4.084  1.00  0.00     0.188 HD
HETATM    5  N2  UNL     1      30.634  15.121  -3.696  1.00  0.00    -0.286 N 
ATOM      6  H2  UNL     1      30.126  14.817  -4.526  1.00  0.00     0.188 HD
HETATM    7  C3  UNL     1      30.110  15.795  -2.670  1.00  0.00     0.122 A 
HETATM    8  N3  UNL     1      31.147  15.980  -1.815  1.00  0.00    -0.286 N 
HETATM    9  C4  UNL     1      31.051  16.693  -0.581  1.00  0.00     0.054 A 
HETATM   10  C5  UNL     1      32.166  17.441  -0.316  1.00  0.00     0.033 A 
HETATM   11  C6  UNL     1      32.112  18.210   0.845  1.00  0.00     0.026 A 
HETATM   12  C7  UNL     1      30.988  18.215   1.679  1.00  0.00     0.035 A 
HETATM   13 CL1  UNL     1      30.941  19.174   3.127  1.00  0.00    -0.084 Cl
HETATM   14  C8  UNL     1      29.889  17.445   1.364  1.00  0.00     0.040 A 
HETATM   15  C9  UNL     1      29.923  16.675   0.226  1.00  0.00     0.020 A 
HETATM   16  C10 UNL     1      28.690  15.926   0.034  1.00  0.00     0.051 C 
HETATM   17  C11 UNL     1      27.993  15.394   1.168  1.00  0.00    -0.009 A 
HETATM   18  C12 UNL     1      28.443  15.332   2.441  1.00  0.00     0.014 A 
HETATM   19  C13 UNL     1      27.650  14.885   3.500  1.00  0.00     0.001 A 
HETATM   20  C14 UNL     1      26.361  14.485   3.263  1.00  0.00     0.000 A 
HETATM   21  C15 UNL     1      25.858  14.527   1.984  1.00  0.00     0.001 A 
HETATM   22  C16 UNL     1      26.657  14.971   0.964  1.00  0.00     0.014 A 
HETATM   23  N4  UNL     1      28.187  15.765  -1.170  1.00  0.00    -0.381 N 
ATOM     24  H4  UNL     1      27.316  15.234  -1.202  1.00  0.00     0.160 HD
HETATM   25  C17 UNL     1      28.675  16.226  -2.477  1.00  0.00     0.198 C 
ENDROOT
TORSDOF 0
ENDMDL
