MODEL 4
REMARK VINA RESULT: -8.418946821      1.318      1.788
REMARK  0 active torsions:
REMARK  status: ('A' for Active; 'I' for Inactive)
ROOT
HETATM    1  C1  UNL     1      27.908  17.581  -5.682  1.00  0.00     0.091 C 
HETATM    2  C2  UNL     1      29.160  16.812  -5.725  1.00  0.00     0.100 A 
HETATM    3  N1  UNL     1      30.048  16.677  -6.761  1.00  0.00    -0.287 N 
ATOM      4  H1  UNL     1      29.931  17.072  -7.694  1.00  0.00     0.188 HD
HETATM    5  N2  UNL     1      31.100  15.940  -6.352  1.00  0.00    -0.286 N 
ATOM      6  H2  UNL     1      31.905  15.690  -6.926  1.00  0.00     0.188 HD
HETATM    7  C3  UNL     1      30.920  15.592  -5.076  1.00  0.00     0.122 A 
HETATM    8  N3  UNL     1      29.727  16.140  -4.735  1.00  0.00    -0.286 N 
HETATM    9  C4  UNL     1      29.113  15.991  -3.454  1.00  0.00     0.054 A 
HETATM   10  C5  UNL     1      27.754  15.854  -3.533  1.00  0.00     0.033 A 
HETATM   11  C6  UNL     1      27.100  15.645  -2.320  1.00  0.00     0.026 A 
HETATM   12  C7  UNL     1      27.793  15.576  -1.107  1.00  0.00     0.035 A 
HETATM   13 CL1  UNL     1      26.960  15.321   0.397  1.00  0.00    -0.084 Cl
HETATM   14  C8  UNL     1      29.164  15.717  -1.083  1.00  0.00     0.040 A 
HETATM   15  C9  UNL     1      29.829  15.930  -2.267  1.00  0.00     0.020 A 
HETATM   16  C10 UNL     1      31.266  16.055  -2.074  1.00  0.00     0.051 C 
HETATM   17  C11 UNL     1      31.776  16.710  -0.906  1.00  0.00    -0.009 A 
HETATM   18  C12 UNL     1      31.069  17.427  -0.004  1.00  0.00     0.014 A 
HETATM   19  C13 UNL     1      31.638  17.947   1.159  1.00  0.00     0.001 A 
HETATM   20  C14 UNL     1      32.968  17.738   1.418  1.00  0.00     0.000 A 
HETATM   21  C15 UNL     1      33.731  17.018   0.529  1.00  0.00     0.001 A 
HETATM   22  C16 UNL     1      33.146  16.518  -0.604  1.00  0.00     0.014 A 
HETATM   23  N4  UNL     1      32.104  15.536  -2.944  1.00  0.00    -0.381 N 
ATOM     24  H4  UNL     1      33.090  15.667  -2.718  1.00  0.00     0.160 HD
HETATM   25  C17 UNL     1      31.851  14.799  -4.189  1.00  0.00     0.198 C 
ENDROOT
TORSDOF 0
ENDMDL
