MODEL 1
REMARK VINA RESULT: -10.020552352      0.000      0.000
REMARK  0 active torsions:
REMARK  status: ('A' for Active; 'I' for Inactive)
ROOT
HETATM    1  C1  UNL     1      27.263  16.827  -3.959  1.00  0.00     0.091 C 
HETATM    2  C2  UNL     1      28.665  16.398  -4.052  1.00  0.00     0.100 A 
HETATM    3  N1  UNL     1      29.471  16.335  -5.160  1.00  0.00    -0.287 N 
ATOM      4  H1  UNL     1      29.180  16.545  -6.115  1.00  0.00     0.188 HD
HETATM    5  N2  UNL     1      30.710  15.954  -4.788  1.00  0.00    -0.286 N 
ATOM      6  H2  UNL     1      31.503  15.829  -5.417  1.00  0.00     0.188 HD
HETATM    7  C3  UNL     1      30.731  15.766  -3.468  1.00  0.00     0.122 A 
HETATM    8  N3  UNL     1      29.467  16.044  -3.060  1.00  0.00    -0.286 N 
HETATM    9  C4  UNL     1      29.020  15.939  -1.707  1.00  0.00     0.054 A 
HETATM   10  C5  UNL     1      27.743  15.457  -1.610  1.00  0.00     0.033 A 
HETATM   11  C6  UNL     1      27.267  15.275  -0.313  1.00  0.00     0.026 A 
HETATM   12  C7  UNL     1      28.049  15.563   0.811  1.00  0.00     0.035 A 
HETATM   13 CL1  UNL     1      27.437  15.335   2.421  1.00  0.00    -0.084 Cl
HETATM   14  C8  UNL     1      29.332  16.044   0.657  1.00  0.00     0.040 A 
HETATM   15  C9  UNL     1      29.820  16.236  -0.614  1.00  0.00     0.020 A 
HETATM   16  C10 UNL     1      31.184  16.743  -0.606  1.00  0.00     0.051 C 
HETATM   17  C11 UNL     1      31.596  17.672   0.405  1.00  0.00    -0.009 A 
HETATM   18  C12 UNL     1      30.800  18.316   1.288  1.00  0.00     0.014 A 
HETATM   19  C13 UNL     1      31.304  19.129   2.304  1.00  0.00     0.001 A 
HETATM   20  C14 UNL     1      32.659  19.299   2.429  1.00  0.00     0.000 A 
HETATM   21  C15 UNL     1      33.510  18.668   1.554  1.00  0.00     0.001 A 
HETATM   22  C16 UNL     1      32.988  17.875   0.567  1.00  0.00     0.014 A 
HETATM   23  N4  UNL     1      32.056  16.326  -1.497  1.00  0.00    -0.381 N 
ATOM     24  H4  UNL     1      32.988  16.731  -1.405  1.00  0.00     0.160 HD
HETATM   25  C17 UNL     1      31.907  15.372  -2.604  1.00  0.00     0.198 C 
ENDROOT
TORSDOF 0
ENDMDL
