MODEL 1
REMARK VINA RESULT: -8.981144837      0.000      0.000
REMARK  0 active torsions:
REMARK  status: ('A' for Active; 'I' for Inactive)
ROOT
HETATM    1  C1  UNL     1      30.693  18.541   2.178  1.00  0.00     0.092 C 
HETATM    2  C2  UNL     1      31.556  17.878   1.187  1.00  0.00     0.116 A 
HETATM    3  N1  UNL     1      32.899  18.092   0.988  1.00  0.00    -0.274 N 
ATOM      4  H1  UNL     1      33.487  18.703   1.555  1.00  0.00     0.189 HD
HETATM    5  N2  UNL     1      33.317  17.374  -0.066  1.00  0.00    -0.129 N 
ATOM      6  H2  UNL     1      34.269  17.347  -0.432  1.00  0.00     0.205 HD
HETATM    7  C3  UNL     1      32.287  16.710  -0.548  1.00  0.00     0.721 A 
HETATM    8  N3  UNL     1      31.204  17.026   0.241  1.00  0.00    -0.132 N 
HETATM    9  C4  UNL     1      29.898  16.470   0.120  1.00  0.00     0.071 A 
HETATM   10  C5  UNL     1      29.300  16.329   1.332  1.00  0.00     0.033 A 
HETATM   11  C6  UNL     1      28.029  15.727   1.321  1.00  0.00     0.026 A 
HETATM   12  C7  UNL     1      27.451  15.312   0.130  1.00  0.00     0.035 A 
HETATM   13 CL1  UNL     1      25.858  14.558   0.107  1.00  0.00    -0.084 Cl
HETATM   14  C8  UNL     1      28.102  15.474  -1.072  1.00  0.00     0.040 A 
HETATM   15  C9  UNL     1      29.345  16.065  -1.086  1.00  0.00     0.022 A 
HETATM   16  C10 UNL     1      29.891  16.086  -2.430  1.00  0.00     0.071 C 
HETATM   17  C11 UNL     1      29.023  16.198  -3.568  1.00  0.00    -0.007 A 
HETATM   18  C12 UNL     1      27.771  16.729  -3.484  1.00  0.00     0.014 A 
HETATM   19  C13 UNL     1      26.914  16.780  -4.590  1.00  0.00     0.001 A 
HETATM   20  C14 UNL     1      27.335  16.285  -5.801  1.00  0.00     0.000 A 
HETATM   21  C15 UNL     1      28.598  15.750  -5.889  1.00  0.00     0.001 A 
HETATM   22  C16 UNL     1      29.425  15.704  -4.812  1.00  0.00     0.014 A 
HETATM   23  N4  UNL     1      31.198  15.996  -2.677  1.00  0.00    -0.283 N 
ATOM     24  H4  UNL     1      31.468  16.009  -3.660  1.00  0.00     0.188 HD
HETATM   25  N5  UNL     1      32.261  15.885  -1.745  1.00  0.00    -0.126 N 
HETATM   26  C17 UNL     1      33.377  15.044  -1.917  1.00  0.00     0.197 C 
ENDROOT
TORSDOF 0
ENDMDL
