MODEL 4
REMARK VINA RESULT: -8.149796967      1.067      1.377
REMARK  0 active torsions:
REMARK  status: ('A' for Active; 'I' for Inactive)
ROOT
HETATM    1  C1  UNL     1      32.154  17.350   1.310  1.00  0.00     0.092 C 
HETATM    2  C2  UNL     1      32.503  16.547   0.127  1.00  0.00     0.116 A 
HETATM    3  N1  UNL     1      33.763  16.319  -0.374  1.00  0.00    -0.274 N 
ATOM      4  H1  UNL     1      34.632  16.634   0.057  1.00  0.00     0.189 HD
HETATM    5  N2  UNL     1      33.673  15.620  -1.516  1.00  0.00    -0.129 N 
ATOM      6  H2  UNL     1      34.456  15.316  -2.094  1.00  0.00     0.205 HD
HETATM    7  C3  UNL     1      32.399  15.394  -1.762  1.00  0.00     0.721 A 
HETATM    8  N3  UNL     1      31.686  15.968  -0.734  1.00  0.00    -0.132 N 
HETATM    9  C4  UNL     1      30.273  15.897  -0.563  1.00  0.00     0.071 A 
HETATM   10  C5  UNL     1      29.931  15.835   0.751  1.00  0.00     0.033 A 
HETATM   11  C6  UNL     1      28.558  15.699   1.021  1.00  0.00     0.026 A 
HETATM   12  C7  UNL     1      27.636  15.630  -0.013  1.00  0.00     0.035 A 
HETATM   13 CL1  UNL     1      25.913  15.460   0.315  1.00  0.00    -0.084 Cl
HETATM   14  C8  UNL     1      28.035  15.693  -1.330  1.00  0.00     0.040 A 
HETATM   15  C9  UNL     1      29.375  15.832  -1.617  1.00  0.00     0.022 A 
HETATM   16  C10 UNL     1      29.599  15.813  -3.050  1.00  0.00     0.071 C 
HETATM   17  C11 UNL     1      28.608  16.330  -3.951  1.00  0.00    -0.007 A 
HETATM   18  C12 UNL     1      27.668  17.237  -3.562  1.00  0.00     0.014 A 
HETATM   19  C13 UNL     1      26.672  17.689  -4.436  1.00  0.00     0.001 A 
HETATM   20  C14 UNL     1      26.630  17.215  -5.724  1.00  0.00     0.000 A 
HETATM   21  C15 UNL     1      27.578  16.301  -6.120  1.00  0.00     0.001 A 
HETATM   22  C16 UNL     1      28.541  15.866  -5.267  1.00  0.00     0.014 A 
HETATM   23  N4  UNL     1      30.710  15.318  -3.597  1.00  0.00    -0.283 N 
ATOM     24  H4  UNL     1      30.754  15.345  -4.616  1.00  0.00     0.188 HD
HETATM   25  N5  UNL     1      31.836  14.759  -2.942  1.00  0.00    -0.126 N 
HETATM   26  C17 UNL     1      32.525  13.617  -3.393  1.00  0.00     0.197 C 
ENDROOT
TORSDOF 0
ENDMDL
