MODEL 2
REMARK VINA RESULT: -8.896469105      1.902      4.889
REMARK  0 active torsions:
REMARK  status: ('A' for Active; 'I' for Inactive)
ROOT
HETATM    1  C1  UNL     1      31.842  14.106  -5.472  1.00  0.00     0.092 C 
HETATM    2  C2  UNL     1      32.256  14.587  -4.144  1.00  0.00     0.116 A 
HETATM    3  N1  UNL     1      33.457  14.351  -3.518  1.00  0.00    -0.274 N 
ATOM      4  H1  UNL     1      34.248  13.856  -3.931  1.00  0.00     0.189 HD
HETATM    5  N2  UNL     1      33.429  14.871  -2.280  1.00  0.00    -0.129 N 
ATOM      6  H2  UNL     1      34.189  14.839  -1.601  1.00  0.00     0.205 HD
HETATM    7  C3  UNL     1      32.251  15.429  -2.095  1.00  0.00     0.721 A 
HETATM    8  N3  UNL     1      31.537  15.252  -3.258  1.00  0.00    -0.132 N 
HETATM    9  C4  UNL     1      30.234  15.766  -3.519  1.00  0.00     0.071 A 
HETATM   10  C5  UNL     1      30.088  16.119  -4.824  1.00  0.00     0.033 A 
HETATM   11  C6  UNL     1      28.854  16.698  -5.167  1.00  0.00     0.026 A 
HETATM   12  C7  UNL     1      27.869  16.888  -4.209  1.00  0.00     0.035 A 
HETATM   13 CL1  UNL     1      26.319  17.612  -4.631  1.00  0.00    -0.084 Cl
HETATM   14  C8  UNL     1      28.068  16.517  -2.898  1.00  0.00     0.040 A 
HETATM   15  C9  UNL     1      29.268  15.943  -2.540  1.00  0.00     0.022 A 
HETATM   16  C10 UNL     1      29.311  15.686  -1.113  1.00  0.00     0.071 C 
HETATM   17  C11 UNL     1      28.110  15.363  -0.394  1.00  0.00    -0.007 A 
HETATM   18  C12 UNL     1      27.008  14.847  -1.005  1.00  0.00     0.014 A 
HETATM   19  C13 UNL     1      25.824  14.591  -0.301  1.00  0.00     0.001 A 
HETATM   20  C14 UNL     1      25.760  14.863   1.043  1.00  0.00     0.000 A 
HETATM   21  C15 UNL     1      26.872  15.383   1.663  1.00  0.00     0.001 A 
HETATM   22  C16 UNL     1      28.017  15.629   0.975  1.00  0.00     0.014 A 
HETATM   23  N4  UNL     1      30.440  15.740  -0.406  1.00  0.00    -0.283 N 
ATOM     24  H4  UNL     1      30.349  15.553   0.592  1.00  0.00     0.188 HD
HETATM   25  N5  UNL     1      31.750  16.025  -0.867  1.00  0.00    -0.126 N 
HETATM   26  C17 UNL     1      32.673  16.830  -0.172  1.00  0.00     0.197 C 
ENDROOT
TORSDOF 0
ENDMDL
