MODEL 3
REMARK VINA RESULT: -8.794578202      1.912      4.603
REMARK  0 active torsions:
REMARK  status: ('A' for Active; 'I' for Inactive)
ROOT
HETATM    1  C1  UNL     1      32.698  14.552  -2.646  1.00  0.00     0.092 C 
HETATM    2  C2  UNL     1      32.383  15.322  -1.431  1.00  0.00     0.116 A 
HETATM    3  N1  UNL     1      33.229  15.588  -0.381  1.00  0.00    -0.274 N 
ATOM      4  H1  UNL     1      34.216  15.333  -0.342  1.00  0.00     0.189 HD
HETATM    5  N2  UNL     1      32.556  16.234   0.585  1.00  0.00    -0.129 N 
ATOM      6  H2  UNL     1      32.944  16.551   1.474  1.00  0.00     0.205 HD
HETATM    7  C3  UNL     1      31.311  16.388   0.188  1.00  0.00     0.721 A 
HETATM    8  N3  UNL     1      31.218  15.824  -1.065  1.00  0.00    -0.132 N 
HETATM    9  C4  UNL     1      30.061  15.834  -1.896  1.00  0.00     0.071 A 
HETATM   10  C5  UNL     1      30.392  15.935  -3.211  1.00  0.00     0.033 A 
HETATM   11  C6  UNL     1      29.312  16.017  -4.109  1.00  0.00     0.026 A 
HETATM   12  C7  UNL     1      28.004  15.998  -3.648  1.00  0.00     0.035 A 
HETATM   13 CL1  UNL     1      26.646  16.099  -4.766  1.00  0.00    -0.084 Cl
HETATM   14  C8  UNL     1      27.723  15.899  -2.304  1.00  0.00     0.040 A 
HETATM   15  C9  UNL     1      28.764  15.813  -1.407  1.00  0.00     0.022 A 
HETATM   16  C10 UNL     1      28.269  15.783  -0.044  1.00  0.00     0.071 C 
HETATM   17  C11 UNL     1      27.000  15.181   0.258  1.00  0.00    -0.007 A 
HETATM   18  C12 UNL     1      26.422  14.248  -0.548  1.00  0.00     0.014 A 
HETATM   19  C13 UNL     1      25.158  13.712  -0.271  1.00  0.00     0.001 A 
HETATM   20  C14 UNL     1      24.472  14.130   0.843  1.00  0.00     0.000 A 
HETATM   21  C15 UNL     1      25.053  15.071   1.660  1.00  0.00     0.001 A 
HETATM   22  C16 UNL     1      26.279  15.587   1.385  1.00  0.00     0.014 A 
HETATM   23  N4  UNL     1      28.945  16.307   0.979  1.00  0.00    -0.283 N 
ATOM     24  H4  UNL     1      28.495  16.240   1.891  1.00  0.00     0.188 HD
HETATM   25  N5  UNL     1      30.210  16.946   0.957  1.00  0.00    -0.126 N 
HETATM   26  C17 UNL     1      30.524  18.100   1.700  1.00  0.00     0.197 C 
ENDROOT
TORSDOF 0
ENDMDL
