MODEL 5
REMARK VINA RESULT: -7.998067226      3.207      6.391
REMARK  0 active torsions:
REMARK  status: ('A' for Active; 'I' for Inactive)
ROOT
HETATM    1  C1  UNL     1      26.818  14.865  -2.361  1.00  0.00     0.092 C 
HETATM    2  C2  UNL     1      26.770  14.922  -0.891  1.00  0.00     0.116 A 
HETATM    3  N1  UNL     1      25.649  14.867  -0.099  1.00  0.00    -0.274 N 
ATOM      4  H1  UNL     1      24.698  14.713  -0.435  1.00  0.00     0.189 HD
HETATM    5  N2  UNL     1      25.997  15.046   1.186  1.00  0.00    -0.129 N 
ATOM      6  H2  UNL     1      25.360  15.050   1.983  1.00  0.00     0.205 HD
HETATM    7  C3  UNL     1      27.301  15.215   1.240  1.00  0.00     0.721 A 
HETATM    8  N3  UNL     1      27.769  15.130  -0.052  1.00  0.00    -0.132 N 
HETATM    9  C4  UNL     1      29.138  15.182  -0.445  1.00  0.00     0.071 A 
HETATM   10  C5  UNL     1      29.383  14.374  -1.509  1.00  0.00     0.033 A 
HETATM   11  C6  UNL     1      30.723  14.309  -1.932  1.00  0.00     0.026 A 
HETATM   12  C7  UNL     1      31.709  15.033  -1.278  1.00  0.00     0.035 A 
HETATM   13 CL1  UNL     1      33.390  14.958  -1.802  1.00  0.00    -0.084 Cl
HETATM   14  C8  UNL     1      31.408  15.835  -0.200  1.00  0.00     0.040 A 
HETATM   15  C9  UNL     1      30.102  15.918   0.228  1.00  0.00     0.022 A 
HETATM   16  C10 UNL     1      29.999  16.754   1.409  1.00  0.00     0.071 C 
HETATM   17  C11 UNL     1      30.896  17.859   1.601  1.00  0.00    -0.007 A 
HETATM   18  C12 UNL     1      31.548  18.461   0.567  1.00  0.00     0.014 A 
HETATM   19  C13 UNL     1      32.464  19.499   0.775  1.00  0.00     0.001 A 
HETATM   20  C14 UNL     1      32.720  19.935   2.052  1.00  0.00     0.000 A 
HETATM   21  C15 UNL     1      32.062  19.331   3.098  1.00  0.00     0.001 A 
HETATM   22  C16 UNL     1      31.175  18.324   2.889  1.00  0.00     0.014 A 
HETATM   23  N4  UNL     1      29.091  16.543   2.362  1.00  0.00    -0.283 N 
ATOM     24  H4  UNL     1      29.118  17.186   3.154  1.00  0.00     0.188 HD
HETATM   25  N5  UNL     1      28.093  15.538   2.416  1.00  0.00    -0.126 N 
HETATM   26  C17 UNL     1      27.746  14.831   3.583  1.00  0.00     0.197 C 
ENDROOT
TORSDOF 0
ENDMDL
