MODEL 5
REMARK VINA RESULT: -10.482027169      1.704      3.147
REMARK  9 active torsions:
REMARK  status: ('A' for Active; 'I' for Inactive)
REMARK    1  A    between atoms: O1_2  and  C2_3 
REMARK    2  A    between atoms: C6_7  and  O2_8 
REMARK    3  A    between atoms: O2_8  and  C7_9 
REMARK    4  A    between atoms: C10_12  and  N1_13 
REMARK       I    between atoms: N1_13  and  C11_15 
REMARK    5  A    between atoms: C11_15  and  C12_17 
REMARK    6  A    between atoms: N2_20  and  C15_21 
REMARK    7  A    between atoms: C15_21  and  C16_22 
REMARK    8  A    between atoms: C16_22  and  O4_24 
REMARK    9  A    between atoms: N3_26  and  C18_27 
ROOT
HETATM    1  N1  UNL     1      23.232  -3.553  16.641  1.00  0.00    -0.323 N 
ATOM      2  H1  UNL     1      24.142  -3.112  16.774  1.00  0.00     0.169 HD
HETATM    3  C11 UNL     1      22.758  -3.612  15.313  1.00  0.00     0.263 C 
HETATM    4  O3  UNL     1      21.609  -4.165  15.139  1.00  0.00    -0.267 OA
ENDROOT
BRANCH   1   5
HETATM    5  C10 UNL     1      22.600  -4.030  17.807  1.00  0.00     0.038 A 
HETATM    6  C9  UNL     1      22.147  -3.050  18.706  1.00  0.00     0.032 A 
HETATM    7  C8  UNL     1      21.521  -3.378  19.882  1.00  0.00     0.043 A 
HETATM    8  C7  UNL     1      21.305  -4.703  20.237  1.00  0.00     0.114 A 
HETATM    9  C26 UNL     1      21.746  -5.705  19.361  1.00  0.00     0.152 A 
HETATM   10  C25 UNL     1      22.366  -5.305  18.197  1.00  0.00     0.074 A 
HETATM   11  F1  UNL     1      21.558  -7.019  19.662  1.00  0.00    -0.203 F 
BRANCH   8  12
HETATM   12  O2  UNL     1      20.695  -5.136  21.377  1.00  0.00    -0.307 OA
BRANCH  12  13
HETATM   13  C6  UNL     1      21.366  -5.452  22.525  1.00  0.00     0.090 A 
HETATM   14  C5  UNL     1      20.756  -5.901  23.652  1.00  0.00     0.025 A 
HETATM   15  C4  UNL     1      19.397  -6.079  23.773  1.00  0.00     0.019 A 
HETATM   16  C29 UNL     1      21.557  -6.188  24.757  1.00  0.00     0.047 A 
HETATM   17  C3  UNL     1      18.793  -6.535  24.949  1.00  0.00     0.038 A 
HETATM   18  C2  UNL     1      19.599  -6.814  26.028  1.00  0.00     0.070 A 
HETATM   19  C30 UNL     1      20.966  -6.636  25.914  1.00  0.00     0.067 A 
HETATM   20  N4  UNL     1      22.901  -6.026  24.718  1.00  0.00    -0.365 N 
HETATM   21  C28 UNL     1      23.526  -5.582  23.620  1.00  0.00     0.091 A 
ATOM     22  H4  UNL     1      23.452  -6.247  25.548  1.00  0.00     0.165 HD
HETATM   23  C27 UNL     1      22.775  -5.293  22.522  1.00  0.00     0.055 A 
BRANCH  18  24
HETATM   24  O1  UNL     1      19.054  -7.271  27.229  1.00  0.00    -0.356 OA
HETATM   25  C1  UNL     1      19.189  -6.495  28.399  1.00  0.00     0.210 C 
ENDBRANCH  18  24
ENDBRANCH  12  13
ENDBRANCH   8  12
ENDBRANCH   1   5
BRANCH   3  26
HETATM   26  C12 UNL     1      23.473  -3.097  14.151  1.00  0.00     0.125 A 
HETATM   27  C13 UNL     1      23.737  -1.770  13.897  1.00  0.00     0.046 A 
HETATM   28  C14 UNL     1      23.338  -0.639  14.759  1.00  0.00     0.071 C 
HETATM   29  N2  UNL     1      24.417  -1.703  12.728  1.00  0.00    -0.283 N 
HETATM   30  N3  UNL     1      24.598  -2.908  12.231  1.00  0.00    -0.217 N 
HETATM   31  C24 UNL     1      24.013  -3.781  13.110  1.00  0.00     0.284 A 
HETATM   32  O5  UNL     1      24.012  -5.042  12.919  1.00  0.00    -0.265 OA
BRANCH  29  33
HETATM   33  C15 UNL     1      24.906  -0.473  12.084  1.00  0.00     0.180 C 
BRANCH  33  34
HETATM   34  C16 UNL     1      23.942   0.032  11.047  1.00  0.00     0.134 C 
HETATM   35  C17 UNL     1      24.556  -0.037   9.668  1.00  0.00     0.041 C 
BRANCH  34  36
HETATM   36  O4  UNL     1      22.799  -0.747  11.081  1.00  0.00    -0.394 OA
ATOM     37  H4  UNL     1      22.084  -0.228  11.429  1.00  0.00     0.210 HD
ENDBRANCH  34  36
ENDBRANCH  33  34
ENDBRANCH  29  33
BRANCH  30  38
HETATM   38  C18 UNL     1      25.267  -3.310  11.021  1.00  0.00     0.060 A 
HETATM   39  C19 UNL     1      24.540  -3.815   9.966  1.00  0.00     0.031 A 
HETATM   40  C20 UNL     1      25.175  -4.201   8.807  1.00  0.00     0.002 A 
HETATM   41  C21 UNL     1      26.542  -4.102   8.649  1.00  0.00     0.000 A 
HETATM   42  C22 UNL     1      27.252  -3.595   9.715  1.00  0.00     0.002 A 
HETATM   43  C23 UNL     1      26.627  -3.206  10.881  1.00  0.00     0.031 A 
ENDBRANCH  30  38
ENDBRANCH   3  26
TORSDOF 9
ENDMDL
