MODEL 6
REMARK VINA RESULT: -10.205339192      1.735      3.048
REMARK  9 active torsions:
REMARK  status: ('A' for Active; 'I' for Inactive)
REMARK    1  A    between atoms: O1_2  and  C2_3 
REMARK    2  A    between atoms: C6_7  and  O2_8 
REMARK    3  A    between atoms: O2_8  and  C7_9 
REMARK    4  A    between atoms: C10_12  and  N1_13 
REMARK       I    between atoms: N1_13  and  C11_15 
REMARK    5  A    between atoms: C11_15  and  C12_17 
REMARK    6  A    between atoms: N2_20  and  C15_21 
REMARK    7  A    between atoms: C15_21  and  C16_22 
REMARK    8  A    between atoms: C16_22  and  O4_24 
REMARK    9  A    between atoms: N3_26  and  C18_27 
ROOT
HETATM    1  N1  UNL     1      22.825  -3.655  15.780  1.00  0.00    -0.323 N 
ATOM      2  H1  UNL     1      22.568  -4.317  15.049  1.00  0.00     0.169 HD
HETATM    3  C11 UNL     1      23.581  -2.537  15.366  1.00  0.00     0.263 C 
HETATM    4  O3  UNL     1      23.912  -1.698  16.284  1.00  0.00    -0.267 OA
ENDROOT
BRANCH   1   5
HETATM    5  C10 UNL     1      22.382  -3.965  17.080  1.00  0.00     0.038 A 
HETATM    6  C9  UNL     1      22.131  -2.870  17.923  1.00  0.00     0.032 A 
HETATM    7  C8  UNL     1      21.701  -3.033  19.216  1.00  0.00     0.043 A 
HETATM    8  C7  UNL     1      21.495  -4.297  19.752  1.00  0.00     0.114 A 
HETATM    9  C26 UNL     1      21.738  -5.411  18.936  1.00  0.00     0.152 A 
HETATM   10  C25 UNL     1      22.166  -5.176  17.648  1.00  0.00     0.074 A 
HETATM   11  F1  UNL     1      21.550  -6.672  19.414  1.00  0.00    -0.203 F 
BRANCH   8  12
HETATM   12  O2  UNL     1      21.072  -4.569  21.019  1.00  0.00    -0.307 OA
BRANCH  12  13
HETATM   13  C6  UNL     1      21.901  -4.977  22.027  1.00  0.00     0.090 A 
HETATM   14  C5  UNL     1      21.462  -5.576  23.164  1.00  0.00     0.025 A 
HETATM   15  C4  UNL     1      20.138  -5.830  23.439  1.00  0.00     0.019 A 
HETATM   16  C29 UNL     1      22.414  -5.945  24.114  1.00  0.00     0.047 A 
HETATM   17  C3  UNL     1      19.713  -6.441  24.623  1.00  0.00     0.038 A 
HETATM   18  C2  UNL     1      20.665  -6.799  25.549  1.00  0.00     0.070 A 
HETATM   19  C30 UNL     1      21.998  -6.545  25.280  1.00  0.00     0.067 A 
HETATM   20  N4  UNL     1      23.734  -5.715  23.921  1.00  0.00    -0.365 N 
HETATM   21  C28 UNL     1      24.191  -5.124  22.810  1.00  0.00     0.091 A 
ATOM     22  H4  UNL     1      24.398  -6.000  24.641  1.00  0.00     0.165 HD
HETATM   23  C27 UNL     1      23.290  -4.752  21.859  1.00  0.00     0.055 A 
BRANCH  18  24
HETATM   24  O1  UNL     1      20.301  -7.411  26.749  1.00  0.00    -0.356 OA
HETATM   25  C1  UNL     1      20.110  -6.626  27.905  1.00  0.00     0.210 C 
ENDBRANCH  18  24
ENDBRANCH  12  13
ENDBRANCH   8  12
ENDBRANCH   1   5
BRANCH   3  26
HETATM   26  C12 UNL     1      24.004  -2.280  13.994  1.00  0.00     0.125 A 
HETATM   27  C13 UNL     1      24.111  -1.039  13.409  1.00  0.00     0.046 A 
HETATM   28  C14 UNL     1      23.815   0.247  14.072  1.00  0.00     0.071 C 
HETATM   29  N2  UNL     1      24.531  -1.220  12.134  1.00  0.00    -0.283 N 
HETATM   30  N3  UNL     1      24.695  -2.501  11.882  1.00  0.00    -0.217 N 
HETATM   31  C24 UNL     1      24.368  -3.168  13.034  1.00  0.00     0.284 A 
HETATM   32  O5  UNL     1      24.421  -4.439  13.124  1.00  0.00    -0.265 OA
BRANCH  29  33
HETATM   33  C15 UNL     1      24.785  -0.156  11.151  1.00  0.00     0.180 C 
BRANCH  33  34
HETATM   34  C16 UNL     1      23.821  -0.222   9.999  1.00  0.00     0.134 C 
HETATM   35  C17 UNL     1      22.423  -0.524  10.488  1.00  0.00     0.041 C 
BRANCH  34  36
HETATM   36  O4  UNL     1      23.825   0.995   9.342  1.00  0.00    -0.394 OA
ATOM     37  H4  UNL     1      24.348   0.918   8.553  1.00  0.00     0.210 HD
ENDBRANCH  34  36
ENDBRANCH  33  34
ENDBRANCH  29  33
BRANCH  30  38
HETATM   38  C18 UNL     1      25.130  -3.150  10.672  1.00  0.00     0.060 A 
HETATM   39  C19 UNL     1      24.214  -3.783   9.861  1.00  0.00     0.031 A 
HETATM   40  C20 UNL     1      24.625  -4.404   8.704  1.00  0.00     0.002 A 
HETATM   41  C21 UNL     1      25.948  -4.422   8.307  1.00  0.00     0.000 A 
HETATM   42  C22 UNL     1      26.848  -3.783   9.132  1.00  0.00     0.002 A 
HETATM   43  C23 UNL     1      26.448  -3.158  10.293  1.00  0.00     0.031 A 
ENDBRANCH  30  38
ENDBRANCH   3  26
TORSDOF 9
ENDMDL
