MODEL 7
REMARK VINA RESULT: -10.051570654      1.779      2.992
REMARK  9 active torsions:
REMARK  status: ('A' for Active; 'I' for Inactive)
REMARK    1  A    between atoms: O1_2  and  C2_3 
REMARK    2  A    between atoms: C6_7  and  O2_8 
REMARK    3  A    between atoms: O2_8  and  C7_9 
REMARK    4  A    between atoms: C10_12  and  N1_13 
REMARK       I    between atoms: N1_13  and  C11_15 
REMARK    5  A    between atoms: C11_15  and  C12_17 
REMARK    6  A    between atoms: N2_20  and  C15_21 
REMARK    7  A    between atoms: C15_21  and  C16_22 
REMARK    8  A    between atoms: C16_22  and  O4_24 
REMARK    9  A    between atoms: N3_26  and  C18_27 
ROOT
HETATM    1  N1  UNL     1      22.904  -3.737  16.135  1.00  0.00    -0.323 N 
ATOM      2  H1  UNL     1      23.866  -3.399  16.111  1.00  0.00     0.169 HD
HETATM    3  C11 UNL     1      22.242  -3.815  14.891  1.00  0.00     0.263 C 
HETATM    4  O3  UNL     1      21.027  -4.238  14.914  1.00  0.00    -0.267 OA
ENDROOT
BRANCH   1   5
HETATM    5  C10 UNL     1      22.397  -4.070  17.406  1.00  0.00     0.038 A 
HETATM    6  C9  UNL     1      22.140  -2.990  18.268  1.00  0.00     0.032 A 
HETATM    7  C8  UNL     1      21.651  -3.175  19.537  1.00  0.00     0.043 A 
HETATM    8  C7  UNL     1      21.386  -4.447  20.028  1.00  0.00     0.114 A 
HETATM    9  C26 UNL     1      21.632  -5.545  19.192  1.00  0.00     0.152 A 
HETATM   10  C25 UNL     1      22.122  -5.288  17.930  1.00  0.00     0.074 A 
HETATM   11  F1  UNL     1      21.388  -6.812  19.626  1.00  0.00    -0.203 F 
BRANCH   8  12
HETATM   12  O2  UNL     1      20.900  -4.740  21.268  1.00  0.00    -0.307 OA
BRANCH  12  13
HETATM   13  C6  UNL     1      21.680  -5.159  22.310  1.00  0.00     0.090 A 
HETATM   14  C5  UNL     1      21.183  -5.729  23.437  1.00  0.00     0.025 A 
HETATM   15  C4  UNL     1      19.843  -5.941  23.666  1.00  0.00     0.019 A 
HETATM   16  C29 UNL     1      22.088  -6.113  24.427  1.00  0.00     0.047 A 
HETATM   17  C3  UNL     1      19.357  -6.523  24.842  1.00  0.00     0.038 A 
HETATM   18  C2  UNL     1      20.264  -6.896  25.806  1.00  0.00     0.070 A 
HETATM   19  C30 UNL     1      21.613  -6.685  25.583  1.00  0.00     0.067 A 
HETATM   20  N4  UNL     1      23.420  -5.925  24.279  1.00  0.00    -0.365 N 
HETATM   21  C28 UNL     1      23.935  -5.362  23.178  1.00  0.00     0.091 A 
ATOM     22  H4  UNL     1      24.049  -6.219  25.027  1.00  0.00     0.165 HD
HETATM   23  C27 UNL     1      23.081  -4.977  22.190  1.00  0.00     0.055 A 
BRANCH  18  24
HETATM   24  O1  UNL     1      19.838  -7.481  27.000  1.00  0.00    -0.356 OA
HETATM   25  C1  UNL     1      19.816  -6.716  28.185  1.00  0.00     0.210 C 
ENDBRANCH  18  24
ENDBRANCH  12  13
ENDBRANCH   8  12
ENDBRANCH   1   5
BRANCH   3  26
HETATM   26  C12 UNL     1      22.836  -3.453  13.608  1.00  0.00     0.125 A 
HETATM   27  C13 UNL     1      22.198  -2.777  12.594  1.00  0.00     0.046 A 
HETATM   28  C14 UNL     1      20.800  -2.303  12.629  1.00  0.00     0.071 C 
HETATM   29  N2  UNL     1      23.081  -2.634  11.576  1.00  0.00    -0.283 N 
HETATM   30  N3  UNL     1      24.237  -3.179  11.891  1.00  0.00    -0.217 N 
HETATM   31  C24 UNL     1      24.092  -3.691  13.154  1.00  0.00     0.284 A 
HETATM   32  O5  UNL     1      25.041  -4.294  13.757  1.00  0.00    -0.265 OA
BRANCH  29  33
HETATM   33  C15 UNL     1      22.818  -1.962  10.294  1.00  0.00     0.180 C 
BRANCH  33  34
HETATM   34  C16 UNL     1      23.223  -0.515  10.332  1.00  0.00     0.134 C 
HETATM   35  C17 UNL     1      23.924  -0.123   9.051  1.00  0.00     0.041 C 
BRANCH  34  36
HETATM   36  O4  UNL     1      22.091   0.263  10.493  1.00  0.00    -0.394 OA
ATOM     37  H4  UNL     1      22.288   1.152  10.222  1.00  0.00     0.210 HD
ENDBRANCH  34  36
ENDBRANCH  33  34
ENDBRANCH  29  33
BRANCH  30  38
HETATM   38  C18 UNL     1      25.453  -3.259  11.124  1.00  0.00     0.060 A 
HETATM   39  C19 UNL     1      25.491  -4.004   9.967  1.00  0.00     0.031 A 
HETATM   40  C20 UNL     1      26.652  -4.082   9.231  1.00  0.00     0.002 A 
HETATM   41  C21 UNL     1      27.809  -3.431   9.608  1.00  0.00     0.000 A 
HETATM   42  C22 UNL     1      27.750  -2.690  10.768  1.00  0.00     0.002 A 
HETATM   43  C23 UNL     1      26.594  -2.604  11.514  1.00  0.00     0.031 A 
ENDBRANCH  30  38
ENDBRANCH   3  26
TORSDOF 9
ENDMDL
