MODEL 10
REMARK VINA RESULT: -9.446640952      2.751     13.772
REMARK  9 active torsions:
REMARK  status: ('A' for Active; 'I' for Inactive)
REMARK    1  A    between atoms: O1_2  and  C2_3 
REMARK    2  A    between atoms: C6_7  and  O2_8 
REMARK    3  A    between atoms: O2_8  and  C7_9 
REMARK    4  A    between atoms: C10_12  and  N1_13 
REMARK       I    between atoms: N1_13  and  C11_15 
REMARK    5  A    between atoms: C11_15  and  C12_17 
REMARK    6  A    between atoms: N2_20  and  C15_21 
REMARK    7  A    between atoms: C15_21  and  C16_22 
REMARK    8  A    between atoms: C16_22  and  O4_24 
REMARK    9  A    between atoms: N3_26  and  C18_27 
ROOT
HETATM    1  N1  UNL     1      20.934  -5.225  21.539  1.00  0.00    -0.323 N 
ATOM      2  H1  UNL     1      21.180  -4.458  22.165  1.00  0.00     0.169 HD
HETATM    3  C11 UNL     1      20.164  -6.264  22.104  1.00  0.00     0.263 C 
HETATM    4  O3  UNL     1      19.853  -7.236  21.322  1.00  0.00    -0.267 OA
ENDROOT
BRANCH   1   5
HETATM    5  C10 UNL     1      21.405  -5.119  20.216  1.00  0.00     0.038 A 
HETATM    6  C9  UNL     1      21.462  -3.819  19.685  1.00  0.00     0.032 A 
HETATM    7  C8  UNL     1      21.895  -3.577  18.406  1.00  0.00     0.043 A 
HETATM    8  C7  UNL     1      22.298  -4.613  17.574  1.00  0.00     0.114 A 
HETATM    9  C26 UNL     1      22.252  -5.922  18.074  1.00  0.00     0.152 A 
HETATM   10  C25 UNL     1      21.808  -6.094  19.367  1.00  0.00     0.074 A 
HETATM   11  F1  UNL     1      22.637  -6.973  17.299  1.00  0.00    -0.203 F 
BRANCH   8  12
HETATM   12  O2  UNL     1      22.744  -4.482  16.292  1.00  0.00    -0.307 OA
BRANCH  12  13
HETATM   13  C6  UNL     1      23.162  -3.299  15.749  1.00  0.00     0.090 A 
HETATM   14  C5  UNL     1      23.626  -3.179  14.478  1.00  0.00     0.025 A 
HETATM   15  C4  UNL     1      23.739  -4.229  13.597  1.00  0.00     0.019 A 
HETATM   16  C29 UNL     1      24.021  -1.913  14.047  1.00  0.00     0.047 A 
HETATM   17  C3  UNL     1      24.229  -4.078  12.296  1.00  0.00     0.038 A 
HETATM   18  C2  UNL     1      24.613  -2.823  11.887  1.00  0.00     0.070 A 
HETATM   19  C30 UNL     1      24.504  -1.762  12.768  1.00  0.00     0.067 A 
HETATM   20  N4  UNL     1      23.952  -0.834  14.861  1.00  0.00    -0.365 N 
HETATM   21  C28 UNL     1      23.501  -0.927  16.118  1.00  0.00     0.091 A 
ATOM     22  H4  UNL     1      24.251   0.075  14.507  1.00  0.00     0.165 HD
HETATM   23  C27 UNL     1      23.104  -2.148  16.573  1.00  0.00     0.055 A 
BRANCH  18  24
HETATM   24  O1  UNL     1      25.110  -2.611  10.600  1.00  0.00    -0.356 OA
HETATM   25  C1  UNL     1      24.783  -1.425   9.910  1.00  0.00     0.210 C 
ENDBRANCH  18  24
ENDBRANCH  12  13
ENDBRANCH   8  12
ENDBRANCH   1   5
BRANCH   3  26
HETATM   26  C12 UNL     1      19.710  -6.303  23.490  1.00  0.00     0.125 A 
HETATM   27  C13 UNL     1      20.522  -6.280  24.600  1.00  0.00     0.046 A 
HETATM   28  C14 UNL     1      21.998  -6.213  24.578  1.00  0.00     0.071 C 
HETATM   29  N2  UNL     1      19.726  -6.331  25.695  1.00  0.00    -0.283 N 
HETATM   30  N3  UNL     1      18.460  -6.384  25.339  1.00  0.00    -0.217 N 
HETATM   31  C24 UNL     1      18.441  -6.368  23.969  1.00  0.00     0.284 A 
HETATM   32  O5  UNL     1      17.355  -6.410  23.302  1.00  0.00    -0.265 OA
BRANCH  29  33
HETATM   33  C15 UNL     1      20.181  -6.321  27.093  1.00  0.00     0.180 C 
BRANCH  33  34
HETATM   34  C16 UNL     1      19.881  -7.622  27.785  1.00  0.00     0.134 C 
HETATM   35  C17 UNL     1      20.453  -8.785  27.009  1.00  0.00     0.041 C 
BRANCH  34  36
HETATM   36  O4  UNL     1      20.438  -7.595  29.050  1.00  0.00    -0.394 OA
ATOM     37  H4  UNL     1      19.878  -8.082  29.644  1.00  0.00     0.210 HD
ENDBRANCH  34  36
ENDBRANCH  33  34
ENDBRANCH  29  33
BRANCH  30  38
HETATM   38  C18 UNL     1      17.278  -6.444  26.160  1.00  0.00     0.060 A 
HETATM   39  C19 UNL     1      16.724  -7.662  26.483  1.00  0.00     0.031 A 
HETATM   40  C20 UNL     1      15.594  -7.724  27.268  1.00  0.00     0.002 A 
HETATM   41  C21 UNL     1      14.976  -6.592  27.760  1.00  0.00     0.000 A 
HETATM   42  C22 UNL     1      15.547  -5.383  27.426  1.00  0.00     0.002 A 
HETATM   43  C23 UNL     1      16.677  -5.309  26.640  1.00  0.00     0.031 A 
ENDBRANCH  30  38
ENDBRANCH   3  26
TORSDOF 9
ENDMDL
