MODEL 2
REMARK VINA RESULT: -5.794490629      0.064      1.125
REMARK  2 active torsions:
REMARK  status: ('A' for Active; 'I' for Inactive)
REMARK    1  A    between atoms: C2_2  and  C4_4 
REMARK    2  A    between atoms: C4_4  and  C5_6 
ROOT
HETATM    1  C4  UNL     1     -26.357 -24.112 -30.112  1.00  0.00     0.228 C 
HETATM    2  O1  UNL     1     -27.371 -24.641 -29.596  1.00  0.00    -0.285 OA
ENDROOT
BRANCH   1   3
HETATM    3  C2  UNL     1     -26.102 -22.705 -29.842  1.00  0.00     0.059 C 
HETATM    4  C1  UNL     1     -25.304 -22.452 -28.585  1.00  0.00     0.018 C 
HETATM    5  C3  UNL     1     -27.420 -21.968 -29.675  1.00  0.00     0.018 C 
ENDBRANCH   1   3
BRANCH   1   6
HETATM    6  C5  UNL     1     -25.490 -24.933 -30.954  1.00  0.00     0.247 C 
HETATM    7  O2  UNL     1     -25.855 -26.042 -31.427  1.00  0.00    -0.642 OA
HETATM    8  O3  UNL     1     -24.207 -24.520 -31.273  1.00  0.00    -0.642 OA
ENDBRANCH   1   6
TORSDOF 2
ENDMDL
