MODEL 5
REMARK VINA RESULT: -5.487894300      1.109      1.219
REMARK  2 active torsions:
REMARK  status: ('A' for Active; 'I' for Inactive)
REMARK    1  A    between atoms: C2_2  and  C4_4 
REMARK    2  A    between atoms: C4_4  and  C5_6 
ROOT
HETATM    1  C4  UNL     1     -25.937 -24.116 -29.812  1.00  0.00     0.228 C 
HETATM    2  O1  UNL     1     -25.937 -24.871 -28.810  1.00  0.00    -0.285 OA
ENDROOT
BRANCH   1   3
HETATM    3  C2  UNL     1     -25.680 -22.699 -29.607  1.00  0.00     0.059 C 
HETATM    4  C1  UNL     1     -24.615 -22.407 -28.576  1.00  0.00     0.018 C 
HETATM    5  C3  UNL     1     -26.949 -22.013 -29.128  1.00  0.00     0.018 C 
ENDBRANCH   1   3
BRANCH   1   6
HETATM    6  C5  UNL     1     -26.194 -24.699 -31.127  1.00  0.00     0.247 C 
HETATM    7  O2  UNL     1     -26.794 -24.074 -32.041  1.00  0.00    -0.642 OA
HETATM    8  O3  UNL     1     -25.781 -25.986 -31.430  1.00  0.00    -0.642 OA
ENDBRANCH   1   6
TORSDOF 2
ENDMDL
