MODEL 1
REMARK VINA RESULT: -5.834827925      0.000      0.000
REMARK  2 active torsions:
REMARK  status: ('A' for Active; 'I' for Inactive)
REMARK    1  A    between atoms: C2_2  and  C4_4 
REMARK    2  A    between atoms: C4_4  and  C5_6 
ROOT
HETATM    1  C4  UNL     1     -26.308 -24.079 -30.100  1.00  0.00     0.228 C 
HETATM    2  O1  UNL     1     -27.300 -24.632 -29.566  1.00  0.00    -0.285 OA
ENDROOT
BRANCH   1   3
HETATM    3  C2  UNL     1     -26.090 -22.663 -29.845  1.00  0.00     0.059 C 
HETATM    4  C1  UNL     1     -25.288 -22.377 -28.597  1.00  0.00     0.018 C 
HETATM    5  C3  UNL     1     -27.427 -21.962 -29.672  1.00  0.00     0.018 C 
ENDBRANCH   1   3
BRANCH   1   6
HETATM    6  C5  UNL     1     -25.429 -24.882 -30.946  1.00  0.00     0.247 C 
HETATM    7  O2  UNL     1     -24.256 -24.529 -31.234  1.00  0.00    -0.642 OA
HETATM    8  O3  UNL     1     -25.857 -26.089 -31.476  1.00  0.00    -0.642 OA
ENDBRANCH   1   6
TORSDOF 2
ENDMDL
