MODEL 4
REMARK VINA RESULT: -5.492028552      1.082      1.731
REMARK  2 active torsions:
REMARK  status: ('A' for Active; 'I' for Inactive)
REMARK    1  A    between atoms: C2_2  and  C4_4 
REMARK    2  A    between atoms: C4_4  and  C5_6 
ROOT
HETATM    1  C4  UNL     1     -26.083 -24.508 -29.699  1.00  0.00     0.228 C 
HETATM    2  O1  UNL     1     -27.331 -24.634 -29.683  1.00  0.00    -0.285 OA
ENDROOT
BRANCH   1   3
HETATM    3  C2  UNL     1     -25.440 -23.877 -28.556  1.00  0.00     0.059 C 
HETATM    4  C1  UNL     1     -25.074 -22.428 -28.776  1.00  0.00     0.018 C 
HETATM    5  C3  UNL     1     -24.148 -24.606 -28.228  1.00  0.00     0.018 C 
ENDBRANCH   1   3
BRANCH   1   6
HETATM    6  C5  UNL     1     -25.344 -25.000 -30.859  1.00  0.00     0.247 C 
HETATM    7  O2  UNL     1     -24.349 -24.395 -31.337  1.00  0.00    -0.642 OA
HETATM    8  O3  UNL     1     -25.714 -26.174 -31.495  1.00  0.00    -0.642 OA
ENDBRANCH   1   6
TORSDOF 2
ENDMDL
