MODEL 6
REMARK VINA RESULT: -5.478639036      1.506      2.012
REMARK  2 active torsions:
REMARK  status: ('A' for Active; 'I' for Inactive)
REMARK    1  A    between atoms: C2_2  and  C4_4 
REMARK    2  A    between atoms: C4_4  and  C5_6 
ROOT
HETATM    1  C4  UNL     1     -24.933 -24.334 -28.957  1.00  0.00     0.228 C 
HETATM    2  O1  UNL     1     -24.514 -25.178 -28.128  1.00  0.00    -0.285 OA
ENDROOT
BRANCH   1   3
HETATM    3  C2  UNL     1     -25.168 -22.974 -28.495  1.00  0.00     0.059 C 
HETATM    4  C1  UNL     1     -26.334 -22.287 -29.165  1.00  0.00     0.018 C 
HETATM    5  C3  UNL     1     -23.942 -22.120 -28.775  1.00  0.00     0.018 C 
ENDBRANCH   1   3
BRANCH   1   6
HETATM    6  C5  UNL     1     -25.162 -24.760 -30.335  1.00  0.00     0.247 C 
HETATM    7  O2  UNL     1     -24.312 -24.589 -31.249  1.00  0.00    -0.642 OA
HETATM    8  O3  UNL     1     -26.345 -25.378 -30.704  1.00  0.00    -0.642 OA
ENDBRANCH   1   6
TORSDOF 2
ENDMDL
