MODEL 13
REMARK VINA RESULT: -7.986701611      1.092      1.930
REMARK  10 active torsions:
REMARK  status: ('A' for Active; 'I' for Inactive)
REMARK    1  A    between atoms: N5_13  and  C6_14 
REMARK    2  A    between atoms: C7_16  and  C8_17 
REMARK    3  A    between atoms: C8_17  and  S1_18 
REMARK    4  A    between atoms: S1_18  and  C9_19 
REMARK    5  A    between atoms: C9_19  and  C10_20 
REMARK    6  A    between atoms: C10_20  and  C11_21 
REMARK    7  A    between atoms: C11_21  and  N6_22 
REMARK    8  A    between atoms: C11_21  and  C12_26 
REMARK    9  A    between atoms: C13_29  and  O4_30 
REMARK   10  A    between atoms: C14_32  and  O5_33 
ROOT
HETATM    1  C6  UNL     1     -17.272 -13.815  15.735  1.00  0.00     0.262 C 
HETATM    2  O1  UNL     1     -16.808 -12.938  16.730  1.00  0.00    -0.355 OA
HETATM    3  C7  UNL     1     -16.722 -11.699  16.070  1.00  0.00     0.165 C 
HETATM    4  C13 UNL     1     -17.927 -11.655  15.163  1.00  0.00     0.180 C 
HETATM    5  C14 UNL     1     -18.483 -13.057  15.280  1.00  0.00     0.198 C 
ENDROOT
BRANCH   1   6
HETATM    6  N5  UNL     1     -17.525 -15.111  16.279  1.00  0.00    -0.297 N 
HETATM    7  C3  UNL     1     -18.464 -15.405  17.194  1.00  0.00     0.142 A 
HETATM    8  N3  UNL     1     -19.382 -14.669  17.841  1.00  0.00    -0.336 N 
HETATM    9  C4  UNL     1     -18.363 -16.776  17.431  1.00  0.00     0.119 A 
HETATM   10  C2  UNL     1     -20.191 -15.285  18.715  1.00  0.00     0.183 A 
ATOM     11  H3  UNL     1     -19.463 -13.667  17.671  1.00  0.00     0.168 HD
HETATM   12  N2  UNL     1     -20.111 -16.599  18.958  1.00  0.00    -0.339 N 
HETATM   13  C1  UNL     1     -19.204 -17.360  18.327  1.00  0.00     0.148 A 
ATOM     14  H2  UNL     1     -20.746 -17.027  19.632  1.00  0.00     0.167 HD
HETATM   15  N1  UNL     1     -19.121 -18.763  18.587  1.00  0.00    -0.080 NA
HETATM   16  N4  UNL     1     -17.360 -17.226  16.638  1.00  0.00    -0.346 N 
HETATM   17  C5  UNL     1     -16.846 -16.223  15.936  1.00  0.00     0.188 A 
ATOM     18  H4  UNL     1     -17.045 -18.194  16.588  1.00  0.00     0.167 HD
ENDBRANCH   1   6
BRANCH   5  19
HETATM   19  O5  UNL     1     -19.014 -13.505  14.080  1.00  0.00    -0.388 OA
ATOM     20  H5  UNL     1     -19.038 -14.450  13.995  1.00  0.00     0.210 HD
ENDBRANCH   5  19
BRANCH   3  21
HETATM   21  C8  UNL     1     -16.856 -10.608  17.090  1.00  0.00     0.108 C 
BRANCH  21  22
HETATM   22  S1  UNL     1     -15.913  -9.140  16.844  1.00  0.00    -0.166 SA
BRANCH  22  23
HETATM   23  C9  UNL     1     -14.943  -9.060  15.368  1.00  0.00     0.076 C 
BRANCH  23  24
HETATM   24  C10 UNL     1     -13.480  -8.821  15.607  1.00  0.00     0.054 C 
BRANCH  24  25
HETATM   25  C11 UNL     1     -12.656  -9.947  15.090  1.00  0.00     0.284 C 
BRANCH  25  26
HETATM   26  N6  UNL     1     -12.661 -11.089  15.949  1.00  0.00    -0.065 N 
ATOM     27  H63 UNL     1     -13.369 -11.762  15.655  1.00  0.00     0.275 HD
ATOM     28  H62 UNL     1     -11.824 -11.654  15.807  1.00  0.00     0.275 HD
ATOM     29  H61 UNL     1     -12.774 -10.849  16.934  1.00  0.00     0.275 HD
ENDBRANCH  25  26
BRANCH  25  30
HETATM   30  C12 UNL     1     -11.273  -9.565  14.772  1.00  0.00     0.204 C 
HETATM   31  O2  UNL     1     -10.512 -10.385  14.225  1.00  0.00    -0.646 OA
HETATM   32  O3  UNL     1     -10.811  -8.302  15.075  1.00  0.00    -0.646 OA
ENDBRANCH  25  30
ENDBRANCH  24  25
ENDBRANCH  23  24
ENDBRANCH  22  23
ENDBRANCH  21  22
ENDBRANCH   3  21
BRANCH   4  33
HETATM   33  O4  UNL     1     -17.522 -11.473  13.826  1.00  0.00    -0.390 OA
ATOM     34  H4  UNL     1     -16.695 -11.009  13.793  1.00  0.00     0.210 HD
ENDBRANCH   4  33
TORSDOF 10
ENDMDL
