MODEL 4
REMARK VINA RESULT: -8.209296522      3.248      9.081
REMARK  10 active torsions:
REMARK  status: ('A' for Active; 'I' for Inactive)
REMARK    1  A    between atoms: N5_13  and  C6_14 
REMARK    2  A    between atoms: C7_16  and  C8_17 
REMARK    3  A    between atoms: C8_17  and  S1_18 
REMARK    4  A    between atoms: S1_18  and  C9_19 
REMARK    5  A    between atoms: C9_19  and  C10_20 
REMARK    6  A    between atoms: C10_20  and  C11_21 
REMARK    7  A    between atoms: C11_21  and  N6_22 
REMARK    8  A    between atoms: C11_21  and  C12_26 
REMARK    9  A    between atoms: C13_29  and  O4_30 
REMARK   10  A    between atoms: C14_32  and  O5_33 
ROOT
HETATM    1  C6  UNL     1     -15.943 -10.240  16.329  1.00  0.00     0.262 C 
HETATM    2  O1  UNL     1     -16.986 -10.625  17.188  1.00  0.00    -0.355 OA
HETATM    3  C7  UNL     1     -17.675 -11.610  16.458  1.00  0.00     0.165 C 
HETATM    4  C13 UNL     1     -16.599 -12.400  15.755  1.00  0.00     0.180 C 
HETATM    5  C14 UNL     1     -15.354 -11.587  16.034  1.00  0.00     0.198 C 
ENDROOT
BRANCH   1   6
HETATM    6  N5  UNL     1     -15.070  -9.313  16.974  1.00  0.00    -0.297 N 
HETATM    7  C3  UNL     1     -14.090  -8.617  16.375  1.00  0.00     0.142 A 
HETATM    8  N3  UNL     1     -13.641  -8.558  15.111  1.00  0.00    -0.336 N 
HETATM    9  C4  UNL     1     -13.499  -7.838  17.370  1.00  0.00     0.119 A 
HETATM   10  C2  UNL     1     -12.617  -7.737  14.836  1.00  0.00     0.183 A 
ATOM     11  H3  UNL     1     -14.069  -9.123  14.377  1.00  0.00     0.168 HD
HETATM   12  N2  UNL     1     -12.036  -6.981  15.776  1.00  0.00    -0.339 N 
HETATM   13  C1  UNL     1     -12.462  -7.018  17.047  1.00  0.00     0.148 A 
ATOM     14  H2  UNL     1     -11.259  -6.370  15.522  1.00  0.00     0.167 HD
HETATM   15  N1  UNL     1     -11.841  -6.210  18.049  1.00  0.00    -0.080 NA
HETATM   16  N4  UNL     1     -14.167  -8.117  18.518  1.00  0.00    -0.346 N 
HETATM   17  C5  UNL     1     -15.120  -9.011  18.287  1.00  0.00     0.188 A 
ATOM     18  H4  UNL     1     -13.965  -7.701  19.426  1.00  0.00     0.167 HD
ENDBRANCH   1   6
BRANCH   5  19
HETATM   19  O5  UNL     1     -14.476 -11.600  14.960  1.00  0.00    -0.388 OA
ATOM     20  H5  UNL     1     -13.849 -10.887  14.964  1.00  0.00     0.210 HD
ENDBRANCH   5  19
BRANCH   3  21
HETATM   21  C8  UNL     1     -18.373 -12.518  17.426  1.00  0.00     0.108 C 
BRANCH  21  22
HETATM   22  S1  UNL     1     -18.555 -14.211  16.973  1.00  0.00    -0.166 SA
BRANCH  22  23
HETATM   23  C9  UNL     1     -19.691 -15.169  17.931  1.00  0.00     0.076 C 
BRANCH  23  24
HETATM   24  C10 UNL     1     -19.041 -16.221  18.783  1.00  0.00     0.054 C 
BRANCH  24  25
HETATM   25  C11 UNL     1     -19.103 -17.559  18.133  1.00  0.00     0.284 C 
BRANCH  25  26
HETATM   26  N6  UNL     1     -19.567 -18.588  19.010  1.00  0.00    -0.065 N 
ATOM     27  H63 UNL     1     -18.853 -18.827  19.699  1.00  0.00     0.275 HD
ATOM     28  H62 UNL     1     -20.290 -18.233  19.635  1.00  0.00     0.275 HD
ATOM     29  H61 UNL     1     -19.889 -19.420  18.516  1.00  0.00     0.275 HD
ENDBRANCH  25  26
BRANCH  25  30
HETATM   30  C12 UNL     1     -17.839 -17.966  17.505  1.00  0.00     0.204 C 
HETATM   31  O2  UNL     1     -17.039 -18.687  18.132  1.00  0.00    -0.646 OA
HETATM   32  O3  UNL     1     -17.531 -17.557  16.226  1.00  0.00    -0.646 OA
ENDBRANCH  25  30
ENDBRANCH  24  25
ENDBRANCH  23  24
ENDBRANCH  22  23
ENDBRANCH  21  22
ENDBRANCH   3  21
BRANCH   4  33
HETATM   33  O4  UNL     1     -16.811 -12.379  14.362  1.00  0.00    -0.390 OA
ATOM     34  H4  UNL     1     -17.735 -12.481  14.169  1.00  0.00     0.210 HD
ENDBRANCH   4  33
TORSDOF 10
ENDMDL
