MODEL 1
REMARK VINA RESULT: -8.850812954      0.000      0.000
REMARK  10 active torsions:
REMARK  status: ('A' for Active; 'I' for Inactive)
REMARK    1  A    between atoms: N5_13  and  C6_14 
REMARK    2  A    between atoms: C7_16  and  C8_17 
REMARK    3  A    between atoms: C8_17  and  S1_18 
REMARK    4  A    between atoms: S1_18  and  C9_19 
REMARK    5  A    between atoms: C9_19  and  C10_20 
REMARK    6  A    between atoms: C10_20  and  C11_21 
REMARK    7  A    between atoms: C11_21  and  N6_22 
REMARK    8  A    between atoms: C11_21  and  C12_26 
REMARK    9  A    between atoms: C13_29  and  O4_30 
REMARK   10  A    between atoms: C14_32  and  O5_33 
ROOT
HETATM    1  C6  UNL     1     -17.672 -13.949  15.909  1.00  0.00     0.262 C 
HETATM    2  O1  UNL     1     -16.974 -12.965  16.630  1.00  0.00    -0.355 OA
HETATM    3  C7  UNL     1     -16.558 -12.057  15.640  1.00  0.00     0.165 C 
HETATM    4  C13 UNL     1     -17.713 -11.975  14.674  1.00  0.00     0.180 C 
HETATM    5  C14 UNL     1     -18.632 -13.074  15.160  1.00  0.00     0.198 C 
ENDROOT
BRANCH   1   6
HETATM    6  N5  UNL     1     -18.266 -14.901  16.793  1.00  0.00    -0.297 N 
HETATM    7  C3  UNL     1     -17.874 -16.177  16.943  1.00  0.00     0.142 A 
HETATM    8  N3  UNL     1     -16.904 -16.916  16.381  1.00  0.00    -0.336 N 
HETATM    9  C4  UNL     1     -18.720 -16.735  17.902  1.00  0.00     0.119 A 
HETATM   10  C2  UNL     1     -16.774 -18.194  16.763  1.00  0.00     0.183 A 
ATOM     11  H3  UNL     1     -16.280 -16.514  15.681  1.00  0.00     0.168 HD
HETATM   12  N2  UNL     1     -17.575 -18.749  17.681  1.00  0.00    -0.339 N 
HETATM   13  C1  UNL     1     -18.553 -18.036  18.261  1.00  0.00     0.148 A 
ATOM     14  H2  UNL     1     -17.442 -19.726  17.943  1.00  0.00     0.167 HD
HETATM   15  N1  UNL     1     -19.407 -18.631  19.241  1.00  0.00    -0.080 NA
HETATM   16  N4  UNL     1     -19.577 -15.750  18.271  1.00  0.00    -0.346 N 
HETATM   17  C5  UNL     1     -19.309 -14.635  17.604  1.00  0.00     0.188 A 
ATOM     18  H4  UNL     1     -20.320 -15.853  18.962  1.00  0.00     0.167 HD
ENDBRANCH   1   6
BRANCH   5  19
HETATM   19  O5  UNL     1     -19.279 -13.710  14.111  1.00  0.00    -0.388 OA
ATOM     20  H5  UNL     1     -19.853 -14.416  14.380  1.00  0.00     0.210 HD
ENDBRANCH   5  19
BRANCH   3  21
HETATM   21  C8  UNL     1     -16.375 -10.712  16.277  1.00  0.00     0.108 C 
BRANCH  21  22
HETATM   22  S1  UNL     1     -15.128  -9.658  15.615  1.00  0.00    -0.166 SA
BRANCH  22  23
HETATM   23  C9  UNL     1     -13.472 -10.279  15.639  1.00  0.00     0.076 C 
BRANCH  23  24
HETATM   24  C10 UNL     1     -12.446  -9.308  15.129  1.00  0.00     0.054 C 
BRANCH  24  25
HETATM   25  C11 UNL     1     -11.287 -10.015  14.521  1.00  0.00     0.284 C 
BRANCH  25  26
HETATM   26  N6  UNL     1     -10.840 -11.131  15.293  1.00  0.00    -0.065 N 
ATOM     27  H63 UNL     1      -9.821 -11.167  15.325  1.00  0.00     0.275 HD
ATOM     28  H62 UNL     1     -11.034 -10.987  16.284  1.00  0.00     0.275 HD
ATOM     29  H61 UNL     1     -11.225 -12.020  14.974  1.00  0.00     0.275 HD
ENDBRANCH  25  26
BRANCH  25  30
HETATM   30  C12 UNL     1     -10.154  -9.131  14.215  1.00  0.00     0.204 C 
HETATM   31  O2  UNL     1      -9.298  -9.483  13.381  1.00  0.00    -0.646 OA
HETATM   32  O3  UNL     1     -10.030  -7.912  14.846  1.00  0.00    -0.646 OA
ENDBRANCH  25  30
ENDBRANCH  24  25
ENDBRANCH  23  24
ENDBRANCH  22  23
ENDBRANCH  21  22
ENDBRANCH   3  21
BRANCH   4  33
HETATM   33  O4  UNL     1     -17.289 -12.325  13.377  1.00  0.00    -0.390 OA
ATOM     34  H4  UNL     1     -17.981 -12.159  12.749  1.00  0.00     0.210 HD
ENDBRANCH   4  33
TORSDOF 10
ENDMDL
