MODEL 5
REMARK VINA RESULT: -8.200216778      3.481      9.071
REMARK  10 active torsions:
REMARK  status: ('A' for Active; 'I' for Inactive)
REMARK    1  A    between atoms: N5_13  and  C6_14 
REMARK    2  A    between atoms: C7_16  and  C8_17 
REMARK    3  A    between atoms: C8_17  and  S1_18 
REMARK    4  A    between atoms: S1_18  and  C9_19 
REMARK    5  A    between atoms: C9_19  and  C10_20 
REMARK    6  A    between atoms: C10_20  and  C11_21 
REMARK    7  A    between atoms: C11_21  and  N6_22 
REMARK    8  A    between atoms: C11_21  and  C12_26 
REMARK    9  A    between atoms: C13_29  and  O4_30 
REMARK   10  A    between atoms: C14_32  and  O5_33 
ROOT
HETATM    1  C6  UNL     1     -14.377  -9.017  16.786  1.00  0.00     0.262 C 
HETATM    2  O1  UNL     1     -15.504  -9.217  15.970  1.00  0.00    -0.355 OA
HETATM    3  C7  UNL     1     -16.444  -9.802  16.837  1.00  0.00     0.165 C 
HETATM    4  C13 UNL     1     -16.261  -9.088  18.153  1.00  0.00     0.180 C 
HETATM    5  C14 UNL     1     -15.016  -8.263  17.913  1.00  0.00     0.198 C 
ENDROOT
BRANCH   1   6
HETATM    6  N5  UNL     1     -13.355  -8.316  16.076  1.00  0.00    -0.297 N 
HETATM    7  C3  UNL     1     -12.328  -8.885  15.423  1.00  0.00     0.142 A 
HETATM    8  N3  UNL     1     -11.948 -10.159  15.233  1.00  0.00    -0.336 N 
HETATM    9  C4  UNL     1     -11.585  -7.838  14.876  1.00  0.00     0.119 A 
HETATM   10  C2  UNL     1     -10.843 -10.393  14.511  1.00  0.00     0.183 A 
ATOM     11  H3  UNL     1     -12.487 -10.929  15.628  1.00  0.00     0.168 HD
HETATM   12  N2  UNL     1     -10.116  -9.404  13.978  1.00  0.00    -0.339 N 
HETATM   13  C1  UNL     1     -10.470  -8.121  14.150  1.00  0.00     0.148 A 
ATOM     14  H2  UNL     1      -9.281  -9.627  13.435  1.00  0.00     0.167 HD
HETATM   15  N1  UNL     1      -9.693  -7.066  13.579  1.00  0.00    -0.080 NA
HETATM   16  N4  UNL     1     -12.217  -6.694  15.239  1.00  0.00    -0.346 N 
HETATM   17  C5  UNL     1     -13.291  -6.975  15.967  1.00  0.00     0.188 A 
ATOM     18  H4  UNL     1     -11.911  -5.754  14.988  1.00  0.00     0.167 HD
ENDBRANCH   1   6
BRANCH   5  19
HETATM   19  O5  UNL     1     -14.229  -8.170  19.051  1.00  0.00    -0.388 OA
ATOM     20  H5  UNL     1     -14.429  -8.819  19.715  1.00  0.00     0.210 HD
ENDBRANCH   5  19
BRANCH   3  21
HETATM   21  C8  UNL     1     -17.819  -9.499  16.320  1.00  0.00     0.108 C 
BRANCH  21  22
HETATM   22  S1  UNL     1     -19.161 -10.437  16.971  1.00  0.00    -0.166 SA
BRANCH  22  23
HETATM   23  C9  UNL     1     -19.232 -12.143  16.511  1.00  0.00     0.076 C 
BRANCH  23  24
HETATM   24  C10 UNL     1     -18.252 -13.015  17.241  1.00  0.00     0.054 C 
BRANCH  24  25
HETATM   25  C11 UNL     1     -17.504 -13.894  16.301  1.00  0.00     0.284 C 
BRANCH  25  26
HETATM   26  N6  UNL     1     -17.642 -13.501  14.934  1.00  0.00    -0.065 N 
ATOM     27  H63 UNL     1     -17.832 -12.502  14.861  1.00  0.00     0.275 HD
ATOM     28  H62 UNL     1     -16.742 -13.536  14.455  1.00  0.00     0.275 HD
ATOM     29  H61 UNL     1     -18.343 -14.044  14.430  1.00  0.00     0.275 HD
ENDBRANCH  25  26
BRANCH  25  30
HETATM   30  C12 UNL     1     -17.826 -15.320  16.449  1.00  0.00     0.204 C 
HETATM   31  O2  UNL     1     -18.578 -15.694  17.369  1.00  0.00    -0.646 OA
HETATM   32  O3  UNL     1     -17.302 -16.248  15.575  1.00  0.00    -0.646 OA
ENDBRANCH  25  30
ENDBRANCH  24  25
ENDBRANCH  23  24
ENDBRANCH  22  23
ENDBRANCH  21  22
ENDBRANCH   3  21
BRANCH   4  33
HETATM   33  O4  UNL     1     -15.961 -10.015  19.171  1.00  0.00    -0.390 OA
ATOM     34  H4  UNL     1     -15.060  -9.911  19.454  1.00  0.00     0.210 HD
ENDBRANCH   4  33
TORSDOF 10
ENDMDL
