MODEL 2
REMARK VINA RESULT: -8.396255093      1.377      1.592
REMARK  10 active torsions:
REMARK  status: ('A' for Active; 'I' for Inactive)
REMARK    1  A    between atoms: N5_13  and  C6_14 
REMARK    2  A    between atoms: C7_16  and  C8_17 
REMARK    3  A    between atoms: C8_17  and  S1_18 
REMARK    4  A    between atoms: S1_18  and  C9_19 
REMARK    5  A    between atoms: C9_19  and  C10_20 
REMARK    6  A    between atoms: C10_20  and  C11_21 
REMARK    7  A    between atoms: C11_21  and  N6_22 
REMARK    8  A    between atoms: C11_21  and  C12_26 
REMARK    9  A    between atoms: C13_29  and  O4_30 
REMARK   10  A    between atoms: C14_32  and  O5_33 
ROOT
HETATM    1  C6  UNL     1     -17.520 -13.922  15.673  1.00  0.00     0.262 C 
HETATM    2  O1  UNL     1     -16.552 -13.087  16.255  1.00  0.00    -0.355 OA
HETATM    3  C7  UNL     1     -16.141 -12.260  15.194  1.00  0.00     0.165 C 
HETATM    4  C13 UNL     1     -17.402 -11.962  14.420  1.00  0.00     0.180 C 
HETATM    5  C14 UNL     1     -18.414 -12.882  15.067  1.00  0.00     0.198 C 
ENDROOT
BRANCH   1   6
HETATM    6  N5  UNL     1     -18.127 -14.759  16.657  1.00  0.00    -0.297 N 
HETATM    7  C3  UNL     1     -17.818 -16.046  16.886  1.00  0.00     0.142 A 
HETATM    8  N3  UNL     1     -16.937 -16.895  16.333  1.00  0.00    -0.336 N 
HETATM    9  C4  UNL     1     -18.644 -16.467  17.928  1.00  0.00     0.119 A 
HETATM   10  C2  UNL     1     -16.876 -18.148  16.806  1.00  0.00     0.183 A 
ATOM     11  H3  UNL     1     -16.328 -16.594  15.572  1.00  0.00     0.168 HD
HETATM   12  N2  UNL     1     -17.660 -18.573  17.804  1.00  0.00    -0.339 N 
HETATM   13  C1  UNL     1     -18.549 -17.748  18.377  1.00  0.00     0.148 A 
ATOM     14  H2  UNL     1     -17.580 -19.535  18.134  1.00  0.00     0.167 HD
HETATM   15  N1  UNL     1     -19.385 -18.203  19.444  1.00  0.00    -0.080 NA
HETATM   16  N4  UNL     1     -19.407 -15.397  18.264  1.00  0.00    -0.346 N 
HETATM   17  C5  UNL     1     -19.100 -14.357  17.499  1.00  0.00     0.188 A 
ATOM     18  H4  UNL     1     -20.114 -15.393  18.999  1.00  0.00     0.167 HD
ENDBRANCH   1   6
BRANCH   5  19
HETATM   19  O5  UNL     1     -19.322 -13.381  14.146  1.00  0.00    -0.388 OA
ATOM     20  H5  UNL     1     -19.009 -13.375  13.249  1.00  0.00     0.210 HD
ENDBRANCH   5  19
BRANCH   3  21
HETATM   21  C8  UNL     1     -15.622 -10.975  15.768  1.00  0.00     0.108 C 
BRANCH  21  22
HETATM   22  S1  UNL     1     -16.353  -9.474  15.203  1.00  0.00    -0.166 SA
BRANCH  22  23
HETATM   23  C9  UNL     1     -15.560  -7.973  15.696  1.00  0.00     0.076 C 
BRANCH  23  24
HETATM   24  C10 UNL     1     -14.381  -7.595  14.846  1.00  0.00     0.054 C 
BRANCH  24  25
HETATM   25  C11 UNL     1     -13.118  -8.168  15.387  1.00  0.00     0.284 C 
BRANCH  25  26
HETATM   26  N6  UNL     1     -13.104  -8.252  16.813  1.00  0.00    -0.065 N 
ATOM     27  H63 UNL     1     -13.770  -7.597  17.223  1.00  0.00     0.275 HD
ATOM     28  H62 UNL     1     -13.517  -9.130  17.129  1.00  0.00     0.275 HD
ATOM     29  H61 UNL     1     -12.175  -8.124  17.214  1.00  0.00     0.275 HD
ENDBRANCH  25  26
BRANCH  25  30
HETATM   30  C12 UNL     1     -11.910  -7.478  14.913  1.00  0.00     0.204 C 
HETATM   31  O2  UNL     1     -10.786  -7.881  15.268  1.00  0.00    -0.646 OA
HETATM   32  O3  UNL     1     -12.012  -6.386  14.079  1.00  0.00    -0.646 OA
ENDBRANCH  25  30
ENDBRANCH  24  25
ENDBRANCH  23  24
ENDBRANCH  22  23
ENDBRANCH  21  22
ENDBRANCH   3  21
BRANCH   4  33
HETATM   33  O4  UNL     1     -17.258 -12.371  13.080  1.00  0.00    -0.390 OA
ATOM     34  H4  UNL     1     -18.098 -12.350  12.638  1.00  0.00     0.210 HD
ENDBRANCH   4  33
TORSDOF 10
ENDMDL
