MODEL 6
REMARK VINA RESULT: -8.136082715      4.472      8.485
REMARK  10 active torsions:
REMARK  status: ('A' for Active; 'I' for Inactive)
REMARK    1  A    between atoms: N5_13  and  C6_14 
REMARK    2  A    between atoms: C7_16  and  C8_17 
REMARK    3  A    between atoms: C8_17  and  S1_18 
REMARK    4  A    between atoms: S1_18  and  C9_19 
REMARK    5  A    between atoms: C9_19  and  C10_20 
REMARK    6  A    between atoms: C10_20  and  C11_21 
REMARK    7  A    between atoms: C11_21  and  N6_22 
REMARK    8  A    between atoms: C11_21  and  C12_26 
REMARK    9  A    between atoms: C13_29  and  O4_30 
REMARK   10  A    between atoms: C14_32  and  O5_33 
ROOT
HETATM    1  C6  UNL     1     -14.647  -8.887  16.887  1.00  0.00     0.262 C 
HETATM    2  O1  UNL     1     -15.878  -8.916  16.209  1.00  0.00    -0.355 OA
HETATM    3  C7  UNL     1     -16.769  -9.453  17.156  1.00  0.00     0.165 C 
HETATM    4  C13 UNL     1     -16.353  -8.846  18.473  1.00  0.00     0.180 C 
HETATM    5  C14 UNL     1     -15.061  -8.142  18.121  1.00  0.00     0.198 C 
ENDROOT
BRANCH   1   6
HETATM    6  N5  UNL     1     -13.644  -8.254  16.092  1.00  0.00    -0.297 N 
HETATM    7  C3  UNL     1     -12.661  -8.885  15.429  1.00  0.00     0.142 A 
HETATM    8  N3  UNL     1     -12.317 -10.176  15.299  1.00  0.00    -0.336 N 
HETATM    9  C4  UNL     1     -11.922  -7.890  14.787  1.00  0.00     0.119 A 
HETATM   10  C2  UNL     1     -11.252 -10.479  14.544  1.00  0.00     0.183 A 
ATOM     11  H3  UNL     1     -12.854 -10.909  15.764  1.00  0.00     0.168 HD
HETATM   12  N2  UNL     1     -10.529  -9.541  13.920  1.00  0.00    -0.339 N 
HETATM   13  C1  UNL     1     -10.848  -8.242  14.030  1.00  0.00     0.148 A 
ATOM     14  H2  UNL     1      -9.726  -9.816  13.354  1.00  0.00     0.167 HD
HETATM   15  N1  UNL     1     -10.076  -7.242  13.362  1.00  0.00    -0.080 NA
HETATM   16  N4  UNL     1     -12.512  -6.712  15.108  1.00  0.00    -0.346 N 
HETATM   17  C5  UNL     1     -13.557  -6.923  15.899  1.00  0.00     0.188 A 
ATOM     18  H4  UNL     1     -12.198  -5.796  14.789  1.00  0.00     0.167 HD
ENDBRANCH   1   6
BRANCH   5  19
HETATM   19  O5  UNL     1     -14.140  -8.203  19.156  1.00  0.00    -0.388 OA
ATOM     20  H5  UNL     1     -14.247  -7.524  19.812  1.00  0.00     0.210 HD
ENDBRANCH   5  19
BRANCH   3  21
HETATM   21  C8  UNL     1     -18.152  -8.975  16.830  1.00  0.00     0.108 C 
BRANCH  21  22
HETATM   22  S1  UNL     1     -18.773  -9.311  15.215  1.00  0.00    -0.166 SA
BRANCH  22  23
HETATM   23  C9  UNL     1     -19.611 -10.852  14.994  1.00  0.00     0.076 C 
BRANCH  23  24
HETATM   24  C10 UNL     1     -18.715 -12.055  15.070  1.00  0.00     0.054 C 
BRANCH  24  25
HETATM   25  C11 UNL     1     -17.406 -11.797  14.410  1.00  0.00     0.284 C 
BRANCH  25  26
HETATM   26  N6  UNL     1     -17.356 -12.264  13.061  1.00  0.00    -0.065 N 
ATOM     27  H63 UNL     1     -17.605 -13.252  13.008  1.00  0.00     0.275 HD
ATOM     28  H62 UNL     1     -18.119 -11.869  12.512  1.00  0.00     0.275 HD
ATOM     29  H61 UNL     1     -16.457 -12.091  12.609  1.00  0.00     0.275 HD
ENDBRANCH  25  26
BRANCH  25  30
HETATM   30  C12 UNL     1     -16.256 -12.317  15.164  1.00  0.00     0.204 C 
HETATM   31  O2  UNL     1     -16.444 -13.009  16.183  1.00  0.00    -0.646 OA
HETATM   32  O3  UNL     1     -14.970 -12.044  14.752  1.00  0.00    -0.646 OA
ENDBRANCH  25  30
ENDBRANCH  24  25
ENDBRANCH  23  24
ENDBRANCH  22  23
ENDBRANCH  21  22
ENDBRANCH   3  21
BRANCH   4  33
HETATM   33  O4  UNL     1     -16.040  -9.860  19.399  1.00  0.00    -0.390 OA
ATOM     34  H4  UNL     1     -15.176 -10.213  19.220  1.00  0.00     0.210 HD
ENDBRANCH   4  33
TORSDOF 10
ENDMDL
