MODEL 2
REMARK VINA RESULT: -6.675315638      0.759      1.324
REMARK  1 active torsions:
REMARK  status: ('A' for Active; 'I' for Inactive)
REMARK    1  A    between atoms: C4_6  and  N2_7 
ROOT
HETATM    1  N2  UNL     1       4.927  17.281  39.037  1.00  0.00    -0.378 N 
HETATM    2  C5  UNL     1       6.330  16.900  39.224  1.00  0.00     0.124 C 
HETATM    3  C6  UNL     1       7.140  17.940  38.453  1.00  0.00     0.039 C 
HETATM    4  C7  UNL     1       6.872  17.768  36.999  1.00  0.00     0.115 C 
HETATM    5  N3  UNL     1       5.515  17.878  36.583  1.00  0.00    -0.420 N 
ATOM      6  H3  UNL     1       5.111  17.265  35.874  1.00  0.00     0.153 HD
HETATM    7  C8  UNL     1       4.746  18.921  37.235  1.00  0.00     0.133 C 
HETATM    8  C9  UNL     1       4.384  18.537  38.651  1.00  0.00     0.142 C 
ENDROOT
BRANCH   1   9
HETATM    9  C4  UNL     1       4.032  16.209  39.294  1.00  0.00     0.045 A 
HETATM   10  C3  UNL     1       4.496  14.990  39.719  1.00  0.00     0.116 A 
HETATM   11  N1  UNL     1       3.602  13.985  39.943  1.00  0.00    -0.373 N 
HETATM   12  C2  UNL     1       2.285  14.165  39.755  1.00  0.00     0.088 A 
ATOM     13  H1  UNL     1       3.942  13.076  40.259  1.00  0.00     0.164 HD
HETATM   14  C1  UNL     1       1.761  15.368  39.329  1.00  0.00     0.019 A 
HETATM   15  C10 UNL     1       2.657  16.380  39.104  1.00  0.00     0.032 A 
ENDBRANCH   1   9
TORSDOF 1
ENDMDL
