MODEL 6
REMARK VINA RESULT: -4.540142139      1.427      4.601
REMARK  1 active torsions:
REMARK  status: ('A' for Active; 'I' for Inactive)
REMARK    1  A    between atoms: C4_6  and  N2_7 
ROOT
HETATM    1  N2  UNL     1       3.905  15.374  38.978  1.00  0.00    -0.378 N 
HETATM    2  C5  UNL     1       4.686  14.236  39.469  1.00  0.00     0.124 C 
HETATM    3  C6  UNL     1       3.658  13.190  39.894  1.00  0.00     0.039 C 
HETATM    4  C7  UNL     1       2.917  13.704  41.077  1.00  0.00     0.115 C 
HETATM    5  N3  UNL     1       2.235  14.944  40.915  1.00  0.00    -0.420 N 
ATOM      6  H3  UNL     1       2.217  15.656  41.645  1.00  0.00     0.153 HD
HETATM    7  C8  UNL     1       1.567  15.124  39.639  1.00  0.00     0.133 C 
HETATM    8  C9  UNL     1       2.555  15.409  38.533  1.00  0.00     0.142 C 
ENDROOT
BRANCH   1   9
HETATM    9  C4  UNL     1       4.651  16.582  38.963  1.00  0.00     0.045 A 
HETATM   10  C3  UNL     1       4.070  17.764  38.576  1.00  0.00     0.116 A 
HETATM   11  N1  UNL     1       4.826  18.899  38.564  1.00  0.00    -0.373 N 
HETATM   12  C2  UNL     1       6.121  18.881  38.920  1.00  0.00     0.088 A 
ATOM     13  H1  UNL     1       4.399  19.780  38.278  1.00  0.00     0.164 HD
HETATM   14  C1  UNL     1       6.757  17.723  39.317  1.00  0.00     0.019 A 
HETATM   15  C10 UNL     1       6.000  16.581  39.331  1.00  0.00     0.032 A 
ENDBRANCH   1   9
TORSDOF 1
ENDMDL
