MODEL 1
REMARK VINA RESULT: -6.776731812      0.000      0.000
REMARK  1 active torsions:
REMARK  status: ('A' for Active; 'I' for Inactive)
REMARK    1  A    between atoms: C4_6  and  N2_7 
ROOT
HETATM    1  N2  UNL     1       4.886  17.309  39.052  1.00  0.00    -0.378 N 
HETATM    2  C5  UNL     1       6.279  16.903  39.254  1.00  0.00     0.124 C 
HETATM    3  C6  UNL     1       7.115  17.922  38.482  1.00  0.00     0.039 C 
HETATM    4  C7  UNL     1       6.856  17.746  37.028  1.00  0.00     0.115 C 
HETATM    5  N3  UNL     1       5.504  17.879  36.599  1.00  0.00    -0.420 N 
ATOM      6  H3  UNL     1       5.094  17.270  35.891  1.00  0.00     0.153 HD
HETATM    7  C8  UNL     1       4.750  18.940  37.239  1.00  0.00     0.133 C 
HETATM    8  C9  UNL     1       4.370  18.573  38.655  1.00  0.00     0.142 C 
ENDROOT
BRANCH   1   9
HETATM    9  C4  UNL     1       3.968  16.256  39.309  1.00  0.00     0.045 A 
HETATM   10  C3  UNL     1       2.624  16.426  39.092  1.00  0.00     0.116 A 
HETATM   11  N1  UNL     1       1.776  15.393  39.363  1.00  0.00    -0.373 N 
HETATM   12  C2  UNL     1       2.229  14.221  39.837  1.00  0.00     0.088 A 
ATOM     13  H1  UNL     1       0.775  15.513  39.203  1.00  0.00     0.164 HD
HETATM   14  C1  UNL     1       3.569  13.994  40.074  1.00  0.00     0.019 A 
HETATM   15  C10 UNL     1       4.423  15.030  39.802  1.00  0.00     0.032 A 
ENDBRANCH   1   9
TORSDOF 1
ENDMDL
