MODEL 4
REMARK VINA RESULT: -5.482425259      1.343      4.839
REMARK  1 active torsions:
REMARK  status: ('A' for Active; 'I' for Inactive)
REMARK    1  A    between atoms: C4_6  and  N2_7 
ROOT
HETATM    1  N2  UNL     1       4.153  16.201  39.796  1.00  0.00    -0.378 N 
HETATM    2  C5  UNL     1       2.717  16.164  39.506  1.00  0.00     0.124 C 
HETATM    3  C6  UNL     1       2.203  14.885  40.161  1.00  0.00     0.039 C 
HETATM    4  C7  UNL     1       2.783  13.717  39.445  1.00  0.00     0.115 C 
HETATM    5  N3  UNL     1       4.204  13.639  39.397  1.00  0.00    -0.420 N 
ATOM      6  H3  UNL     1       4.705  13.336  38.562  1.00  0.00     0.153 HD
HETATM    7  C8  UNL     1       4.890  14.022  40.617  1.00  0.00     0.133 C 
HETATM    8  C9  UNL     1       4.879  15.520  40.811  1.00  0.00     0.142 C 
ENDROOT
BRANCH   1   9
HETATM    9  C4  UNL     1       4.867  17.054  38.913  1.00  0.00     0.045 A 
HETATM   10  C3  UNL     1       6.217  16.901  38.724  1.00  0.00     0.116 A 
HETATM   11  N1  UNL     1       6.867  17.749  37.877  1.00  0.00    -0.373 N 
HETATM   12  C2  UNL     1       6.212  18.727  37.229  1.00  0.00     0.088 A 
ATOM     13  H1  UNL     1       7.871  17.639  37.733  1.00  0.00     0.164 HD
HETATM   14  C1  UNL     1       4.856  18.928  37.379  1.00  0.00     0.019 A 
HETATM   15  C10 UNL     1       4.201  18.077  38.230  1.00  0.00     0.032 A 
ENDBRANCH   1   9
TORSDOF 1
ENDMDL
