MODEL 3
REMARK VINA RESULT: -5.532227460      1.417      4.701
REMARK  1 active torsions:
REMARK  status: ('A' for Active; 'I' for Inactive)
REMARK    1  A    between atoms: C4_6  and  N2_7 
ROOT
HETATM    1  N2  UNL     1       4.079  15.845  40.012  1.00  0.00    -0.378 N 
HETATM    2  C5  UNL     1       2.624  15.786  39.843  1.00  0.00     0.124 C 
HETATM    3  C6  UNL     1       2.189  14.486  40.515  1.00  0.00     0.039 C 
HETATM    4  C7  UNL     1       2.727  13.342  39.730  1.00  0.00     0.115 C 
HETATM    5  N3  UNL     1       4.141  13.293  39.561  1.00  0.00    -0.420 N 
ATOM      6  H3  UNL     1       4.575  13.013  38.681  1.00  0.00     0.153 HD
HETATM    7  C8  UNL     1       4.921  13.666  40.726  1.00  0.00     0.133 C 
HETATM    8  C9  UNL     1       4.900  15.160  40.949  1.00  0.00     0.142 C 
ENDROOT
BRANCH   1   9
HETATM    9  C4  UNL     1       4.700  16.728  39.089  1.00  0.00     0.045 A 
HETATM   10  C3  UNL     1       3.952  17.579  38.316  1.00  0.00     0.116 A 
HETATM   11  N1  UNL     1       4.589  18.401  37.434  1.00  0.00    -0.373 N 
HETATM   12  C2  UNL     1       5.926  18.392  37.308  1.00  0.00     0.088 A 
ATOM     13  H1  UNL     1       4.037  19.037  36.857  1.00  0.00     0.164 HD
HETATM   14  C1  UNL     1       6.728  17.557  38.058  1.00  0.00     0.019 A 
HETATM   15  C10 UNL     1       6.091  16.730  38.946  1.00  0.00     0.032 A 
ENDBRANCH   1   9
TORSDOF 1
ENDMDL
