MODEL 7
REMARK VINA RESULT: -4.497384346      1.199      1.595
REMARK  1 active torsions:
REMARK  status: ('A' for Active; 'I' for Inactive)
REMARK    1  A    between atoms: C4_6  and  N2_7 
ROOT
HETATM    1  N2  UNL     1       5.845  16.688  39.055  1.00  0.00    -0.378 N 
HETATM    2  C5  UNL     1       6.224  16.542  37.647  1.00  0.00     0.124 C 
HETATM    3  C6  UNL     1       6.889  17.862  37.266  1.00  0.00     0.039 C 
HETATM    4  C7  UNL     1       5.860  18.937  37.291  1.00  0.00     0.115 C 
HETATM    5  N3  UNL     1       5.175  19.136  38.524  1.00  0.00    -0.420 N 
ATOM      6  H3  UNL     1       4.175  19.335  38.565  1.00  0.00     0.153 HD
HETATM    7  C8  UNL     1       5.996  19.035  39.716  1.00  0.00     0.133 C 
HETATM    8  C9  UNL     1       6.345  17.598  40.027  1.00  0.00     0.142 C 
ENDROOT
BRANCH   1   9
HETATM    9  C4  UNL     1       4.841  15.764  39.450  1.00  0.00     0.045 A 
HETATM   10  C3  UNL     1       3.513  16.103  39.395  1.00  0.00     0.116 A 
HETATM   11  N1  UNL     1       2.582  15.190  39.795  1.00  0.00    -0.373 N 
HETATM   12  C2  UNL     1       2.940  13.974  40.240  1.00  0.00     0.088 A 
ATOM     13  H1  UNL     1       1.593  15.436  39.756  1.00  0.00     0.164 HD
HETATM   14  C1  UNL     1       4.259  13.579  40.316  1.00  0.00     0.019 A 
HETATM   15  C10 UNL     1       5.197  14.495  39.915  1.00  0.00     0.032 A 
ENDBRANCH   1   9
TORSDOF 1
ENDMDL
