MODEL 4
REMARK VINA RESULT: -5.095976912      4.517      6.798
REMARK  3 active torsions:
REMARK  status: ('A' for Active; 'I' for Inactive)
REMARK    1  A    between atoms: C2_2  and  O1_3 
REMARK    2  A    between atoms: O1_3  and  C3_4 
REMARK    3  A    between atoms: C6_9  and  N2_10 
ROOT
HETATM    1  C3  UNL     1      80.786  69.814 -10.493  1.00  0.00     0.086 A 
HETATM    2  C4  UNL     1      80.162  70.694 -11.342  1.00  0.00     0.124 A 
HETATM    3  N1  UNL     1      79.194  70.231 -12.150  1.00  0.00    -0.370 N 
ATOM      4  H1  UNL     1      78.726  70.878 -12.784  1.00  0.00     0.164 HD
HETATM    5  C5  UNL     1      78.824  68.929 -12.145  1.00  0.00     0.117 A 
HETATM    6  C6  UNL     1      79.427  68.020 -11.305  1.00  0.00     0.048 A 
HETATM    7  C12 UNL     1      80.435  68.493 -10.462  1.00  0.00     0.069 A 
ENDROOT
BRANCH   6   8
HETATM    8  N2  UNL     1      79.031  66.678 -11.340  1.00  0.00    -0.378 N 
HETATM    9  C7  UNL     1      79.746  65.768 -12.221  1.00  0.00     0.124 C 
HETATM   10  C8  UNL     1      80.208  64.547 -11.439  1.00  0.00     0.039 C 
HETATM   11  C9  UNL     1      79.030  63.798 -10.952  1.00  0.00     0.115 C 
HETATM   12  N3  UNL     1      78.619  64.104  -9.610  1.00  0.00    -0.420 N 
HETATM   13  C10 UNL     1      78.414  65.486  -9.347  1.00  0.00     0.133 C 
ATOM     14  H3  UNL     1      78.483  63.385  -8.900  1.00  0.00     0.153 HD
HETATM   15  C11 UNL     1      77.924  66.274 -10.514  1.00  0.00     0.142 C 
ENDBRANCH   6   8
BRANCH   1  16
HETATM   16  O1  UNL     1      81.804  70.226  -9.623  1.00  0.00    -0.350 OA
BRANCH  16  17
HETATM   17  C2  UNL     1      81.688  71.356  -8.810  1.00  0.00     0.171 C 
HETATM   18  C1  UNL     1      80.702  71.187  -7.697  1.00  0.00     0.034 C 
ENDBRANCH  16  17
ENDBRANCH   1  16
TORSDOF 3
ENDMDL
