MODEL 5
REMARK VINA RESULT: -5.029559532      3.599      5.393
REMARK  3 active torsions:
REMARK  status: ('A' for Active; 'I' for Inactive)
REMARK    1  A    between atoms: C2_2  and  O1_3 
REMARK    2  A    between atoms: O1_3  and  C3_4 
REMARK    3  A    between atoms: C6_9  and  N2_10 
ROOT
HETATM    1  C3  UNL     1      79.330  68.238 -11.276  1.00  0.00     0.086 A 
HETATM    2  C4  UNL     1      78.941  69.140 -12.235  1.00  0.00     0.124 A 
HETATM    3  N1  UNL     1      79.303  70.426 -12.094  1.00  0.00    -0.370 N 
ATOM      4  H1  UNL     1      79.019  71.102 -12.802  1.00  0.00     0.164 HD
HETATM    5  C5  UNL     1      80.036  70.848 -11.036  1.00  0.00     0.117 A 
HETATM    6  C6  UNL     1      80.443  69.971 -10.056  1.00  0.00     0.048 A 
HETATM    7  C12 UNL     1      80.071  68.632 -10.195  1.00  0.00     0.069 A 
ENDROOT
BRANCH   6   8
HETATM    8  N2  UNL     1      81.183  70.446  -8.967  1.00  0.00    -0.378 N 
HETATM    9  C7  UNL     1      82.581  70.786  -9.176  1.00  0.00     0.124 C 
HETATM   10  C8  UNL     1      82.853  72.192  -8.662  1.00  0.00     0.039 C 
HETATM   11  C9  UNL     1      82.639  72.235  -7.200  1.00  0.00     0.115 C 
HETATM   12  N3  UNL     1      81.339  72.679  -6.782  1.00  0.00    -0.420 N 
HETATM   13  C10 UNL     1      80.249  71.987  -7.376  1.00  0.00     0.133 C 
ATOM     14  H3  UNL     1      81.207  73.434  -6.108  1.00  0.00     0.153 HD
HETATM   15  C11 UNL     1      80.522  70.555  -7.693  1.00  0.00     0.142 C 
ENDBRANCH   6   8
BRANCH   1  16
HETATM   16  O1  UNL     1      78.989  66.882 -11.358  1.00  0.00    -0.350 OA
BRANCH  16  17
HETATM   17  C2  UNL     1      78.719  66.104 -10.230  1.00  0.00     0.171 C 
HETATM   18  C1  UNL     1      77.299  66.206  -9.767  1.00  0.00     0.034 C 
ENDBRANCH  16  17
ENDBRANCH   1  16
TORSDOF 3
ENDMDL
