MODEL 3
REMARK VINA RESULT: -5.741320140      3.440      5.210
REMARK  3 active torsions:
REMARK  status: ('A' for Active; 'I' for Inactive)
REMARK    1  A    between atoms: C2_2  and  O1_3 
REMARK    2  A    between atoms: O1_3  and  C3_4 
REMARK    3  A    between atoms: C6_9  and  N2_10 
ROOT
HETATM    1  C3  UNL     1      79.311  67.301 -11.076  1.00  0.00     0.086 A 
HETATM    2  C4  UNL     1      78.524  67.607 -12.158  1.00  0.00     0.124 A 
HETATM    3  N1  UNL     1      78.524  68.870 -12.617  1.00  0.00    -0.370 N 
ATOM      4  H1  UNL     1      77.943  69.106 -13.420  1.00  0.00     0.164 HD
HETATM    5  C5  UNL     1      79.275  69.838 -12.039  1.00  0.00     0.117 A 
HETATM    6  C6  UNL     1      80.076  69.565 -10.953  1.00  0.00     0.048 A 
HETATM    7  C12 UNL     1      80.082  68.255 -10.470  1.00  0.00     0.069 A 
ENDROOT
BRANCH   6   8
HETATM    8  N2  UNL     1      80.824  70.595 -10.371  1.00  0.00    -0.378 N 
HETATM    9  C7  UNL     1      80.475  71.030  -9.028  1.00  0.00     0.124 C 
HETATM   10  C8  UNL     1      81.712  71.017  -8.142  1.00  0.00     0.039 C 
HETATM   11  C9  UNL     1      82.692  72.003  -8.646  1.00  0.00     0.115 C 
HETATM   12  N3  UNL     1      83.703  71.474  -9.518  1.00  0.00    -0.420 N 
HETATM   13  C10 UNL     1      83.211  70.724 -10.620  1.00  0.00     0.133 C 
ATOM     14  H3  UNL     1      84.699  71.626  -9.359  1.00  0.00     0.153 HD
HETATM   15  C11 UNL     1      81.890  71.180 -11.142  1.00  0.00     0.142 C 
ENDBRANCH   6   8
BRANCH   1  16
HETATM   16  O1  UNL     1      79.361  66.006 -10.544  1.00  0.00    -0.350 OA
BRANCH  16  17
HETATM   17  C2  UNL     1      78.220  65.325 -10.113  1.00  0.00     0.171 C 
HETATM   18  C1  UNL     1      77.549  65.974  -8.944  1.00  0.00     0.034 C 
ENDBRANCH  16  17
ENDBRANCH   1  16
TORSDOF 3
ENDMDL
