MODEL 2
REMARK VINA RESULT: -6.579218160      1.819      2.964
REMARK  3 active torsions:
REMARK  status: ('A' for Active; 'I' for Inactive)
REMARK    1  A    between atoms: C2_2  and  O1_3 
REMARK    2  A    between atoms: O1_3  and  C3_4 
REMARK    3  A    between atoms: C6_9  and  N2_10 
ROOT
HETATM    1  C3  UNL     1      80.962  70.454 -10.173  1.00  0.00     0.086 A 
HETATM    2  C4  UNL     1      80.831  70.971  -8.907  1.00  0.00     0.124 A 
HETATM    3  N1  UNL     1      81.917  71.488  -8.309  1.00  0.00    -0.370 N 
ATOM      4  H1  UNL     1      81.829  71.874  -7.370  1.00  0.00     0.164 HD
HETATM    5  C5  UNL     1      83.125  71.511  -8.921  1.00  0.00     0.117 A 
HETATM    6  C6  UNL     1      83.291  71.002 -10.189  1.00  0.00     0.048 A 
HETATM    7  C12 UNL     1      82.167  70.462 -10.818  1.00  0.00     0.069 A 
ENDROOT
BRANCH   6   8
HETATM    8  N2  UNL     1      84.558  71.026 -10.783  1.00  0.00    -0.378 N 
HETATM    9  C7  UNL     1      84.682  70.595 -12.166  1.00  0.00     0.124 C 
HETATM   10  C8  UNL     1      85.411  71.658 -12.975  1.00  0.00     0.039 C 
HETATM   11  C9  UNL     1      86.794  71.802 -12.470  1.00  0.00     0.115 C 
HETATM   12  N3  UNL     1      86.990  72.853 -11.511  1.00  0.00    -0.420 N 
HETATM   13  C10 UNL     1      86.105  72.825 -10.400  1.00  0.00     0.133 C 
ATOM     14  H3  UNL     1      87.711  73.567 -11.619  1.00  0.00     0.153 HD
HETATM   15  C11 UNL     1      85.675  71.458  -9.984  1.00  0.00     0.142 C 
ENDBRANCH   6   8
BRANCH   1  16
HETATM   16  O1  UNL     1      79.873  69.899 -10.857  1.00  0.00    -0.350 OA
BRANCH  16  17
HETATM   17  C2  UNL     1      79.714  68.522 -11.028  1.00  0.00     0.171 C 
HETATM   18  C1  UNL     1      78.781  68.167 -12.142  1.00  0.00     0.034 C 
ENDBRANCH  16  17
ENDBRANCH   1  16
TORSDOF 3
ENDMDL
