MODEL 13
REMARK VINA RESULT: -7.153590136      0.952      1.520
REMARK  2 active torsions:
REMARK  status: ('A' for Active; 'I' for Inactive)
REMARK    1  A    between atoms: C4_4  and  C5_5 
REMARK    2  A    between atoms: C8_10  and  N2_11 
ROOT
HETATM    1  C5  UNL     1      -7.860  26.699  32.670  1.00  0.00    -0.008 A 
HETATM    2  C6  UNL     1      -7.038  26.732  33.773  1.00  0.00     0.100 A 
HETATM    3  N1  UNL     1      -6.110  25.800  34.006  1.00  0.00    -0.372 N 
ATOM      4  H1  UNL     1      -5.518  25.858  34.835  1.00  0.00     0.164 HD
HETATM    5  C7  UNL     1      -5.963  24.787  33.140  1.00  0.00     0.116 A 
HETATM    6  C8  UNL     1      -6.726  24.646  32.001  1.00  0.00     0.046 A 
HETATM    7  C14 UNL     1      -7.672  25.626  31.795  1.00  0.00     0.044 A 
ENDROOT
BRANCH   6   8
HETATM    8  N2  UNL     1      -6.533  23.572  31.104  1.00  0.00    -0.378 N 
HETATM    9  C9  UNL     1      -5.731  22.437  31.557  1.00  0.00     0.124 C 
HETATM   10  C10 UNL     1      -6.711  21.371  31.965  1.00  0.00     0.039 C 
HETATM   11  C11 UNL     1      -6.944  20.463  30.786  1.00  0.00     0.115 C 
HETATM   12  N3  UNL     1      -6.999  21.149  29.517  1.00  0.00    -0.420 N 
HETATM   13  C12 UNL     1      -7.851  22.292  29.488  1.00  0.00     0.133 C 
ATOM     14  H3  UNL     1      -6.469  20.841  28.702  1.00  0.00     0.153 HD
HETATM   15  C13 UNL     1      -7.133  23.604  29.782  1.00  0.00     0.142 C 
ENDBRANCH   6   8
BRANCH   1  16
HETATM   16  C4  UNL     1      -8.872  27.711  32.411  1.00  0.00    -0.025 A 
HETATM   17  C3  UNL     1      -8.981  28.321  31.185  1.00  0.00     0.012 A 
HETATM   18  C2  UNL     1      -9.962  29.296  30.952  1.00  0.00     0.001 A 
HETATM   19  C1  UNL     1     -10.828  29.658  31.939  1.00  0.00     0.000 A 
HETATM   20  C16 UNL     1     -10.731  29.057  33.168  1.00  0.00     0.001 A 
HETATM   21  C15 UNL     1      -9.757  28.091  33.393  1.00  0.00     0.012 A 
ENDBRANCH   1  16
TORSDOF 2
ENDMDL
