MODEL 7
REMARK VINA RESULT: -7.439663546      2.597      6.351
REMARK  2 active torsions:
REMARK  status: ('A' for Active; 'I' for Inactive)
REMARK    1  A    between atoms: C4_4  and  C5_5 
REMARK    2  A    between atoms: C8_10  and  N2_11 
ROOT
HETATM    1  C5  UNL     1      -7.078  24.653  31.488  1.00  0.00    -0.008 A 
HETATM    2  C6  UNL     1      -7.038  25.680  30.575  1.00  0.00     0.100 A 
HETATM    3  N1  UNL     1      -7.337  26.942  30.898  1.00  0.00    -0.372 N 
ATOM      4  H1  UNL     1      -7.296  27.678  30.192  1.00  0.00     0.164 HD
HETATM    5  C7  UNL     1      -7.690  27.232  32.158  1.00  0.00     0.116 A 
HETATM    6  C8  UNL     1      -7.766  26.290  33.161  1.00  0.00     0.046 A 
HETATM    7  C14 UNL     1      -7.451  25.001  32.789  1.00  0.00     0.044 A 
ENDROOT
BRANCH   6   8
HETATM    8  N2  UNL     1      -8.129  26.636  34.481  1.00  0.00    -0.378 N 
HETATM    9  C9  UNL     1      -9.553  26.700  34.805  1.00  0.00     0.124 C 
HETATM   10  C10 UNL     1      -9.881  25.406  35.499  1.00  0.00     0.039 C 
HETATM   11  C11 UNL     1      -9.751  25.619  36.986  1.00  0.00     0.115 C 
HETATM   12  N3  UNL     1      -8.645  26.466  37.364  1.00  0.00    -0.420 N 
HETATM   13  C12 UNL     1      -7.398  26.131  36.761  1.00  0.00     0.133 C 
ATOM     14  H3  UNL     1      -8.748  27.246  38.014  1.00  0.00     0.153 HD
HETATM   15  C13 UNL     1      -7.107  26.901  35.477  1.00  0.00     0.142 C 
ENDBRANCH   6   8
BRANCH   1  16
HETATM   16  C4  UNL     1      -6.754  23.278  31.143  1.00  0.00    -0.025 A 
HETATM   17  C3  UNL     1      -7.391  22.627  30.114  1.00  0.00     0.012 A 
HETATM   18  C2  UNL     1      -7.067  21.299  29.794  1.00  0.00     0.001 A 
HETATM   19  C1  UNL     1      -6.113  20.629  30.498  1.00  0.00     0.000 A 
HETATM   20  C16 UNL     1      -5.469  21.268  31.527  1.00  0.00     0.001 A 
HETATM   21  C15 UNL     1      -5.794  22.583  31.840  1.00  0.00     0.012 A 
ENDBRANCH   1  16
TORSDOF 2
ENDMDL
