MODEL 3
REMARK VINA RESULT: -7.629070526      2.089      6.349
REMARK  2 active torsions:
REMARK  status: ('A' for Active; 'I' for Inactive)
REMARK    1  A    between atoms: C4_4  and  C5_5 
REMARK    2  A    between atoms: C8_10  and  N2_11 
ROOT
HETATM    1  C5  UNL     1      -6.556  23.203  32.498  1.00  0.00    -0.008 A 
HETATM    2  C6  UNL     1      -5.184  23.284  32.573  1.00  0.00     0.100 A 
HETATM    3  N1  UNL     1      -4.545  24.428  32.830  1.00  0.00    -0.372 N 
ATOM      4  H1  UNL     1      -3.526  24.449  32.878  1.00  0.00     0.164 HD
HETATM    5  C7  UNL     1      -5.254  25.549  33.024  1.00  0.00     0.116 A 
HETATM    6  C8  UNL     1      -6.630  25.595  32.974  1.00  0.00     0.046 A 
HETATM    7  C14 UNL     1      -7.254  24.396  32.707  1.00  0.00     0.044 A 
ENDROOT
BRANCH   6   8
HETATM    8  N2  UNL     1      -7.344  26.792  33.198  1.00  0.00    -0.378 N 
HETATM    9  C9  UNL     1      -7.110  27.910  32.285  1.00  0.00     0.124 C 
HETATM   10  C10 UNL     1      -8.256  27.900  31.311  1.00  0.00     0.039 C 
HETATM   11  C11 UNL     1      -9.328  28.825  31.829  1.00  0.00     0.115 C 
HETATM   12  N3  UNL     1      -9.501  28.780  33.262  1.00  0.00    -0.420 N 
HETATM   13  C12 UNL     1      -9.614  27.470  33.812  1.00  0.00     0.133 C 
ATOM     14  H3  UNL     1      -9.540  29.622  33.837  1.00  0.00     0.153 HD
HETATM   15  C13 UNL     1      -8.289  26.889  34.295  1.00  0.00     0.142 C 
ENDBRANCH   6   8
BRANCH   1  16
HETATM   16  C4  UNL     1      -7.258  21.961  32.218  1.00  0.00    -0.025 A 
HETATM   17  C3  UNL     1      -6.914  21.166  31.152  1.00  0.00     0.012 A 
HETATM   18  C2  UNL     1      -7.603  19.970  30.896  1.00  0.00     0.001 A 
HETATM   19  C1  UNL     1      -8.626  19.573  31.702  1.00  0.00     0.000 A 
HETATM   20  C16 UNL     1      -8.979  20.358  32.770  1.00  0.00     0.001 A 
HETATM   21  C15 UNL     1      -8.294  21.541  33.020  1.00  0.00     0.012 A 
ENDBRANCH   1  16
TORSDOF 2
ENDMDL
