MODEL 4
REMARK VINA RESULT: -7.620330416      2.088      6.432
REMARK  2 active torsions:
REMARK  status: ('A' for Active; 'I' for Inactive)
REMARK    1  A    between atoms: C4_4  and  C5_5 
REMARK    2  A    between atoms: C8_10  and  N2_11 
ROOT
HETATM    1  C5  UNL     1      -6.564  23.187  32.501  1.00  0.00    -0.008 A 
HETATM    2  C6  UNL     1      -5.193  23.261  32.575  1.00  0.00     0.100 A 
HETATM    3  N1  UNL     1      -4.547  24.402  32.828  1.00  0.00    -0.372 N 
ATOM      4  H1  UNL     1      -3.528  24.418  32.875  1.00  0.00     0.164 HD
HETATM    5  C7  UNL     1      -5.250  25.527  33.020  1.00  0.00     0.116 A 
HETATM    6  C8  UNL     1      -6.627  25.579  32.972  1.00  0.00     0.046 A 
HETATM    7  C14 UNL     1      -7.257  24.383  32.708  1.00  0.00     0.044 A 
ENDROOT
BRANCH   6   8
HETATM    8  N2  UNL     1      -7.335  26.781  33.194  1.00  0.00    -0.378 N 
HETATM    9  C9  UNL     1      -7.089  27.898  32.284  1.00  0.00     0.124 C 
HETATM   10  C10 UNL     1      -8.230  27.897  31.304  1.00  0.00     0.039 C 
HETATM   11  C11 UNL     1      -9.299  28.827  31.818  1.00  0.00     0.115 C 
HETATM   12  N3  UNL     1      -9.480  28.781  33.250  1.00  0.00    -0.420 N 
HETATM   13  C12 UNL     1      -9.603  27.471  33.798  1.00  0.00     0.133 C 
ATOM     14  H3  UNL     1      -9.516  29.623  33.826  1.00  0.00     0.153 HD
HETATM   15  C13 UNL     1      -8.285  26.881  34.287  1.00  0.00     0.142 C 
ENDBRANCH   6   8
BRANCH   1  16
HETATM   16  C4  UNL     1      -7.273  21.947  32.226  1.00  0.00    -0.025 A 
HETATM   17  C3  UNL     1      -8.313  21.523  33.017  1.00  0.00     0.012 A 
HETATM   18  C2  UNL     1      -8.986  20.323  32.738  1.00  0.00     0.001 A 
HETATM   19  C1  UNL     1      -8.621  19.555  31.675  1.00  0.00     0.000 A 
HETATM   20  C16 UNL     1      -7.584  19.967  30.876  1.00  0.00     0.001 A 
HETATM   21  C15 UNL     1      -6.921  21.156  31.157  1.00  0.00     0.012 A 
ENDBRANCH   1  16
TORSDOF 2
ENDMDL
