MODEL 12
REMARK VINA RESULT: -7.245725842      1.092      1.614
REMARK  2 active torsions:
REMARK  status: ('A' for Active; 'I' for Inactive)
REMARK    1  A    between atoms: C4_4  and  C5_5 
REMARK    2  A    between atoms: C8_10  and  N2_11 
ROOT
HETATM    1  C5  UNL     1      -7.540  27.273  32.095  1.00  0.00    -0.008 A 
HETATM    2  C6  UNL     1      -6.264  27.659  32.434  1.00  0.00     0.100 A 
HETATM    3  N1  UNL     1      -5.234  26.808  32.443  1.00  0.00    -0.372 N 
ATOM      4  H1  UNL     1      -4.301  27.131  32.700  1.00  0.00     0.164 HD
HETATM    5  C7  UNL     1      -5.437  25.525  32.110  1.00  0.00     0.116 A 
HETATM    6  C8  UNL     1      -6.668  25.020  31.752  1.00  0.00     0.046 A 
HETATM    7  C14 UNL     1      -7.705  25.927  31.755  1.00  0.00     0.044 A 
ENDROOT
BRANCH   6   8
HETATM    8  N2  UNL     1      -6.841  23.665  31.395  1.00  0.00    -0.378 N 
HETATM    9  C9  UNL     1      -6.701  22.657  32.444  1.00  0.00     0.124 C 
HETATM   10  C10 UNL     1      -8.100  22.291  32.860  1.00  0.00     0.039 C 
HETATM   11  C11 UNL     1      -8.536  21.091  32.060  1.00  0.00     0.115 C 
HETATM   12  N3  UNL     1      -8.094  21.109  30.685  1.00  0.00    -0.420 N 
HETATM   13  C12 UNL     1      -8.337  22.331  29.992  1.00  0.00     0.133 C 
ATOM     14  H3  UNL     1      -7.642  20.309  30.243  1.00  0.00     0.153 HD
HETATM   15  C13 UNL     1      -7.164  23.303  30.026  1.00  0.00     0.142 C 
ENDBRANCH   6   8
BRANCH   1  16
HETATM   16  C4  UNL     1      -8.665  28.194  32.083  1.00  0.00    -0.025 A 
HETATM   17  C3  UNL     1      -9.390  28.428  30.940  1.00  0.00     0.012 A 
HETATM   18  C2  UNL     1     -10.473  29.321  30.946  1.00  0.00     0.001 A 
HETATM   19  C1  UNL     1     -10.827  29.974  32.087  1.00  0.00     0.000 A 
HETATM   20  C16 UNL     1     -10.111  29.749  33.236  1.00  0.00     0.001 A 
HETATM   21  C15 UNL     1      -9.040  28.863  33.225  1.00  0.00     0.012 A 
ENDBRANCH   1  16
TORSDOF 2
ENDMDL
