MODEL 10
REMARK VINA RESULT: -7.298139356      1.157      1.962
REMARK  2 active torsions:
REMARK  status: ('A' for Active; 'I' for Inactive)
REMARK    1  A    between atoms: C4_4  and  C5_5 
REMARK    2  A    between atoms: C8_10  and  N2_11 
ROOT
HETATM    1  C5  UNL     1      -7.652  27.336  32.050  1.00  0.00    -0.008 A 
HETATM    2  C6  UNL     1      -6.379  27.760  32.354  1.00  0.00     0.100 A 
HETATM    3  N1  UNL     1      -5.326  26.939  32.343  1.00  0.00    -0.372 N 
ATOM      4  H1  UNL     1      -4.396  27.290  32.575  1.00  0.00     0.164 HD
HETATM    5  C7  UNL     1      -5.501  25.648  32.025  1.00  0.00     0.116 A 
HETATM    6  C8  UNL     1      -6.726  25.106  31.701  1.00  0.00     0.046 A 
HETATM    7  C14 UNL     1      -7.788  25.984  31.723  1.00  0.00     0.044 A 
ENDROOT
BRANCH   6   8
HETATM    8  N2  UNL     1      -6.870  23.745  31.356  1.00  0.00    -0.378 N 
HETATM    9  C9  UNL     1      -6.687  22.749  32.410  1.00  0.00     0.124 C 
HETATM   10  C10 UNL     1      -8.069  22.351  32.852  1.00  0.00     0.039 C 
HETATM   11  C11 UNL     1      -8.486  21.133  32.068  1.00  0.00     0.115 C 
HETATM   12  N3  UNL     1      -8.067  21.152  30.686  1.00  0.00    -0.420 N 
HETATM   13  C12 UNL     1      -8.353  22.361  29.988  1.00  0.00     0.133 C 
ATOM     14  H3  UNL     1      -7.602  20.359  30.243  1.00  0.00     0.153 HD
HETATM   15  C13 UNL     1      -7.205  23.364  29.996  1.00  0.00     0.142 C 
ENDBRANCH   6   8
BRANCH   1  16
HETATM   16  C4  UNL     1      -8.803  28.226  32.060  1.00  0.00    -0.025 A 
HETATM   17  C3  UNL     1      -9.104  28.998  33.156  1.00  0.00     0.012 A 
HETATM   18  C2  UNL     1     -10.218  29.850  33.150  1.00  0.00     0.001 A 
HETATM   19  C1  UNL     1     -11.025  29.930  32.055  1.00  0.00     0.000 A 
HETATM   20  C16 UNL     1     -10.735  29.164  30.954  1.00  0.00     0.001 A 
HETATM   21  C15 UNL     1      -9.629  28.322  30.965  1.00  0.00     0.012 A 
ENDBRANCH   1  16
TORSDOF 2
ENDMDL
