MODEL 2
REMARK VINA RESULT: -7.745931482      0.025      1.081
REMARK  2 active torsions:
REMARK  status: ('A' for Active; 'I' for Inactive)
REMARK    1  A    between atoms: C4_4  and  C5_5 
REMARK    2  A    between atoms: C8_10  and  N2_11 
ROOT
HETATM    1  C5  UNL     1      -7.206  26.913  32.553  1.00  0.00    -0.008 A 
HETATM    2  C6  UNL     1      -5.990  27.251  33.101  1.00  0.00     0.100 A 
HETATM    3  N1  UNL     1      -5.008  26.363  33.276  1.00  0.00    -0.372 N 
ATOM      4  H1  UNL     1      -4.119  26.651  33.686  1.00  0.00     0.164 HD
HETATM    5  C7  UNL     1      -5.200  25.089  32.907  1.00  0.00     0.116 A 
HETATM    6  C8  UNL     1      -6.372  24.629  32.347  1.00  0.00     0.046 A 
HETATM    7  C14 UNL     1      -7.362  25.575  32.183  1.00  0.00     0.044 A 
ENDROOT
BRANCH   6   8
HETATM    8  N2  UNL     1      -6.534  23.282  31.957  1.00  0.00    -0.378 N 
HETATM    9  C9  UNL     1      -7.806  22.892  31.352  1.00  0.00     0.124 C 
HETATM   10  C10 UNL     1      -7.567  22.856  29.867  1.00  0.00     0.039 C 
HETATM   11  C11 UNL     1      -7.195  21.448  29.480  1.00  0.00     0.115 C 
HETATM   12  N3  UNL     1      -6.347  20.779  30.438  1.00  0.00    -0.420 N 
HETATM   13  C12 UNL     1      -5.216  21.532  30.867  1.00  0.00     0.133 C 
ATOM     14  H3  UNL     1      -6.542  19.839  30.782  1.00  0.00     0.153 HD
HETATM   15  C13 UNL     1      -5.454  22.330  32.145  1.00  0.00     0.142 C 
ENDBRANCH   6   8
BRANCH   1  16
HETATM   16  C4  UNL     1      -8.279  27.876  32.360  1.00  0.00    -0.025 A 
HETATM   17  C3  UNL     1      -8.934  28.444  33.426  1.00  0.00     0.012 A 
HETATM   18  C2  UNL     1      -9.968  29.371  33.223  1.00  0.00     0.001 A 
HETATM   19  C1  UNL     1     -10.343  29.726  31.963  1.00  0.00     0.000 A 
HETATM   20  C16 UNL     1      -9.697  29.166  30.890  1.00  0.00     0.001 A 
HETATM   21  C15 UNL     1      -8.673  28.249  31.097  1.00  0.00     0.012 A 
ENDBRANCH   1  16
TORSDOF 2
ENDMDL
