MODEL 1
REMARK VINA RESULT: -7.748598185      0.000      0.000
REMARK  2 active torsions:
REMARK  status: ('A' for Active; 'I' for Inactive)
REMARK    1  A    between atoms: C4_4  and  C5_5 
REMARK    2  A    between atoms: C8_10  and  N2_11 
ROOT
HETATM    1  C5  UNL     1      -7.215  26.918  32.531  1.00  0.00    -0.008 A 
HETATM    2  C6  UNL     1      -6.004  27.264  33.084  1.00  0.00     0.100 A 
HETATM    3  N1  UNL     1      -5.019  26.380  33.268  1.00  0.00    -0.372 N 
ATOM      4  H1  UNL     1      -4.134  26.674  33.682  1.00  0.00     0.164 HD
HETATM    5  C7  UNL     1      -5.204  25.103  32.905  1.00  0.00     0.116 A 
HETATM    6  C8  UNL     1      -6.372  24.636  32.341  1.00  0.00     0.046 A 
HETATM    7  C14 UNL     1      -7.364  25.577  32.167  1.00  0.00     0.044 A 
ENDROOT
BRANCH   6   8
HETATM    8  N2  UNL     1      -6.526  23.286  31.957  1.00  0.00    -0.378 N 
HETATM    9  C9  UNL     1      -7.804  22.882  31.374  1.00  0.00     0.124 C 
HETATM   10  C10 UNL     1      -7.590  22.844  29.885  1.00  0.00     0.039 C 
HETATM   11  C11 UNL     1      -7.210  21.439  29.495  1.00  0.00     0.115 C 
HETATM   12  N3  UNL     1      -6.338  20.782  30.441  1.00  0.00    -0.420 N 
HETATM   13  C12 UNL     1      -5.208  21.548  30.849  1.00  0.00     0.133 C 
ATOM     14  H3  UNL     1      -6.518  19.840  30.790  1.00  0.00     0.153 HD
HETATM   15  C13 UNL     1      -5.434  22.346  32.129  1.00  0.00     0.142 C 
ENDBRANCH   6   8
BRANCH   1  16
HETATM   16  C4  UNL     1      -8.292  27.875  32.328  1.00  0.00    -0.025 A 
HETATM   17  C3  UNL     1      -8.699  28.241  31.068  1.00  0.00     0.012 A 
HETATM   18  C2  UNL     1      -9.739  29.167  30.890  1.00  0.00     0.001 A 
HETATM   19  C1  UNL     1     -10.366  29.721  31.965  1.00  0.00     0.000 A 
HETATM   20  C16 UNL     1      -9.969  29.363  33.228  1.00  0.00     0.001 A 
HETATM   21  C15 UNL     1      -8.939  28.446  33.400  1.00  0.00     0.012 A 
ENDBRANCH   1  16
TORSDOF 2
ENDMDL
