MODEL 2
REMARK VINA RESULT: -5.188561515      5.942      9.249
REMARK  3 active torsions:
REMARK  status: ('A' for Active; 'I' for Inactive)
REMARK    1  A    between atoms: C2_2  and  O1_3 
REMARK    2  A    between atoms: O1_3  and  C3_4 
REMARK    3  A    between atoms: C5_6  and  N1_7 
ROOT
HETATM    1  C3  UNL     1      59.103  27.126 102.323  1.00  0.00     0.104 A 
HETATM    2  C4  UNL     1      59.398  26.902 103.677  1.00  0.00     0.070 A 
HETATM    3  C5  UNL     1      59.850  27.923 104.498  1.00  0.00     0.048 A 
HETATM    4  C11 UNL     1      60.007  29.175 103.953  1.00  0.00     0.118 A 
HETATM    5  N3  UNL     1      59.731  29.421 102.652  1.00  0.00    -0.356 N 
ATOM      6  H3  UNL     1      59.856  30.358 102.270  1.00  0.00     0.166 HD
HETATM    7  C12 UNL     1      59.301  28.440 101.881  1.00  0.00     0.113 A 
HETATM    8 BR1  UNL     1      58.914  28.786 100.054  1.00  0.00    -0.028 Br
ENDROOT
BRANCH   3   9
HETATM    9  N1  UNL     1      60.136  27.724 105.868  1.00  0.00    -0.378 N 
HETATM   10  C6  UNL     1      58.998  27.981 106.764  1.00  0.00     0.124 C 
HETATM   11  C7  UNL     1      59.486  28.716 107.996  1.00  0.00     0.047 C 
HETATM   12  C8  UNL     1      60.361  27.811 108.791  1.00  0.00     0.234 C 
HETATM   13  N2  UNL     1      61.769  28.097 108.604  1.00  0.00    -0.074 N 
HETATM   14  C9  UNL     1      62.111  28.320 107.212  1.00  0.00     0.252 C 
ATOM     15  H22 UNL     1      62.064  28.882 109.185  1.00  0.00     0.277 HD
ATOM     16  H21 UNL     1      62.349  27.364 109.011  1.00  0.00     0.277 HD
HETATM   17  C10 UNL     1      61.423  27.292 106.315  1.00  0.00     0.150 C 
ENDBRANCH   3   9
BRANCH   1  18
HETATM   18  O1  UNL     1      58.683  26.196 101.548  1.00  0.00    -0.349 OA
BRANCH  18  19
HETATM   19  C2  UNL     1      58.265  25.240 100.779  1.00  0.00     0.171 C 
HETATM   20  C1  UNL     1      57.578  24.076 101.536  1.00  0.00     0.034 C 
ENDBRANCH  18  19
ENDBRANCH   1  18
TORSDOF 3
ENDMDL
