MODEL 1
REMARK VINA RESULT: -5.197749375      0.000      0.000
REMARK  3 active torsions:
REMARK  status: ('A' for Active; 'I' for Inactive)
REMARK    1  A    between atoms: C2_2  and  O1_3 
REMARK    2  A    between atoms: O1_3  and  C3_4 
REMARK    3  A    between atoms: C5_6  and  N1_7 
ROOT
HETATM    1  C3  UNL     1      56.403  23.630 102.295  1.00  0.00     0.104 A 
HETATM    2  C4  UNL     1      55.106  23.993 101.898  1.00  0.00     0.070 A 
HETATM    3  C5  UNL     1      54.007  23.207 102.208  1.00  0.00     0.048 A 
HETATM    4  C11 UNL     1      54.216  22.050 102.920  1.00  0.00     0.118 A 
HETATM    5  N3  UNL     1      55.453  21.674 103.315  1.00  0.00    -0.356 N 
ATOM      6  H3  UNL     1      55.583  20.810 103.842  1.00  0.00     0.166 HD
HETATM    7  C12 UNL     1      56.491  22.431 103.014  1.00  0.00     0.113 A 
HETATM    8 BR1  UNL     1      58.229  21.903 103.569  1.00  0.00    -0.028 Br
ENDROOT
BRANCH   3   9
HETATM    9  N1  UNL     1      52.691  23.563 101.835  1.00  0.00    -0.378 N 
HETATM   10  C6  UNL     1      51.646  22.717 102.432  1.00  0.00     0.124 C 
HETATM   11  C7  UNL     1      50.585  22.421 101.392  1.00  0.00     0.047 C 
HETATM   12  C8  UNL     1      49.867  23.681 101.055  1.00  0.00     0.234 C 
HETATM   13  N2  UNL     1      50.310  24.253  99.800  1.00  0.00    -0.074 N 
HETATM   14  C9  UNL     1      51.754  24.238  99.661  1.00  0.00     0.252 C 
ATOM     15  H22 UNL     1      49.860  23.793  99.008  1.00  0.00     0.277 HD
ATOM     16  H21 UNL     1      49.939  25.195  99.674  1.00  0.00     0.277 HD
HETATM   17  C10 UNL     1      52.426  24.665 100.965  1.00  0.00     0.150 C 
ENDBRANCH   3   9
BRANCH   1  18
HETATM   18  O1  UNL     1      57.431  24.343 102.018  1.00  0.00    -0.349 OA
BRANCH  18  19
HETATM   19  C2  UNL     1      58.458  25.080 101.733  1.00  0.00     0.171 C 
HETATM   20  C1  UNL     1      58.604  26.334 102.632  1.00  0.00     0.034 C 
ENDBRANCH  18  19
ENDBRANCH   1  18
TORSDOF 3
ENDMDL
