MODEL 4
REMARK VINA RESULT: -4.939144952      6.055      9.266
REMARK  3 active torsions:
REMARK  status: ('A' for Active; 'I' for Inactive)
REMARK    1  A    between atoms: C2_2  and  O1_3 
REMARK    2  A    between atoms: O1_3  and  C3_4 
REMARK    3  A    between atoms: C5_6  and  N1_7 
ROOT
HETATM    1  C3  UNL     1      59.197  27.395 102.436  1.00  0.00     0.104 A 
HETATM    2  C4  UNL     1      59.508  27.354 103.805  1.00  0.00     0.070 A 
HETATM    3  C5  UNL     1      59.979  28.474 104.474  1.00  0.00     0.048 A 
HETATM    4  C11 UNL     1      60.138  29.638 103.762  1.00  0.00     0.118 A 
HETATM    5  N3  UNL     1      59.848  29.708 102.444  1.00  0.00    -0.356 N 
ATOM      6  H3  UNL     1      59.974  30.583 101.936  1.00  0.00     0.166 HD
HETATM    7  C12 UNL     1      59.400  28.636 101.817  1.00  0.00     0.113 A 
HETATM    8 BR1  UNL     1      58.992  28.734  99.965  1.00  0.00    -0.028 Br
ENDROOT
BRANCH   3   9
HETATM    9  N1  UNL     1      60.280  28.459 105.855  1.00  0.00    -0.378 N 
HETATM   10  C6  UNL     1      61.626  27.957 106.172  1.00  0.00     0.124 C 
HETATM   11  C7  UNL     1      61.552  27.065 107.396  1.00  0.00     0.047 C 
HETATM   12  C8  UNL     1      61.199  27.893 108.582  1.00  0.00     0.234 C 
HETATM   13  N2  UNL     1      59.803  27.766 108.951  1.00  0.00    -0.074 N 
HETATM   14  C9  UNL     1      58.918  27.814 107.802  1.00  0.00     0.252 C 
ATOM     15  H22 UNL     1      59.645  26.921 109.501  1.00  0.00     0.277 HD
ATOM     16  H21 UNL     1      59.542  28.465 109.645  1.00  0.00     0.277 HD
HETATM   17  C10 UNL     1      59.347  28.918 106.836  1.00  0.00     0.150 C 
ENDBRANCH   3   9
BRANCH   1  18
HETATM   18  O1  UNL     1      58.760  26.373 101.800  1.00  0.00    -0.349 OA
BRANCH  18  19
HETATM   19  C2  UNL     1      58.313  25.329 101.175  1.00  0.00     0.171 C 
HETATM   20  C1  UNL     1      57.551  24.329 102.081  1.00  0.00     0.034 C 
ENDBRANCH  18  19
ENDBRANCH   1  18
TORSDOF 3
ENDMDL
