MODEL 3
REMARK VINA RESULT: -5.025361628      6.147      9.855
REMARK  3 active torsions:
REMARK  status: ('A' for Active; 'I' for Inactive)
REMARK    1  A    between atoms: C2_2  and  O1_3 
REMARK    2  A    between atoms: O1_3  and  C3_4 
REMARK    3  A    between atoms: C5_6  and  N1_7 
ROOT
HETATM    1  C3  UNL     1      59.341  27.533 102.565  1.00  0.00     0.104 A 
HETATM    2  C4  UNL     1      59.746  27.445 103.907  1.00  0.00     0.070 A 
HETATM    3  C5  UNL     1      60.246  28.546 104.586  1.00  0.00     0.048 A 
HETATM    4  C11 UNL     1      60.339  29.739 103.911  1.00  0.00     0.118 A 
HETATM    5  N3  UNL     1      59.958  29.854 102.619  1.00  0.00    -0.356 N 
ATOM      6  H3  UNL     1      60.036  30.750 102.139  1.00  0.00     0.166 HD
HETATM    7  C12 UNL     1      59.483  28.799 101.983  1.00  0.00     0.113 A 
HETATM    8 BR1  UNL     1      58.947  28.961 100.168  1.00  0.00    -0.028 Br
ENDROOT
BRANCH   3   9
HETATM    9  N1  UNL     1      60.642  28.484 105.941  1.00  0.00    -0.378 N 
HETATM   10  C6  UNL     1      61.215  29.736 106.459  1.00  0.00     0.124 C 
HETATM   11  C7  UNL     1      62.410  29.417 107.335  1.00  0.00     0.047 C 
HETATM   12  C8  UNL     1      61.942  28.712 108.560  1.00  0.00     0.234 C 
HETATM   13  N2  UNL     1      62.165  27.282 108.496  1.00  0.00    -0.074 N 
HETATM   14  C9  UNL     1      61.800  26.719 107.209  1.00  0.00     0.252 C 
ATOM     15  H22 UNL     1      63.128  27.050 108.738  1.00  0.00     0.277 HD
ATOM     16  H21 UNL     1      61.685  26.801 109.256  1.00  0.00     0.277 HD
HETATM   17  C10 UNL     1      60.472  27.300 106.724  1.00  0.00     0.150 C 
ENDBRANCH   3   9
BRANCH   1  18
HETATM   18  O1  UNL     1      58.877  26.528 101.920  1.00  0.00    -0.349 OA
BRANCH  18  19
HETATM   19  C2  UNL     1      58.399  25.504 101.287  1.00  0.00     0.171 C 
HETATM   20  C1  UNL     1      57.517  24.576 102.160  1.00  0.00     0.034 C 
ENDBRANCH  18  19
ENDBRANCH   1  18
TORSDOF 3
ENDMDL
