MODEL 1
REMARK VINA RESULT: -4.984785815      0.000      0.000
REMARK  12 active torsions:
REMARK  status: ('A' for Active; 'I' for Inactive)
REMARK    1  A    between atoms: C2_2  and  C3_3 
REMARK    2  A    between atoms: C3_3  and  C4_4 
REMARK    3  A    between atoms: C4_4  and  C5_5 
REMARK    4  A    between atoms: C5_5  and  C6_6 
REMARK    5  A    between atoms: C6_6  and  C7_7 
REMARK    6  A    between atoms: C7_7  and  C8_8 
REMARK    7  A    between atoms: C8_8  and  C9_9 
REMARK    8  A    between atoms: C9_9  and  C10_10 
REMARK    9  A    between atoms: C10_10  and  C11_11 
REMARK   10  A    between atoms: C11_11  and  C12_12 
REMARK   11  A    between atoms: C12_12  and  O1_13 
REMARK   12  A    between atoms: O1_13  and  S1_14 
ROOT
HETATM    1  C9  UNL     1      31.535  -0.980  36.170  1.00  0.00     0.000 C 
ENDROOT
BRANCH   1   2
HETATM    2  C8  UNL     1      32.372  -0.552  37.347  1.00  0.00     0.000 C 
BRANCH   2   3
HETATM    3  C7  UNL     1      33.629  -1.506  37.383  1.00  0.00     0.000 C 
BRANCH   3   4
HETATM    4  C6  UNL     1      34.827  -0.602  37.776  1.00  0.00     0.000 C 
BRANCH   4   5
HETATM    5  C5  UNL     1      34.473   0.800  37.400  1.00  0.00     0.000 C 
BRANCH   5   6
HETATM    6  C4  UNL     1      35.406   1.633  36.663  1.00  0.00     0.000 C 
BRANCH   6   7
HETATM    7  C3  UNL     1      35.646   0.969  35.289  1.00  0.00    -0.000 C 
BRANCH   7   8
HETATM    8  C2  UNL     1      34.421   1.047  34.405  1.00  0.00    -0.005 C 
HETATM    9  C1  UNL     1      34.163  -0.243  33.684  1.00  0.00     0.005 C 
ENDBRANCH   7   8
ENDBRANCH   6   7
ENDBRANCH   5   6
ENDBRANCH   4   5
ENDBRANCH   3   4
ENDBRANCH   2   3
ENDBRANCH   1   2
BRANCH   1  10
HETATM   10  C10 UNL     1      30.047  -0.596  36.223  1.00  0.00     0.002 C 
BRANCH  10  11
HETATM   11  C11 UNL     1      29.356  -1.181  35.075  1.00  0.00     0.028 C 
BRANCH  11  12
HETATM   12  C12 UNL     1      28.103  -0.598  34.452  1.00  0.00     0.193 C 
BRANCH  12  13
HETATM   13  O1  UNL     1      27.456  -1.856  34.213  1.00  0.00    -0.257 OA
BRANCH  13  14
HETATM   14  S1  UNL     1      26.313  -2.303  34.978  1.00  0.00     0.251 S 
HETATM   15  O2  UNL     1      24.816  -2.586  34.373  1.00  0.00    -0.572 OA
HETATM   16  O3  UNL     1      26.153  -1.741  36.445  1.00  0.00    -0.572 OA
HETATM   17  O4  UNL     1      26.723  -4.150  35.334  1.00  0.00    -0.572 OA
ENDBRANCH  13  14
ENDBRANCH  12  13
ENDBRANCH  11  12
ENDBRANCH  10  11
ENDBRANCH   1  10
TORSDOF 12
ENDMDL
