MODEL 2
REMARK VINA RESULT: -4.946142968      0.608      1.567
REMARK  12 active torsions:
REMARK  status: ('A' for Active; 'I' for Inactive)
REMARK    1  A    between atoms: C2_2  and  C3_3 
REMARK    2  A    between atoms: C3_3  and  C4_4 
REMARK    3  A    between atoms: C4_4  and  C5_5 
REMARK    4  A    between atoms: C5_5  and  C6_6 
REMARK    5  A    between atoms: C6_6  and  C7_7 
REMARK    6  A    between atoms: C7_7  and  C8_8 
REMARK    7  A    between atoms: C8_8  and  C9_9 
REMARK    8  A    between atoms: C9_9  and  C10_10 
REMARK    9  A    between atoms: C10_10  and  C11_11 
REMARK   10  A    between atoms: C11_11  and  C12_12 
REMARK   11  A    between atoms: C12_12  and  O1_13 
REMARK   12  A    between atoms: O1_13  and  S1_14 
ROOT
HETATM    1  C9  UNL     1      30.093  -0.775  36.082  1.00  0.00     0.000 C 
ENDROOT
BRANCH   1   2
HETATM    2  C8  UNL     1      31.530  -1.224  36.100  1.00  0.00     0.000 C 
BRANCH   2   3
HETATM    3  C7  UNL     1      32.217  -0.507  37.328  1.00  0.00     0.000 C 
BRANCH   3   4
HETATM    4  C6  UNL     1      33.538  -1.282  37.577  1.00  0.00     0.000 C 
BRANCH   4   5
HETATM    5  C5  UNL     1      34.639  -0.276  37.659  1.00  0.00     0.000 C 
BRANCH   5   6
HETATM    6  C4  UNL     1      34.411   1.112  37.301  1.00  0.00     0.000 C 
BRANCH   6   7
HETATM    7  C3  UNL     1      35.122   1.375  35.954  1.00  0.00    -0.000 C 
BRANCH   7   8
HETATM    8  C2  UNL     1      34.143   1.423  34.802  1.00  0.00    -0.005 C 
HETATM    9  C1  UNL     1      34.230   0.200  33.937  1.00  0.00     0.005 C 
ENDBRANCH   7   8
ENDBRANCH   6   7
ENDBRANCH   5   6
ENDBRANCH   4   5
ENDBRANCH   3   4
ENDBRANCH   2   3
ENDBRANCH   1   2
BRANCH   1  10
HETATM   10  C10 UNL     1      29.659   0.056  34.864  1.00  0.00     0.002 C 
BRANCH  10  11
HETATM   11  C11 UNL     1      28.864  -0.781  33.966  1.00  0.00     0.028 C 
BRANCH  11  12
HETATM   12  C12 UNL     1      27.416  -0.506  33.611  1.00  0.00     0.193 C 
BRANCH  12  13
HETATM   13  O1  UNL     1      26.990  -1.876  33.656  1.00  0.00    -0.257 OA
BRANCH  13  14
HETATM   14  S1  UNL     1      26.390  -2.467  34.831  1.00  0.00     0.251 S 
HETATM   15  O2  UNL     1      26.154  -1.704  36.263  1.00  0.00    -0.572 OA
HETATM   16  O3  UNL     1      26.708  -3.984  35.129  1.00  0.00    -0.572 OA
HETATM   17  O4  UNL     1      24.525  -2.567  34.363  1.00  0.00    -0.572 OA
ENDBRANCH  13  14
ENDBRANCH  12  13
ENDBRANCH  11  12
ENDBRANCH  10  11
ENDBRANCH   1  10
TORSDOF 12
ENDMDL
