MODEL 3
REMARK VINA RESULT: -6.874032778      3.292      4.876
REMARK  4 active torsions:
REMARK  status: ('A' for Active; 'I' for Inactive)
REMARK    1  A    between atoms: C2_2  and  C4_4 
REMARK    2  A    between atoms: C6_9  and  C7_10 
REMARK    3  A    between atoms: C8_13  and  C9_14 
REMARK    4  A    between atoms: C9_14  and  C10_15 
ROOT
HETATM    1  C4  UNL     1      46.720  33.595  20.477  1.00  0.00     0.046 C 
HETATM    2  C5  UNL     1      45.385  32.928  20.417  1.00  0.00     0.242 C 
HETATM    3  N1  UNL     1      45.566  31.561  20.041  1.00  0.00    -0.060 N 
ATOM      4  H11 UNL     1      44.991  31.286  19.245  1.00  0.00     0.278 HD
ATOM      5  H12 UNL     1      45.176  30.905  20.719  1.00  0.00     0.278 HD
HETATM    6  C6  UNL     1      46.959  31.366  19.815  1.00  0.00     0.291 C 
HETATM    7  C8  UNL     1      47.478  32.746  19.455  1.00  0.00     0.046 C 
ENDROOT
BRANCH   7   8
HETATM    8  C9  UNL     1      47.051  33.060  18.058  1.00  0.00     0.121 C 
BRANCH   8   9
HETATM    9  C10 UNL     1      48.051  32.569  17.080  1.00  0.00     0.172 C 
HETATM   10  O3  UNL     1      47.853  32.794  15.864  1.00  0.00    -0.648 OA
HETATM   11  O4  UNL     1      49.186  31.878  17.464  1.00  0.00    -0.648 OA
ENDBRANCH   8   9
ENDBRANCH   7   8
BRANCH   1  12
HETATM   12  C2  UNL     1      46.735  35.026  20.190  1.00  0.00    -0.087 C 
HETATM   13  C1  UNL     1      47.825  35.742  20.265  1.00  0.00     0.014 C 
HETATM   14  C3  UNL     1      45.456  35.720  19.804  1.00  0.00     0.043 C 
ENDBRANCH   1  12
BRANCH   6  15
HETATM   15  C7  UNL     1      47.591  30.852  21.051  1.00  0.00     0.205 C 
HETATM   16  O1  UNL     1      48.816  30.552  21.086  1.00  0.00    -0.646 OA
HETATM   17  O2  UNL     1      46.834  30.698  22.181  1.00  0.00    -0.646 OA
ENDBRANCH   6  15
TORSDOF 4
ENDMDL
