MODEL 1
REMARK VINA RESULT: -7.981509256      0.000      0.000
REMARK  4 active torsions:
REMARK  status: ('A' for Active; 'I' for Inactive)
REMARK    1  A    between atoms: C2_2  and  C4_4 
REMARK    2  A    between atoms: C6_9  and  C7_10 
REMARK    3  A    between atoms: C8_13  and  C9_14 
REMARK    4  A    between atoms: C9_14  and  C10_15 
ROOT
HETATM    1  C4  UNL     1      45.720  35.725  18.853  1.00  0.00     0.046 C 
HETATM    2  C5  UNL     1      45.557  35.507  17.385  1.00  0.00     0.242 C 
HETATM    3  N1  UNL     1      44.359  34.763  17.156  1.00  0.00    -0.060 N 
ATOM      4  H11 UNL     1      44.507  33.933  16.582  1.00  0.00     0.278 HD
ATOM      5  H12 UNL     1      43.705  35.239  16.534  1.00  0.00     0.278 HD
HETATM    6  C6  UNL     1      43.797  34.465  18.431  1.00  0.00     0.291 C 
HETATM    7  C8  UNL     1      44.981  34.493  19.379  1.00  0.00     0.046 C 
ENDROOT
BRANCH   7   8
HETATM    8  C9  UNL     1      45.779  33.247  19.173  1.00  0.00     0.121 C 
BRANCH   8   9
HETATM    9  C10 UNL     1      45.429  32.225  20.188  1.00  0.00     0.172 C 
HETATM   10  O3  UNL     1      46.180  31.230  20.313  1.00  0.00    -0.648 OA
HETATM   11  O4  UNL     1      44.312  32.334  20.995  1.00  0.00    -0.648 OA
ENDBRANCH   8   9
ENDBRANCH   7   8
BRANCH   1  12
HETATM   12  C2  UNL     1      47.092  35.847  19.335  1.00  0.00    -0.087 C 
HETATM   13  C1  UNL     1      47.385  35.873  20.608  1.00  0.00     0.014 C 
HETATM   14  C3  UNL     1      48.220  35.961  18.345  1.00  0.00     0.043 C 
ENDBRANCH   1  12
BRANCH   6  15
HETATM   15  C7  UNL     1      42.795  35.497  18.780  1.00  0.00     0.205 C 
HETATM   16  O1  UNL     1      42.519  35.764  19.983  1.00  0.00    -0.646 OA
HETATM   17  O2  UNL     1      42.153  36.179  17.782  1.00  0.00    -0.646 OA
ENDBRANCH   6  15
TORSDOF 4
ENDMDL
