MODEL 9
REMARK VINA RESULT: -5.652300795      3.905      6.936
REMARK  8 active torsions:
REMARK  status: ('A' for Active; 'I' for Inactive)
REMARK    1  A    between atoms: C2_2  and  C3_3 
REMARK    2  A    between atoms: C3_3  and  C4_4 
REMARK    3  A    between atoms: C4_4  and  C5_5 
REMARK    4  A    between atoms: C5_5  and  C6_6 
REMARK    5  A    between atoms: C6_6  and  C7_7 
REMARK    6  A    between atoms: C7_7  and  C8_8 
REMARK    7  A    between atoms: C8_8  and  C9_9 
REMARK    8  A    between atoms: C9_9  and  C10_10 
ROOT
HETATM    1  C6  UNL     1       2.025   1.063  22.100  1.00  0.00     0.000 C 
ENDROOT
BRANCH   1   2
HETATM    2  C5  UNL     1       2.899   1.658  23.215  1.00  0.00     0.000 C 
BRANCH   2   3
HETATM    3  C4  UNL     1       3.431   2.995  22.849  1.00  0.00     0.000 C 
BRANCH   3   4
HETATM    4  C3  UNL     1       2.461   4.064  22.536  1.00  0.00    -0.000 C 
BRANCH   4   5
HETATM    5  C2  UNL     1       2.464   4.673  21.192  1.00  0.00    -0.005 C 
HETATM    6  C1  UNL     1       3.588   4.360  20.282  1.00  0.00     0.005 C 
ENDBRANCH   4   5
ENDBRANCH   3   4
ENDBRANCH   2   3
ENDBRANCH   1   2
BRANCH   1   7
HETATM    7  C7  UNL     1       1.109  -0.011  22.640  1.00  0.00     0.001 C 
BRANCH   7   8
HETATM    8  C8  UNL     1       1.763  -0.781  23.764  1.00  0.00     0.010 C 
BRANCH   8   9
HETATM    9  C9  UNL     1       1.069  -2.085  24.073  1.00  0.00     0.113 C 
BRANCH   9  10
HETATM   10  C10 UNL     1       0.543  -2.186  25.427  1.00  0.00     0.172 C 
HETATM   11  O1  UNL     1      -0.669  -2.034  25.664  1.00  0.00    -0.648 OA
HETATM   12  O2  UNL     1       1.393  -2.456  26.482  1.00  0.00    -0.648 OA
ENDBRANCH   9  10
ENDBRANCH   8   9
ENDBRANCH   7   8
ENDBRANCH   1   7
TORSDOF 8
ENDMDL
