MODEL 2
REMARK VINA RESULT: -6.033132177      0.837      1.103
REMARK  8 active torsions:
REMARK  status: ('A' for Active; 'I' for Inactive)
REMARK    1  A    between atoms: C2_2  and  C3_3 
REMARK    2  A    between atoms: C3_3  and  C4_4 
REMARK    3  A    between atoms: C4_4  and  C5_5 
REMARK    4  A    between atoms: C5_5  and  C6_6 
REMARK    5  A    between atoms: C6_6  and  C7_7 
REMARK    6  A    between atoms: C7_7  and  C8_8 
REMARK    7  A    between atoms: C8_8  and  C9_9 
REMARK    8  A    between atoms: C9_9  and  C10_10 
ROOT
HETATM    1  C6  UNL     1       2.325   0.549  22.823  1.00  0.00     0.000 C 
ENDROOT
BRANCH   1   2
HETATM    2  C5  UNL     1       1.247  -0.527  23.031  1.00  0.00     0.000 C 
BRANCH   2   3
HETATM    3  C4  UNL     1       1.474  -1.304  24.276  1.00  0.00     0.000 C 
BRANCH   3   4
HETATM    4  C3  UNL     1       0.477  -2.328  24.645  1.00  0.00    -0.000 C 
BRANCH   4   5
HETATM    5  C2  UNL     1      -0.376  -2.115  25.830  1.00  0.00    -0.005 C 
HETATM    6  C1  UNL     1       0.009  -2.773  27.099  1.00  0.00     0.005 C 
ENDBRANCH   4   5
ENDBRANCH   3   4
ENDBRANCH   2   3
ENDBRANCH   1   2
BRANCH   1   7
HETATM    7  C7  UNL     1       1.773   1.733  22.062  1.00  0.00     0.001 C 
BRANCH   7   8
HETATM    8  C8  UNL     1       2.535   2.999  22.381  1.00  0.00     0.010 C 
BRANCH   8   9
HETATM    9  C9  UNL     1       3.805   3.144  21.580  1.00  0.00     0.113 C 
BRANCH   9  10
HETATM   10  C10 UNL     1       3.622   3.087  20.137  1.00  0.00     0.172 C 
HETATM   11  O1  UNL     1       3.014   3.984  19.525  1.00  0.00    -0.648 OA
HETATM   12  O2  UNL     1       4.128   2.022  19.415  1.00  0.00    -0.648 OA
ENDBRANCH   9  10
ENDBRANCH   8   9
ENDBRANCH   7   8
ENDBRANCH   1   7
TORSDOF 8
ENDMDL
