MODEL 12
REMARK VINA RESULT: -5.569295997      1.060      1.367
REMARK  8 active torsions:
REMARK  status: ('A' for Active; 'I' for Inactive)
REMARK    1  A    between atoms: C2_2  and  C3_3 
REMARK    2  A    between atoms: C3_3  and  C4_4 
REMARK    3  A    between atoms: C4_4  and  C5_5 
REMARK    4  A    between atoms: C5_5  and  C6_6 
REMARK    5  A    between atoms: C6_6  and  C7_7 
REMARK    6  A    between atoms: C7_7  and  C8_8 
REMARK    7  A    between atoms: C8_8  and  C9_9 
REMARK    8  A    between atoms: C9_9  and  C10_10 
ROOT
HETATM    1  C6  UNL     1       1.528  -0.957  21.964  1.00  0.00     0.000 C 
ENDROOT
BRANCH   1   2
HETATM    2  C5  UNL     1       1.775  -1.910  23.144  1.00  0.00     0.000 C 
BRANCH   2   3
HETATM    3  C4  UNL     1       1.331  -1.322  24.434  1.00  0.00     0.000 C 
BRANCH   3   4
HETATM    4  C3  UNL     1       0.108  -1.865  25.057  1.00  0.00    -0.000 C 
BRANCH   4   5
HETATM    5  C2  UNL     1       0.227  -2.870  26.131  1.00  0.00    -0.005 C 
HETATM    6  C1  UNL     1       0.369  -4.293  25.749  1.00  0.00     0.005 C 
ENDBRANCH   4   5
ENDBRANCH   3   4
ENDBRANCH   2   3
ENDBRANCH   1   2
BRANCH   1   7
HETATM    7  C7  UNL     1       1.330   0.463  22.443  1.00  0.00     0.001 C 
BRANCH   7   8
HETATM    8  C8  UNL     1       2.549   1.314  22.166  1.00  0.00     0.010 C 
BRANCH   8   9
HETATM    9  C9  UNL     1       2.206   2.697  21.672  1.00  0.00     0.113 C 
BRANCH   9  10
HETATM   10  C10 UNL     1       3.254   3.339  20.891  1.00  0.00     0.172 C 
HETATM   11  O1  UNL     1       4.394   3.516  21.359  1.00  0.00    -0.648 OA
HETATM   12  O2  UNL     1       2.996   3.768  19.603  1.00  0.00    -0.648 OA
ENDBRANCH   9  10
ENDBRANCH   8   9
ENDBRANCH   7   8
ENDBRANCH   1   7
TORSDOF 8
ENDMDL
