MODEL 5
REMARK VINA RESULT: -8.389203545      1.135      1.740
REMARK  11 active torsions:
REMARK  status: ('A' for Active; 'I' for Inactive)
REMARK    1  A    between atoms: C2_2  and  O2_4 
REMARK    2  A    between atoms: O2_4  and  C3_5 
REMARK    3  A    between atoms: C6_9  and  O4_10 
REMARK    4  A    between atoms: O4_10  and  C7_11 
REMARK    5  A    between atoms: C8_12  and  C9_13 
REMARK    6  A    between atoms: C12_16  and  O5_17 
REMARK    7  A    between atoms: C17_24  and  O7_25 
REMARK    8  A    between atoms: C19_28  and  O8_29 
REMARK    9  A    between atoms: C22_34  and  O10_35 
REMARK   10  A    between atoms: C23_37  and  O11_38 
REMARK   11  A    between atoms: O11_38  and  C24_39 
ROOT
HETATM    1  C7  UNL     1      34.204   3.865   8.907  1.00  0.00     0.157 A 
HETATM    2  C8  UNL     1      33.595   3.476  10.058  1.00  0.00     0.123 A 
HETATM    3  O6  UNL     1      34.333   3.038  11.104  1.00  0.00    -0.306 OA
HETATM    4  C15 UNL     1      35.623   2.951  11.095  1.00  0.00     0.096 A 
HETATM    5  C16 UNL     1      36.317   2.491  12.204  1.00  0.00     0.075 A 
HETATM    6  C17 UNL     1      37.680   2.384  12.238  1.00  0.00     0.071 A 
HETATM    7  C18 UNL     1      38.368   2.753  11.114  1.00  0.00     0.074 A 
HETATM    8  C19 UNL     1      37.720   3.228   9.955  1.00  0.00     0.085 A 
HETATM    9  C20 UNL     1      36.327   3.325   9.956  1.00  0.00     0.084 A 
HETATM   10  C21 UNL     1      35.641   3.777   8.870  1.00  0.00     0.223 A 
HETATM   11  O9  UNL     1      36.215   4.129   7.816  1.00  0.00    -0.284 OA
ENDROOT
BRANCH   1  12
HETATM   12  O4  UNL     1      33.661   4.319   7.833  1.00  0.00    -0.311 OA
BRANCH  12  13
HETATM   13  C6  UNL     1      33.110   4.778   6.742  1.00  0.00     0.298 C 
HETATM   14  O3  UNL     1      32.492   6.013   7.019  1.00  0.00    -0.351 OA
HETATM   15  C4  UNL     1      31.682   6.492   6.036  1.00  0.00     0.152 C 
HETATM   16  C3  UNL     1      30.443   5.631   5.824  1.00  0.00     0.192 C 
HETATM   17  C5  UNL     1      32.361   6.750   4.708  1.00  0.00     0.042 C 
HETATM   18  C23 UNL     1      30.698   4.200   6.226  1.00  0.00     0.197 C 
HETATM   19  C22 UNL     1      32.152   3.812   6.098  1.00  0.00     0.206 C 
BRANCH  16  20
HETATM   20  O2  UNL     1      29.412   6.148   6.635  1.00  0.00    -0.311 OA
BRANCH  20  21
HETATM   21  C2  UNL     1      28.317   6.835   6.181  1.00  0.00     0.255 C 
HETATM   22  C1  UNL     1      28.021   6.783   4.724  1.00  0.00     0.126 C 
HETATM   23  O1  UNL     1      27.620   7.470   6.998  1.00  0.00    -0.266 OA
ENDBRANCH  20  21
ENDBRANCH  16  20
BRANCH  18  24
HETATM   24  O11 UNL     1      29.986   3.341   5.321  1.00  0.00    -0.311 OA
BRANCH  24  25
HETATM   25  C24 UNL     1      29.027   2.475   5.769  1.00  0.00     0.255 C 
HETATM   26  C25 UNL     1      27.879   3.035   6.528  1.00  0.00     0.126 C 
HETATM   27  O12 UNL     1      29.164   1.251   5.518  1.00  0.00    -0.266 OA
ENDBRANCH  24  25
ENDBRANCH  18  24
BRANCH  19  28
HETATM   28  O10 UNL     1      32.470   3.529   4.772  1.00  0.00    -0.388 OA
ATOM     29  H10 UNL     1      32.145   2.684   4.483  1.00  0.00     0.210 HD
ENDBRANCH  19  28
ENDBRANCH  12  13
ENDBRANCH   1  12
BRANCH   2  30
HETATM   30  C9  UNL     1      32.172   3.508  10.240  1.00  0.00     0.001 A 
HETATM   31  C10 UNL     1      31.399   2.617   9.482  1.00  0.00     0.017 A 
HETATM   32  C11 UNL     1      30.023   2.635   9.544  1.00  0.00     0.037 A 
HETATM   33  C12 UNL     1      29.380   3.546  10.366  1.00  0.00     0.065 A 
HETATM   34  C13 UNL     1      30.113   4.425  11.112  1.00  0.00     0.037 A 
HETATM   35  C14 UNL     1      31.501   4.372  11.018  1.00  0.00     0.017 A 
BRANCH  33  36
HETATM   36  O5  UNL     1      27.995   3.561  10.426  1.00  0.00    -0.361 OA
ATOM     37  H5  UNL     1      27.560   3.684  11.261  1.00  0.00     0.217 HD
ENDBRANCH  33  36
ENDBRANCH   2  30
BRANCH   8  38
HETATM   38  O8  UNL     1      38.471   3.572   8.887  1.00  0.00    -0.360 OA
ATOM     39  H8  UNL     1      39.054   4.318   8.960  1.00  0.00     0.217 HD
ENDBRANCH   8  38
BRANCH   6  40
HETATM   40  O7  UNL     1      38.359   1.913  13.379  1.00  0.00    -0.361 OA
ATOM     41  H7  UNL     1      37.993   2.002  14.251  1.00  0.00     0.217 HD
ENDBRANCH   6  40
TORSDOF 11
ENDMDL
