MODEL 3
REMARK VINA RESULT: -8.692952214      1.133      1.494
REMARK  11 active torsions:
REMARK  status: ('A' for Active; 'I' for Inactive)
REMARK    1  A    between atoms: C2_2  and  O2_4 
REMARK    2  A    between atoms: O2_4  and  C3_5 
REMARK    3  A    between atoms: C6_9  and  O4_10 
REMARK    4  A    between atoms: O4_10  and  C7_11 
REMARK    5  A    between atoms: C8_12  and  C9_13 
REMARK    6  A    between atoms: C12_16  and  O5_17 
REMARK    7  A    between atoms: C17_24  and  O7_25 
REMARK    8  A    between atoms: C19_28  and  O8_29 
REMARK    9  A    between atoms: C22_34  and  O10_35 
REMARK   10  A    between atoms: C23_37  and  O11_38 
REMARK   11  A    between atoms: O11_38  and  C24_39 
ROOT
HETATM    1  C7  UNL     1      34.346   3.833   8.792  1.00  0.00     0.157 A 
HETATM    2  C8  UNL     1      33.691   3.433   9.915  1.00  0.00     0.123 A 
HETATM    3  O6  UNL     1      34.388   3.010  10.995  1.00  0.00    -0.306 OA
HETATM    4  C15 UNL     1      35.678   2.948  11.047  1.00  0.00     0.096 A 
HETATM    5  C16 UNL     1      36.328   2.503  12.188  1.00  0.00     0.075 A 
HETATM    6  C17 UNL     1      37.690   2.422  12.286  1.00  0.00     0.071 A 
HETATM    7  C18 UNL     1      38.422   2.804  11.195  1.00  0.00     0.074 A 
HETATM    8  C19 UNL     1      37.820   3.265  10.006  1.00  0.00     0.085 A 
HETATM    9  C20 UNL     1      36.428   3.335   9.941  1.00  0.00     0.084 A 
HETATM   10  C21 UNL     1      35.785   3.773   8.823  1.00  0.00     0.223 A 
HETATM   11  O9  UNL     1      36.401   4.135   7.797  1.00  0.00    -0.284 OA
ENDROOT
BRANCH   1  12
HETATM   12  O4  UNL     1      33.846   4.275   7.694  1.00  0.00    -0.311 OA
BRANCH  12  13
HETATM   13  C6  UNL     1      33.340   4.725   6.577  1.00  0.00     0.298 C 
HETATM   14  O3  UNL     1      32.933   6.062   6.758  1.00  0.00    -0.351 OA
HETATM   15  C4  UNL     1      32.178   6.581   5.752  1.00  0.00     0.152 C 
HETATM   16  C3  UNL     1      30.812   5.913   5.638  1.00  0.00     0.192 C 
HETATM   17  C5  UNL     1      32.847   6.617   4.394  1.00  0.00     0.042 C 
HETATM   18  C23 UNL     1      30.852   4.498   6.158  1.00  0.00     0.197 C 
HETATM   19  C22 UNL     1      32.221   3.874   6.037  1.00  0.00     0.206 C 
BRANCH  16  20
HETATM   20  O2  UNL     1      29.902   6.654   6.420  1.00  0.00    -0.311 OA
BRANCH  20  21
HETATM   21  C2  UNL     1      28.573   6.827   6.136  1.00  0.00     0.255 C 
HETATM   22  C1  UNL     1      27.669   7.211   7.254  1.00  0.00     0.126 C 
HETATM   23  O1  UNL     1      28.177   6.658   4.965  1.00  0.00    -0.266 OA
ENDBRANCH  20  21
ENDBRANCH  16  20
BRANCH  18  24
HETATM   24  O11 UNL     1      29.984   3.693   5.343  1.00  0.00    -0.311 OA
BRANCH  24  25
HETATM   25  C24 UNL     1      29.170   2.743   5.896  1.00  0.00     0.255 C 
HETATM   26  C25 UNL     1      27.928   3.196   6.574  1.00  0.00     0.126 C 
HETATM   27  O12 UNL     1      29.512   1.537   5.804  1.00  0.00    -0.266 OA
ENDBRANCH  24  25
ENDBRANCH  18  24
BRANCH  19  28
HETATM   28  O10 UNL     1      32.449   3.435   4.735  1.00  0.00    -0.388 OA
ATOM     29  H10 UNL     1      31.679   3.496   4.181  1.00  0.00     0.210 HD
ENDBRANCH  19  28
ENDBRANCH  12  13
ENDBRANCH   1  12
BRANCH   2  30
HETATM   30  C9  UNL     1      32.261   3.438  10.029  1.00  0.00     0.001 A 
HETATM   31  C10 UNL     1      31.690   4.246  11.023  1.00  0.00     0.017 A 
HETATM   32  C11 UNL     1      30.332   4.251  11.246  1.00  0.00     0.037 A 
HETATM   33  C12 UNL     1      29.503   3.445  10.481  1.00  0.00     0.065 A 
HETATM   34  C13 UNL     1      30.037   2.649   9.508  1.00  0.00     0.037 A 
HETATM   35  C14 UNL     1      31.416   2.676   9.318  1.00  0.00     0.017 A 
BRANCH  33  36
HETATM   36  O5  UNL     1      28.135   3.453  10.708  1.00  0.00    -0.361 OA
ATOM     37  H5  UNL     1      27.652   2.635  10.707  1.00  0.00     0.217 HD
ENDBRANCH  33  36
ENDBRANCH   2  30
BRANCH   8  38
HETATM   38  O8  UNL     1      38.614   3.623   8.974  1.00  0.00    -0.360 OA
ATOM     39  H8  UNL     1      38.328   4.323   8.399  1.00  0.00     0.217 HD
ENDBRANCH   8  38
BRANCH   6  40
HETATM   40  O7  UNL     1      38.324   1.965  13.459  1.00  0.00    -0.361 OA
ATOM     41  H7  UNL     1      39.120   2.366  13.785  1.00  0.00     0.217 HD
ENDBRANCH   6  40
TORSDOF 11
ENDMDL
