MODEL 1
REMARK VINA RESULT: -9.316485248      0.000      0.000
REMARK  11 active torsions:
REMARK  status: ('A' for Active; 'I' for Inactive)
REMARK    1  A    between atoms: C2_2  and  O2_4 
REMARK    2  A    between atoms: O2_4  and  C3_5 
REMARK    3  A    between atoms: C6_9  and  O4_10 
REMARK    4  A    between atoms: O4_10  and  C7_11 
REMARK    5  A    between atoms: C8_12  and  C9_13 
REMARK    6  A    between atoms: C12_16  and  O5_17 
REMARK    7  A    between atoms: C17_24  and  O7_25 
REMARK    8  A    between atoms: C19_28  and  O8_29 
REMARK    9  A    between atoms: C22_34  and  O10_35 
REMARK   10  A    between atoms: C23_37  and  O11_38 
REMARK   11  A    between atoms: O11_38  and  C24_39 
ROOT
HETATM    1  C7  UNL     1      34.294   3.657   8.786  1.00  0.00     0.157 A 
HETATM    2  C8  UNL     1      33.636   3.379   9.943  1.00  0.00     0.123 A 
HETATM    3  O6  UNL     1      34.329   3.074  11.064  1.00  0.00    -0.306 OA
HETATM    4  C15 UNL     1      35.619   3.018  11.126  1.00  0.00     0.096 A 
HETATM    5  C16 UNL     1      36.265   2.698  12.311  1.00  0.00     0.075 A 
HETATM    6  C17 UNL     1      37.627   2.629  12.421  1.00  0.00     0.071 A 
HETATM    7  C18 UNL     1      38.363   2.893  11.298  1.00  0.00     0.074 A 
HETATM    8  C19 UNL     1      37.764   3.224  10.065  1.00  0.00     0.085 A 
HETATM    9  C20 UNL     1      36.372   3.286   9.989  1.00  0.00     0.084 A 
HETATM   10  C21 UNL     1      35.733   3.602   8.828  1.00  0.00     0.223 A 
HETATM   11  O9  UNL     1      36.352   3.853   7.771  1.00  0.00    -0.284 OA
ENDROOT
BRANCH   1  12
HETATM   12  O4  UNL     1      33.797   3.980   7.645  1.00  0.00    -0.311 OA
BRANCH  12  13
HETATM   13  C6  UNL     1      33.291   4.307   6.487  1.00  0.00     0.298 C 
HETATM   14  O3  UNL     1      33.698   5.613   6.154  1.00  0.00    -0.351 OA
HETATM   15  C4  UNL     1      33.058   6.169   5.090  1.00  0.00     0.152 C 
HETATM   16  C3  UNL     1      31.580   6.424   5.360  1.00  0.00     0.192 C 
HETATM   17  C5  UNL     1      33.220   5.427   3.780  1.00  0.00     0.042 C 
HETATM   18  C23 UNL     1      31.041   5.467   6.393  1.00  0.00     0.197 C 
HETATM   19  C22 UNL     1      31.794   4.158   6.420  1.00  0.00     0.206 C 
BRANCH  16  20
HETATM   20  O2  UNL     1      31.452   7.739   5.854  1.00  0.00    -0.311 OA
BRANCH  20  21
HETATM   21  C2  UNL     1      30.440   8.607   5.539  1.00  0.00     0.255 C 
HETATM   22  C1  UNL     1      30.622   9.481   4.349  1.00  0.00     0.126 C 
HETATM   23  O1  UNL     1      29.419   8.631   6.255  1.00  0.00    -0.266 OA
ENDBRANCH  20  21
ENDBRANCH  16  20
BRANCH  18  24
HETATM   24  O11 UNL     1      29.691   5.131   6.038  1.00  0.00    -0.311 OA
BRANCH  24  25
HETATM   25  C24 UNL     1      28.721   4.982   6.990  1.00  0.00     0.255 C 
HETATM   26  C25 UNL     1      27.746   3.872   6.828  1.00  0.00     0.126 C 
HETATM   27  O12 UNL     1      28.702   5.789   7.954  1.00  0.00    -0.266 OA
ENDBRANCH  24  25
ENDBRANCH  18  24
BRANCH  19  28
HETATM   28  O10 UNL     1      31.373   3.327   5.385  1.00  0.00    -0.388 OA
ATOM     29  H10 UNL     1      30.853   2.592   5.686  1.00  0.00     0.210 HD
ENDBRANCH  19  28
ENDBRANCH  12  13
ENDBRANCH   1  12
BRANCH   2  30
HETATM   30  C9  UNL     1      32.205   3.395  10.052  1.00  0.00     0.001 A 
HETATM   31  C10 UNL     1      31.635   4.233  11.021  1.00  0.00     0.017 A 
HETATM   32  C11 UNL     1      30.276   4.251  11.239  1.00  0.00     0.037 A 
HETATM   33  C12 UNL     1      29.445   3.430  10.492  1.00  0.00     0.065 A 
HETATM   34  C13 UNL     1      29.978   2.604   9.543  1.00  0.00     0.037 A 
HETATM   35  C14 UNL     1      31.358   2.618   9.358  1.00  0.00     0.017 A 
BRANCH  33  36
HETATM   36  O5  UNL     1      28.076   3.451  10.714  1.00  0.00    -0.361 OA
ATOM     37  H5  UNL     1      27.502   2.932  10.164  1.00  0.00     0.217 HD
ENDBRANCH  33  36
ENDBRANCH   2  30
BRANCH   8  38
HETATM   38  O8  UNL     1      38.561   3.471   9.003  1.00  0.00    -0.360 OA
ATOM     39  H8  UNL     1      38.255   4.068   8.331  1.00  0.00     0.217 HD
ENDBRANCH   8  38
BRANCH   6  40
HETATM   40  O7  UNL     1      38.257   2.300  13.638  1.00  0.00    -0.361 OA
ATOM     41  H7  UNL     1      38.356   2.935  14.337  1.00  0.00     0.217 HD
ENDBRANCH   6  40
TORSDOF 11
ENDMDL
