MODEL 9
REMARK VINA RESULT: -7.517755002      2.297      6.703
REMARK  11 active torsions:
REMARK  status: ('A' for Active; 'I' for Inactive)
REMARK    1  A    between atoms: C2_2  and  O2_4 
REMARK    2  A    between atoms: O2_4  and  C3_5 
REMARK    3  A    between atoms: C6_9  and  O4_10 
REMARK    4  A    between atoms: O4_10  and  C7_11 
REMARK    5  A    between atoms: C8_12  and  C9_13 
REMARK    6  A    between atoms: C12_16  and  O5_17 
REMARK    7  A    between atoms: C17_24  and  O7_25 
REMARK    8  A    between atoms: C19_28  and  O8_29 
REMARK    9  A    between atoms: C22_34  and  O10_35 
REMARK   10  A    between atoms: C23_37  and  O11_38 
REMARK   11  A    between atoms: O11_38  and  C24_39 
ROOT
HETATM    1  C7  UNL     1      29.617   4.087   9.449  1.00  0.00     0.157 A 
HETATM    2  C8  UNL     1      30.305   3.358  10.367  1.00  0.00     0.123 A 
HETATM    3  O6  UNL     1      29.697   2.342  11.023  1.00  0.00    -0.306 OA
HETATM    4  C15 UNL     1      28.464   1.998  10.842  1.00  0.00     0.096 A 
HETATM    5  C16 UNL     1      27.904   0.945  11.550  1.00  0.00     0.075 A 
HETATM    6  C17 UNL     1      26.605   0.547  11.390  1.00  0.00     0.071 A 
HETATM    7  C18 UNL     1      25.844   1.234  10.484  1.00  0.00     0.074 A 
HETATM    8  C19 UNL     1      26.355   2.314   9.734  1.00  0.00     0.085 A 
HETATM    9  C20 UNL     1      27.686   2.692   9.922  1.00  0.00     0.084 A 
HETATM   10  C21 UNL     1      28.240   3.724   9.228  1.00  0.00     0.223 A 
HETATM   11  O9  UNL     1      27.595   4.388   8.388  1.00  0.00    -0.284 OA
ENDROOT
BRANCH   1  12
HETATM   12  O4  UNL     1      30.041   5.065   8.729  1.00  0.00    -0.311 OA
BRANCH  12  13
HETATM   13  C6  UNL     1      30.470   6.059   7.999  1.00  0.00     0.298 C 
HETATM   14  O3  UNL     1      30.518   5.656   6.650  1.00  0.00    -0.351 OA
HETATM   15  C4  UNL     1      31.165   6.509   5.810  1.00  0.00     0.152 C 
HETATM   16  C3  UNL     1      32.658   6.600   6.101  1.00  0.00     0.192 C 
HETATM   17  C5  UNL     1      30.573   7.900   5.722  1.00  0.00     0.042 C 
HETATM   18  C23 UNL     1      32.952   6.292   7.548  1.00  0.00     0.197 C 
HETATM   19  C22 UNL     1      31.791   6.617   8.457  1.00  0.00     0.206 C 
BRANCH  16  20
HETATM   20  O2  UNL     1      33.315   5.646   5.296  1.00  0.00    -0.311 OA
BRANCH  20  21
HETATM   21  C2  UNL     1      33.006   5.364   3.992  1.00  0.00     0.255 C 
HETATM   22  C1  UNL     1      33.265   6.418   2.975  1.00  0.00     0.126 C 
HETATM   23  O1  UNL     1      32.526   4.247   3.712  1.00  0.00    -0.266 OA
ENDBRANCH  20  21
ENDBRANCH  16  20
BRANCH  18  24
HETATM   24  O11 UNL     1      34.032   7.136   7.980  1.00  0.00    -0.311 OA
BRANCH  24  25
HETATM   25  C24 UNL     1      34.844   6.774   9.018  1.00  0.00     0.255 C 
HETATM   26  C25 UNL     1      34.655   7.457  10.325  1.00  0.00     0.126 C 
HETATM   27  O12 UNL     1      35.710   5.885   8.817  1.00  0.00    -0.266 OA
ENDBRANCH  24  25
ENDBRANCH  18  24
BRANCH  19  28
HETATM   28  O10 UNL     1      31.743   7.983   8.725  1.00  0.00    -0.388 OA
ATOM     29  H10 UNL     1      32.332   8.491   8.180  1.00  0.00     0.210 HD
ENDBRANCH  19  28
ENDBRANCH  12  13
ENDBRANCH   1  12
BRANCH   2  30
HETATM   30  C9  UNL     1      31.680   3.604  10.691  1.00  0.00     0.001 A 
HETATM   31  C10 UNL     1      32.655   3.080   9.830  1.00  0.00     0.017 A 
HETATM   32  C11 UNL     1      33.998   3.209  10.109  1.00  0.00     0.037 A 
HETATM   33  C12 UNL     1      34.404   3.867  11.259  1.00  0.00     0.065 A 
HETATM   34  C13 UNL     1      33.472   4.385  12.113  1.00  0.00     0.037 A 
HETATM   35  C14 UNL     1      32.126   4.231  11.791  1.00  0.00     0.017 A 
BRANCH  33  36
HETATM   36  O5  UNL     1      35.757   3.996  11.537  1.00  0.00    -0.361 OA
ATOM     37  H5  UNL     1      36.289   3.218  11.661  1.00  0.00     0.217 HD
ENDBRANCH  33  36
ENDBRANCH   2  30
BRANCH   8  38
HETATM   38  O8  UNL     1      25.539   2.940   8.860  1.00  0.00    -0.360 OA
ATOM     39  H8  UNL     1      25.226   3.812   9.072  1.00  0.00     0.217 HD
ENDBRANCH   8  38
BRANCH   6  40
HETATM   40  O7  UNL     1      26.062  -0.527  12.124  1.00  0.00    -0.361 OA
ATOM     41  H7  UNL     1      25.491  -1.170  11.720  1.00  0.00     0.217 HD
ENDBRANCH   6  40
TORSDOF 11
ENDMDL
