MODEL 11
REMARK VINA RESULT: -7.483225118      1.829      5.121
REMARK  11 active torsions:
REMARK  status: ('A' for Active; 'I' for Inactive)
REMARK    1  A    between atoms: C2_2  and  O2_4 
REMARK    2  A    between atoms: O2_4  and  C3_5 
REMARK    3  A    between atoms: C6_9  and  O4_10 
REMARK    4  A    between atoms: O4_10  and  C7_11 
REMARK    5  A    between atoms: C8_12  and  C9_13 
REMARK    6  A    between atoms: C12_16  and  O5_17 
REMARK    7  A    between atoms: C17_24  and  O7_25 
REMARK    8  A    between atoms: C19_28  and  O8_29 
REMARK    9  A    between atoms: C22_34  and  O10_35 
REMARK   10  A    between atoms: C23_37  and  O11_38 
REMARK   11  A    between atoms: O11_38  and  C24_39 
ROOT
HETATM    1  C7  UNL     1      35.026   3.931   9.977  1.00  0.00     0.157 A 
HETATM    2  C8  UNL     1      35.473   4.046   8.698  1.00  0.00     0.123 A 
HETATM    3  O6  UNL     1      36.697   3.577   8.362  1.00  0.00    -0.306 OA
HETATM    4  C15 UNL     1      37.510   3.009   9.191  1.00  0.00     0.096 A 
HETATM    5  C16 UNL     1      38.751   2.551   8.778  1.00  0.00     0.075 A 
HETATM    6  C17 UNL     1      39.641   1.945   9.622  1.00  0.00     0.071 A 
HETATM    7  C18 UNL     1      39.265   1.795  10.928  1.00  0.00     0.074 A 
HETATM    8  C19 UNL     1      38.016   2.239  11.411  1.00  0.00     0.085 A 
HETATM    9  C20 UNL     1      37.133   2.853  10.521  1.00  0.00     0.084 A 
HETATM   10  C21 UNL     1      35.912   3.302  10.923  1.00  0.00     0.223 A 
HETATM   11  O9  UNL     1      35.514   3.193  12.103  1.00  0.00    -0.284 OA
ENDROOT
BRANCH   1  12
HETATM   12  O4  UNL     1      33.894   4.303  10.460  1.00  0.00    -0.311 OA
BRANCH  12  13
HETATM   13  C6  UNL     1      32.744   4.683  10.949  1.00  0.00     0.298 C 
HETATM   14  O3  UNL     1      32.124   3.587  11.581  1.00  0.00    -0.351 OA
HETATM   15  C4  UNL     1      30.823   3.777  11.930  1.00  0.00     0.152 C 
HETATM   16  C3  UNL     1      29.906   3.925  10.722  1.00  0.00     0.192 C 
HETATM   17  C5  UNL     1      30.574   4.908  12.905  1.00  0.00     0.042 C 
HETATM   18  C23 UNL     1      30.655   4.470   9.532  1.00  0.00     0.197 C 
HETATM   19  C22 UNL     1      31.837   5.322   9.931  1.00  0.00     0.206 C 
BRANCH  16  20
HETATM   20  O2  UNL     1      29.412   2.645  10.394  1.00  0.00    -0.311 OA
BRANCH  20  21
HETATM   21  C2  UNL     1      28.102   2.255  10.487  1.00  0.00     0.255 C 
HETATM   22  C1  UNL     1      27.107   2.956   9.630  1.00  0.00     0.126 C 
HETATM   23  O1  UNL     1      27.798   1.339  11.277  1.00  0.00    -0.266 OA
ENDBRANCH  20  21
ENDBRANCH  16  20
BRANCH  18  24
HETATM   24  O11 UNL     1      29.776   5.343   8.805  1.00  0.00    -0.311 OA
BRANCH  24  25
HETATM   25  C24 UNL     1      29.783   5.380   7.438  1.00  0.00     0.255 C 
HETATM   26  C25 UNL     1      29.587   4.104   6.702  1.00  0.00     0.126 C 
HETATM   27  O12 UNL     1      29.955   6.490   6.872  1.00  0.00    -0.266 OA
ENDBRANCH  24  25
ENDBRANCH  18  24
BRANCH  19  28
HETATM   28  O10 UNL     1      31.422   6.600  10.295  1.00  0.00    -0.388 OA
ATOM     29  H10 UNL     1      30.813   6.984   9.676  1.00  0.00     0.210 HD
ENDBRANCH  19  28
ENDBRANCH  12  13
ENDBRANCH   1  12
BRANCH   2  30
HETATM   30  C9  UNL     1      34.702   4.649   7.650  1.00  0.00     0.001 A 
HETATM   31  C10 UNL     1      34.639   6.049   7.611  1.00  0.00     0.017 A 
HETATM   32  C11 UNL     1      33.861   6.703   6.682  1.00  0.00     0.037 A 
HETATM   33  C12 UNL     1      33.121   5.975   5.764  1.00  0.00     0.065 A 
HETATM   34  C13 UNL     1      33.166   4.610   5.784  1.00  0.00     0.037 A 
HETATM   35  C14 UNL     1      33.966   3.990   6.741  1.00  0.00     0.017 A 
BRANCH  33  36
HETATM   36  O5  UNL     1      32.339   6.637   4.830  1.00  0.00    -0.361 OA
ATOM     37  H5  UNL     1      32.067   6.187   4.039  1.00  0.00     0.217 HD
ENDBRANCH  33  36
ENDBRANCH   2  30
BRANCH   8  38
HETATM   38  O8  UNL     1      37.721   2.053  12.715  1.00  0.00    -0.360 OA
ATOM     39  H8  UNL     1      36.928   2.442  13.063  1.00  0.00     0.217 HD
ENDBRANCH   8  38
BRANCH   6  40
HETATM   40  O7  UNL     1      40.897   1.490   9.173  1.00  0.00    -0.361 OA
ATOM     41  H7  UNL     1      41.290   0.694   9.511  1.00  0.00     0.217 HD
ENDBRANCH   6  40
TORSDOF 11
ENDMDL
