MODEL 2
REMARK VINA RESULT: -8.946130410      0.837      1.016
REMARK  11 active torsions:
REMARK  status: ('A' for Active; 'I' for Inactive)
REMARK    1  A    between atoms: C2_2  and  O2_4 
REMARK    2  A    between atoms: O2_4  and  C3_5 
REMARK    3  A    between atoms: C6_9  and  O4_10 
REMARK    4  A    between atoms: O4_10  and  C7_11 
REMARK    5  A    between atoms: C8_12  and  C9_13 
REMARK    6  A    between atoms: C12_16  and  O5_17 
REMARK    7  A    between atoms: C17_24  and  O7_25 
REMARK    8  A    between atoms: C19_28  and  O8_29 
REMARK    9  A    between atoms: C22_34  and  O10_35 
REMARK   10  A    between atoms: C23_37  and  O11_38 
REMARK   11  A    between atoms: O11_38  and  C24_39 
ROOT
HETATM    1  C7  UNL     1      34.340   3.778   8.831  1.00  0.00     0.157 A 
HETATM    2  C8  UNL     1      33.678   3.411   9.960  1.00  0.00     0.123 A 
HETATM    3  O6  UNL     1      34.368   3.016  11.055  1.00  0.00    -0.306 OA
HETATM    4  C15 UNL     1      35.657   2.953  11.116  1.00  0.00     0.096 A 
HETATM    5  C16 UNL     1      36.300   2.539  12.273  1.00  0.00     0.075 A 
HETATM    6  C17 UNL     1      37.661   2.459  12.381  1.00  0.00     0.071 A 
HETATM    7  C18 UNL     1      38.400   2.809  11.284  1.00  0.00     0.074 A 
HETATM    8  C19 UNL     1      37.806   3.238  10.079  1.00  0.00     0.085 A 
HETATM    9  C20 UNL     1      36.414   3.309  10.005  1.00  0.00     0.084 A 
HETATM   10  C21 UNL     1      35.779   3.717   8.871  1.00  0.00     0.223 A 
HETATM   11  O9  UNL     1      36.400   4.049   7.839  1.00  0.00    -0.284 OA
ENDROOT
BRANCH   1  12
HETATM   12  O4  UNL     1      33.846   4.191   7.717  1.00  0.00    -0.311 OA
BRANCH  12  13
HETATM   13  C6  UNL     1      33.347   4.609   6.586  1.00  0.00     0.298 C 
HETATM   14  O3  UNL     1      33.248   6.014   6.613  1.00  0.00    -0.351 OA
HETATM   15  C4  UNL     1      32.531   6.567   5.598  1.00  0.00     0.152 C 
HETATM   16  C3  UNL     1      31.051   6.207   5.660  1.00  0.00     0.192 C 
HETATM   17  C5  UNL     1      33.066   6.297   4.208  1.00  0.00     0.042 C 
HETATM   18  C23 UNL     1      30.839   4.888   6.359  1.00  0.00     0.197 C 
HETATM   19  C22 UNL     1      32.030   3.968   6.235  1.00  0.00     0.206 C 
BRANCH  16  20
HETATM   20  O2  UNL     1      30.391   7.215   6.394  1.00  0.00    -0.311 OA
BRANCH  20  21
HETATM   21  C2  UNL     1      30.742   8.539   6.412  1.00  0.00     0.255 C 
HETATM   22  C1  UNL     1      31.139   9.134   7.717  1.00  0.00     0.126 C 
HETATM   23  O1  UNL     1      30.716   9.187   5.346  1.00  0.00    -0.266 OA
ENDBRANCH  20  21
ENDBRANCH  16  20
BRANCH  18  24
HETATM   24  O11 UNL     1      29.752   4.204   5.716  1.00  0.00    -0.311 OA
BRANCH  24  25
HETATM   25  C24 UNL     1      28.644   3.814   6.416  1.00  0.00     0.255 C 
HETATM   26  C25 UNL     1      28.006   4.803   7.323  1.00  0.00     0.126 C 
HETATM   27  O12 UNL     1      28.222   2.640   6.258  1.00  0.00    -0.266 OA
ENDBRANCH  24  25
ENDBRANCH  18  24
BRANCH  19  28
HETATM   28  O10 UNL     1      32.041   3.343   4.991  1.00  0.00    -0.388 OA
ATOM     29  H10 UNL     1      31.252   2.844   4.817  1.00  0.00     0.210 HD
ENDBRANCH  19  28
ENDBRANCH  12  13
ENDBRANCH   1  12
BRANCH   2  30
HETATM   30  C9  UNL     1      32.247   3.420  10.066  1.00  0.00     0.001 A 
HETATM   31  C10 UNL     1      31.671   4.270  11.022  1.00  0.00     0.017 A 
HETATM   32  C11 UNL     1      30.311   4.285  11.237  1.00  0.00     0.037 A 
HETATM   33  C12 UNL     1      29.486   3.448  10.502  1.00  0.00     0.065 A 
HETATM   34  C13 UNL     1      30.025   2.611   9.566  1.00  0.00     0.037 A 
HETATM   35  C14 UNL     1      31.405   2.629   9.383  1.00  0.00     0.017 A 
BRANCH  33  36
HETATM   36  O5  UNL     1      28.117   3.466  10.721  1.00  0.00    -0.361 OA
ATOM     37  H5  UNL     1      27.525   3.202  10.026  1.00  0.00     0.217 HD
ENDBRANCH  33  36
ENDBRANCH   2  30
BRANCH   8  38
HETATM   38  O8  UNL     1      38.606   3.566   9.042  1.00  0.00    -0.360 OA
ATOM     39  H8  UNL     1      39.522   3.751   9.213  1.00  0.00     0.217 HD
ENDBRANCH   8  38
BRANCH   6  40
HETATM   40  O7  UNL     1      38.287   2.033  13.569  1.00  0.00    -0.361 OA
ATOM     41  H7  UNL     1      39.029   1.440  13.559  1.00  0.00     0.217 HD
ENDBRANCH   6  40
TORSDOF 11
ENDMDL
