MODEL 12
REMARK VINA RESULT: -7.220497140      2.237      7.637
REMARK  11 active torsions:
REMARK  status: ('A' for Active; 'I' for Inactive)
REMARK    1  A    between atoms: C2_2  and  O2_4 
REMARK    2  A    between atoms: O2_4  and  C3_5 
REMARK    3  A    between atoms: C6_9  and  O4_10 
REMARK    4  A    between atoms: O4_10  and  C7_11 
REMARK    5  A    between atoms: C8_12  and  C9_13 
REMARK    6  A    between atoms: C12_16  and  O5_17 
REMARK    7  A    between atoms: C17_24  and  O7_25 
REMARK    8  A    between atoms: C19_28  and  O8_29 
REMARK    9  A    between atoms: C22_34  and  O10_35 
REMARK   10  A    between atoms: C23_37  and  O11_38 
REMARK   11  A    between atoms: O11_38  and  C24_39 
ROOT
HETATM    1  C7  UNL     1      29.357   4.320   9.231  1.00  0.00     0.157 A 
HETATM    2  C8  UNL     1      28.565   4.745   8.211  1.00  0.00     0.123 A 
HETATM    3  O6  UNL     1      27.343   4.195   8.024  1.00  0.00    -0.306 OA
HETATM    4  C15 UNL     1      26.849   3.257   8.764  1.00  0.00     0.096 A 
HETATM    5  C16 UNL     1      25.588   2.739   8.515  1.00  0.00     0.075 A 
HETATM    6  C17 UNL     1      25.027   1.747   9.272  1.00  0.00     0.071 A 
HETATM    7  C18 UNL     1      25.763   1.262  10.318  1.00  0.00     0.074 A 
HETATM    8  C19 UNL     1      27.052   1.748  10.623  1.00  0.00     0.085 A 
HETATM    9  C20 UNL     1      27.593   2.761   9.829  1.00  0.00     0.084 A 
HETATM   10  C21 UNL     1      28.831   3.275  10.072  1.00  0.00     0.223 A 
HETATM   11  O9  UNL     1      29.549   2.872  11.012  1.00  0.00    -0.284 OA
ENDROOT
BRANCH   1  12
HETATM   12  O4  UNL     1      30.527   4.741   9.560  1.00  0.00    -0.311 OA
BRANCH  12  13
HETATM   13  C6  UNL     1      31.715   5.168   9.894  1.00  0.00     0.298 C 
HETATM   14  O3  UNL     1      32.171   6.079   8.923  1.00  0.00    -0.351 OA
HETATM   15  C4  UNL     1      33.484   6.424   9.020  1.00  0.00     0.152 C 
HETATM   16  C3  UNL     1      34.421   5.257   8.733  1.00  0.00     0.192 C 
HETATM   17  C5  UNL     1      33.881   7.094  10.318  1.00  0.00     0.042 C 
HETATM   18  C23 UNL     1      33.763   3.938   9.052  1.00  0.00     0.197 C 
HETATM   19  C22 UNL     1      32.709   4.061  10.126  1.00  0.00     0.206 C 
BRANCH  16  20
HETATM   20  O2  UNL     1      34.734   5.282   7.357  1.00  0.00    -0.311 OA
BRANCH  20  21
HETATM   21  C2  UNL     1      33.824   5.195   6.337  1.00  0.00     0.255 C 
HETATM   22  C1  UNL     1      33.533   6.430   5.560  1.00  0.00     0.126 C 
HETATM   23  O1  UNL     1      33.282   4.096   6.102  1.00  0.00    -0.266 OA
ENDBRANCH  20  21
ENDBRANCH  16  20
BRANCH  18  24
HETATM   24  O11 UNL     1      34.761   3.053   9.586  1.00  0.00    -0.311 OA
BRANCH  24  25
HETATM   25  C24 UNL     1      35.995   3.513   9.954  1.00  0.00     0.255 C 
HETATM   26  C25 UNL     1      37.109   3.384   8.979  1.00  0.00     0.126 C 
HETATM   27  O12 UNL     1      36.125   4.019  11.097  1.00  0.00    -0.266 OA
ENDBRANCH  24  25
ENDBRANCH  18  24
BRANCH  19  28
HETATM   28  O10 UNL     1      33.296   4.109  11.388  1.00  0.00    -0.388 OA
ATOM     29  H10 UNL     1      32.675   4.295  12.082  1.00  0.00     0.210 HD
ENDBRANCH  19  28
ENDBRANCH  12  13
ENDBRANCH   1  12
BRANCH   2  30
HETATM   30  C9  UNL     1      28.957   5.776   7.295  1.00  0.00     0.001 A 
HETATM   31  C10 UNL     1      29.479   5.382   6.054  1.00  0.00     0.017 A 
HETATM   32  C11 UNL     1      29.945   6.308   5.148  1.00  0.00     0.037 A 
HETATM   33  C12 UNL     1      29.904   7.658   5.458  1.00  0.00     0.065 A 
HETATM   34  C13 UNL     1      29.401   8.066   6.660  1.00  0.00     0.037 A 
HETATM   35  C14 UNL     1      28.941   7.095   7.546  1.00  0.00     0.017 A 
BRANCH  33  36
HETATM   36  O5  UNL     1      30.375   8.588   4.543  1.00  0.00    -0.361 OA
ATOM     37  H5  UNL     1      29.825   9.321   4.290  1.00  0.00     0.217 HD
ENDBRANCH  33  36
ENDBRANCH   2  30
BRANCH   8  38
HETATM   38  O8  UNL     1      27.714   1.217  11.673  1.00  0.00    -0.360 OA
ATOM     39  H8  UNL     1      28.446   1.697  12.042  1.00  0.00     0.217 HD
ENDBRANCH   8  38
BRANCH   6  40
HETATM   40  O7  UNL     1      23.742   1.238   8.995  1.00  0.00    -0.361 OA
ATOM     41  H7  UNL     1      22.994   1.442   9.543  1.00  0.00     0.217 HD
ENDBRANCH   6  40
TORSDOF 11
ENDMDL
