MODEL 3
REMARK VINA RESULT: -5.141440433      1.218      1.243
REMARK  3 active torsions:
REMARK  status: ('A' for Active; 'I' for Inactive)
REMARK       I    between atoms: C2_2  and  N1_4 
REMARK    1  A    between atoms: N1_4  and  C3_6 
REMARK    2  A    between atoms: C4_11  and  S1_12 
REMARK    3  A    between atoms: S1_12  and  N4_13 
ROOT
HETATM    1  C3  UNL     1      81.399  54.168 109.731  1.00  0.00     0.168 A 
HETATM    2  N2  UNL     1      81.778  52.897 109.828  1.00  0.00    -0.278 N 
ATOM      3  H2  UNL     1      82.213  52.556 110.685  1.00  0.00     0.189 HD
HETATM    4  N3  UNL     1      81.595  52.116 108.856  1.00  0.00    -0.281 N 
ATOM      5  H3  UNL     1      81.882  51.139 108.925  1.00  0.00     0.188 HD
HETATM    6  C4  UNL     1      81.027  52.563 107.741  1.00  0.00     0.208 A 
HETATM    7  S2  UNL     1      80.753  54.202 108.148  1.00  0.00    -0.020 SA
ENDROOT
BRANCH   6   8
HETATM    8  S1  UNL     1      80.672  51.657 106.260  1.00  0.00     0.280 S 
HETATM    9  O2  UNL     1      79.554  50.710 106.508  1.00  0.00    -0.199 OA
HETATM   10  O3  UNL     1      80.283  52.676 105.229  1.00  0.00    -0.199 OA
BRANCH   8  11
HETATM   11  N4  UNL     1      82.108  50.857 105.754  1.00  0.00    -0.323 N 
ATOM     12  H42 UNL     1      82.376  49.910 106.022  1.00  0.00     0.169 HD
ATOM     13  H41 UNL     1      82.633  51.488 105.150  1.00  0.00     0.169 HD
ENDBRANCH   8  11
ENDBRANCH   6   8
BRANCH   1  14
HETATM   14  N1  UNL     1      81.513  55.218 110.710  1.00  0.00    -0.306 N 
HETATM   15  C2  UNL     1      80.512  55.345 111.698  1.00  0.00     0.219 C 
HETATM   16  C1  UNL     1      80.552  56.398 112.742  1.00  0.00     0.117 C 
HETATM   17  O1  UNL     1      79.556  54.527 111.679  1.00  0.00    -0.274 OA
ATOM     18  H1  UNL     1      82.305  55.861 110.690  1.00  0.00     0.171 HD
ENDBRANCH   1  14
TORSDOF 3
ENDMDL
