MODEL 2
REMARK VINA RESULT: -5.275387730      3.853      4.655
REMARK  3 active torsions:
REMARK  status: ('A' for Active; 'I' for Inactive)
REMARK       I    between atoms: C2_2  and  N1_4 
REMARK    1  A    between atoms: N1_4  and  C3_6 
REMARK    2  A    between atoms: C4_11  and  S1_12 
REMARK    3  A    between atoms: S1_12  and  N4_13 
ROOT
HETATM    1  C3  UNL     1      81.936  55.365 105.474  1.00  0.00     0.168 A 
HETATM    2  N2  UNL     1      81.318  55.111 106.624  1.00  0.00    -0.278 N 
ATOM      3  H2  UNL     1      81.185  55.854 107.309  1.00  0.00     0.189 HD
HETATM    4  N3  UNL     1      80.896  53.947 106.861  1.00  0.00    -0.281 N 
ATOM      5  H3  UNL     1      80.421  53.747 107.741  1.00  0.00     0.188 HD
HETATM    6  C4  UNL     1      81.070  52.981 105.966  1.00  0.00     0.208 A 
HETATM    7  S2  UNL     1      81.888  53.827 104.725  1.00  0.00    -0.020 SA
ENDROOT
BRANCH   6   8
HETATM    8  S1  UNL     1      80.566  51.286 106.082  1.00  0.00     0.280 S 
HETATM    9  O2  UNL     1      79.103  51.214 106.328  1.00  0.00    -0.199 OA
HETATM   10  O3  UNL     1      80.912  50.656 104.763  1.00  0.00    -0.199 OA
BRANCH   8  11
HETATM   11  N4  UNL     1      81.480  50.530 107.327  1.00  0.00    -0.323 N 
ATOM     12  H42 UNL     1      82.482  50.346 107.288  1.00  0.00     0.169 HD
ATOM     13  H41 UNL     1      80.850  50.304 108.097  1.00  0.00     0.169 HD
ENDBRANCH   8  11
ENDBRANCH   6   8
BRANCH   1  14
HETATM   14  N1  UNL     1      82.489  56.609 105.004  1.00  0.00    -0.306 N 
HETATM   15  C2  UNL     1      81.617  57.684 104.723  1.00  0.00     0.219 C 
HETATM   16  C1  UNL     1      82.104  58.998 104.236  1.00  0.00     0.117 C 
HETATM   17  O1  UNL     1      80.383  57.504 104.897  1.00  0.00    -0.274 OA
ATOM     18  H1  UNL     1      83.496  56.712 104.877  1.00  0.00     0.171 HD
ENDBRANCH   1  14
TORSDOF 3
ENDMDL
