MODEL 1
REMARK VINA RESULT: -5.321560569      0.000      0.000
REMARK  3 active torsions:
REMARK  status: ('A' for Active; 'I' for Inactive)
REMARK       I    between atoms: C2_2  and  N1_4 
REMARK    1  A    between atoms: N1_4  and  C3_6 
REMARK    2  A    between atoms: C4_11  and  S1_12 
REMARK    3  A    between atoms: S1_12  and  N4_13 
ROOT
HETATM    1  C3  UNL     1      80.931  54.513 109.461  1.00  0.00     0.168 A 
HETATM    2  N2  UNL     1      79.966  54.683 108.562  1.00  0.00    -0.278 N 
ATOM      3  H2  UNL     1      79.323  55.471 108.642  1.00  0.00     0.189 HD
HETATM    4  N3  UNL     1      79.849  53.865 107.610  1.00  0.00    -0.281 N 
ATOM      5  H3  UNL     1      79.111  53.991 106.917  1.00  0.00     0.188 HD
HETATM    6  C4  UNL     1      80.687  52.838 107.509  1.00  0.00     0.208 A 
HETATM    7  S2  UNL     1      81.686  53.095 108.873  1.00  0.00    -0.020 SA
ENDROOT
BRANCH   6   8
HETATM    8  S1  UNL     1      80.715  51.574 106.267  1.00  0.00     0.280 S 
HETATM    9  O2  UNL     1      79.560  50.659 106.459  1.00  0.00    -0.199 OA
HETATM   10  O3  UNL     1      80.616  52.282 104.947  1.00  0.00    -0.199 OA
BRANCH   8  11
HETATM   11  N4  UNL     1      82.223  50.754 106.360  1.00  0.00    -0.323 N 
ATOM     12  H42 UNL     1      83.118  51.198 106.566  1.00  0.00     0.169 HD
ATOM     13  H41 UNL     1      82.064  49.764 106.175  1.00  0.00     0.169 HD
ENDBRANCH   8  11
ENDBRANCH   6   8
BRANCH   1  14
HETATM   14  N1  UNL     1      81.239  55.319 110.614  1.00  0.00    -0.306 N 
HETATM   15  C2  UNL     1      80.342  55.328 111.705  1.00  0.00     0.219 C 
HETATM   16  C1  UNL     1      80.584  56.129 112.929  1.00  0.00     0.117 C 
HETATM   17  O1  UNL     1      79.303  54.622 111.620  1.00  0.00    -0.274 OA
ATOM     18  H1  UNL     1      82.093  55.876 110.642  1.00  0.00     0.171 HD
ENDBRANCH   1  14
TORSDOF 3
ENDMDL
