MODEL 3
REMARK VINA RESULT: -4.334527866      0.896      2.094
REMARK  0 active torsions:
REMARK  status: ('A' for Active; 'I' for Inactive)
ROOT
HETATM    1  O1  UNL     1      13.204  -5.294  13.709  1.00  0.00    -0.298 OA
HETATM    2  C1  UNL     1      12.634  -4.433  13.078  1.00  0.00     0.127 C 
HETATM    3  C2  UNL     1      12.172  -4.756  11.705  1.00  0.00     0.078 C 
HETATM    4  C3  UNL     1      12.604  -3.608  10.800  1.00  0.00     0.007 C 
HETATM    5  C4  UNL     1      12.034  -2.345  11.418  1.00  0.00     0.001 C 
HETATM    6  C5  UNL     1      12.855  -2.063  12.661  1.00  0.00     0.007 C 
HETATM    7  C6  UNL     1      12.427  -3.111  13.697  1.00  0.00     0.078 C 
ENDROOT
TORSDOF 0
ENDMDL
