MODEL 1
REMARK VINA RESULT: -4.730560538      0.000      0.000
REMARK  0 active torsions:
REMARK  status: ('A' for Active; 'I' for Inactive)
ROOT
HETATM    1  O1  UNL     1      12.039  -5.623  12.254  1.00  0.00    -0.298 OA
HETATM    2  C1  UNL     1      12.451  -4.485  12.259  1.00  0.00     0.127 C 
HETATM    3  C2  UNL     1      12.731  -3.842  13.567  1.00  0.00     0.078 C 
HETATM    4  C3  UNL     1      12.094  -2.457  13.536  1.00  0.00     0.007 C 
HETATM    5  C4  UNL     1      12.660  -1.759  12.313  1.00  0.00     0.001 C 
HETATM    6  C5  UNL     1      12.011  -2.407  11.106  1.00  0.00     0.007 C 
HETATM    7  C6  UNL     1      12.655  -3.793  10.972  1.00  0.00     0.078 C 
ENDROOT
TORSDOF 0
ENDMDL
