MODEL 2
REMARK VINA RESULT: -4.377727811      0.758      2.034
REMARK  0 active torsions:
REMARK  status: ('A' for Active; 'I' for Inactive)
ROOT
HETATM    1  O1  UNL     1      12.371  -5.830  12.484  1.00  0.00    -0.298 OA
HETATM    2  C1  UNL     1      12.287  -4.624  12.432  1.00  0.00     0.127 C 
HETATM    3  C2  UNL     1      12.411  -3.966  11.107  1.00  0.00     0.078 C 
HETATM    4  C3  UNL     1      13.383  -2.803  11.268  1.00  0.00     0.007 C 
HETATM    5  C4  UNL     1      12.833  -1.945  12.392  1.00  0.00     0.001 C 
HETATM    6  C5  UNL     1      13.076  -2.709  13.678  1.00  0.00     0.007 C 
HETATM    7  C6  UNL     1      12.069  -3.867  13.679  1.00  0.00     0.078 C 
ENDROOT
TORSDOF 0
ENDMDL
