MODEL 7
REMARK VINA RESULT: -10.604240487      3.611      5.401
REMARK  7 active torsions:
REMARK  status: ('A' for Active; 'I' for Inactive)
REMARK    1  A    between atoms: O1_2  and  C2_3 
REMARK    2  A    between atoms: C5_6  and  C6_7 
REMARK    3  A    between atoms: C7_11  and  C8_12 
REMARK    4  A    between atoms: C8_12  and  S1_13 
REMARK    5  A    between atoms: S1_13  and  C9_14 
REMARK    6  A    between atoms: N4_21  and  C12_22 
REMARK    7  A    between atoms: C15_25  and  O3_26 
ROOT
HETATM    1  S1  UNL     1     -24.603  -7.085   7.882  1.00  0.00    -0.084 SA
ENDROOT
BRANCH   1   2
HETATM    2  C8  UNL     1     -25.108  -6.171   9.330  1.00  0.00     0.169 C 
BRANCH   2   3
HETATM    3  C7  UNL     1     -25.193  -4.724   8.906  1.00  0.00     0.158 A 
HETATM    4  O2  UNL     1     -25.476  -3.673   9.628  1.00  0.00    -0.222 OA
HETATM    5  N1  UNL     1     -25.456  -2.585   8.915  1.00  0.00    -0.242 N 
HETATM    6  C6  UNL     1     -25.147  -2.910   7.650  1.00  0.00     0.137 A 
ATOM      7  H1  UNL     1     -25.644  -1.643   9.259  1.00  0.00     0.196 HD
HETATM    8  N5  UNL     1     -24.984  -4.241   7.648  1.00  0.00    -0.322 N 
ATOM      9  H5  UNL     1     -24.741  -4.804   6.833  1.00  0.00     0.169 HD
BRANCH   6  10
HETATM   10  C5  UNL     1     -25.010  -2.032   6.509  1.00  0.00     0.010 A 
HETATM   11  C4  UNL     1     -25.925  -1.035   6.249  1.00  0.00     0.018 A 
HETATM   12  C3  UNL     1     -25.763  -0.219   5.154  1.00  0.00     0.037 A 
HETATM   13  C2  UNL     1     -24.695  -0.382   4.309  1.00  0.00     0.068 A 
HETATM   14  C20 UNL     1     -23.784  -1.374   4.566  1.00  0.00     0.037 A 
HETATM   15  C19 UNL     1     -23.925  -2.205   5.658  1.00  0.00     0.018 A 
BRANCH  13  16
HETATM   16  O1  UNL     1     -24.528   0.452   3.189  1.00  0.00    -0.356 OA
HETATM   17  C1  UNL     1     -24.055  -0.124   1.982  1.00  0.00     0.210 C 
ENDBRANCH  13  16
ENDBRANCH   6  10
ENDBRANCH   2   3
ENDBRANCH   1   2
BRANCH   1  18
HETATM   18  C9  UNL     1     -24.337  -8.818   8.169  1.00  0.00     0.168 A 
HETATM   19  N2  UNL     1     -23.184  -9.294   8.715  1.00  0.00    -0.278 N 
HETATM   20  N3  UNL     1     -23.278 -10.600   8.803  1.00  0.00    -0.287 N 
ATOM     21  H2  UNL     1     -22.384  -8.732   9.005  1.00  0.00     0.189 HD
HETATM   22  C10 UNL     1     -24.461 -11.026   8.332  1.00  0.00     0.101 A 
ATOM     23  H3  UNL     1     -22.552 -11.209   9.178  1.00  0.00     0.188 HD
HETATM   24  C11 UNL     1     -24.984 -12.417   8.243  1.00  0.00     0.091 C 
HETATM   25  N4  UNL     1     -25.100  -9.882   7.943  1.00  0.00    -0.279 N 
BRANCH  25  26
HETATM   26  C12 UNL     1     -26.394  -9.868   7.379  1.00  0.00     0.043 A 
HETATM   27  C13 UNL     1     -27.013 -11.072   7.056  1.00  0.00     0.033 A 
HETATM   28  C14 UNL     1     -28.279 -11.099   6.510  1.00  0.00     0.039 A 
HETATM   29  C15 UNL     1     -28.976  -9.935   6.266  1.00  0.00     0.068 A 
HETATM   30  C17 UNL     1     -28.362  -8.743   6.586  1.00  0.00     0.039 A 
HETATM   31  C18 UNL     1     -27.090  -8.710   7.135  1.00  0.00     0.033 A 
BRANCH  29  32
HETATM   32  O3  UNL     1     -30.262  -9.988   5.711  1.00  0.00    -0.356 OA
HETATM   33  C16 UNL     1     -30.659  -9.110   4.680  1.00  0.00     0.210 C 
ENDBRANCH  29  32
ENDBRANCH  25  26
ENDBRANCH   1  18
TORSDOF 7
ENDMDL
