MODEL 1
REMARK VINA RESULT: -12.268758321      0.000      0.000
REMARK  7 active torsions:
REMARK  status: ('A' for Active; 'I' for Inactive)
REMARK    1  A    between atoms: O1_2  and  C2_3 
REMARK    2  A    between atoms: C5_6  and  C6_7 
REMARK    3  A    between atoms: C7_11  and  C8_12 
REMARK    4  A    between atoms: C8_12  and  S1_13 
REMARK    5  A    between atoms: S1_13  and  C9_14 
REMARK    6  A    between atoms: N4_21  and  C12_22 
REMARK    7  A    between atoms: C15_25  and  O3_26 
ROOT
HETATM    1  S1  UNL     1     -25.761  -6.308   7.701  1.00  0.00    -0.084 SA
ENDROOT
BRANCH   1   2
HETATM    2  C8  UNL     1     -24.658  -4.930   7.973  1.00  0.00     0.169 C 
BRANCH   2   3
HETATM    3  C7  UNL     1     -24.699  -4.643   9.454  1.00  0.00     0.158 A 
HETATM    4  O2  UNL     1     -25.482  -5.152  10.368  1.00  0.00    -0.222 OA
HETATM    5  N1  UNL     1     -25.224  -4.660  11.545  1.00  0.00    -0.242 N 
HETATM    6  C6  UNL     1     -24.222  -3.776  11.427  1.00  0.00     0.137 A 
ATOM      7  H1  UNL     1     -25.704  -4.905  12.411  1.00  0.00     0.196 HD
HETATM    8  N5  UNL     1     -23.897  -3.768  10.126  1.00  0.00    -0.322 N 
ATOM      9  H5  UNL     1     -23.165  -3.196   9.705  1.00  0.00     0.169 HD
BRANCH   6  10
HETATM   10  C5  UNL     1     -23.601  -2.985  12.467  1.00  0.00     0.010 A 
HETATM   11  C4  UNL     1     -23.883  -3.191  13.799  1.00  0.00     0.018 A 
HETATM   12  C3  UNL     1     -23.275  -2.419  14.761  1.00  0.00     0.037 A 
HETATM   13  C2  UNL     1     -22.381  -1.438  14.412  1.00  0.00     0.068 A 
HETATM   14  C20 UNL     1     -22.099  -1.232  13.086  1.00  0.00     0.037 A 
HETATM   15  C19 UNL     1     -22.698  -1.993  12.104  1.00  0.00     0.018 A 
BRANCH  13  16
HETATM   16  O1  UNL     1     -21.758  -0.649  15.394  1.00  0.00    -0.356 OA
HETATM   17  C1  UNL     1     -21.269   0.630  15.023  1.00  0.00     0.210 C 
ENDBRANCH  13  16
ENDBRANCH   6  10
ENDBRANCH   2   3
ENDBRANCH   1   2
BRANCH   1  18
HETATM   18  C9  UNL     1     -25.008  -7.901   7.923  1.00  0.00     0.168 A 
HETATM   19  N2  UNL     1     -23.743  -8.044   8.407  1.00  0.00    -0.278 N 
HETATM   20  N3  UNL     1     -23.464  -9.326   8.458  1.00  0.00    -0.287 N 
ATOM     21  H2  UNL     1     -23.120  -7.286   8.681  1.00  0.00     0.189 HD
HETATM   22  C10 UNL     1     -24.502 -10.058   8.023  1.00  0.00     0.101 A 
ATOM     23  H3  UNL     1     -22.579  -9.713   8.784  1.00  0.00     0.188 HD
HETATM   24  C11 UNL     1     -24.619 -11.538   7.913  1.00  0.00     0.091 C 
HETATM   25  N4  UNL     1     -25.454  -9.132   7.696  1.00  0.00    -0.279 N 
BRANCH  25  26
HETATM   26  C12 UNL     1     -26.725  -9.471   7.187  1.00  0.00     0.043 A 
HETATM   27  C13 UNL     1     -27.625  -8.460   6.864  1.00  0.00     0.033 A 
HETATM   28  C14 UNL     1     -28.875  -8.752   6.357  1.00  0.00     0.039 A 
HETATM   29  C15 UNL     1     -29.275 -10.055   6.153  1.00  0.00     0.068 A 
HETATM   30  C17 UNL     1     -28.384 -11.056   6.473  1.00  0.00     0.039 A 
HETATM   31  C18 UNL     1     -27.127 -10.768   6.983  1.00  0.00     0.033 A 
BRANCH  29  32
HETATM   32  O3  UNL     1     -30.550 -10.327   5.636  1.00  0.00    -0.356 OA
HETATM   33  C16 UNL     1     -31.110  -9.548   4.602  1.00  0.00     0.210 C 
ENDBRANCH  29  32
ENDBRANCH  25  26
ENDBRANCH   1  18
TORSDOF 7
ENDMDL
