MODEL 6
REMARK VINA RESULT: -10.676658462      4.172      6.192
REMARK  7 active torsions:
REMARK  status: ('A' for Active; 'I' for Inactive)
REMARK    1  A    between atoms: O1_2  and  C2_3 
REMARK    2  A    between atoms: C5_6  and  C6_7 
REMARK    3  A    between atoms: C7_11  and  C8_12 
REMARK    4  A    between atoms: C8_12  and  S1_13 
REMARK    5  A    between atoms: S1_13  and  C9_14 
REMARK    6  A    between atoms: N4_21  and  C12_22 
REMARK    7  A    between atoms: C15_25  and  O3_26 
ROOT
HETATM    1  S1  UNL     1     -25.562  -5.081   7.668  1.00  0.00    -0.084 SA
ENDROOT
BRANCH   1   2
HETATM    2  C8  UNL     1     -24.662  -5.808   9.029  1.00  0.00     0.169 C 
BRANCH   2   3
HETATM    3  C7  UNL     1     -24.816  -4.858  10.192  1.00  0.00     0.158 A 
HETATM    4  O2  UNL     1     -25.909  -4.454  10.783  1.00  0.00    -0.222 OA
HETATM    5  N1  UNL     1     -25.648  -3.629  11.755  1.00  0.00    -0.242 N 
HETATM    6  C6  UNL     1     -24.319  -3.464  11.829  1.00  0.00     0.137 A 
ATOM      7  H1  UNL     1     -26.339  -3.183  12.359  1.00  0.00     0.196 HD
HETATM    8  N5  UNL     1     -23.804  -4.230  10.856  1.00  0.00    -0.322 N 
ATOM      9  H5  UNL     1     -22.811  -4.327  10.645  1.00  0.00     0.169 HD
BRANCH   6  10
HETATM   10  C5  UNL     1     -23.571  -2.641  12.754  1.00  0.00     0.010 A 
HETATM   11  C4  UNL     1     -22.727  -1.644  12.316  1.00  0.00     0.018 A 
HETATM   12  C3  UNL     1     -22.031  -0.881  13.224  1.00  0.00     0.037 A 
HETATM   13  C2  UNL     1     -22.164  -1.099  14.572  1.00  0.00     0.068 A 
HETATM   14  C20 UNL     1     -23.003  -2.092  15.009  1.00  0.00     0.037 A 
HETATM   15  C19 UNL     1     -23.711  -2.870  14.117  1.00  0.00     0.018 A 
BRANCH  13  16
HETATM   16  O1  UNL     1     -21.453  -0.320  15.502  1.00  0.00    -0.356 OA
HETATM   17  C1  UNL     1     -20.722   0.799  15.027  1.00  0.00     0.210 C 
ENDBRANCH  13  16
ENDBRANCH   6  10
ENDBRANCH   2   3
ENDBRANCH   1   2
BRANCH   1  18
HETATM   18  C9  UNL     1     -24.560  -4.116   6.563  1.00  0.00     0.168 A 
HETATM   19  N2  UNL     1     -23.560  -4.668   5.822  1.00  0.00    -0.278 N 
HETATM   20  N3  UNL     1     -23.002  -3.717   5.109  1.00  0.00    -0.287 N 
ATOM     21  H2  UNL     1     -23.290  -5.651   5.822  1.00  0.00     0.189 HD
HETATM   22  C10 UNL     1     -23.594  -2.535   5.345  1.00  0.00     0.101 A 
ATOM     23  H3  UNL     1     -22.226  -3.857   4.464  1.00  0.00     0.188 HD
HETATM   24  C11 UNL     1     -23.284  -1.203   4.757  1.00  0.00     0.091 C 
HETATM   25  N4  UNL     1     -24.566  -2.822   6.262  1.00  0.00    -0.279 N 
BRANCH  25  26
HETATM   26  C12 UNL     1     -25.441  -1.852   6.796  1.00  0.00     0.043 A 
HETATM   27  C13 UNL     1     -26.140  -1.011   5.935  1.00  0.00     0.033 A 
HETATM   28  C14 UNL     1     -27.009  -0.055   6.419  1.00  0.00     0.039 A 
HETATM   29  C15 UNL     1     -27.215   0.101   7.773  1.00  0.00     0.068 A 
HETATM   30  C17 UNL     1     -26.522  -0.732   8.626  1.00  0.00     0.039 A 
HETATM   31  C18 UNL     1     -25.648  -1.694   8.144  1.00  0.00     0.033 A 
BRANCH  29  32
HETATM   32  O3  UNL     1     -28.103   1.079   8.242  1.00  0.00    -0.356 OA
HETATM   33  C16 UNL     1     -29.461   1.087   7.861  1.00  0.00     0.210 C 
ENDBRANCH  29  32
ENDBRANCH  25  26
ENDBRANCH   1  18
TORSDOF 7
ENDMDL
