MODEL 3
REMARK VINA RESULT: -10.828025546      3.831      6.204
REMARK  7 active torsions:
REMARK  status: ('A' for Active; 'I' for Inactive)
REMARK    1  A    between atoms: O1_2  and  C2_3 
REMARK    2  A    between atoms: C5_6  and  C6_7 
REMARK    3  A    between atoms: C7_11  and  C8_12 
REMARK    4  A    between atoms: C8_12  and  S1_13 
REMARK    5  A    between atoms: S1_13  and  C9_14 
REMARK    6  A    between atoms: N4_21  and  C12_22 
REMARK    7  A    between atoms: C15_25  and  O3_26 
ROOT
HETATM    1  S1  UNL     1     -24.212  -3.087  10.787  1.00  0.00    -0.084 SA
ENDROOT
BRANCH   1   2
HETATM    2  C8  UNL     1     -22.795  -3.530  11.779  1.00  0.00     0.169 C 
BRANCH   2   3
HETATM    3  C7  UNL     1     -22.665  -2.456  12.832  1.00  0.00     0.158 A 
HETATM    4  O2  UNL     1     -23.263  -2.366  13.990  1.00  0.00    -0.222 OA
HETATM    5  N1  UNL     1     -22.900  -1.294  14.632  1.00  0.00    -0.242 N 
HETATM    6  C6  UNL     1     -22.016  -0.624  13.877  1.00  0.00     0.137 A 
ATOM      7  H1  UNL     1     -23.232  -1.010  15.554  1.00  0.00     0.196 HD
HETATM    8  N5  UNL     1     -21.871  -1.349  12.759  1.00  0.00    -0.322 N 
ATOM      9  H5  UNL     1     -21.263  -1.111  11.975  1.00  0.00     0.169 HD
BRANCH   6  10
HETATM   10  C5  UNL     1     -21.343   0.620  14.180  1.00  0.00     0.010 A 
HETATM   11  C4  UNL     1     -21.009   0.967  15.471  1.00  0.00     0.018 A 
HETATM   12  C3  UNL     1     -20.371   2.159  15.722  1.00  0.00     0.037 A 
HETATM   13  C2  UNL     1     -20.058   3.017  14.698  1.00  0.00     0.068 A 
HETATM   14  C20 UNL     1     -20.390   2.673  13.413  1.00  0.00     0.037 A 
HETATM   15  C19 UNL     1     -21.031   1.483  13.136  1.00  0.00     0.018 A 
BRANCH  13  16
HETATM   16  O1  UNL     1     -19.405   4.235  14.953  1.00  0.00    -0.356 OA
HETATM   17  C1  UNL     1     -19.879   5.405  14.305  1.00  0.00     0.210 C 
ENDBRANCH  13  16
ENDBRANCH   6  10
ENDBRANCH   2   3
ENDBRANCH   1   2
BRANCH   1  18
HETATM   18  C9  UNL     1     -24.979  -4.457   9.956  1.00  0.00     0.168 A 
HETATM   19  N2  UNL     1     -25.510  -5.511  10.634  1.00  0.00    -0.278 N 
HETATM   20  N3  UNL     1     -26.000  -6.359   9.760  1.00  0.00    -0.287 N 
ATOM     21  H2  UNL     1     -25.524  -5.623  11.648  1.00  0.00     0.189 HD
HETATM   22  C10 UNL     1     -25.816  -5.912   8.508  1.00  0.00     0.101 A 
ATOM     23  H3  UNL     1     -26.458  -7.237  10.000  1.00  0.00     0.188 HD
HETATM   24  C11 UNL     1     -26.212  -6.550   7.222  1.00  0.00     0.091 C 
HETATM   25  N4  UNL     1     -25.173  -4.717   8.667  1.00  0.00    -0.279 N 
BRANCH  25  26
HETATM   26  C12 UNL     1     -24.780  -3.895   7.589  1.00  0.00     0.043 A 
HETATM   27  C13 UNL     1     -23.742  -4.306   6.758  1.00  0.00     0.033 A 
HETATM   28  C14 UNL     1     -23.335  -3.534   5.690  1.00  0.00     0.039 A 
HETATM   29  C15 UNL     1     -23.942  -2.329   5.408  1.00  0.00     0.068 A 
HETATM   30  C17 UNL     1     -24.970  -1.922   6.232  1.00  0.00     0.039 A 
HETATM   31  C18 UNL     1     -25.383  -2.694   7.306  1.00  0.00     0.033 A 
BRANCH  29  32
HETATM   32  O3  UNL     1     -23.511  -1.561   4.317  1.00  0.00    -0.356 OA
HETATM   33  C16 UNL     1     -23.307  -0.170   4.426  1.00  0.00     0.210 C 
ENDBRANCH  29  32
ENDBRANCH  25  26
ENDBRANCH   1  18
TORSDOF 7
ENDMDL
