MODEL 1
REMARK VINA RESULT: -7.240853244      0.000      0.000
REMARK  0 active torsions:
REMARK  status: ('A' for Active; 'I' for Inactive)
ROOT
HETATM    1  O1  UNL     1      21.974  35.736  43.574  1.00  0.00    -0.272 OA
HETATM    2  C1  UNL     1      23.019  36.122  42.977  1.00  0.00     0.237 A 
HETATM    3  N1  UNL     1      24.315  36.326  43.506  1.00  0.00    -0.326 N 
ATOM      4  H1  UNL     1      24.593  36.183  44.477  1.00  0.00     0.169 HD
HETATM    5  C2  UNL     1      25.164  36.764  42.453  1.00  0.00     0.042 A 
HETATM    6  C3  UNL     1      26.513  37.090  42.479  1.00  0.00     0.030 A 
HETATM    7  C4  UNL     1      27.174  37.500  41.341  1.00  0.00     0.002 A 
HETATM    8  C5  UNL     1      26.471  37.584  40.164  1.00  0.00     0.001 A 
HETATM    9  C6  UNL     1      25.116  37.256  40.137  1.00  0.00     0.011 A 
HETATM   10  C7  UNL     1      24.448  36.843  41.283  1.00  0.00    -0.012 A 
HETATM   11  C8  UNL     1      23.068  36.446  41.544  1.00  0.00     0.096 A 
HETATM   12  C9  UNL     1      22.067  37.531  41.209  1.00  0.00     0.053 C 
HETATM   13  C10 UNL     1      20.983  36.821  40.459  1.00  0.00     0.234 C 
HETATM   14  N2  UNL     1      21.206  35.401  40.637  1.00  0.00    -0.074 N 
ATOM     15  H21 UNL     1      20.791  34.830  39.900  1.00  0.00     0.277 HD
ATOM     16  H22 UNL     1      20.682  35.003  41.416  1.00  0.00     0.277 HD
HETATM   17  C11 UNL     1      22.636  35.227  40.759  1.00  0.00     0.256 C 
ENDROOT
TORSDOF 0
ENDMDL
