MODEL 8
REMARK VINA RESULT: -6.582209661      3.128      4.893
REMARK  0 active torsions:
REMARK  status: ('A' for Active; 'I' for Inactive)
ROOT
HETATM    1  O1  UNL     1      17.583  34.765  43.252  1.00  0.00    -0.272 OA
HETATM    2  C1  UNL     1      18.647  35.302  42.832  1.00  0.00     0.237 A 
HETATM    3  N1  UNL     1      18.850  36.058  41.654  1.00  0.00    -0.326 N 
ATOM      4  H1  UNL     1      18.139  36.281  40.958  1.00  0.00     0.169 HD
HETATM    5  C2  UNL     1      20.215  36.453  41.606  1.00  0.00     0.042 A 
HETATM    6  C3  UNL     1      20.888  37.203  40.651  1.00  0.00     0.030 A 
HETATM    7  C4  UNL     1      22.230  37.488  40.779  1.00  0.00     0.002 A 
HETATM    8  C5  UNL     1      22.904  37.015  41.878  1.00  0.00     0.001 A 
HETATM    9  C6  UNL     1      22.229  36.261  42.838  1.00  0.00     0.011 A 
HETATM   10  C7  UNL     1      20.876  35.973  42.712  1.00  0.00    -0.012 A 
HETATM   11  C8  UNL     1      19.934  35.227  43.539  1.00  0.00     0.096 A 
HETATM   12  C9  UNL     1      20.343  33.785  43.748  1.00  0.00     0.053 C 
HETATM   13  C10 UNL     1      20.140  33.546  45.212  1.00  0.00     0.234 C 
HETATM   14  N2  UNL     1      19.379  34.668  45.721  1.00  0.00    -0.074 N 
ATOM     15  H21 UNL     1      19.497  34.817  46.723  1.00  0.00     0.277 HD
ATOM     16  H22 UNL     1      18.372  34.502  45.737  1.00  0.00     0.277 HD
HETATM   17  C11 UNL     1      19.758  35.812  44.923  1.00  0.00     0.256 C 
ENDROOT
TORSDOF 0
ENDMDL
