MODEL 2
REMARK VINA RESULT: -6.862885892      2.286      4.670
REMARK  0 active torsions:
REMARK  status: ('A' for Active; 'I' for Inactive)
ROOT
HETATM    1  O1  UNL     1      26.026  38.017  39.895  1.00  0.00    -0.272 OA
HETATM    2  C1  UNL     1      25.052  37.591  40.578  1.00  0.00     0.237 A 
HETATM    3  N1  UNL     1      23.668  37.707  40.310  1.00  0.00    -0.326 N 
ATOM      4  H1  UNL     1      23.253  38.167  39.500  1.00  0.00     0.169 HD
HETATM    5  C2  UNL     1      22.955  37.073  41.364  1.00  0.00     0.042 A 
HETATM    6  C3  UNL     1      21.586  36.928  41.547  1.00  0.00     0.030 A 
HETATM    7  C4  UNL     1      21.075  36.273  42.647  1.00  0.00     0.002 A 
HETATM    8  C5  UNL     1      21.948  35.759  43.573  1.00  0.00     0.001 A 
HETATM    9  C6  UNL     1      23.323  35.904  43.391  1.00  0.00     0.011 A 
HETATM   10  C7  UNL     1      23.841  36.564  42.283  1.00  0.00    -0.012 A 
HETATM   11  C8  UNL     1      25.200  36.859  41.844  1.00  0.00     0.096 A 
HETATM   12  C9  UNL     1      25.981  37.681  42.846  1.00  0.00     0.053 C 
HETATM   13  C10 UNL     1      27.315  37.007  42.925  1.00  0.00     0.234 C 
HETATM   14  N2  UNL     1      27.383  36.072  41.820  1.00  0.00    -0.074 N 
ATOM     15  H21 UNL     1      28.044  35.311  41.974  1.00  0.00     0.277 HD
ATOM     16  H22 UNL     1      27.827  36.460  40.988  1.00  0.00     0.277 HD
HETATM   17  C11 UNL     1      26.030  35.619  41.589  1.00  0.00     0.256 C 
ENDROOT
TORSDOF 0
ENDMDL
