MODEL 7
REMARK VINA RESULT: -6.593017546      2.396      4.762
REMARK  0 active torsions:
REMARK  status: ('A' for Active; 'I' for Inactive)
ROOT
HETATM    1  O1  UNL     1      27.023  36.190  40.037  1.00  0.00    -0.272 OA
HETATM    2  C1  UNL     1      25.877  36.112  40.564  1.00  0.00     0.237 A 
HETATM    3  N1  UNL     1      24.634  35.860  39.938  1.00  0.00    -0.326 N 
ATOM      4  H1  UNL     1      24.487  35.702  38.941  1.00  0.00     0.169 HD
HETATM    5  C2  UNL     1      23.622  35.866  40.937  1.00  0.00     0.042 A 
HETATM    6  C3  UNL     1      22.253  35.668  40.815  1.00  0.00     0.030 A 
HETATM    7  C4  UNL     1      21.421  35.712  41.913  1.00  0.00     0.002 A 
HETATM    8  C5  UNL     1      21.970  35.957  43.147  1.00  0.00     0.001 A 
HETATM    9  C6  UNL     1      23.345  36.156  43.272  1.00  0.00     0.011 A 
HETATM   10  C7  UNL     1      24.185  36.113  42.166  1.00  0.00    -0.012 A 
HETATM   11  C8  UNL     1      25.625  36.280  42.002  1.00  0.00     0.096 A 
HETATM   12  C9  UNL     1      26.122  37.629  42.475  1.00  0.00     0.053 C 
HETATM   13  C10 UNL     1      27.348  37.317  43.276  1.00  0.00     0.234 C 
HETATM   14  N2  UNL     1      27.687  35.934  43.008  1.00  0.00    -0.074 N 
ATOM     15  H21 UNL     1      28.243  35.503  43.746  1.00  0.00     0.277 HD
ATOM     16  H22 UNL     1      28.368  35.822  42.256  1.00  0.00     0.277 HD
HETATM   17  C11 UNL     1      26.438  35.251  42.757  1.00  0.00     0.256 C 
ENDROOT
TORSDOF 0
ENDMDL
