MODEL 12
REMARK VINA RESULT: -6.170749397      4.889      9.445
REMARK  12 active torsions:
REMARK  status: ('A' for Active; 'I' for Inactive)
REMARK    1  A    between atoms: C2_2  and  C3_3 
REMARK    2  A    between atoms: C3_3  and  C4_4 
REMARK    3  A    between atoms: C4_4  and  C5_5 
REMARK    4  A    between atoms: C5_5  and  C6_6 
REMARK    5  A    between atoms: C6_6  and  C7_7 
REMARK    6  A    between atoms: C7_7  and  C8_8 
REMARK    7  A    between atoms: C8_8  and  C9_9 
REMARK    8  A    between atoms: C9_9  and  C10_10 
REMARK    9  A    between atoms: C10_10  and  C11_11 
REMARK   10  A    between atoms: C11_11  and  C12_12 
REMARK   11  A    between atoms: C12_12  and  C13_13 
REMARK   12  A    between atoms: C13_13  and  C14_14 
ROOT
HETATM    1  C8  UNL     1      -2.374  11.024  18.371  1.00  0.00     0.000 C 
ENDROOT
BRANCH   1   2
HETATM    2  C7  UNL     1      -2.196   9.634  17.821  1.00  0.00     0.000 C 
BRANCH   2   3
HETATM    3  C6  UNL     1      -2.654   8.544  18.748  1.00  0.00     0.000 C 
BRANCH   3   4
HETATM    4  C5  UNL     1      -1.882   7.280  18.530  1.00  0.00     0.000 C 
BRANCH   4   5
HETATM    5  C4  UNL     1      -1.103   6.860  19.745  1.00  0.00     0.000 C 
BRANCH   5   6
HETATM    6  C3  UNL     1      -0.023   5.885  19.425  1.00  0.00    -0.000 C 
BRANCH   6   7
HETATM    7  C2  UNL     1       0.346   5.121  20.687  1.00  0.00    -0.005 C 
HETATM    8  C1  UNL     1      -0.890   4.373  21.170  1.00  0.00     0.005 C 
ENDBRANCH   6   7
ENDBRANCH   5   6
ENDBRANCH   4   5
ENDBRANCH   3   4
ENDBRANCH   2   3
ENDBRANCH   1   2
BRANCH   1   9
HETATM    9  C9  UNL     1      -3.592  11.714  17.829  1.00  0.00     0.000 C 
BRANCH   9  10
HETATM   10  C10 UNL     1      -3.545  13.187  17.878  1.00  0.00     0.000 C 
BRANCH  10  11
HETATM   11  C11 UNL     1      -2.387  13.832  18.525  1.00  0.00     0.001 C 
BRANCH  11  12
HETATM   12  C12 UNL     1      -2.111  15.238  18.146  1.00  0.00     0.010 C 
BRANCH  12  13
HETATM   13  C13 UNL     1      -2.911  15.706  16.950  1.00  0.00     0.113 C 
BRANCH  13  14
HETATM   14  C14 UNL     1      -3.734  16.885  17.303  1.00  0.00     0.172 C 
HETATM   15  O1  UNL     1      -3.214  17.822  17.939  1.00  0.00    -0.648 OA
HETATM   16  O2  UNL     1      -5.065  16.963  16.938  1.00  0.00    -0.648 OA
ENDBRANCH  13  14
ENDBRANCH  12  13
ENDBRANCH  11  12
ENDBRANCH  10  11
ENDBRANCH   9  10
ENDBRANCH   1   9
TORSDOF 12
ENDMDL
