MODEL 9
REMARK VINA RESULT: -6.305482818      0.919      1.634
REMARK  12 active torsions:
REMARK  status: ('A' for Active; 'I' for Inactive)
REMARK    1  A    between atoms: C2_2  and  C3_3 
REMARK    2  A    between atoms: C3_3  and  C4_4 
REMARK    3  A    between atoms: C4_4  and  C5_5 
REMARK    4  A    between atoms: C5_5  and  C6_6 
REMARK    5  A    between atoms: C6_6  and  C7_7 
REMARK    6  A    between atoms: C7_7  and  C8_8 
REMARK    7  A    between atoms: C8_8  and  C9_9 
REMARK    8  A    between atoms: C9_9  and  C10_10 
REMARK    9  A    between atoms: C10_10  and  C11_11 
REMARK   10  A    between atoms: C11_11  and  C12_12 
REMARK   11  A    between atoms: C12_12  and  C13_13 
REMARK   12  A    between atoms: C13_13  and  C14_14 
ROOT
HETATM    1  C8  UNL     1      -2.134  10.169  17.524  1.00  0.00     0.000 C 
ENDROOT
BRANCH   1   2
HETATM    2  C7  UNL     1      -2.502  11.079  18.665  1.00  0.00     0.000 C 
BRANCH   2   3
HETATM    3  C6  UNL     1      -3.771  11.854  18.447  1.00  0.00     0.000 C 
BRANCH   3   4
HETATM    4  C5  UNL     1      -3.501  13.177  17.803  1.00  0.00     0.000 C 
BRANCH   4   5
HETATM    5  C4  UNL     1      -2.224  13.807  18.287  1.00  0.00     0.000 C 
BRANCH   5   6
HETATM    6  C3  UNL     1      -2.304  15.294  18.343  1.00  0.00    -0.000 C 
BRANCH   6   7
HETATM    7  C2  UNL     1      -3.511  15.756  17.540  1.00  0.00    -0.005 C 
HETATM    8  C1  UNL     1      -3.498  17.278  17.495  1.00  0.00     0.005 C 
ENDBRANCH   6   7
ENDBRANCH   5   6
ENDBRANCH   4   5
ENDBRANCH   3   4
ENDBRANCH   2   3
ENDBRANCH   1   2
BRANCH   1   9
HETATM    9  C9  UNL     1      -2.126   8.719  17.913  1.00  0.00     0.000 C 
BRANCH   9  10
HETATM   10  C10 UNL     1      -2.506   8.448  19.312  1.00  0.00     0.000 C 
BRANCH  10  11
HETATM   11  C11 UNL     1      -1.702   7.481  20.083  1.00  0.00     0.001 C 
BRANCH  11  12
HETATM   12  C12 UNL     1      -0.871   6.535  19.303  1.00  0.00     0.010 C 
BRANCH  12  13
HETATM   13  C13 UNL     1       0.002   5.650  20.166  1.00  0.00     0.113 C 
BRANCH  13  14
HETATM   14  C14 UNL     1      -0.749   4.456  20.614  1.00  0.00     0.172 C 
HETATM   15  O1  UNL     1      -0.573   4.023  21.770  1.00  0.00    -0.648 OA
HETATM   16  O2  UNL     1      -1.642   3.816  19.775  1.00  0.00    -0.648 OA
ENDBRANCH  13  14
ENDBRANCH  12  13
ENDBRANCH  11  12
ENDBRANCH  10  11
ENDBRANCH   9  10
ENDBRANCH   1   9
TORSDOF 12
ENDMDL
