MODEL 7
REMARK VINA RESULT: -6.365010762      5.188      9.328
REMARK  12 active torsions:
REMARK  status: ('A' for Active; 'I' for Inactive)
REMARK    1  A    between atoms: C2_2  and  C3_3 
REMARK    2  A    between atoms: C3_3  and  C4_4 
REMARK    3  A    between atoms: C4_4  and  C5_5 
REMARK    4  A    between atoms: C5_5  and  C6_6 
REMARK    5  A    between atoms: C6_6  and  C7_7 
REMARK    6  A    between atoms: C7_7  and  C8_8 
REMARK    7  A    between atoms: C8_8  and  C9_9 
REMARK    8  A    between atoms: C9_9  and  C10_10 
REMARK    9  A    between atoms: C10_10  and  C11_11 
REMARK   10  A    between atoms: C11_11  and  C12_12 
REMARK   11  A    between atoms: C12_12  and  C13_13 
REMARK   12  A    between atoms: C13_13  and  C14_14 
ROOT
HETATM    1  C8  UNL     1      -3.722  11.743  18.140  1.00  0.00     0.000 C 
ENDROOT
BRANCH   1   2
HETATM    2  C7  UNL     1      -2.485  10.892  18.245  1.00  0.00     0.000 C 
BRANCH   2   3
HETATM    3  C6  UNL     1      -2.251  10.316  19.612  1.00  0.00     0.000 C 
BRANCH   3   4
HETATM    4  C5  UNL     1      -2.631   8.870  19.669  1.00  0.00     0.000 C 
BRANCH   4   5
HETATM    5  C4  UNL     1      -2.419   8.163  18.358  1.00  0.00     0.000 C 
BRANCH   5   6
HETATM    6  C3  UNL     1      -1.917   6.771  18.533  1.00  0.00    -0.000 C 
BRANCH   6   7
HETATM    7  C2  UNL     1      -1.065   6.705  19.790  1.00  0.00    -0.005 C 
HETATM    8  C1  UNL     1       0.084   5.738  19.537  1.00  0.00     0.005 C 
ENDBRANCH   6   7
ENDBRANCH   5   6
ENDBRANCH   4   5
ENDBRANCH   3   4
ENDBRANCH   2   3
ENDBRANCH   1   2
BRANCH   1   9
HETATM    9  C9  UNL     1      -3.417  13.184  17.849  1.00  0.00     0.000 C 
BRANCH   9  10
HETATM   10  C10 UNL     1      -2.246  13.728  18.562  1.00  0.00     0.000 C 
BRANCH  10  11
HETATM   11  C11 UNL     1      -1.977  15.175  18.465  1.00  0.00     0.001 C 
BRANCH  11  12
HETATM   12  C12 UNL     1      -2.604  15.895  17.331  1.00  0.00     0.010 C 
BRANCH  12  13
HETATM   13  C13 UNL     1      -3.173  17.244  17.717  1.00  0.00     0.113 C 
BRANCH  13  14
HETATM   14  C14 UNL     1      -4.122  17.722  16.686  1.00  0.00     0.172 C 
HETATM   15  O1  UNL     1      -5.129  17.036  16.422  1.00  0.00    -0.648 OA
HETATM   16  O2  UNL     1      -3.911  18.912  16.017  1.00  0.00    -0.648 OA
ENDBRANCH  13  14
ENDBRANCH  12  13
ENDBRANCH  11  12
ENDBRANCH  10  11
ENDBRANCH   9  10
ENDBRANCH   1   9
TORSDOF 12
ENDMDL
