MODEL 11
REMARK VINA RESULT: -7.003874773      3.401      8.687
REMARK  16 active torsions:
REMARK  status: ('A' for Active; 'I' for Inactive)
REMARK    1  A    between atoms: C2_2  and  C3_3 
REMARK    2  A    between atoms: C3_3  and  C4_4 
REMARK    3  A    between atoms: C4_4  and  C5_5 
REMARK    4  A    between atoms: C5_5  and  C6_6 
REMARK    5  A    between atoms: C6_6  and  C7_7 
REMARK    6  A    between atoms: C7_7  and  C8_8 
REMARK    7  A    between atoms: C8_8  and  C9_9 
REMARK    8  A    between atoms: C9_9  and  C10_10 
REMARK    9  A    between atoms: C10_10  and  C11_11 
REMARK   10  A    between atoms: C11_11  and  C12_12 
REMARK   11  A    between atoms: C12_12  and  C13_13 
REMARK   12  A    between atoms: C13_13  and  C14_14 
REMARK   13  A    between atoms: C14_14  and  C15_15 
REMARK   14  A    between atoms: C15_15  and  C16_16 
REMARK   15  A    between atoms: C16_16  and  C17_17 
REMARK   16  A    between atoms: C17_17  and  C18_18 
ROOT
HETATM    1  C10 UNL     1      -4.383  12.324  18.663  1.00  0.00     0.000 C 
ENDROOT
BRANCH   1   2
HETATM    2  C9  UNL     1      -3.207  11.503  19.153  1.00  0.00     0.000 C 
BRANCH   2   3
HETATM    3  C8  UNL     1      -2.629  10.660  18.056  1.00  0.00     0.000 C 
BRANCH   3   4
HETATM    4  C7  UNL     1      -1.312  10.031  18.430  1.00  0.00     0.000 C 
BRANCH   4   5
HETATM    5  C6  UNL     1      -1.184   9.711  19.882  1.00  0.00     0.000 C 
BRANCH   5   6
HETATM    6  C5  UNL     1      -1.357   8.219  20.050  1.00  0.00     0.000 C 
BRANCH   6   7
HETATM    7  C4  UNL     1      -2.722   7.871  20.576  1.00  0.00     0.000 C 
BRANCH   7   8
HETATM    8  C3  UNL     1      -3.383   6.757  19.835  1.00  0.00    -0.000 C 
BRANCH   8   9
HETATM    9  C2  UNL     1      -4.188   7.222  18.651  1.00  0.00    -0.005 C 
HETATM   10  C1  UNL     1      -5.338   8.114  19.064  1.00  0.00     0.005 C 
ENDBRANCH   8   9
ENDBRANCH   7   8
ENDBRANCH   6   7
ENDBRANCH   5   6
ENDBRANCH   4   5
ENDBRANCH   3   4
ENDBRANCH   2   3
ENDBRANCH   1   2
BRANCH   1  11
HETATM   11  C11 UNL     1      -3.865  13.621  18.148  1.00  0.00     0.000 C 
BRANCH  11  12
HETATM   12  C12 UNL     1      -2.598  14.101  18.755  1.00  0.00     0.000 C 
BRANCH  12  13
HETATM   13  C13 UNL     1      -2.396  15.595  18.684  1.00  0.00     0.000 C 
BRANCH  13  14
HETATM   14  C14 UNL     1      -3.720  16.160  18.229  1.00  0.00     0.000 C 
BRANCH  14  15
HETATM   15  C15 UNL     1      -3.718  17.602  17.883  1.00  0.00     0.001 C 
BRANCH  15  16
HETATM   16  C16 UNL     1      -4.224  17.821  16.499  1.00  0.00     0.010 C 
BRANCH  16  17
HETATM   17  C17 UNL     1      -4.084  16.589  15.623  1.00  0.00     0.113 C 
BRANCH  17  18
HETATM   18  C18 UNL     1      -4.955  16.612  14.446  1.00  0.00     0.172 C 
HETATM   19  O1  UNL     1      -5.208  15.543  13.827  1.00  0.00    -0.648 OA
HETATM   20  O2  UNL     1      -5.524  17.802  13.986  1.00  0.00    -0.648 OA
ENDBRANCH  17  18
ENDBRANCH  16  17
ENDBRANCH  15  16
ENDBRANCH  14  15
ENDBRANCH  13  14
ENDBRANCH  12  13
ENDBRANCH  11  12
ENDBRANCH   1  11
TORSDOF 16
ENDMDL
