MODEL 3
REMARK VINA RESULT: -7.427368103      0.917      1.306
REMARK  16 active torsions:
REMARK  status: ('A' for Active; 'I' for Inactive)
REMARK    1  A    between atoms: C2_2  and  C3_3 
REMARK    2  A    between atoms: C3_3  and  C4_4 
REMARK    3  A    between atoms: C4_4  and  C5_5 
REMARK    4  A    between atoms: C5_5  and  C6_6 
REMARK    5  A    between atoms: C6_6  and  C7_7 
REMARK    6  A    between atoms: C7_7  and  C8_8 
REMARK    7  A    between atoms: C8_8  and  C9_9 
REMARK    8  A    between atoms: C9_9  and  C10_10 
REMARK    9  A    between atoms: C10_10  and  C11_11 
REMARK   10  A    between atoms: C11_11  and  C12_12 
REMARK   11  A    between atoms: C12_12  and  C13_13 
REMARK   12  A    between atoms: C13_13  and  C14_14 
REMARK   13  A    between atoms: C14_14  and  C15_15 
REMARK   14  A    between atoms: C15_15  and  C16_16 
REMARK   15  A    between atoms: C16_16  and  C17_17 
REMARK   16  A    between atoms: C17_17  and  C18_18 
ROOT
HETATM    1  C10 UNL     1      -3.812  13.922  18.053  1.00  0.00     0.000 C 
ENDROOT
BRANCH   1   2
HETATM    2  C9  UNL     1      -4.263  15.369  18.020  1.00  0.00     0.000 C 
BRANCH   2   3
HETATM    3  C8  UNL     1      -3.097  16.310  18.051  1.00  0.00     0.000 C 
BRANCH   3   4
HETATM    4  C7  UNL     1      -3.511  17.758  18.097  1.00  0.00     0.000 C 
BRANCH   4   5
HETATM    5  C6  UNL     1      -4.756  18.057  17.331  1.00  0.00     0.000 C 
BRANCH   5   6
HETATM    6  C5  UNL     1      -4.408  19.046  16.242  1.00  0.00     0.000 C 
BRANCH   6   7
HETATM    7  C4  UNL     1      -4.311  18.384  14.896  1.00  0.00     0.000 C 
BRANCH   7   8
HETATM    8  C3  UNL     1      -5.447  17.462  14.599  1.00  0.00    -0.000 C 
BRANCH   8   9
HETATM    9  C2  UNL     1      -5.067  16.317  13.700  1.00  0.00    -0.005 C 
HETATM   10  C1  UNL     1      -4.539  15.134  14.482  1.00  0.00     0.005 C 
ENDBRANCH   8   9
ENDBRANCH   7   8
ENDBRANCH   6   7
ENDBRANCH   5   6
ENDBRANCH   4   5
ENDBRANCH   3   4
ENDBRANCH   2   3
ENDBRANCH   1   2
BRANCH   1  11
HETATM   11  C11 UNL     1      -2.578  13.836  18.880  1.00  0.00     0.000 C 
BRANCH  11  12
HETATM   12  C12 UNL     1      -2.195  12.475  19.334  1.00  0.00     0.000 C 
BRANCH  12  13
HETATM   13  C13 UNL     1      -2.660  11.359  18.431  1.00  0.00     0.000 C 
BRANCH  13  14
HETATM   14  C14 UNL     1      -1.576  10.310  18.495  1.00  0.00     0.000 C 
BRANCH  14  15
HETATM   15  C15 UNL     1      -1.227   9.829  19.854  1.00  0.00     0.001 C 
BRANCH  15  16
HETATM   16  C16 UNL     1      -1.543   8.382  20.006  1.00  0.00     0.010 C 
BRANCH  16  17
HETATM   17  C17 UNL     1      -2.929   8.143  20.578  1.00  0.00     0.113 C 
BRANCH  17  18
HETATM   18  C18 UNL     1      -3.882   7.626  19.593  1.00  0.00     0.172 C 
HETATM   19  O1  UNL     1      -4.793   8.373  19.143  1.00  0.00    -0.648 OA
HETATM   20  O2  UNL     1      -3.807   6.310  19.130  1.00  0.00    -0.648 OA
ENDBRANCH  17  18
ENDBRANCH  16  17
ENDBRANCH  15  16
ENDBRANCH  14  15
ENDBRANCH  13  14
ENDBRANCH  12  13
ENDBRANCH  11  12
ENDBRANCH   1  11
TORSDOF 16
ENDMDL
