MODEL 1
REMARK VINA RESULT: -7.143128640      0.000      0.000
REMARK  8 active torsions:
REMARK  status: ('A' for Active; 'I' for Inactive)
REMARK    1  A    between atoms: O1_2  and  C2_3 
REMARK    2  A    between atoms: C6_11  and  N3_12 
REMARK    3  A    between atoms: N3_12  and  C7_14 
REMARK    4  A    between atoms: C15_24  and  O2_25 
REMARK    5  A    between atoms: O2_25  and  C16_26 
REMARK    6  A    between atoms: C16_26  and  C17_27 
REMARK    7  A    between atoms: C17_27  and  C18_28 
REMARK    8  A    between atoms: C18_28  and  N4_29 
ROOT
HETATM    1  C2  UNL     1       2.008  50.278  26.815  1.00  0.00     0.103 A 
HETATM    2  C3  UNL     1       0.744  49.946  27.168  1.00  0.00     0.070 A 
HETATM    3  C4  UNL     1      -0.343  50.377  26.391  1.00  0.00     0.050 A 
HETATM    4  N1  UNL     1      -1.573  50.014  26.794  1.00  0.00    -0.351 N 
ATOM      5  H1  UNL     1      -1.691  49.449  27.634  1.00  0.00     0.166 HD
HETATM    6  C5  UNL     1      -2.643  50.400  26.084  1.00  0.00     0.182 A 
HETATM    7  N2  UNL     1      -2.437  51.138  24.991  1.00  0.00    -0.338 N 
ATOM      8  H2  UNL     1      -3.260  51.424  24.460  1.00  0.00     0.168 HD
HETATM    9  C6  UNL     1      -1.244  51.534  24.532  1.00  0.00     0.119 A 
HETATM   10  C13 UNL     1      -0.123  51.138  25.265  1.00  0.00     0.038 A 
HETATM   11  C14 UNL     1       1.166  51.480  24.896  1.00  0.00     0.057 A 
HETATM   12  C15 UNL     1       2.224  51.057  25.661  1.00  0.00     0.103 A 
ENDROOT
BRANCH   9  13
HETATM   13  N3  UNL     1      -1.089  52.333  23.388  1.00  0.00    -0.342 N 
ATOM     14  H3  UNL     1      -0.804  53.305  23.511  1.00  0.00     0.167 HD
BRANCH  13  15
HETATM   15  C7  UNL     1      -1.305  51.866  22.087  1.00  0.00     0.035 A 
HETATM   16  C8  UNL     1      -1.705  52.763  21.102  1.00  0.00     0.032 A 
HETATM   17  C9  UNL     1      -1.922  52.426  19.795  1.00  0.00     0.046 A 
HETATM   18  C10 UNL     1      -1.730  51.111  19.429  1.00  0.00     0.138 A 
HETATM   19  F1  UNL     1      -1.935  50.733  18.135  1.00  0.00    -0.204 F 
HETATM   20  C11 UNL     1      -1.334  50.199  20.376  1.00  0.00     0.074 A 
HETATM   21 CL1  UNL     1      -1.103  48.540  19.860  1.00  0.00    -0.081 Cl
HETATM   22  C12 UNL     1      -1.117  50.571  21.715  1.00  0.00     0.056 A 
ENDBRANCH  13  15
ENDBRANCH   9  13
BRANCH  12  23
HETATM   23  O2  UNL     1       3.509  51.362  25.357  1.00  0.00    -0.348 OA
BRANCH  23  24
HETATM   24  C16 UNL     1       4.447  50.769  24.548  1.00  0.00     0.177 C 
BRANCH  24  25
HETATM   25  C17 UNL     1       4.153  50.890  23.073  1.00  0.00     0.057 C 
BRANCH  25  26
HETATM   26  C18 UNL     1       3.955  49.526  22.422  1.00  0.00     0.274 C 
BRANCH  26  27
HETATM   27  N4  UNL     1       2.611  49.417  21.963  1.00  0.00     0.092 N 
HETATM   28  C19 UNL     1       1.917  48.491  22.842  1.00  0.00     0.298 C 
HETATM   29  C20 UNL     1       1.991  47.066  22.411  1.00  0.00     0.198 C 
HETATM   30  O3  UNL     1       1.582  46.891  21.089  1.00  0.00    -0.388 OA
HETATM   31  C21 UNL     1       2.468  47.590  20.300  1.00  0.00     0.198 C 
HETATM   32  C22 UNL     1       2.470  49.062  20.578  1.00  0.00     0.298 C 
ENDBRANCH  26  27
ENDBRANCH  25  26
ENDBRANCH  24  25
ENDBRANCH  23  24
ENDBRANCH  12  23
BRANCH   1  33
HETATM   33  O1  UNL     1       3.124  49.877  27.551  1.00  0.00    -0.353 OA
HETATM   34  C1  UNL     1       3.580  48.551  27.367  1.00  0.00     0.210 C 
ENDBRANCH   1  33
TORSDOF 8
ENDMDL
