MODEL 2
REMARK VINA RESULT: -7.076226241      1.289      1.542
REMARK  8 active torsions:
REMARK  status: ('A' for Active; 'I' for Inactive)
REMARK    1  A    between atoms: O1_2  and  C2_3 
REMARK    2  A    between atoms: C6_11  and  N3_12 
REMARK    3  A    between atoms: N3_12  and  C7_14 
REMARK    4  A    between atoms: C15_24  and  O2_25 
REMARK    5  A    between atoms: O2_25  and  C16_26 
REMARK    6  A    between atoms: C16_26  and  C17_27 
REMARK    7  A    between atoms: C17_27  and  C18_28 
REMARK    8  A    between atoms: C18_28  and  N4_29 
ROOT
HETATM    1  C2  UNL     1       2.165  49.886  26.221  1.00  0.00     0.103 A 
HETATM    2  C3  UNL     1       0.925  49.634  26.705  1.00  0.00     0.070 A 
HETATM    3  C4  UNL     1      -0.204  50.176  26.071  1.00  0.00     0.050 A 
HETATM    4  N1  UNL     1      -1.406  49.888  26.598  1.00  0.00    -0.351 N 
ATOM      5  H1  UNL     1      -1.474  49.297  27.426  1.00  0.00     0.166 HD
HETATM    6  C5  UNL     1      -2.515  50.381  26.028  1.00  0.00     0.182 A 
HETATM    7  N2  UNL     1      -2.375  51.149  24.945  1.00  0.00    -0.338 N 
ATOM      8  H2  UNL     1      -3.226  51.517  24.521  1.00  0.00     0.168 HD
HETATM    9  C6  UNL     1      -1.212  51.476  24.368  1.00  0.00     0.119 A 
HETATM   10  C13 UNL     1      -0.051  50.966  24.955  1.00  0.00     0.038 A 
HETATM   11  C14 UNL     1       1.212  51.229  24.454  1.00  0.00     0.057 A 
HETATM   12  C15 UNL     1       2.312  50.696  25.079  1.00  0.00     0.103 A 
ENDROOT
BRANCH   9  13
HETATM   13  N3  UNL     1      -1.123  52.310  23.242  1.00  0.00    -0.342 N 
ATOM     14  H3  UNL     1      -0.904  53.295  23.386  1.00  0.00     0.167 HD
BRANCH  13  15
HETATM   15  C7  UNL     1      -1.318  51.858  21.932  1.00  0.00     0.035 A 
HETATM   16  C8  UNL     1      -1.748  52.758  20.962  1.00  0.00     0.032 A 
HETATM   17  C9  UNL     1      -1.949  52.438  19.648  1.00  0.00     0.046 A 
HETATM   18  C10 UNL     1      -1.708  51.138  19.259  1.00  0.00     0.138 A 
HETATM   19  F1  UNL     1      -1.895  50.776  17.958  1.00  0.00    -0.204 F 
HETATM   20  C11 UNL     1      -1.281  50.224  20.191  1.00  0.00     0.074 A 
HETATM   21 CL1  UNL     1      -0.989  48.583  19.645  1.00  0.00    -0.081 Cl
HETATM   22  C12 UNL     1      -1.082  50.578  21.537  1.00  0.00     0.056 A 
ENDBRANCH  13  15
ENDBRANCH   9  13
BRANCH  12  23
HETATM   23  O2  UNL     1       3.576  50.919  24.641  1.00  0.00    -0.348 OA
BRANCH  23  24
HETATM   24  C16 UNL     1       4.369  50.294  23.710  1.00  0.00     0.177 C 
BRANCH  24  25
HETATM   25  C17 UNL     1       4.503  51.049  22.410  1.00  0.00     0.057 C 
BRANCH  25  26
HETATM   26  C18 UNL     1       4.729  50.108  21.231  1.00  0.00     0.274 C 
BRANCH  26  27
HETATM   27  N4  UNL     1       3.510  49.438  20.927  1.00  0.00     0.092 N 
HETATM   28  C19 UNL     1       3.785  48.477  19.872  1.00  0.00     0.298 C 
HETATM   29  C20 UNL     1       3.622  49.021  18.493  1.00  0.00     0.198 C 
HETATM   30  O3  UNL     1       2.378  49.619  18.302  1.00  0.00    -0.388 OA
HETATM   31  C21 UNL     1       2.315  50.694  19.161  1.00  0.00     0.198 C 
HETATM   32  C22 UNL     1       2.409  50.302  20.604  1.00  0.00     0.298 C 
ENDBRANCH  26  27
ENDBRANCH  25  26
ENDBRANCH  24  25
ENDBRANCH  23  24
ENDBRANCH  12  23
BRANCH   1  33
HETATM   33  O1  UNL     1       3.321  49.373  26.812  1.00  0.00    -0.353 OA
HETATM   34  C1  UNL     1       3.418  49.449  28.221  1.00  0.00     0.210 C 
ENDBRANCH   1  33
TORSDOF 8
ENDMDL
