MODEL 4
REMARK VINA RESULT: -6.951416932      1.396      1.888
REMARK  8 active torsions:
REMARK  status: ('A' for Active; 'I' for Inactive)
REMARK    1  A    between atoms: O1_2  and  C2_3 
REMARK    2  A    between atoms: C6_11  and  N3_12 
REMARK    3  A    between atoms: N3_12  and  C7_14 
REMARK    4  A    between atoms: C15_24  and  O2_25 
REMARK    5  A    between atoms: O2_25  and  C16_26 
REMARK    6  A    between atoms: C16_26  and  C17_27 
REMARK    7  A    between atoms: C17_27  and  C18_28 
REMARK    8  A    between atoms: C18_28  and  N4_29 
ROOT
HETATM    1  C2  UNL     1       2.030  50.431  27.044  1.00  0.00     0.103 A 
HETATM    2  C3  UNL     1       0.754  50.134  27.384  1.00  0.00     0.070 A 
HETATM    3  C4  UNL     1      -0.297  50.408  26.494  1.00  0.00     0.050 A 
HETATM    4  N1  UNL     1      -1.540  50.089  26.888  1.00  0.00    -0.351 N 
ATOM      5  H1  UNL     1      -1.695  49.665  27.802  1.00  0.00     0.166 HD
HETATM    6  C5  UNL     1      -2.577  50.330  26.072  1.00  0.00     0.182 A 
HETATM    7  N2  UNL     1      -2.324  50.885  24.885  1.00  0.00    -0.338 N 
ATOM      8  H2  UNL     1      -3.121  51.062  24.274  1.00  0.00     0.168 HD
HETATM    9  C6  UNL     1      -1.114  51.227  24.428  1.00  0.00     0.119 A 
HETATM   10  C13 UNL     1      -0.028  50.980  25.271  1.00  0.00     0.038 A 
HETATM   11  C14 UNL     1       1.274  51.286  24.915  1.00  0.00     0.057 A 
HETATM   12  C15 UNL     1       2.296  51.017  25.791  1.00  0.00     0.103 A 
ENDROOT
BRANCH   9  13
HETATM   13  N3  UNL     1      -0.910  51.833  23.178  1.00  0.00    -0.342 N 
ATOM     14  H3  UNL     1      -0.691  52.829  23.152  1.00  0.00     0.167 HD
BRANCH  13  15
HETATM   15  C7  UNL     1      -0.990  51.141  21.964  1.00  0.00     0.035 A 
HETATM   16  C8  UNL     1      -0.557  49.820  21.907  1.00  0.00     0.032 A 
HETATM   17  C9  UNL     1      -0.609  49.040  20.786  1.00  0.00     0.046 A 
HETATM   18  C10 UNL     1      -1.128  49.597  19.637  1.00  0.00     0.138 A 
HETATM   19  F1  UNL     1      -1.199  48.853  18.497  1.00  0.00    -0.204 F 
HETATM   20  C11 UNL     1      -1.566  50.898  19.659  1.00  0.00     0.074 A 
HETATM   21 CL1  UNL     1      -2.217  51.561  18.172  1.00  0.00    -0.081 Cl
HETATM   22  C12 UNL     1      -1.501  51.681  20.825  1.00  0.00     0.056 A 
ENDBRANCH  13  15
ENDBRANCH   9  13
BRANCH  12  23
HETATM   23  O2  UNL     1       3.591  51.297  25.505  1.00  0.00    -0.348 OA
BRANCH  23  24
HETATM   24  C16 UNL     1       4.478  50.793  24.585  1.00  0.00     0.177 C 
BRANCH  24  25
HETATM   25  C17 UNL     1       4.338  49.310  24.344  1.00  0.00     0.057 C 
BRANCH  25  26
HETATM   26  C18 UNL     1       3.697  49.015  22.992  1.00  0.00     0.274 C 
BRANCH  26  27
HETATM   27  N4  UNL     1       4.243  49.895  22.014  1.00  0.00     0.092 N 
HETATM   28  C19 UNL     1       3.167  50.277  21.114  1.00  0.00     0.298 C 
HETATM   29  C20 UNL     1       2.998  49.368  19.943  1.00  0.00     0.198 C 
HETATM   30  O3  UNL     1       4.187  49.183  19.240  1.00  0.00    -0.388 OA
HETATM   31  C21 UNL     1       5.068  48.563  20.098  1.00  0.00     0.198 C 
HETATM   32  C22 UNL     1       5.386  49.383  21.310  1.00  0.00     0.298 C 
ENDBRANCH  26  27
ENDBRANCH  25  26
ENDBRANCH  24  25
ENDBRANCH  23  24
ENDBRANCH  12  23
BRANCH   1  33
HETATM   33  O1  UNL     1       3.111  50.180  27.891  1.00  0.00    -0.353 OA
HETATM   34  C1  UNL     1       3.580  48.847  27.966  1.00  0.00     0.210 C 
ENDBRANCH   1  33
TORSDOF 8
ENDMDL
