MODEL 3
REMARK VINA RESULT: -8.907002283      1.907      5.331
REMARK  2 active torsions:
REMARK  status: ('A' for Active; 'I' for Inactive)
REMARK    1  A    between atoms: O1_2  and  C2_3 
REMARK    2  A    between atoms: C12_19  and  N4_20 
ROOT
HETATM    1  C2  UNL     1       8.067  10.578  43.947  1.00  0.00     0.069 A 
HETATM    2  C3  UNL     1       8.428   9.826  45.043  1.00  0.00     0.045 A 
HETATM    3  C4  UNL     1       7.743  10.077  46.218  1.00  0.00    -0.032 A 
HETATM    4  C5  UNL     1       8.136   9.263  47.401  1.00  0.00     0.050 C 
HETATM    5  C6  UNL     1       6.761  11.032  46.266  1.00  0.00     0.051 A 
HETATM    6  N1  UNL     1       6.136  11.235  47.408  1.00  0.00    -0.340 N 
ATOM      7  H1  UNL     1       6.396  10.682  48.224  1.00  0.00     0.167 HD
HETATM    8  C7  UNL     1       5.187  12.131  47.515  1.00  0.00     0.133 A 
HETATM    9  N2  UNL     1       4.420  12.492  48.586  1.00  0.00    -0.285 N 
ATOM     10  H2  UNL     1       4.486  12.087  49.520  1.00  0.00     0.188 HD
HETATM   11  N3  UNL     1       3.592  13.432  48.232  1.00  0.00    -0.303 N 
ATOM     12  H3  UNL     1       2.911  13.874  48.849  1.00  0.00     0.186 HD
HETATM   13  C8  UNL     1       3.770  13.744  46.895  1.00  0.00     0.037 A 
HETATM   14  C9  UNL     1       2.997  14.746  46.157  1.00  0.00     0.070 C 
HETATM   15  C10 UNL     1       4.770  12.930  46.444  1.00  0.00     0.045 A 
HETATM   16  C11 UNL     1       5.408  12.758  45.184  1.00  0.00     0.003 A 
HETATM   17  C12 UNL     1       4.935  13.623  44.164  1.00  0.00     0.073 C 
HETATM   18  C17 UNL     1       6.389  11.801  45.155  1.00  0.00     0.006 A 
HETATM   19  C18 UNL     1       7.074  11.543  43.994  1.00  0.00     0.051 A 
ENDROOT
BRANCH  17  20
HETATM   20  N4  UNL     1       5.294  13.748  42.822  1.00  0.00    -0.288 NA
HETATM   21  C13 UNL     1       4.747  14.957  42.206  1.00  0.00     0.121 C 
HETATM   22  C14 UNL     1       3.343  14.807  41.712  1.00  0.00     0.182 C 
HETATM   23  O2  UNL     1       3.275  14.049  40.536  1.00  0.00    -0.389 OA
HETATM   24  C15 UNL     1       4.397  13.190  40.601  1.00  0.00     0.182 C 
HETATM   25  C16 UNL     1       4.471  12.729  42.024  1.00  0.00     0.121 C 
ENDBRANCH  17  20
BRANCH   1  26
HETATM   26  O1  UNL     1       8.692  10.410  42.703  1.00  0.00    -0.356 OA
HETATM   27  C1  UNL     1      10.033   9.971  42.711  1.00  0.00     0.210 C 
ENDBRANCH   1  26
TORSDOF 2
ENDMDL
