MODEL 4
REMARK VINA RESULT: -8.854751573      2.519      4.887
REMARK  2 active torsions:
REMARK  status: ('A' for Active; 'I' for Inactive)
REMARK    1  A    between atoms: O1_2  and  C2_3 
REMARK    2  A    between atoms: C12_19  and  N4_20 
ROOT
HETATM    1  C2  UNL     1       4.683  12.654  43.195  1.00  0.00     0.069 A 
HETATM    2  C3  UNL     1       4.268  13.346  44.313  1.00  0.00     0.045 A 
HETATM    3  C4  UNL     1       4.744  12.895  45.531  1.00  0.00    -0.032 A 
HETATM    4  C5  UNL     1       4.294  13.644  46.736  1.00  0.00     0.050 C 
HETATM    5  C6  UNL     1       5.581  11.812  45.598  1.00  0.00     0.051 A 
HETATM    6  N1  UNL     1       6.008  11.420  46.781  1.00  0.00    -0.340 N 
ATOM      7  H1  UNL     1       5.708  11.926  47.614  1.00  0.00     0.167 HD
HETATM    8  C7  UNL     1       6.811  10.393  46.909  1.00  0.00     0.133 A 
HETATM    9  N2  UNL     1       7.368   9.832  48.024  1.00  0.00    -0.285 N 
ATOM     10  H2  UNL     1       7.223  10.155  48.980  1.00  0.00     0.188 HD
HETATM   11  N3  UNL     1       8.113   8.822  47.677  1.00  0.00    -0.303 N 
ATOM     12  H3  UNL     1       8.638   8.234  48.323  1.00  0.00     0.186 HD
HETATM   13  C8  UNL     1       8.087   8.661  46.302  1.00  0.00     0.037 A 
HETATM   14  C9  UNL     1       8.823   7.633  45.563  1.00  0.00     0.070 C 
HETATM   15  C10 UNL     1       7.270   9.645  45.819  1.00  0.00     0.045 A 
HETATM   16  C11 UNL     1       6.844  10.020  44.515  1.00  0.00     0.003 A 
HETATM   17  C12 UNL     1       7.343   9.194  43.475  1.00  0.00     0.073 C 
HETATM   18  C17 UNL     1       6.006  11.103  44.466  1.00  0.00     0.006 A 
HETATM   19  C18 UNL     1       5.530  11.559  43.263  1.00  0.00     0.051 A 
ENDROOT
BRANCH  17  20
HETATM   20  N4  UNL     1       7.164   9.244  42.093  1.00  0.00    -0.288 NA
HETATM   21  C13 UNL     1       7.183   7.917  41.477  1.00  0.00     0.121 C 
HETATM   22  C14 UNL     1       8.556   7.403  41.179  1.00  0.00     0.182 C 
HETATM   23  O2  UNL     1       9.130   8.041  40.072  1.00  0.00    -0.389 OA
HETATM   24  C15 UNL     1       8.526   9.320  40.046  1.00  0.00     0.182 C 
HETATM   25  C16 UNL     1       8.466   9.768  41.474  1.00  0.00     0.121 C 
ENDBRANCH  17  20
BRANCH   1  26
HETATM   26  O1  UNL     1       4.266  13.022  41.908  1.00  0.00    -0.356 OA
HETATM   27  C1  UNL     1       3.824  14.351  41.730  1.00  0.00     0.210 C 
ENDBRANCH   1  26
TORSDOF 2
ENDMDL
