MODEL 5
REMARK VINA RESULT: -8.661576951      1.909      4.623
REMARK  2 active torsions:
REMARK  status: ('A' for Active; 'I' for Inactive)
REMARK    1  A    between atoms: O1_2  and  C2_3 
REMARK    2  A    between atoms: C12_19  and  N4_20 
ROOT
HETATM    1  C2  UNL     1       5.407  12.135  46.699  1.00  0.00     0.069 A 
HETATM    2  C3  UNL     1       4.665  13.272  46.935  1.00  0.00     0.045 A 
HETATM    3  C4  UNL     1       4.141  13.909  45.825  1.00  0.00    -0.032 A 
HETATM    4  C5  UNL     1       3.341  15.137  46.083  1.00  0.00     0.050 C 
HETATM    5  C6  UNL     1       4.364  13.418  44.565  1.00  0.00     0.051 A 
HETATM    6  N1  UNL     1       3.843  14.059  43.539  1.00  0.00    -0.340 N 
ATOM      7  H1  UNL     1       3.291  14.901  43.704  1.00  0.00     0.167 HD
HETATM    8  C7  UNL     1       4.018  13.637  42.311  1.00  0.00     0.133 A 
HETATM    9  N2  UNL     1       3.570  14.141  41.124  1.00  0.00    -0.285 N 
ATOM     10  H2  UNL     1       2.997  14.978  41.019  1.00  0.00     0.188 HD
HETATM   11  N3  UNL     1       3.985  13.388  40.146  1.00  0.00    -0.303 N 
ATOM     12  H3  UNL     1       3.786  13.549  39.159  1.00  0.00     0.186 HD
HETATM   13  C8  UNL     1       4.737  12.336  40.642  1.00  0.00     0.037 A 
HETATM   14  C9  UNL     1       5.349  11.285  39.826  1.00  0.00     0.070 C 
HETATM   15  C10 UNL     1       4.760  12.492  41.999  1.00  0.00     0.045 A 
HETATM   16  C11 UNL     1       5.348  11.756  43.066  1.00  0.00     0.003 A 
HETATM   17  C12 UNL     1       6.096  10.623  42.653  1.00  0.00     0.073 C 
HETATM   18  C17 UNL     1       5.117  12.262  44.318  1.00  0.00     0.006 A 
HETATM   19  C18 UNL     1       5.632  11.637  45.426  1.00  0.00     0.051 A 
ENDROOT
BRANCH  17  20
HETATM   20  N4  UNL     1       6.798   9.666  43.386  1.00  0.00    -0.288 NA
HETATM   21  C13 UNL     1       8.206  10.018  43.564  1.00  0.00     0.121 C 
HETATM   22  C14 UNL     1       9.081   9.632  42.414  1.00  0.00     0.182 C 
HETATM   23  O2  UNL     1       9.322   8.252  42.374  1.00  0.00    -0.389 OA
HETATM   24  C15 UNL     1       8.187   7.675  42.989  1.00  0.00     0.182 C 
HETATM   25  C16 UNL     1       7.010   8.449  42.477  1.00  0.00     0.121 C 
ENDBRANCH  17  20
BRANCH   1  26
HETATM   26  O1  UNL     1       5.986  11.406  47.747  1.00  0.00    -0.356 OA
HETATM   27  C1  UNL     1       6.787  10.298  47.396  1.00  0.00     0.210 C 
ENDBRANCH   1  26
TORSDOF 2
ENDMDL
