MODEL 1
REMARK VINA RESULT: -9.438698751      0.000      0.000
REMARK  2 active torsions:
REMARK  status: ('A' for Active; 'I' for Inactive)
REMARK    1  A    between atoms: O1_2  and  C2_3 
REMARK    2  A    between atoms: C12_19  and  N4_20 
ROOT
HETATM    1  C2  UNL     1       5.084  11.965  40.803  1.00  0.00     0.069 A 
HETATM    2  C3  UNL     1       4.399  13.040  40.281  1.00  0.00     0.045 A 
HETATM    3  C4  UNL     1       3.866  13.935  41.191  1.00  0.00    -0.032 A 
HETATM    4  C5  UNL     1       3.126  15.095  40.624  1.00  0.00     0.050 C 
HETATM    5  C6  UNL     1       4.022  13.740  42.539  1.00  0.00     0.051 A 
HETATM    6  N1  UNL     1       3.497  14.620  43.367  1.00  0.00    -0.340 N 
ATOM      7  H1  UNL     1       2.989  15.420  42.989  1.00  0.00     0.167 HD
HETATM    8  C7  UNL     1       3.615  14.489  44.665  1.00  0.00     0.133 A 
HETATM    9  N2  UNL     1       3.160  15.276  45.684  1.00  0.00    -0.285 N 
ATOM     10  H2  UNL     1       2.623  16.135  45.569  1.00  0.00     0.188 HD
HETATM   11  N3  UNL     1       3.517  14.760  46.825  1.00  0.00    -0.303 N 
ATOM     12  H3  UNL     1       3.299  15.157  47.739  1.00  0.00     0.186 HD
HETATM   13  C8  UNL     1       4.234  13.594  46.617  1.00  0.00     0.037 A 
HETATM   14  C9  UNL     1       4.805  12.761  47.677  1.00  0.00     0.070 C 
HETATM   15  C10 UNL     1       4.296  13.422  45.263  1.00  0.00     0.045 A 
HETATM   16  C11 UNL     1       4.885  12.439  44.421  1.00  0.00     0.003 A 
HETATM   17  C12 UNL     1       5.536  11.386  45.115  1.00  0.00     0.073 C 
HETATM   18  C17 UNL     1       4.718  12.648  43.077  1.00  0.00     0.006 A 
HETATM   19  C18 UNL     1       5.243  11.767  42.166  1.00  0.00     0.051 A 
ENDROOT
BRANCH  17  20
HETATM   20  N4  UNL     1       6.226  10.266  44.652  1.00  0.00    -0.288 NA
HETATM   21  C13 UNL     1       6.419   9.257  45.693  1.00  0.00     0.121 C 
HETATM   22  C14 UNL     1       7.608   9.503  46.568  1.00  0.00     0.182 C 
HETATM   23  O2  UNL     1       8.812   9.212  45.915  1.00  0.00    -0.389 OA
HETATM   24  C15 UNL     1       8.534   9.421  44.544  1.00  0.00     0.182 C 
HETATM   25  C16 UNL     1       7.698  10.664  44.486  1.00  0.00     0.121 C 
ENDBRANCH  17  20
BRANCH   1  26
HETATM   26  O1  UNL     1       5.668  10.995  39.977  1.00  0.00    -0.356 OA
HETATM   27  C1  UNL     1       6.691  10.201  40.539  1.00  0.00     0.210 C 
ENDBRANCH   1  26
TORSDOF 2
ENDMDL
