MODEL 3
REMARK VINA RESULT: -4.146071973      1.492      2.784
REMARK  10 active torsions:
REMARK  status: ('A' for Active; 'I' for Inactive)
REMARK    1  A    between atoms: C2_2  and  C3_3 
REMARK    2  A    between atoms: C3_3  and  C4_4 
REMARK    3  A    between atoms: C4_4  and  C5_5 
REMARK    4  A    between atoms: C5_5  and  C6_6 
REMARK    5  A    between atoms: C6_6  and  C7_7 
REMARK    6  A    between atoms: C7_7  and  C8_8 
REMARK    7  A    between atoms: C8_8  and  C9_9 
REMARK    8  A    between atoms: C9_9  and  C10_10 
REMARK    9  A    between atoms: C10_10  and  C11_11 
REMARK   10  A    between atoms: C11_11  and  C12_12 
ROOT
HETATM    1  C7  UNL     1     -30.595 -23.876 -36.063  1.00  0.00     0.000 C 
ENDROOT
BRANCH   1   2
HETATM    2  C6  UNL     1     -30.820 -23.419 -37.475  1.00  0.00     0.000 C 
BRANCH   2   3
HETATM    3  C5  UNL     1     -30.765 -24.563 -38.424  1.00  0.00     0.000 C 
BRANCH   3   4
HETATM    4  C4  UNL     1     -29.998 -25.709 -37.856  1.00  0.00     0.000 C 
BRANCH   4   5
HETATM    5  C3  UNL     1     -30.705 -27.002 -38.179  1.00  0.00    -0.000 C 
BRANCH   5   6
HETATM    6  C2  UNL     1     -32.151 -26.967 -37.786  1.00  0.00    -0.005 C 
HETATM    7  C1  UNL     1     -32.287 -27.297 -36.308  1.00  0.00     0.005 C 
ENDBRANCH   5   6
ENDBRANCH   4   5
ENDBRANCH   3   4
ENDBRANCH   2   3
ENDBRANCH   1   2
BRANCH   1   8
HETATM    8  C8  UNL     1     -29.798 -22.814 -35.331  1.00  0.00     0.000 C 
BRANCH   8   9
HETATM    9  C9  UNL     1     -30.129 -21.411 -35.755  1.00  0.00     0.001 C 
BRANCH   9  10
HETATM   10  C10 UNL     1     -30.225 -20.554 -34.509  1.00  0.00     0.010 C 
BRANCH  10  11
HETATM   11  C11 UNL     1     -31.056 -19.342 -34.732  1.00  0.00     0.113 C 
BRANCH  11  12
HETATM   12  C12 UNL     1     -32.475 -19.616 -35.069  1.00  0.00     0.172 C 
HETATM   13  O1  UNL     1     -33.258 -20.258 -34.337  1.00  0.00    -0.648 OA
HETATM   14  O2  UNL     1     -33.008 -19.142 -36.268  1.00  0.00    -0.648 OA
ENDBRANCH  11  12
ENDBRANCH  10  11
ENDBRANCH   9  10
ENDBRANCH   8   9
ENDBRANCH   1   8
TORSDOF 10
ENDMDL
