MODEL 4
REMARK VINA RESULT: -4.351399441      5.640      6.446
REMARK  4 active torsions:
REMARK  status: ('A' for Active; 'I' for Inactive)
REMARK    1  A    between atoms: N1_2  and  C4_5 
REMARK    2  A    between atoms: C4_5  and  C5_6 
REMARK    3  A    between atoms: C5_6  and  O1_7 
REMARK    4  A    between atoms: O1_7  and  P1_8 
ROOT
HETATM    1  C5  UNL     1      19.721  15.804  17.717  1.00  0.00     0.210 C 
ENDROOT
BRANCH   1   2
HETATM    2  C4  UNL     1      18.947  14.490  17.695  1.00  0.00     0.262 C 
BRANCH   2   3
HETATM    3  N1  UNL     1      17.932  14.336  18.660  1.00  0.00    -0.077 N 
HETATM    4  C1  UNL     1      17.175  13.113  18.227  1.00  0.00     0.271 C 
HETATM    5  C2  UNL     1      18.534  13.958  19.943  1.00  0.00     0.271 C 
HETATM    6  C3  UNL     1      17.040  15.423  18.875  1.00  0.00     0.271 C 
ENDBRANCH   2   3
ENDBRANCH   1   2
BRANCH   1   7
HETATM    7  O1  UNL     1      20.985  15.378  17.253  1.00  0.00    -0.281 OA
BRANCH   7   8
HETATM    8  P1  UNL     1      22.195  16.197  17.768  1.00  0.00     0.422 P 
HETATM    9  O2  UNL     1      21.381  17.578  17.563  1.00  0.00    -0.617 OA
HETATM   10  O3  UNL     1      22.015  15.361  19.227  1.00  0.00    -0.617 OA
HETATM   11  O4  UNL     1      23.196  15.548  16.629  1.00  0.00    -0.617 OA
ENDBRANCH   7   8
ENDBRANCH   1   7
TORSDOF 4
ENDMDL
