MODEL 6
REMARK VINA RESULT: -4.277946315      5.631      6.485
REMARK  4 active torsions:
REMARK  status: ('A' for Active; 'I' for Inactive)
REMARK    1  A    between atoms: N1_2  and  C4_5 
REMARK    2  A    between atoms: C4_5  and  C5_6 
REMARK    3  A    between atoms: C5_6  and  O1_7 
REMARK    4  A    between atoms: O1_7  and  P1_8 
ROOT
HETATM    1  C5  UNL     1      19.726  15.801  17.701  1.00  0.00     0.210 C 
ENDROOT
BRANCH   1   2
HETATM    2  C4  UNL     1      18.970  14.476  17.705  1.00  0.00     0.262 C 
BRANCH   2   3
HETATM    3  N1  UNL     1      17.955  14.327  18.671  1.00  0.00    -0.077 N 
HETATM    4  C1  UNL     1      17.189  13.111  18.236  1.00  0.00     0.271 C 
HETATM    5  C2  UNL     1      18.555  13.943  19.952  1.00  0.00     0.271 C 
HETATM    6  C3  UNL     1      17.071  15.421  18.887  1.00  0.00     0.271 C 
ENDBRANCH   2   3
ENDBRANCH   1   2
BRANCH   1   7
HETATM    7  O1  UNL     1      20.987  15.388  17.216  1.00  0.00    -0.281 OA
BRANCH   7   8
HETATM    8  P1  UNL     1      22.207  16.134  17.814  1.00  0.00     0.422 P 
HETATM    9  O2  UNL     1      23.155  15.594  16.623  1.00  0.00    -0.617 OA
HETATM   10  O3  UNL     1      21.332  17.560  17.567  1.00  0.00    -0.617 OA
HETATM   11  O4  UNL     1      22.037  15.369  19.265  1.00  0.00    -0.617 OA
ENDBRANCH   7   8
ENDBRANCH   1   7
TORSDOF 4
ENDMDL
