MODEL 3
REMARK VINA RESULT: -5.555980547      0.052      1.493
REMARK  4 active torsions:
REMARK  status: ('A' for Active; 'I' for Inactive)
REMARK    1  A    between atoms: N1_2  and  C4_5 
REMARK    2  A    between atoms: C4_5  and  C5_6 
REMARK    3  A    between atoms: C5_6  and  O1_7 
REMARK    4  A    between atoms: O1_7  and  P1_8 
ROOT
HETATM    1  C5  UNL     1      16.748  12.084  19.090  1.00  0.00     0.210 C 
ENDROOT
BRANCH   1   2
HETATM    2  C4  UNL     1      16.725  13.392  18.306  1.00  0.00     0.262 C 
BRANCH   2   3
HETATM    3  N1  UNL     1      17.553  14.429  18.778  1.00  0.00    -0.077 N 
HETATM    4  C1  UNL     1      16.657  15.633  18.847  1.00  0.00     0.271 C 
HETATM    5  C2  UNL     1      17.919  14.164  20.173  1.00  0.00     0.271 C 
HETATM    6  C3  UNL     1      18.734  14.730  18.044  1.00  0.00     0.271 C 
ENDBRANCH   2   3
ENDBRANCH   1   2
BRANCH   1   7
HETATM    7  O1  UNL     1      15.373  11.758  19.109  1.00  0.00    -0.281 OA
BRANCH   7   8
HETATM    8  P1  UNL     1      15.029  10.356  19.669  1.00  0.00     0.422 P 
HETATM    9  O2  UNL     1      16.598  10.009  19.839  1.00  0.00    -0.617 OA
HETATM   10  O3  UNL     1      14.238  11.161  20.928  1.00  0.00    -0.617 OA
HETATM   11  O4  UNL     1      14.148   9.971  18.329  1.00  0.00    -0.617 OA
ENDBRANCH   7   8
ENDBRANCH   1   7
TORSDOF 4
ENDMDL
