MODEL 4
REMARK VINA RESULT: -4.323761373      7.825      8.784
REMARK  4 active torsions:
REMARK  status: ('A' for Active; 'I' for Inactive)
REMARK    1  A    between atoms: N1_2  and  C4_5 
REMARK    2  A    between atoms: C4_5  and  C5_6 
REMARK    3  A    between atoms: C5_6  and  O1_7 
REMARK    4  A    between atoms: O1_7  and  P1_8 
ROOT
HETATM    1  C5  UNL     1      14.261   4.398  14.806  1.00  0.00     0.210 C 
ENDROOT
BRANCH   1   2
HETATM    2  C4  UNL     1      14.777   5.008  13.507  1.00  0.00     0.262 C 
BRANCH   2   3
HETATM    3  N1  UNL     1      16.161   5.264  13.433  1.00  0.00    -0.077 N 
HETATM    4  C1  UNL     1      16.555   4.834  12.049  1.00  0.00     0.271 C 
HETATM    5  C2  UNL     1      16.389   6.712  13.445  1.00  0.00     0.271 C 
HETATM    6  C3  UNL     1      17.007   4.657  14.402  1.00  0.00     0.271 C 
ENDBRANCH   2   3
ENDBRANCH   1   2
BRANCH   1   7
HETATM    7  O1  UNL     1      13.582   5.502  15.369  1.00  0.00    -0.281 OA
BRANCH   7   8
HETATM    8  P1  UNL     1      13.690   5.635  16.908  1.00  0.00     0.422 P 
HETATM    9  O2  UNL     1      12.259   6.381  16.972  1.00  0.00    -0.617 OA
HETATM   10  O3  UNL     1      13.724   3.945  16.954  1.00  0.00    -0.617 OA
HETATM   11  O4  UNL     1      15.131   6.430  16.798  1.00  0.00    -0.617 OA
ENDBRANCH   7   8
ENDBRANCH   1   7
TORSDOF 4
ENDMDL
