MODEL 6
REMARK VINA RESULT: -4.211687812      7.433      8.282
REMARK  4 active torsions:
REMARK  status: ('A' for Active; 'I' for Inactive)
REMARK    1  A    between atoms: N1_2  and  C4_5 
REMARK    2  A    between atoms: C4_5  and  C5_6 
REMARK    3  A    between atoms: C5_6  and  O1_7 
REMARK    4  A    between atoms: O1_7  and  P1_8 
ROOT
HETATM    1  C5  UNL     1      16.190   5.044  16.576  1.00  0.00     0.210 C 
ENDROOT
BRANCH   1   2
HETATM    2  C4  UNL     1      17.319   5.643  15.744  1.00  0.00     0.262 C 
BRANCH   2   3
HETATM    3  N1  UNL     1      17.400   5.235  14.397  1.00  0.00    -0.077 N 
HETATM    4  C1  UNL     1      17.009   6.450  13.605  1.00  0.00     0.271 C 
HETATM    5  C2  UNL     1      18.804   5.004  14.043  1.00  0.00     0.271 C 
HETATM    6  C3  UNL     1      16.633   4.108  13.991  1.00  0.00     0.271 C 
ENDBRANCH   2   3
ENDBRANCH   1   2
BRANCH   1   7
HETATM    7  O1  UNL     1      15.355   6.171  16.745  1.00  0.00    -0.281 OA
BRANCH   7   8
HETATM    8  P1  UNL     1      13.841   5.867  16.858  1.00  0.00     0.422 P 
HETATM    9  O2  UNL     1      13.761   5.537  15.278  1.00  0.00    -0.617 OA
HETATM   10  O3  UNL     1      14.270   4.625  17.923  1.00  0.00    -0.617 OA
HETATM   11  O4  UNL     1      13.528   7.354  17.497  1.00  0.00    -0.617 OA
ENDBRANCH   7   8
ENDBRANCH   1   7
TORSDOF 4
ENDMDL
