MODEL 5
REMARK VINA RESULT: -4.283034722      7.843      8.878
REMARK  4 active torsions:
REMARK  status: ('A' for Active; 'I' for Inactive)
REMARK    1  A    between atoms: N1_2  and  C4_5 
REMARK    2  A    between atoms: C4_5  and  C5_6 
REMARK    3  A    between atoms: C5_6  and  O1_7 
REMARK    4  A    between atoms: O1_7  and  P1_8 
ROOT
HETATM    1  C5  UNL     1      14.190   4.409  14.722  1.00  0.00     0.210 C 
ENDROOT
BRANCH   1   2
HETATM    2  C4  UNL     1      14.668   5.050  13.424  1.00  0.00     0.262 C 
BRANCH   2   3
HETATM    3  N1  UNL     1      16.049   5.310  13.315  1.00  0.00    -0.077 N 
HETATM    4  C1  UNL     1      16.688   4.408  14.332  1.00  0.00     0.271 C 
HETATM    5  C2  UNL     1      16.538   4.813  12.026  1.00  0.00     0.271 C 
HETATM    6  C3  UNL     1      16.494   6.650  13.489  1.00  0.00     0.271 C 
ENDBRANCH   2   3
ENDBRANCH   1   2
BRANCH   1   7
HETATM    7  O1  UNL     1      13.608   5.521  15.371  1.00  0.00    -0.281 OA
BRANCH   7   8
HETATM    8  P1  UNL     1      13.763   5.548  16.912  1.00  0.00     0.422 P 
HETATM    9  O2  UNL     1      15.115   6.424  16.788  1.00  0.00    -0.617 OA
HETATM   10  O3  UNL     1      12.277   6.355  16.949  1.00  0.00    -0.617 OA
HETATM   11  O4  UNL     1      13.746   3.902  17.003  1.00  0.00    -0.617 OA
ENDBRANCH   7   8
ENDBRANCH   1   7
TORSDOF 4
ENDMDL
