MODEL 1
REMARK VINA RESULT: -5.091687513      0.000      0.000
REMARK  4 active torsions:
REMARK  status: ('A' for Active; 'I' for Inactive)
REMARK    1  A    between atoms: N1_2  and  C4_5 
REMARK    2  A    between atoms: C4_5  and  C5_6 
REMARK    3  A    between atoms: C5_6  and  O1_7 
REMARK    4  A    between atoms: O1_7  and  P1_8 
ROOT
HETATM    1  C5  UNL     1      16.681  11.896  19.100  1.00  0.00     0.210 C 
ENDROOT
BRANCH   1   2
HETATM    2  C4  UNL     1      16.633  13.215  18.336  1.00  0.00     0.262 C 
BRANCH   2   3
HETATM    3  N1  UNL     1      17.421  14.269  18.841  1.00  0.00    -0.077 N 
HETATM    4  C1  UNL     1      16.475  15.430  18.959  1.00  0.00     0.271 C 
HETATM    5  C2  UNL     1      17.808  13.969  20.223  1.00  0.00     0.271 C 
HETATM    6  C3  UNL     1      18.582  14.646  18.111  1.00  0.00     0.271 C 
ENDBRANCH   2   3
ENDBRANCH   1   2
BRANCH   1   7
HETATM    7  O1  UNL     1      15.309  11.559  19.140  1.00  0.00    -0.281 OA
BRANCH   7   8
HETATM    8  P1  UNL     1      14.975  10.206  19.814  1.00  0.00     0.422 P 
HETATM    9  O2  UNL     1      14.171  10.961  20.995  1.00  0.00    -0.617 OA
HETATM   10  O3  UNL     1      14.146   9.814  18.394  1.00  0.00    -0.617 OA
HETATM   11  O4  UNL     1      16.569   9.793  19.913  1.00  0.00    -0.617 OA
ENDBRANCH   7   8
ENDBRANCH   1   7
TORSDOF 4
ENDMDL
