MODEL 2
REMARK VINA RESULT: -5.051636009      0.051      1.492
REMARK  4 active torsions:
REMARK  status: ('A' for Active; 'I' for Inactive)
REMARK    1  A    between atoms: N1_2  and  C4_5 
REMARK    2  A    between atoms: C4_5  and  C5_6 
REMARK    3  A    between atoms: C5_6  and  O1_7 
REMARK    4  A    between atoms: O1_7  and  P1_8 
ROOT
HETATM    1  C5  UNL     1      16.671  11.869  19.104  1.00  0.00     0.210 C 
ENDROOT
BRANCH   1   2
HETATM    2  C4  UNL     1      16.617  13.188  18.341  1.00  0.00     0.262 C 
BRANCH   2   3
HETATM    3  N1  UNL     1      17.417  14.239  18.833  1.00  0.00    -0.077 N 
HETATM    4  C1  UNL     1      16.480  15.406  18.959  1.00  0.00     0.271 C 
HETATM    5  C2  UNL     1      17.817  13.940  20.212  1.00  0.00     0.271 C 
HETATM    6  C3  UNL     1      18.573  14.606  18.090  1.00  0.00     0.271 C 
ENDBRANCH   2   3
ENDBRANCH   1   2
BRANCH   1   7
HETATM    7  O1  UNL     1      15.297  11.543  19.171  1.00  0.00    -0.281 OA
BRANCH   7   8
HETATM    8  P1  UNL     1      14.973  10.146  19.757  1.00  0.00     0.422 P 
HETATM    9  O2  UNL     1      16.546   9.826  19.938  1.00  0.00    -0.617 OA
HETATM   10  O3  UNL     1      14.166  10.963  20.999  1.00  0.00    -0.617 OA
HETATM   11  O4  UNL     1      14.101   9.723  18.423  1.00  0.00    -0.617 OA
ENDBRANCH   7   8
ENDBRANCH   1   7
TORSDOF 4
ENDMDL
