MODEL 9
REMARK VINA RESULT: -4.244308995      6.167      7.026
REMARK  4 active torsions:
REMARK  status: ('A' for Active; 'I' for Inactive)
REMARK    1  A    between atoms: N1_2  and  C4_5 
REMARK    2  A    between atoms: C4_5  and  C5_6 
REMARK    3  A    between atoms: C5_6  and  O1_7 
REMARK    4  A    between atoms: O1_7  and  P1_8 
ROOT
HETATM    1  C5  UNL     1      20.143  16.248  17.637  1.00  0.00     0.210 C 
ENDROOT
BRANCH   1   2
HETATM    2  C4  UNL     1      19.333  14.988  17.350  1.00  0.00     0.262 C 
BRANCH   2   3
HETATM    3  N1  UNL     1      18.536  14.493  18.402  1.00  0.00    -0.077 N 
HETATM    4  C1  UNL     1      17.866  13.275  17.833  1.00  0.00     0.271 C 
HETATM    5  C2  UNL     1      19.402  13.973  19.465  1.00  0.00     0.271 C 
HETATM    6  C3  UNL     1      17.574  15.366  18.981  1.00  0.00     0.271 C 
ENDBRANCH   2   3
ENDBRANCH   1   2
BRANCH   1   7
HETATM    7  O1  UNL     1      21.415  15.864  17.155  1.00  0.00    -0.281 OA
BRANCH   7   8
HETATM    8  P1  UNL     1      22.610  16.682  17.704  1.00  0.00     0.422 P 
HETATM    9  O2  UNL     1      21.734  18.039  17.666  1.00  0.00    -0.617 OA
HETATM   10  O3  UNL     1      22.522  15.702  19.079  1.00  0.00    -0.617 OA
HETATM   11  O4  UNL     1      23.590  16.192  16.472  1.00  0.00    -0.617 OA
ENDBRANCH   7   8
ENDBRANCH   1   7
TORSDOF 4
ENDMDL
