MODEL 4
REMARK VINA RESULT: -5.595708161      0.126      1.488
REMARK  4 active torsions:
REMARK  status: ('A' for Active; 'I' for Inactive)
REMARK    1  A    between atoms: N1_2  and  C4_5 
REMARK    2  A    between atoms: C4_5  and  C5_6 
REMARK    3  A    between atoms: C5_6  and  O1_7 
REMARK    4  A    between atoms: O1_7  and  P1_8 
ROOT
HETATM    1  C5  UNL     1      16.725  12.209  19.186  1.00  0.00     0.210 C 
ENDROOT
BRANCH   1   2
HETATM    2  C4  UNL     1      16.649  13.542  18.449  1.00  0.00     0.262 C 
BRANCH   2   3
HETATM    3  N1  UNL     1      17.556  14.543  18.854  1.00  0.00    -0.077 N 
HETATM    4  C1  UNL     1      16.738  15.802  18.901  1.00  0.00     0.271 C 
HETATM    5  C2  UNL     1      17.949  14.308  20.247  1.00  0.00     0.271 C 
HETATM    6  C3  UNL     1      18.728  14.740  18.073  1.00  0.00     0.271 C 
ENDBRANCH   2   3
ENDBRANCH   1   2
BRANCH   1   7
HETATM    7  O1  UNL     1      15.356  11.867  19.263  1.00  0.00    -0.281 OA
BRANCH   7   8
HETATM    8  P1  UNL     1      15.052  10.462  19.840  1.00  0.00     0.422 P 
HETATM    9  O2  UNL     1      16.630  10.160  20.009  1.00  0.00    -0.617 OA
HETATM   10  O3  UNL     1      14.242  11.260  21.092  1.00  0.00    -0.617 OA
HETATM   11  O4  UNL     1      14.178  10.039  18.507  1.00  0.00    -0.617 OA
ENDBRANCH   7   8
ENDBRANCH   1   7
TORSDOF 4
ENDMDL
