MODEL 5
REMARK VINA RESULT: -5.572605390      0.114      1.936
REMARK  4 active torsions:
REMARK  status: ('A' for Active; 'I' for Inactive)
REMARK    1  A    between atoms: N1_2  and  C4_5 
REMARK    2  A    between atoms: C4_5  and  C5_6 
REMARK    3  A    between atoms: C5_6  and  O1_7 
REMARK    4  A    between atoms: O1_7  and  P1_8 
ROOT
HETATM    1  C5  UNL     1      16.710  12.193  19.198  1.00  0.00     0.210 C 
ENDROOT
BRANCH   1   2
HETATM    2  C4  UNL     1      16.640  13.486  18.391  1.00  0.00     0.262 C 
BRANCH   2   3
HETATM    3  N1  UNL     1      17.429  14.561  18.846  1.00  0.00    -0.077 N 
HETATM    4  C1  UNL     1      17.922  14.129  20.197  1.00  0.00     0.271 C 
HETATM    5  C2  UNL     1      18.641  14.656  18.026  1.00  0.00     0.271 C 
HETATM    6  C3  UNL     1      16.827  15.847  18.925  1.00  0.00     0.271 C 
ENDBRANCH   2   3
ENDBRANCH   1   2
BRANCH   1   7
HETATM    7  O1  UNL     1      15.345  11.834  19.248  1.00  0.00    -0.281 OA
BRANCH   7   8
HETATM    8  P1  UNL     1      15.046  10.438  19.849  1.00  0.00     0.422 P 
HETATM    9  O2  UNL     1      16.625  10.142  20.018  1.00  0.00    -0.617 OA
HETATM   10  O3  UNL     1      14.238  11.254  21.090  1.00  0.00    -0.617 OA
HETATM   11  O4  UNL     1      14.169   9.990  18.526  1.00  0.00    -0.617 OA
ENDBRANCH   7   8
ENDBRANCH   1   7
TORSDOF 4
ENDMDL
