MODEL 8
REMARK VINA RESULT: -4.274507587      7.594      8.618
REMARK  4 active torsions:
REMARK  status: ('A' for Active; 'I' for Inactive)
REMARK    1  A    between atoms: N1_2  and  C4_5 
REMARK    2  A    between atoms: C4_5  and  C5_6 
REMARK    3  A    between atoms: C5_6  and  O1_7 
REMARK    4  A    between atoms: O1_7  and  P1_8 
ROOT
HETATM    1  C5  UNL     1      14.324   4.874  14.910  1.00  0.00     0.210 C 
ENDROOT
BRANCH   1   2
HETATM    2  C4  UNL     1      14.703   5.476  13.561  1.00  0.00     0.262 C 
BRANCH   2   3
HETATM    3  N1  UNL     1      16.054   5.839  13.386  1.00  0.00    -0.077 N 
HETATM    4  C1  UNL     1      16.800   5.043  14.418  1.00  0.00     0.271 C 
HETATM    5  C2  UNL     1      16.535   5.317  12.103  1.00  0.00     0.271 C 
HETATM    6  C3  UNL     1      16.395   7.216  13.478  1.00  0.00     0.271 C 
ENDBRANCH   2   3
ENDBRANCH   1   2
BRANCH   1   7
HETATM    7  O1  UNL     1      13.546   5.918  15.459  1.00  0.00    -0.281 OA
BRANCH   7   8
HETATM    8  P1  UNL     1      13.662   6.097  16.994  1.00  0.00     0.422 P 
HETATM    9  O2  UNL     1      12.203   6.789  17.050  1.00  0.00    -0.617 OA
HETATM   10  O3  UNL     1      13.761   4.411  17.084  1.00  0.00    -0.617 OA
HETATM   11  O4  UNL     1      15.070   6.943  16.849  1.00  0.00    -0.617 OA
ENDBRANCH   7   8
ENDBRANCH   1   7
TORSDOF 4
ENDMDL
