MODEL 10
REMARK VINA RESULT: -4.243684668      6.132      6.934
REMARK  4 active torsions:
REMARK  status: ('A' for Active; 'I' for Inactive)
REMARK    1  A    between atoms: N1_2  and  C4_5 
REMARK    2  A    between atoms: C4_5  and  C5_6 
REMARK    3  A    between atoms: C5_6  and  O1_7 
REMARK    4  A    between atoms: O1_7  and  P1_8 
ROOT
HETATM    1  C5  UNL     1      20.099  16.245  17.649  1.00  0.00     0.210 C 
ENDROOT
BRANCH   1   2
HETATM    2  C4  UNL     1      19.308  14.970  17.372  1.00  0.00     0.262 C 
BRANCH   2   3
HETATM    3  N1  UNL     1      18.510  14.477  18.424  1.00  0.00    -0.077 N 
HETATM    4  C1  UNL     1      17.848  13.253  17.860  1.00  0.00     0.271 C 
HETATM    5  C2  UNL     1      19.376  13.966  19.492  1.00  0.00     0.271 C 
HETATM    6  C3  UNL     1      17.542  15.348  18.995  1.00  0.00     0.271 C 
ENDBRANCH   2   3
ENDBRANCH   1   2
BRANCH   1   7
HETATM    7  O1  UNL     1      21.374  15.879  17.164  1.00  0.00    -0.281 OA
BRANCH   7   8
HETATM    8  P1  UNL     1      22.570  16.622  17.810  1.00  0.00     0.422 P 
HETATM    9  O2  UNL     1      22.494  15.668  19.111  1.00  0.00    -0.617 OA
HETATM   10  O3  UNL     1      23.481  16.108  16.482  1.00  0.00    -0.617 OA
HETATM   11  O4  UNL     1      21.803  18.078  17.698  1.00  0.00    -0.617 OA
ENDBRANCH   7   8
ENDBRANCH   1   7
TORSDOF 4
ENDMDL
