MODEL 2
REMARK VINA RESULT: -5.650803710      0.156      1.511
REMARK  4 active torsions:
REMARK  status: ('A' for Active; 'I' for Inactive)
REMARK    1  A    between atoms: N1_2  and  C4_5 
REMARK    2  A    between atoms: C4_5  and  C5_6 
REMARK    3  A    between atoms: C5_6  and  O1_7 
REMARK    4  A    between atoms: O1_7  and  P1_8 
ROOT
HETATM    1  C5  UNL     1      16.724  12.237  19.165  1.00  0.00     0.210 C 
ENDROOT
BRANCH   1   2
HETATM    2  C4  UNL     1      16.639  13.579  18.445  1.00  0.00     0.262 C 
BRANCH   2   3
HETATM    3  N1  UNL     1      17.548  14.576  18.853  1.00  0.00    -0.077 N 
HETATM    4  C1  UNL     1      16.735  15.839  18.898  1.00  0.00     0.271 C 
HETATM    5  C2  UNL     1      17.935  14.340  20.247  1.00  0.00     0.271 C 
HETATM    6  C3  UNL     1      18.723  14.769  18.077  1.00  0.00     0.271 C 
ENDBRANCH   2   3
ENDBRANCH   1   2
BRANCH   1   7
HETATM    7  O1  UNL     1      15.358  11.879  19.226  1.00  0.00    -0.281 OA
BRANCH   7   8
HETATM    8  P1  UNL     1      15.056  10.517  19.899  1.00  0.00     0.422 P 
HETATM    9  O2  UNL     1      14.251  11.254  21.090  1.00  0.00    -0.617 OA
HETATM   10  O3  UNL     1      14.220  10.115  18.486  1.00  0.00    -0.617 OA
HETATM   11  O4  UNL     1      16.659  10.135  19.980  1.00  0.00    -0.617 OA
ENDBRANCH   7   8
ENDBRANCH   1   7
TORSDOF 4
ENDMDL
