MODEL 1
REMARK VINA RESULT: -9.641108213      0.000      0.000
REMARK  4 active torsions:
REMARK  status: ('A' for Active; 'I' for Inactive)
REMARK    1  A    between atoms: C9_11  and  C10_12 
REMARK    2  A    between atoms: C10_12  and  C11_13 
REMARK    3  A    between atoms: C11_13  and  N2_14 
REMARK       I    between atoms: N2_14  and  C12_16 
REMARK    4  A    between atoms: C12_16  and  C13_18 
ROOT
HETATM    1  C10 UNL     1       2.561  18.110  43.250  1.00  0.00     0.061 C 
ENDROOT
BRANCH   1   2
HETATM    2  C9  UNL     1       2.161  16.875  42.600  1.00  0.00    -0.022 A 
HETATM    3  C2  UNL     1       1.696  15.685  43.096  1.00  0.00     0.013 A 
HETATM    4  C1  UNL     1       1.454  15.265  44.510  1.00  0.00     0.068 C 
HETATM    5  N1  UNL     1       1.474  14.889  42.021  1.00  0.00    -0.359 N 
HETATM    6  C3  UNL     1       1.771  15.506  40.875  1.00  0.00     0.043 A 
ATOM      7  H1  UNL     1       1.121  13.933  42.081  1.00  0.00     0.166 HD
HETATM    8  C4  UNL     1       1.704  15.089  39.538  1.00  0.00     0.030 A 
HETATM    9  C8  UNL     1       2.203  16.749  41.198  1.00  0.00    -0.001 A 
HETATM   10  C5  UNL     1       2.083  15.963  38.550  1.00  0.00     0.002 A 
HETATM   11  C6  UNL     1       2.527  17.236  38.849  1.00  0.00     0.001 A 
HETATM   12  C7  UNL     1       2.579  17.604  40.177  1.00  0.00     0.014 A 
ENDBRANCH   1   2
BRANCH   1  13
HETATM   13  C11 UNL     1       3.999  18.392  43.426  1.00  0.00     0.127 C 
BRANCH  13  14
HETATM   14  N2  UNL     1       4.322  19.652  42.722  1.00  0.00    -0.356 N 
HETATM   15  C12 UNL     1       5.595  20.218  42.791  1.00  0.00     0.254 C 
HETATM   16  O1  UNL     1       6.450  19.576  43.505  1.00  0.00    -0.268 OA
ATOM     17  H2  UNL     1       3.599  20.117  42.174  1.00  0.00     0.162 HD
BRANCH  15  18
HETATM   18  C13 UNL     1       5.996  21.440  42.134  1.00  0.00     0.070 A 
HETATM   19  C14 UNL     1       7.207  21.456  41.411  1.00  0.00     0.020 A 
HETATM   20  C15 UNL     1       7.689  22.558  40.771  1.00  0.00     0.001 A 
HETATM   21  C16 UNL     1       6.958  23.732  40.826  1.00  0.00     0.003 A 
HETATM   22  C17 UNL     1       5.776  23.739  41.523  1.00  0.00     0.043 A 
HETATM   23  C18 UNL     1       5.286  22.605  42.179  1.00  0.00     0.132 A 
HETATM   24  F1  UNL     1       4.124  22.697  42.822  1.00  0.00    -0.205 F 
ENDBRANCH  15  18
ENDBRANCH  13  14
ENDBRANCH   1  13
TORSDOF 4
ENDMDL
