MODEL 4
REMARK VINA RESULT: -9.547182485      5.016      7.004
REMARK  4 active torsions:
REMARK  status: ('A' for Active; 'I' for Inactive)
REMARK    1  A    between atoms: C9_11  and  C10_12 
REMARK    2  A    between atoms: C10_12  and  C11_13 
REMARK    3  A    between atoms: C11_13  and  N2_14 
REMARK       I    between atoms: N2_14  and  C12_16 
REMARK    4  A    between atoms: C12_16  and  C13_18 
ROOT
HETATM    1  C10 UNL     1       0.658  17.749  38.128  1.00  0.00     0.061 C 
ENDROOT
BRANCH   1   2
HETATM    2  C9  UNL     1       0.560  16.438  37.514  1.00  0.00    -0.022 A 
HETATM    3  C2  UNL     1       1.365  15.331  37.578  1.00  0.00     0.013 A 
HETATM    4  C1  UNL     1       2.646  15.118  38.319  1.00  0.00     0.068 C 
HETATM    5  N1  UNL     1       0.772  14.387  36.805  1.00  0.00    -0.359 N 
HETATM    6  C3  UNL     1      -0.361  14.833  36.256  1.00  0.00     0.043 A 
ATOM      7  H1  UNL     1       1.146  13.449  36.661  1.00  0.00     0.166 HD
HETATM    8  C4  UNL     1      -1.293  14.228  35.403  1.00  0.00     0.030 A 
HETATM    9  C8  UNL     1      -0.525  16.111  36.677  1.00  0.00    -0.001 A 
HETATM   10  C5  UNL     1      -2.386  14.951  34.995  1.00  0.00     0.002 A 
HETATM   11  C6  UNL     1      -2.581  16.254  35.408  1.00  0.00     0.001 A 
HETATM   12  C7  UNL     1      -1.638  16.810  36.246  1.00  0.00     0.014 A 
ENDBRANCH   1   2
BRANCH   1  13
HETATM   13  C11 UNL     1      -0.030  17.993  39.410  1.00  0.00     0.127 C 
BRANCH  13  14
HETATM   14  N2  UNL     1       0.217  16.841  40.305  1.00  0.00    -0.356 N 
HETATM   15  C12 UNL     1       1.076  16.941  41.399  1.00  0.00     0.254 C 
HETATM   16  O1  UNL     1       1.631  18.089  41.565  1.00  0.00    -0.268 OA
ATOM     17  H2  UNL     1      -0.252  15.955  40.118  1.00  0.00     0.162 HD
BRANCH  15  18
HETATM   18  C13 UNL     1       1.370  15.871  42.322  1.00  0.00     0.070 A 
HETATM   19  C14 UNL     1       0.318  15.030  42.744  1.00  0.00     0.020 A 
HETATM   20  C15 UNL     1       0.480  14.004  43.626  1.00  0.00     0.001 A 
HETATM   21  C16 UNL     1       1.741  13.764  44.143  1.00  0.00     0.003 A 
HETATM   22  C17 UNL     1       2.779  14.569  43.746  1.00  0.00     0.043 A 
HETATM   23  C18 UNL     1       2.608  15.621  42.840  1.00  0.00     0.132 A 
HETATM   24  F1  UNL     1       3.672  16.344  42.499  1.00  0.00    -0.205 F 
ENDBRANCH  15  18
ENDBRANCH  13  14
ENDBRANCH   1  13
TORSDOF 4
ENDMDL
