MODEL 5
REMARK VINA RESULT: -9.523638203      1.184      1.243
REMARK  4 active torsions:
REMARK  status: ('A' for Active; 'I' for Inactive)
REMARK    1  A    between atoms: C9_11  and  C10_12 
REMARK    2  A    between atoms: C10_12  and  C11_13 
REMARK    3  A    between atoms: C11_13  and  N2_14 
REMARK       I    between atoms: N2_14  and  C12_16 
REMARK    4  A    between atoms: C12_16  and  C13_18 
ROOT
HETATM    1  C10 UNL     1       2.267  17.834  43.076  1.00  0.00     0.061 C 
ENDROOT
BRANCH   1   2
HETATM    2  C9  UNL     1       2.058  16.828  42.050  1.00  0.00    -0.022 A 
HETATM    3  C2  UNL     1       2.447  15.518  41.955  1.00  0.00     0.013 A 
HETATM    4  C1  UNL     1       3.243  14.683  42.905  1.00  0.00     0.068 C 
HETATM    5  N1  UNL     1       1.959  15.063  40.774  1.00  0.00    -0.359 N 
HETATM    6  C3  UNL     1       1.284  16.010  40.117  1.00  0.00     0.043 A 
ATOM      7  H1  UNL     1       2.091  14.112  40.429  1.00  0.00     0.166 HD
HETATM    8  C4  UNL     1       0.618  16.005  38.884  1.00  0.00     0.030 A 
HETATM    9  C8  UNL     1       1.325  17.126  40.885  1.00  0.00    -0.001 A 
HETATM   10  C5  UNL     1      -0.000  17.154  38.459  1.00  0.00     0.002 A 
HETATM   11  C6  UNL     1       0.024  18.306  39.219  1.00  0.00     0.001 A 
HETATM   12  C7  UNL     1       0.692  18.267  40.424  1.00  0.00     0.014 A 
ENDBRANCH   1   2
BRANCH   1  13
HETATM   13  C11 UNL     1       3.647  18.185  43.462  1.00  0.00     0.127 C 
BRANCH  13  14
HETATM   14  N2  UNL     1       4.058  19.388  42.704  1.00  0.00    -0.356 N 
HETATM   15  C12 UNL     1       5.322  19.953  42.866  1.00  0.00     0.254 C 
HETATM   16  O1  UNL     1       6.089  19.363  43.713  1.00  0.00    -0.268 OA
ATOM     17  H2  UNL     1       3.402  19.812  42.049  1.00  0.00     0.162 HD
BRANCH  15  18
HETATM   18  C13 UNL     1       5.804  21.120  42.166  1.00  0.00     0.070 A 
HETATM   19  C14 UNL     1       7.003  21.023  41.429  1.00  0.00     0.020 A 
HETATM   20  C15 UNL     1       7.557  22.066  40.749  1.00  0.00     0.001 A 
HETATM   21  C16 UNL     1       6.916  23.293  40.775  1.00  0.00     0.003 A 
HETATM   22  C17 UNL     1       5.748  23.410  41.485  1.00  0.00     0.043 A 
HETATM   23  C18 UNL     1       5.184  22.336  42.182  1.00  0.00     0.132 A 
HETATM   24  F1  UNL     1       4.040  22.534  42.835  1.00  0.00    -0.205 F 
ENDBRANCH  15  18
ENDBRANCH  13  14
ENDBRANCH   1  13
TORSDOF 4
ENDMDL
