MODEL 2
REMARK VINA RESULT: -9.608387952      1.286      1.621
REMARK  4 active torsions:
REMARK  status: ('A' for Active; 'I' for Inactive)
REMARK    1  A    between atoms: C9_11  and  C10_12 
REMARK    2  A    between atoms: C10_12  and  C11_13 
REMARK    3  A    between atoms: C11_13  and  N2_14 
REMARK       I    between atoms: N2_14  and  C12_16 
REMARK    4  A    between atoms: C12_16  and  C13_18 
ROOT
HETATM    1  C10 UNL     1       3.098  18.463  42.820  1.00  0.00     0.061 C 
ENDROOT
BRANCH   1   2
HETATM    2  C9  UNL     1       2.852  17.115  42.340  1.00  0.00    -0.022 A 
HETATM    3  C2  UNL     1       2.797  15.907  42.984  1.00  0.00     0.013 A 
HETATM    4  C1  UNL     1       2.987  15.581  44.430  1.00  0.00     0.068 C 
HETATM    5  N1  UNL     1       2.522  14.983  42.030  1.00  0.00    -0.359 N 
HETATM    6  C3  UNL     1       2.400  15.536  40.821  1.00  0.00     0.043 A 
ATOM      7  H1  UNL     1       2.421  13.984  42.214  1.00  0.00     0.166 HD
HETATM    8  C4  UNL     1       2.126  14.990  39.560  1.00  0.00     0.030 A 
HETATM    9  C8  UNL     1       2.600  16.868  40.977  1.00  0.00    -0.001 A 
HETATM   10  C5  UNL     1       2.060  15.826  38.474  1.00  0.00     0.002 A 
HETATM   11  C6  UNL     1       2.257  17.186  38.602  1.00  0.00     0.001 A 
HETATM   12  C7  UNL     1       2.526  17.682  39.860  1.00  0.00     0.014 A 
ENDBRANCH   1   2
BRANCH   1  13
HETATM   13  C11 UNL     1       4.470  18.848  43.202  1.00  0.00     0.127 C 
BRANCH  13  14
HETATM   14  N2  UNL     1       4.810  20.118  42.523  1.00  0.00    -0.356 N 
HETATM   15  C12 UNL     1       6.089  20.668  42.609  1.00  0.00     0.254 C 
HETATM   16  O1  UNL     1       6.933  20.003  43.314  1.00  0.00    -0.268 OA
ATOM     17  H2  UNL     1       4.094  20.601  41.981  1.00  0.00     0.162 HD
BRANCH  15  18
HETATM   18  C13 UNL     1       6.505  21.898  41.977  1.00  0.00     0.070 A 
HETATM   19  C14 UNL     1       5.899  23.107  42.380  1.00  0.00     0.020 A 
HETATM   20  C15 UNL     1       6.201  24.320  41.838  1.00  0.00     0.001 A 
HETATM   21  C16 UNL     1       7.153  24.382  40.836  1.00  0.00     0.003 A 
HETATM   22  C17 UNL     1       7.756  23.219  40.429  1.00  0.00     0.043 A 
HETATM   23  C18 UNL     1       7.442  21.976  40.988  1.00  0.00     0.132 A 
HETATM   24  F1  UNL     1       8.085  20.899  40.543  1.00  0.00    -0.205 F 
ENDBRANCH  15  18
ENDBRANCH  13  14
ENDBRANCH   1  13
TORSDOF 4
ENDMDL
