MODEL 3
REMARK VINA RESULT: -9.563440445      4.911      6.775
REMARK  4 active torsions:
REMARK  status: ('A' for Active; 'I' for Inactive)
REMARK    1  A    between atoms: C9_11  and  C10_12 
REMARK    2  A    between atoms: C10_12  and  C11_13 
REMARK    3  A    between atoms: C11_13  and  N2_14 
REMARK       I    between atoms: N2_14  and  C12_16 
REMARK    4  A    between atoms: C12_16  and  C13_18 
ROOT
HETATM    1  C10 UNL     1       0.790  17.765  38.186  1.00  0.00     0.061 C 
ENDROOT
BRANCH   1   2
HETATM    2  C9  UNL     1       0.640  16.435  37.623  1.00  0.00    -0.022 A 
HETATM    3  C2  UNL     1       1.392  15.296  37.747  1.00  0.00     0.013 A 
HETATM    4  C1  UNL     1       2.649  15.055  38.519  1.00  0.00     0.068 C 
HETATM    5  N1  UNL     1       0.768  14.350  37.002  1.00  0.00    -0.359 N 
HETATM    6  C3  UNL     1      -0.333  14.824  36.415  1.00  0.00     0.043 A 
ATOM      7  H1  UNL     1       1.100  13.390  36.902  1.00  0.00     0.166 HD
HETATM    8  C4  UNL     1      -1.279  14.228  35.570  1.00  0.00     0.030 A 
HETATM    9  C8  UNL     1      -0.444  16.124  36.781  1.00  0.00    -0.001 A 
HETATM   10  C5  UNL     1      -2.330  14.983  35.113  1.00  0.00     0.002 A 
HETATM   11  C6  UNL     1      -2.470  16.310  35.469  1.00  0.00     0.001 A 
HETATM   12  C7  UNL     1      -1.517  16.856  36.301  1.00  0.00     0.014 A 
ENDBRANCH   1   2
BRANCH   1  13
HETATM   13  C11 UNL     1       0.004  18.130  39.380  1.00  0.00     0.127 C 
BRANCH  13  14
HETATM   14  N2  UNL     1       0.245  17.119  40.432  1.00  0.00    -0.356 N 
HETATM   15  C12 UNL     1       1.325  17.226  41.309  1.00  0.00     0.254 C 
HETATM   16  O1  UNL     1       2.083  18.249  41.134  1.00  0.00    -0.268 OA
ATOM     17  H2  UNL     1      -0.391  16.326  40.518  1.00  0.00     0.162 HD
BRANCH  15  18
HETATM   18  C13 UNL     1       1.631  16.288  42.363  1.00  0.00     0.070 A 
HETATM   19  C14 UNL     1       2.386  16.733  43.469  1.00  0.00     0.020 A 
HETATM   20  C15 UNL     1       2.748  15.929  44.508  1.00  0.00     0.001 A 
HETATM   21  C16 UNL     1       2.360  14.601  44.488  1.00  0.00     0.003 A 
HETATM   22  C17 UNL     1       1.625  14.146  43.422  1.00  0.00     0.043 A 
HETATM   23  C18 UNL     1       1.256  14.976  42.358  1.00  0.00     0.132 A 
HETATM   24  F1  UNL     1       0.531  14.455  41.370  1.00  0.00    -0.205 F 
ENDBRANCH  15  18
ENDBRANCH  13  14
ENDBRANCH   1  13
TORSDOF 4
ENDMDL
