MODEL 3
REMARK VINA RESULT: -3.211208629     16.596     17.342
REMARK  2 active torsions:
REMARK  status: ('A' for Active; 'I' for Inactive)
REMARK    1  A    between atoms: C2_2  and  C3_3 
REMARK    2  A    between atoms: C3_3  and  C4_4 
ROOT
HETATM    1  C3  UNL     1     -31.386 -18.168 -36.457  1.00  0.00     0.113 C 
ENDROOT
BRANCH   1   2
HETATM    2  C2  UNL     1     -31.073 -17.229 -35.318  1.00  0.00     0.006 C 
HETATM    3  C1  UNL     1     -30.708 -15.861 -35.859  1.00  0.00     0.005 C 
ENDBRANCH   1   2
BRANCH   1   4
HETATM    4  C4  UNL     1     -32.833 -18.063 -36.765  1.00  0.00     0.172 C 
HETATM    5  O1  UNL     1     -33.283 -18.000 -37.940  1.00  0.00    -0.648 OA
HETATM    6  O2  UNL     1     -33.766 -18.029 -35.741  1.00  0.00    -0.648 OA
ENDBRANCH   1   4
TORSDOF 2
ENDMDL
