MODEL 1
REMARK VINA RESULT: -3.475245228      0.000      0.000
REMARK  2 active torsions:
REMARK  status: ('A' for Active; 'I' for Inactive)
REMARK    1  A    between atoms: C2_2  and  C3_3 
REMARK    2  A    between atoms: C3_3  and  C4_4 
ROOT
HETATM    1  C3  UNL     1     -30.313 -27.987 -49.034  1.00  0.00     0.113 C 
ENDROOT
BRANCH   1   2
HETATM    2  C2  UNL     1     -29.509 -29.264 -49.039  1.00  0.00     0.006 C 
HETATM    3  C1  UNL     1     -30.394 -30.436 -48.665  1.00  0.00     0.005 C 
ENDBRANCH   1   2
BRANCH   1   4
HETATM    4  C4  UNL     1     -29.848 -27.138 -50.158  1.00  0.00     0.172 C 
HETATM    5  O1  UNL     1     -28.882 -27.453 -50.903  1.00  0.00    -0.648 OA
HETATM    6  O2  UNL     1     -30.479 -25.936 -50.436  1.00  0.00    -0.648 OA
ENDBRANCH   1   4
TORSDOF 2
ENDMDL
