MODEL 2
REMARK VINA RESULT: -3.228577245     16.535     17.306
REMARK  2 active torsions:
REMARK  status: ('A' for Active; 'I' for Inactive)
REMARK    1  A    between atoms: C2_2  and  C3_3 
REMARK    2  A    between atoms: C3_3  and  C4_4 
ROOT
HETATM    1  C3  UNL     1     -31.467 -18.109 -36.317  1.00  0.00     0.113 C 
ENDROOT
BRANCH   1   2
HETATM    2  C2  UNL     1     -30.856 -16.807 -36.773  1.00  0.00     0.006 C 
HETATM    3  C1  UNL     1     -30.744 -15.848 -35.606  1.00  0.00     0.005 C 
ENDBRANCH   1   2
BRANCH   1   4
HETATM    4  C4  UNL     1     -32.920 -18.071 -36.613  1.00  0.00     0.172 C 
HETATM    5  O1  UNL     1     -33.804 -18.047 -35.715  1.00  0.00    -0.648 OA
HETATM    6  O2  UNL     1     -33.368 -18.060 -37.924  1.00  0.00    -0.648 OA
ENDBRANCH   1   4
TORSDOF 2
ENDMDL
