MODEL 3
REMARK VINA RESULT: -10.395655611      4.271      8.448
REMARK  6 active torsions:
REMARK  status: ('A' for Active; 'I' for Inactive)
REMARK    1  A    between atoms: C1_2  and  C2_4 
REMARK    2  A    between atoms: C5_7  and  N1_8 
REMARK    3  A    between atoms: N1_8  and  C6_10 
REMARK    4  A    between atoms: C9_15  and  N3_16 
REMARK    5  A    between atoms: N3_16  and  C10_18 
REMARK    6  A    between atoms: C15_23  and  C16_24 
ROOT
HETATM    1  C6  UNL     1       3.604  31.391   7.532  1.00  0.00     0.684 A 
HETATM    2  N2  UNL     1       3.708  30.958   8.785  1.00  0.00    -0.202 N 
ATOM      3  H2  UNL     1       3.243  31.509   9.507  1.00  0.00     0.183 HD
HETATM    4  C7  UNL     1       4.367  29.869   9.183  1.00  0.00     0.110 A 
HETATM    5  C8  UNL     1       5.003  29.107   8.238  1.00  0.00     0.066 A 
HETATM    6  C9  UNL     1       4.925  29.516   6.901  1.00  0.00     0.122 A 
HETATM    7  N4  UNL     1       4.246  30.614   6.608  1.00  0.00    -0.176 N 
ATOM      8  H4  UNL     1       4.199  30.899   5.630  1.00  0.00     0.186 HD
ENDROOT
BRANCH   6   9
HETATM    9  N3  UNL     1       5.580  28.711   5.949  1.00  0.00    -0.341 N 
ATOM     10  H3  UNL     1       6.039  27.867   6.294  1.00  0.00     0.167 HD
BRANCH   9  11
HETATM   11  C10 UNL     1       5.660  28.960   4.583  1.00  0.00     0.044 A 
HETATM   12  C11 UNL     1       4.587  28.980   3.741  1.00  0.00     0.030 A 
HETATM   13  C12 UNL     1       4.677  29.209   2.358  1.00  0.00     0.002 A 
HETATM   14  C13 UNL     1       5.921  29.428   1.814  1.00  0.00     0.001 A 
HETATM   15  C14 UNL     1       6.994  29.409   2.665  1.00  0.00     0.014 A 
HETATM   16  C15 UNL     1       6.931  29.188   4.016  1.00  0.00     0.001 A 
BRANCH  16  17
HETATM   17  C16 UNL     1       8.149  29.219   4.836  1.00  0.00    -0.024 A 
HETATM   18  C17 UNL     1       8.986  28.114   4.879  1.00  0.00     0.012 A 
HETATM   19  C18 UNL     1      10.156  28.090   5.612  1.00  0.00     0.001 A 
HETATM   20  C19 UNL     1      10.547  29.200   6.347  1.00  0.00     0.000 A 
HETATM   21  C20 UNL     1       9.719  30.299   6.305  1.00  0.00     0.001 A 
HETATM   22  C21 UNL     1       8.534  30.323   5.564  1.00  0.00     0.012 A 
ENDBRANCH  16  17
ENDBRANCH   9  11
ENDBRANCH   6   9
BRANCH   1  23
HETATM   23  N1  UNL     1       2.901  32.542   7.121  1.00  0.00    -0.192 N 
ATOM     24  H1  UNL     1       2.629  33.211   7.841  1.00  0.00     0.184 HD
BRANCH  23  25
HETATM   25  C5  UNL     1       2.550  32.832   5.805  1.00  0.00     0.049 A 
HETATM   26  C4  UNL     1       3.359  32.580   4.729  1.00  0.00     0.031 A 
HETATM   27  C3  UNL     1       2.998  32.900   3.436  1.00  0.00     0.020 A 
HETATM   28  C2  UNL     1       1.787  33.494   3.181  1.00  0.00     0.041 A 
HETATM   29  C23 UNL     1       0.954  33.760   4.237  1.00  0.00     0.020 A 
HETATM   30  C22 UNL     1       1.313  33.443   5.515  1.00  0.00     0.031 A 
BRANCH  28  31
HETATM   31  C1  UNL     1       1.392  33.840   1.800  1.00  0.00     0.209 C 
HETATM   32  O1  UNL     1       0.230  34.290   1.642  1.00  0.00    -0.644 OA
HETATM   33  O2  UNL     1       2.288  33.660   0.749  1.00  0.00    -0.644 OA
ENDBRANCH  28  31
ENDBRANCH  23  25
ENDBRANCH   1  23
TORSDOF 6
ENDMDL
