MODEL 2
REMARK VINA RESULT: -10.613454785      0.734      1.137
REMARK  6 active torsions:
REMARK  status: ('A' for Active; 'I' for Inactive)
REMARK    1  A    between atoms: C1_2  and  C2_4 
REMARK    2  A    between atoms: C5_7  and  N1_8 
REMARK    3  A    between atoms: N1_8  and  C6_10 
REMARK    4  A    between atoms: C9_15  and  N3_16 
REMARK    5  A    between atoms: N3_16  and  C10_18 
REMARK    6  A    between atoms: C15_23  and  C16_24 
ROOT
HETATM    1  C6  UNL     1       7.250  27.929   4.362  1.00  0.00     0.684 A 
HETATM    2  N2  UNL     1       7.423  28.432   3.144  1.00  0.00    -0.202 N 
ATOM      3  H2  UNL     1       8.247  28.124   2.628  1.00  0.00     0.183 HD
HETATM    4  C7  UNL     1       6.616  29.304   2.536  1.00  0.00     0.110 A 
HETATM    5  C8  UNL     1       5.501  29.737   3.202  1.00  0.00     0.066 A 
HETATM    6  C9  UNL     1       5.267  29.239   4.491  1.00  0.00     0.122 A 
HETATM    7  N4  UNL     1       6.129  28.377   5.007  1.00  0.00    -0.176 N 
ATOM      8  H4  UNL     1       5.946  28.023   5.946  1.00  0.00     0.186 HD
ENDROOT
BRANCH   6   9
HETATM    9  N3  UNL     1       4.109  29.695   5.150  1.00  0.00    -0.341 N 
ATOM     10  H3  UNL     1       3.241  29.691   4.615  1.00  0.00     0.167 HD
BRANCH   9  11
HETATM   11  C10 UNL     1       4.042  30.149   6.463  1.00  0.00     0.044 A 
HETATM   12  C11 UNL     1       4.568  29.489   7.534  1.00  0.00     0.030 A 
HETATM   13  C12 UNL     1       4.476  29.942   8.861  1.00  0.00     0.002 A 
HETATM   14  C13 UNL     1       3.815  31.124   9.100  1.00  0.00     0.001 A 
HETATM   15  C14 UNL     1       3.290  31.783   8.021  1.00  0.00     0.014 A 
HETATM   16  C15 UNL     1       3.367  31.361   6.719  1.00  0.00     0.001 A 
BRANCH  16  17
HETATM   17  C16 UNL     1       2.790  32.169   5.636  1.00  0.00    -0.024 A 
HETATM   18  C17 UNL     1       1.635  32.904   5.858  1.00  0.00     0.012 A 
HETATM   19  C18 UNL     1       1.057  33.700   4.888  1.00  0.00     0.001 A 
HETATM   20  C19 UNL     1       1.627  33.795   3.627  1.00  0.00     0.000 A 
HETATM   21  C20 UNL     1       2.774  33.066   3.404  1.00  0.00     0.001 A 
HETATM   22  C21 UNL     1       3.358  32.261   4.385  1.00  0.00     0.012 A 
ENDBRANCH  16  17
ENDBRANCH   9  11
ENDBRANCH   6   9
BRANCH   1  23
HETATM   23  N1  UNL     1       8.106  27.005   4.994  1.00  0.00    -0.192 N 
ATOM     24  H1  UNL     1       8.626  26.360   4.400  1.00  0.00     0.184 HD
BRANCH  23  25
HETATM   25  C5  UNL     1       8.294  26.907   6.370  1.00  0.00     0.049 A 
HETATM   26  C4  UNL     1       7.914  27.876   7.261  1.00  0.00     0.031 A 
HETATM   27  C3  UNL     1       8.135  27.766   8.619  1.00  0.00     0.020 A 
HETATM   28  C2  UNL     1       8.755  26.654   9.133  1.00  0.00     0.041 A 
HETATM   29  C23 UNL     1       9.148  25.665   8.267  1.00  0.00     0.020 A 
HETATM   30  C22 UNL     1       8.929  25.777   6.925  1.00  0.00     0.031 A 
BRANCH  28  31
HETATM   31  C1  UNL     1       8.995  26.527  10.585  1.00  0.00     0.209 C 
HETATM   32  O1  UNL     1       9.392  27.558  11.184  1.00  0.00    -0.644 OA
HETATM   33  O2  UNL     1       8.784  25.309  11.226  1.00  0.00    -0.644 OA
ENDBRANCH  28  31
ENDBRANCH  23  25
ENDBRANCH   1  23
TORSDOF 6
ENDMDL
