MODEL 1
REMARK VINA RESULT: -10.679592411      0.000      0.000
REMARK  6 active torsions:
REMARK  status: ('A' for Active; 'I' for Inactive)
REMARK    1  A    between atoms: C1_2  and  C2_4 
REMARK    2  A    between atoms: C5_7  and  N1_8 
REMARK    3  A    between atoms: N1_8  and  C6_10 
REMARK    4  A    between atoms: C9_15  and  N3_16 
REMARK    5  A    between atoms: N3_16  and  C10_18 
REMARK    6  A    between atoms: C15_23  and  C16_24 
ROOT
HETATM    1  C6  UNL     1       7.012  28.171   4.322  1.00  0.00     0.684 A 
HETATM    2  N2  UNL     1       6.662  27.530   3.211  1.00  0.00    -0.202 N 
ATOM      3  H2  UNL     1       7.362  26.922   2.786  1.00  0.00     0.183 HD
HETATM    4  C7  UNL     1       5.478  27.612   2.602  1.00  0.00     0.110 A 
HETATM    5  C8  UNL     1       4.516  28.421   3.147  1.00  0.00     0.066 A 
HETATM    6  C9  UNL     1       4.830  29.120   4.320  1.00  0.00     0.122 A 
HETATM    7  N4  UNL     1       6.035  28.972   4.847  1.00  0.00    -0.176 N 
ATOM      8  H4  UNL     1       6.250  29.488   5.701  1.00  0.00     0.186 HD
ENDROOT
BRANCH   6   9
HETATM    9  N3  UNL     1       3.821  29.938   4.864  1.00  0.00    -0.341 N 
ATOM     10  H3  UNL     1       3.060  30.210   4.242  1.00  0.00     0.167 HD
BRANCH   9  11
HETATM   11  C10 UNL     1       3.767  30.409   6.172  1.00  0.00     0.044 A 
HETATM   12  C11 UNL     1       4.286  29.751   7.248  1.00  0.00     0.030 A 
HETATM   13  C12 UNL     1       4.208  30.222   8.570  1.00  0.00     0.002 A 
HETATM   14  C13 UNL     1       3.570  31.419   8.797  1.00  0.00     0.001 A 
HETATM   15  C14 UNL     1       3.052  32.075   7.713  1.00  0.00     0.014 A 
HETATM   16  C15 UNL     1       3.117  31.636   6.416  1.00  0.00     0.001 A 
BRANCH  16  17
HETATM   17  C16 UNL     1       2.550  32.441   5.325  1.00  0.00    -0.024 A 
HETATM   18  C17 UNL     1       1.437  33.237   5.556  1.00  0.00     0.012 A 
HETATM   19  C18 UNL     1       0.872  34.033   4.579  1.00  0.00     0.001 A 
HETATM   20  C19 UNL     1       1.413  34.068   3.302  1.00  0.00     0.000 A 
HETATM   21  C20 UNL     1       2.518  33.280   3.071  1.00  0.00     0.001 A 
HETATM   22  C21 UNL     1       3.089  32.474   4.059  1.00  0.00     0.012 A 
ENDBRANCH  16  17
ENDBRANCH   9  11
ENDBRANCH   6   9
BRANCH   1  23
HETATM   23  N1  UNL     1       8.265  28.075   4.961  1.00  0.00    -0.192 N 
ATOM     24  H1  UNL     1       9.091  28.342   4.425  1.00  0.00     0.184 HD
BRANCH  23  25
HETATM   25  C5  UNL     1       8.460  27.641   6.270  1.00  0.00     0.049 A 
HETATM   26  C4  UNL     1       9.065  26.457   6.596  1.00  0.00     0.031 A 
HETATM   27  C3  UNL     1       9.224  26.038   7.902  1.00  0.00     0.020 A 
HETATM   28  C2  UNL     1       8.770  26.814   8.939  1.00  0.00     0.041 A 
HETATM   29  C23 UNL     1       8.159  28.006   8.646  1.00  0.00     0.020 A 
HETATM   30  C22 UNL     1       8.003  28.418   7.354  1.00  0.00     0.031 A 
BRANCH  28  31
HETATM   31  C1  UNL     1       8.936  26.374  10.339  1.00  0.00     0.209 C 
HETATM   32  O1  UNL     1       9.447  27.202  11.135  1.00  0.00    -0.644 OA
HETATM   33  O2  UNL     1       8.536  25.097  10.724  1.00  0.00    -0.644 OA
ENDBRANCH  28  31
ENDBRANCH  23  25
ENDBRANCH   1  23
TORSDOF 6
ENDMDL
