MODEL 5
REMARK VINA RESULT: -10.361925697      4.119      8.784
REMARK  6 active torsions:
REMARK  status: ('A' for Active; 'I' for Inactive)
REMARK    1  A    between atoms: C1_2  and  C2_4 
REMARK    2  A    between atoms: C5_7  and  N1_8 
REMARK    3  A    between atoms: N1_8  and  C6_10 
REMARK    4  A    between atoms: C9_15  and  N3_16 
REMARK    5  A    between atoms: N3_16  and  C10_18 
REMARK    6  A    between atoms: C15_23  and  C16_24 
ROOT
HETATM    1  C6  UNL     1       3.693  31.664   7.550  1.00  0.00     0.684 A 
HETATM    2  N2  UNL     1       3.608  31.372   8.845  1.00  0.00    -0.202 N 
ATOM      3  H2  UNL     1       3.148  32.056   9.446  1.00  0.00     0.183 HD
HETATM    4  C7  UNL     1       4.071  30.265   9.428  1.00  0.00     0.110 A 
HETATM    5  C8  UNL     1       4.695  29.327   8.649  1.00  0.00     0.066 A 
HETATM    6  C9  UNL     1       4.812  29.582   7.276  1.00  0.00     0.122 A 
HETATM    7  N4  UNL     1       4.319  30.712   6.794  1.00  0.00    -0.176 N 
ATOM      8  H4  UNL     1       4.412  30.884   5.792  1.00  0.00     0.186 HD
ENDROOT
BRANCH   6   9
HETATM    9  N3  UNL     1       5.449  28.598   6.497  1.00  0.00    -0.341 N 
ATOM     10  H3  UNL     1       5.214  27.626   6.696  1.00  0.00     0.167 HD
BRANCH   9  11
HETATM   11  C10 UNL     1       6.372  28.830   5.481  1.00  0.00     0.044 A 
HETATM   12  C11 UNL     1       6.089  29.490   4.322  1.00  0.00     0.030 A 
HETATM   13  C12 UNL     1       7.020  29.701   3.290  1.00  0.00     0.002 A 
HETATM   14  C13 UNL     1       8.295  29.213   3.455  1.00  0.00     0.001 A 
HETATM   15  C14 UNL     1       8.573  28.552   4.622  1.00  0.00     0.014 A 
HETATM   16  C15 UNL     1       7.683  28.336   5.641  1.00  0.00     0.001 A 
BRANCH  16  17
HETATM   17  C16 UNL     1       8.103  27.637   6.864  1.00  0.00    -0.024 A 
HETATM   18  C17 UNL     1       8.560  26.330   6.794  1.00  0.00     0.012 A 
HETATM   19  C18 UNL     1       8.991  25.628   7.903  1.00  0.00     0.001 A 
HETATM   20  C19 UNL     1       8.981  26.222   9.157  1.00  0.00     0.000 A 
HETATM   21  C20 UNL     1       8.528  27.520   9.228  1.00  0.00     0.001 A 
HETATM   22  C21 UNL     1       8.093  28.230   8.107  1.00  0.00     0.012 A 
ENDBRANCH  16  17
ENDBRANCH   9  11
ENDBRANCH   6   9
BRANCH   1  23
HETATM   23  N1  UNL     1       3.195  32.835   6.943  1.00  0.00    -0.192 N 
ATOM     24  H1  UNL     1       3.199  33.692   7.495  1.00  0.00     0.184 HD
BRANCH  23  25
HETATM   25  C5  UNL     1       2.699  32.908   5.643  1.00  0.00     0.049 A 
HETATM   26  C4  UNL     1       3.389  32.476   4.541  1.00  0.00     0.031 A 
HETATM   27  C3  UNL     1       2.885  32.582   3.261  1.00  0.00     0.020 A 
HETATM   28  C2  UNL     1       1.648  33.136   3.045  1.00  0.00     0.041 A 
HETATM   29  C23 UNL     1       0.932  33.579   4.129  1.00  0.00     0.020 A 
HETATM   30  C22 UNL     1       1.432  33.473   5.394  1.00  0.00     0.031 A 
BRANCH  28  31
HETATM   31  C1  UNL     1       1.100  33.254   1.679  1.00  0.00     0.209 C 
HETATM   32  O1  UNL     1       1.491  32.404   0.839  1.00  0.00    -0.644 OA
HETATM   33  O2  UNL     1       0.200  34.270   1.369  1.00  0.00    -0.644 OA
ENDBRANCH  28  31
ENDBRANCH  23  25
ENDBRANCH   1  23
TORSDOF 6
ENDMDL
