MODEL 4
REMARK VINA RESULT: -10.363732117      1.728      3.695
REMARK  6 active torsions:
REMARK  status: ('A' for Active; 'I' for Inactive)
REMARK    1  A    between atoms: C1_2  and  C2_4 
REMARK    2  A    between atoms: C5_7  and  N1_8 
REMARK    3  A    between atoms: N1_8  and  C6_10 
REMARK    4  A    between atoms: C9_15  and  N3_16 
REMARK    5  A    between atoms: N3_16  and  C10_18 
REMARK    6  A    between atoms: C15_23  and  C16_24 
ROOT
HETATM    1  C6  UNL     1       7.996  29.295   2.662  1.00  0.00     0.684 A 
HETATM    2  N2  UNL     1       7.898  29.617   1.376  1.00  0.00    -0.202 N 
ATOM      3  H2  UNL     1       8.755  29.584   0.823  1.00  0.00     0.183 HD
HETATM    4  C7  UNL     1       6.780  29.979   0.744  1.00  0.00     0.110 A 
HETATM    5  C8  UNL     1       5.613  30.034   1.459  1.00  0.00     0.066 A 
HETATM    6  C9  UNL     1       5.657  29.703   2.819  1.00  0.00     0.122 A 
HETATM    7  N4  UNL     1       6.817  29.356   3.354  1.00  0.00    -0.176 N 
ATOM      8  H4  UNL     1       6.833  29.118   4.346  1.00  0.00     0.186 HD
ENDROOT
BRANCH   6   9
HETATM    9  N3  UNL     1       4.442  29.759   3.528  1.00  0.00    -0.341 N 
ATOM     10  H3  UNL     1       4.016  28.869   3.787  1.00  0.00     0.167 HD
BRANCH   9  11
HETATM   11  C10 UNL     1       3.769  30.916   3.907  1.00  0.00     0.044 A 
HETATM   12  C11 UNL     1       3.145  31.763   3.039  1.00  0.00     0.030 A 
HETATM   13  C12 UNL     1       2.487  32.942   3.426  1.00  0.00     0.002 A 
HETATM   14  C13 UNL     1       2.468  33.268   4.762  1.00  0.00     0.001 A 
HETATM   15  C14 UNL     1       3.095  32.413   5.630  1.00  0.00     0.014 A 
HETATM   16  C15 UNL     1       3.742  31.258   5.275  1.00  0.00     0.001 A 
BRANCH  16  17
HETATM   17  C16 UNL     1       4.356  30.401   6.299  1.00  0.00    -0.024 A 
HETATM   18  C17 UNL     1       3.754  30.264   7.541  1.00  0.00     0.012 A 
HETATM   19  C18 UNL     1       4.269  29.456   8.536  1.00  0.00     0.001 A 
HETATM   20  C19 UNL     1       5.434  28.733   8.321  1.00  0.00     0.000 A 
HETATM   21  C20 UNL     1       6.032  28.867   7.088  1.00  0.00     0.001 A 
HETATM   22  C21 UNL     1       5.512  29.685   6.082  1.00  0.00     0.012 A 
ENDBRANCH  16  17
ENDBRANCH   9  11
ENDBRANCH   6   9
BRANCH   1  23
HETATM   23  N1  UNL     1       9.181  28.908   3.320  1.00  0.00    -0.192 N 
ATOM     24  H1  UNL     1      10.067  29.144   2.874  1.00  0.00     0.184 HD
BRANCH  23  25
HETATM   25  C5  UNL     1       9.232  28.227   4.534  1.00  0.00     0.049 A 
HETATM   26  C4  UNL     1       8.956  26.893   4.670  1.00  0.00     0.031 A 
HETATM   27  C3  UNL     1       8.989  26.246   5.889  1.00  0.00     0.020 A 
HETATM   28  C2  UNL     1       9.308  26.937   7.031  1.00  0.00     0.041 A 
HETATM   29  C23 UNL     1       9.588  28.276   6.930  1.00  0.00     0.020 A 
HETATM   30  C22 UNL     1       9.555  28.912   5.723  1.00  0.00     0.031 A 
BRANCH  28  31
HETATM   31  C1  UNL     1       9.346  26.254   8.340  1.00  0.00     0.209 C 
HETATM   32  O1  UNL     1       9.417  24.999   8.320  1.00  0.00    -0.644 OA
HETATM   33  O2  UNL     1       9.301  26.995   9.519  1.00  0.00    -0.644 OA
ENDBRANCH  28  31
ENDBRANCH  23  25
ENDBRANCH   1  23
TORSDOF 6
ENDMDL
