MODEL 1
REMARK VINA RESULT: -9.504302967      0.000      0.000
REMARK  6 active torsions:
REMARK  status: ('A' for Active; 'I' for Inactive)
REMARK    1  A    between atoms: C1_2  and  C2_4 
REMARK    2  A    between atoms: C5_7  and  N1_8 
REMARK    3  A    between atoms: N1_8  and  C6_10 
REMARK    4  A    between atoms: C9_15  and  N3_16 
REMARK    5  A    between atoms: N3_16  and  C10_18 
REMARK    6  A    between atoms: C15_23  and  C16_24 
ROOT
HETATM    1  C6  UNL     1       8.523  28.916   3.986  1.00  0.00     0.684 A 
HETATM    2  N2  UNL     1       9.619  29.111   4.717  1.00  0.00    -0.202 N 
ATOM      3  H2  UNL     1      10.520  29.108   4.240  1.00  0.00     0.183 HD
HETATM    4  C7  UNL     1       9.609  29.310   6.032  1.00  0.00     0.110 A 
HETATM    5  C8  UNL     1       8.369  29.314   6.686  1.00  0.00     0.066 A 
HETATM    6  C9  UNL     1       7.210  29.116   5.988  1.00  0.00     0.122 A 
HETATM    7  N4  UNL     1       7.360  28.926   4.652  1.00  0.00    -0.176 N 
ATOM      8  H4  UNL     1       6.511  28.778   4.106  1.00  0.00     0.186 HD
ENDROOT
BRANCH   6   9
HETATM    9  N3  UNL     1       5.915  29.032   6.554  1.00  0.00    -0.341 N 
ATOM     10  H3  UNL     1       5.511  28.095   6.549  1.00  0.00     0.167 HD
BRANCH   9  11
HETATM   11  C10 UNL     1       5.095  30.015   7.118  1.00  0.00     0.048 A 
HETATM   12  C11 UNL     1       4.454  30.996   6.399  1.00  0.00     0.030 A 
HETATM   13  C12 UNL     1       3.687  31.987   6.962  1.00  0.00     0.002 A 
HETATM   14  C13 UNL     1       3.544  32.015   8.319  1.00  0.00     0.001 A 
HETATM   15  C14 UNL     1       4.177  31.045   9.070  1.00  0.00     0.018 A 
HETATM   16  C15 UNL     1       4.940  30.057   8.512  1.00  0.00     0.074 A 
BRANCH  16  17
HETATM   17  C16 UNL     1       5.609  29.065   9.389  1.00  0.00     0.419 C 
HETATM   18  F1  UNL     1       5.495  27.805   8.902  1.00  0.00    -0.166 F 
HETATM   19  F2  UNL     1       6.948  29.385   9.459  1.00  0.00    -0.166 F 
HETATM   20  F3  UNL     1       5.018  29.176  10.633  1.00  0.00    -0.166 F 
ENDBRANCH  16  17
ENDBRANCH   9  11
ENDBRANCH   6   9
BRANCH   1  21
HETATM   21  N1  UNL     1       8.512  28.702   2.584  1.00  0.00    -0.192 N 
ATOM     22  H1  UNL     1       8.734  27.758   2.267  1.00  0.00     0.184 HD
BRANCH  21  23
HETATM   23  C5  UNL     1       8.231  29.642   1.588  1.00  0.00     0.049 A 
HETATM   24  C4  UNL     1       6.896  29.959   1.262  1.00  0.00     0.031 A 
HETATM   25  C3  UNL     1       6.570  30.873   0.294  1.00  0.00     0.020 A 
HETATM   26  C2  UNL     1       7.563  31.531  -0.411  1.00  0.00     0.041 A 
HETATM   27  C18 UNL     1       8.860  31.259  -0.132  1.00  0.00     0.020 A 
HETATM   28  C17 UNL     1       9.167  30.320   0.862  1.00  0.00     0.031 A 
BRANCH  26  29
HETATM   29  C1  UNL     1       7.154  32.493  -1.430  1.00  0.00     0.209 C 
HETATM   30  O1  UNL     1       6.942  33.688  -1.168  1.00  0.00    -0.644 OA
HETATM   31  O2  UNL     1       7.006  32.031  -2.728  1.00  0.00    -0.644 OA
ENDBRANCH  26  29
ENDBRANCH  21  23
ENDBRANCH   1  21
TORSDOF 6
ENDMDL
