MODEL 3
REMARK VINA RESULT: -9.209585004      3.180      5.909
REMARK  6 active torsions:
REMARK  status: ('A' for Active; 'I' for Inactive)
REMARK    1  A    between atoms: C1_2  and  C2_4 
REMARK    2  A    between atoms: C5_7  and  N1_8 
REMARK    3  A    between atoms: N1_8  and  C6_10 
REMARK    4  A    between atoms: C9_15  and  N3_16 
REMARK    5  A    between atoms: N3_16  and  C10_18 
REMARK    6  A    between atoms: C15_23  and  C16_24 
ROOT
HETATM    1  C6  UNL     1       4.026  31.618   7.991  1.00  0.00     0.684 A 
HETATM    2  N2  UNL     1       4.125  31.371   9.297  1.00  0.00    -0.202 N 
ATOM      3  H2  UNL     1       3.670  32.015   9.942  1.00  0.00     0.183 HD
HETATM    4  C7  UNL     1       4.782  30.334   9.809  1.00  0.00     0.110 A 
HETATM    5  C8  UNL     1       5.408  29.450   8.918  1.00  0.00     0.066 A 
HETATM    6  C9  UNL     1       5.342  29.653   7.568  1.00  0.00     0.122 A 
HETATM    7  N4  UNL     1       4.640  30.747   7.178  1.00  0.00    -0.176 N 
ATOM      8  H4  UNL     1       4.573  30.923   6.176  1.00  0.00     0.186 HD
ENDROOT
BRANCH   6   9
HETATM    9  N3  UNL     1       5.991  28.866   6.587  1.00  0.00    -0.341 N 
ATOM     10  H3  UNL     1       6.232  27.923   6.892  1.00  0.00     0.167 HD
BRANCH   9  11
HETATM   11  C10 UNL     1       6.359  29.163   5.270  1.00  0.00     0.048 A 
HETATM   12  C11 UNL     1       5.467  29.343   4.238  1.00  0.00     0.030 A 
HETATM   13  C12 UNL     1       5.835  29.588   2.937  1.00  0.00     0.002 A 
HETATM   14  C13 UNL     1       7.162  29.658   2.633  1.00  0.00     0.001 A 
HETATM   15  C14 UNL     1       8.083  29.479   3.645  1.00  0.00     0.018 A 
HETATM   16  C15 UNL     1       7.721  29.236   4.941  1.00  0.00     0.074 A 
BRANCH  16  17
HETATM   17  C16 UNL     1       8.770  29.030   5.969  1.00  0.00     0.419 C 
HETATM   18  F1  UNL     1       8.553  27.904   6.691  1.00  0.00    -0.166 F 
HETATM   19  F2  UNL     1       9.984  28.909   5.327  1.00  0.00    -0.166 F 
HETATM   20  F3  UNL     1       8.757  30.152   6.776  1.00  0.00    -0.166 F 
ENDBRANCH  16  17
ENDBRANCH   9  11
ENDBRANCH   6   9
BRANCH   1  21
HETATM   21  N1  UNL     1       3.330  32.717   7.426  1.00  0.00    -0.192 N 
ATOM     22  H1  UNL     1       3.044  33.454   8.072  1.00  0.00     0.184 HD
BRANCH  21  23
HETATM   23  C5  UNL     1       2.994  32.903   6.083  1.00  0.00     0.049 A 
HETATM   24  C4  UNL     1       1.850  33.649   5.729  1.00  0.00     0.031 A 
HETATM   25  C3  UNL     1       1.480  33.858   4.426  1.00  0.00     0.020 A 
HETATM   26  C2  UNL     1       2.234  33.334   3.391  1.00  0.00     0.041 A 
HETATM   27  C18 UNL     1       3.341  32.612   3.682  1.00  0.00     0.020 A 
HETATM   28  C17 UNL     1       3.699  32.411   5.022  1.00  0.00     0.031 A 
BRANCH  26  29
HETATM   29  C1  UNL     1       1.788  33.591   2.023  1.00  0.00     0.209 C 
HETATM   30  O1  UNL     1       2.323  33.055   1.040  1.00  0.00    -0.644 OA
HETATM   31  O2  UNL     1       0.729  34.466   1.846  1.00  0.00    -0.644 OA
ENDBRANCH  26  29
ENDBRANCH  21  23
ENDBRANCH   1  21
TORSDOF 6
ENDMDL
