MODEL 2
REMARK VINA RESULT: -9.466332548      0.071      1.097
REMARK  6 active torsions:
REMARK  status: ('A' for Active; 'I' for Inactive)
REMARK    1  A    between atoms: C1_2  and  C2_4 
REMARK    2  A    between atoms: C5_7  and  N1_8 
REMARK    3  A    between atoms: N1_8  and  C6_10 
REMARK    4  A    between atoms: C9_15  and  N3_16 
REMARK    5  A    between atoms: N3_16  and  C10_18 
REMARK    6  A    between atoms: C15_23  and  C16_24 
ROOT
HETATM    1  C6  UNL     1       8.546  28.903   4.017  1.00  0.00     0.684 A 
HETATM    2  N2  UNL     1       9.637  29.101   4.756  1.00  0.00    -0.202 N 
ATOM      3  H2  UNL     1      10.542  29.097   4.285  1.00  0.00     0.183 HD
HETATM    4  C7  UNL     1       9.618  29.304   6.070  1.00  0.00     0.110 A 
HETATM    5  C8  UNL     1       8.373  29.309   6.715  1.00  0.00     0.066 A 
HETATM    6  C9  UNL     1       7.219  29.108   6.010  1.00  0.00     0.122 A 
HETATM    7  N4  UNL     1       7.379  28.914   4.676  1.00  0.00    -0.176 N 
ATOM      8  H4  UNL     1       6.534  28.764   4.125  1.00  0.00     0.186 HD
ENDROOT
BRANCH   6   9
HETATM    9  N3  UNL     1       5.921  29.025   6.567  1.00  0.00    -0.341 N 
ATOM     10  H3  UNL     1       5.519  28.088   6.565  1.00  0.00     0.167 HD
BRANCH   9  11
HETATM   11  C10 UNL     1       5.095  30.010   7.120  1.00  0.00     0.048 A 
HETATM   12  C11 UNL     1       4.455  30.984   6.390  1.00  0.00     0.030 A 
HETATM   13  C12 UNL     1       3.682  31.977   6.942  1.00  0.00     0.002 A 
HETATM   14  C13 UNL     1       3.533  32.014   8.297  1.00  0.00     0.001 A 
HETATM   15  C14 UNL     1       4.164  31.052   9.059  1.00  0.00     0.018 A 
HETATM   16  C15 UNL     1       4.933  30.062   8.513  1.00  0.00     0.074 A 
BRANCH  16  17
HETATM   17  C16 UNL     1       5.600  29.079   9.400  1.00  0.00     0.419 C 
HETATM   18  F1  UNL     1       5.492  27.815   8.922  1.00  0.00    -0.166 F 
HETATM   19  F2  UNL     1       6.939  29.403   9.474  1.00  0.00    -0.166 F 
HETATM   20  F3  UNL     1       5.003  29.198  10.641  1.00  0.00    -0.166 F 
ENDBRANCH  16  17
ENDBRANCH   9  11
ENDBRANCH   6   9
BRANCH   1  21
HETATM   21  N1  UNL     1       8.545  28.685   2.616  1.00  0.00    -0.192 N 
ATOM     22  H1  UNL     1       8.860  27.767   2.299  1.00  0.00     0.184 HD
BRANCH  21  23
HETATM   23  C5  UNL     1       8.161  29.587   1.621  1.00  0.00     0.049 A 
HETATM   24  C4  UNL     1       9.132  30.294   0.883  1.00  0.00     0.031 A 
HETATM   25  C3  UNL     1       8.804  31.189  -0.101  1.00  0.00     0.020 A 
HETATM   26  C2  UNL     1       7.478  31.433  -0.413  1.00  0.00     0.041 A 
HETATM   27  C18 UNL     1       6.510  30.776   0.269  1.00  0.00     0.020 A 
HETATM   28  C17 UNL     1       6.871  29.867   1.272  1.00  0.00     0.031 A 
BRANCH  26  29
HETATM   29  C1  UNL     1       7.191  32.398  -1.471  1.00  0.00     0.209 C 
HETATM   30  O1  UNL     1       7.193  32.084  -2.672  1.00  0.00    -0.644 OA
HETATM   31  O2  UNL     1       6.908  33.700  -1.094  1.00  0.00    -0.644 OA
ENDBRANCH  26  29
ENDBRANCH  21  23
ENDBRANCH   1  21
TORSDOF 6
ENDMDL
