MODEL 4
REMARK VINA RESULT: -9.067994682      1.754      2.347
REMARK  6 active torsions:
REMARK  status: ('A' for Active; 'I' for Inactive)
REMARK    1  A    between atoms: C1_2  and  C2_4 
REMARK    2  A    between atoms: C5_7  and  N1_8 
REMARK    3  A    between atoms: N1_8  and  C6_10 
REMARK    4  A    between atoms: C9_15  and  N3_16 
REMARK    5  A    between atoms: N3_16  and  C10_18 
REMARK    6  A    between atoms: C15_23  and  C16_24 
ROOT
HETATM    1  C6  UNL     1       8.791  28.651   4.071  1.00  0.00     0.684 A 
HETATM    2  N2  UNL     1       9.907  28.823   4.778  1.00  0.00    -0.202 N 
ATOM      3  H2  UNL     1      10.794  28.844   4.275  1.00  0.00     0.183 HD
HETATM    4  C7  UNL     1       9.935  28.971   6.099  1.00  0.00     0.110 A 
HETATM    5  C8  UNL     1       8.714  28.942   6.788  1.00  0.00     0.066 A 
HETATM    6  C9  UNL     1       7.536  28.765   6.117  1.00  0.00     0.122 A 
HETATM    7  N4  UNL     1       7.648  28.628   4.771  1.00  0.00    -0.176 N 
ATOM      8  H4  UNL     1       6.784  28.497   4.245  1.00  0.00     0.186 HD
ENDROOT
BRANCH   6   9
HETATM    9  N3  UNL     1       6.259  28.652   6.716  1.00  0.00    -0.341 N 
ATOM     10  H3  UNL     1       5.747  27.806   6.465  1.00  0.00     0.167 HD
BRANCH   9  11
HETATM   11  C10 UNL     1       5.579  29.502   7.595  1.00  0.00     0.048 A 
HETATM   12  C11 UNL     1       5.587  29.370   8.963  1.00  0.00     0.030 A 
HETATM   13  C12 UNL     1       4.881  30.180   9.819  1.00  0.00     0.002 A 
HETATM   14  C13 UNL     1       4.118  31.182   9.295  1.00  0.00     0.001 A 
HETATM   15  C14 UNL     1       4.087  31.340   7.924  1.00  0.00     0.018 A 
HETATM   16  C15 UNL     1       4.789  30.536   7.069  1.00  0.00     0.074 A 
BRANCH  16  17
HETATM   17  C16 UNL     1       4.685  30.754   5.606  1.00  0.00     0.419 C 
HETATM   18  F1  UNL     1       5.840  31.237   5.086  1.00  0.00    -0.166 F 
HETATM   19  F2  UNL     1       4.411  29.543   5.008  1.00  0.00    -0.166 F 
HETATM   20  F3  UNL     1       3.641  31.638   5.413  1.00  0.00    -0.166 F 
ENDBRANCH  16  17
ENDBRANCH   9  11
ENDBRANCH   6   9
BRANCH   1  21
HETATM   21  N1  UNL     1       8.740  28.492   2.663  1.00  0.00    -0.192 N 
ATOM     22  H1  UNL     1       9.004  27.575   2.300  1.00  0.00     0.184 HD
BRANCH  21  23
HETATM   23  C5  UNL     1       8.368  29.451   1.718  1.00  0.00     0.049 A 
HETATM   24  C4  UNL     1       7.009  29.774   1.523  1.00  0.00     0.031 A 
HETATM   25  C3  UNL     1       6.596  30.706   0.609  1.00  0.00     0.020 A 
HETATM   26  C2  UNL     1       7.519  31.380  -0.172  1.00  0.00     0.041 A 
HETATM   27  C18 UNL     1       8.836  31.104  -0.020  1.00  0.00     0.020 A 
HETATM   28  C17 UNL     1       9.234  30.145   0.921  1.00  0.00     0.031 A 
BRANCH  26  29
HETATM   29  C1  UNL     1       7.018  32.363  -1.129  1.00  0.00     0.209 C 
HETATM   30  O1  UNL     1       6.985  32.142  -2.350  1.00  0.00    -0.644 OA
HETATM   31  O2  UNL     1       6.567  33.574  -0.630  1.00  0.00    -0.644 OA
ENDBRANCH  26  29
ENDBRANCH  21  23
ENDBRANCH   1  21
TORSDOF 6
ENDMDL
