MODEL 8
REMARK VINA RESULT: -8.576849241      3.285      7.778
REMARK  7 active torsions:
REMARK  status: ('A' for Active; 'I' for Inactive)
REMARK    1  A    between atoms: C1_2  and  C2_4 
REMARK    2  A    between atoms: C5_7  and  N1_8 
REMARK    3  A    between atoms: N1_8  and  C6_10 
REMARK    4  A    between atoms: C9_15  and  N3_16 
REMARK    5  A    between atoms: N3_16  and  C10_18 
REMARK    6  A    between atoms: C15_23  and  O3_24 
REMARK    7  A    between atoms: O3_24  and  C16_25 
ROOT
HETATM    1  C6  UNL     1       3.819  31.676   7.891  1.00  0.00     0.684 A 
HETATM    2  N2  UNL     1       3.850  31.450   9.202  1.00  0.00    -0.202 N 
ATOM      3  H2  UNL     1       3.385  32.132   9.800  1.00  0.00     0.183 HD
HETATM    4  C7  UNL     1       4.435  30.410   9.809  1.00  0.00     0.110 A 
HETATM    5  C8  UNL     1       5.059  29.502   8.979  1.00  0.00     0.066 A 
HETATM    6  C9  UNL     1       5.073  29.665   7.590  1.00  0.00     0.122 A 
HETATM    7  N4  UNL     1       4.451  30.745   7.124  1.00  0.00    -0.176 N 
ATOM      8  H4  UNL     1       4.448  30.887   6.114  1.00  0.00     0.186 HD
ENDROOT
BRANCH   6   9
HETATM    9  N3  UNL     1       5.737  28.685   6.821  1.00  0.00    -0.340 N 
ATOM     10  H3  UNL     1       5.399  27.730   6.938  1.00  0.00     0.167 HD
BRANCH   9  11
HETATM   11  C10 UNL     1       6.795  28.846   5.922  1.00  0.00     0.067 A 
HETATM   12  C11 UNL     1       6.606  28.809   4.564  1.00  0.00     0.032 A 
HETATM   13  C12 UNL     1       7.648  28.950   3.643  1.00  0.00     0.002 A 
HETATM   14  C13 UNL     1       8.910  29.134   4.146  1.00  0.00     0.003 A 
HETATM   15  C14 UNL     1       9.107  29.172   5.507  1.00  0.00     0.039 A 
HETATM   16  C15 UNL     1       8.075  29.032   6.397  1.00  0.00     0.104 A 
BRANCH  16  17
HETATM   17  O3  UNL     1       8.358  29.086   7.745  1.00  0.00    -0.253 OA
BRANCH  17  18
HETATM   18  C16 UNL     1       8.704  28.011   8.559  1.00  0.00     0.530 C 
HETATM   19  F1  UNL     1      10.000  27.582   8.449  1.00  0.00    -0.144 F 
HETATM   20  F2  UNL     1       7.897  26.901   8.322  1.00  0.00    -0.144 F 
HETATM   21  F3  UNL     1       8.487  28.351   9.895  1.00  0.00    -0.144 F 
ENDBRANCH  17  18
ENDBRANCH  16  17
ENDBRANCH   9  11
ENDBRANCH   6   9
BRANCH   1  22
HETATM   22  N1  UNL     1       3.188  32.795   7.257  1.00  0.00    -0.192 N 
ATOM     23  H1  UNL     1       2.916  33.574   7.858  1.00  0.00     0.184 HD
BRANCH  22  24
HETATM   24  C5  UNL     1       2.907  32.922   5.883  1.00  0.00     0.049 A 
HETATM   25  C4  UNL     1       3.663  32.388   4.879  1.00  0.00     0.031 A 
HETATM   26  C3  UNL     1       3.294  32.574   3.565  1.00  0.00     0.020 A 
HETATM   27  C2  UNL     1       2.168  33.294   3.223  1.00  0.00     0.041 A 
HETATM   28  C18 UNL     1       1.410  33.830   4.241  1.00  0.00     0.020 A 
HETATM   29  C17 UNL     1       1.778  33.644   5.541  1.00  0.00     0.031 A 
BRANCH  27  30
HETATM   30  C1  UNL     1       1.809  33.470   1.830  1.00  0.00     0.209 C 
HETATM   31  O1  UNL     1       0.675  33.841   1.448  1.00  0.00    -0.644 OA
HETATM   32  O2  UNL     1       2.748  33.223   0.836  1.00  0.00    -0.644 OA
ENDBRANCH  27  30
ENDBRANCH  22  24
ENDBRANCH   1  22
TORSDOF 7
ENDMDL
