MODEL 2
REMARK VINA RESULT: -8.849467563      3.425      7.838
REMARK  7 active torsions:
REMARK  status: ('A' for Active; 'I' for Inactive)
REMARK    1  A    between atoms: C1_2  and  C2_4 
REMARK    2  A    between atoms: C5_7  and  N1_8 
REMARK    3  A    between atoms: N1_8  and  C6_10 
REMARK    4  A    between atoms: C9_15  and  N3_16 
REMARK    5  A    between atoms: N3_16  and  C10_18 
REMARK    6  A    between atoms: C15_23  and  O3_24 
REMARK    7  A    between atoms: O3_24  and  C16_25 
ROOT
HETATM    1  C6  UNL     1       3.996  31.353   7.676  1.00  0.00     0.684 A 
HETATM    2  N2  UNL     1       4.085  30.953   8.942  1.00  0.00    -0.202 N 
ATOM      3  H2  UNL     1       3.591  31.510   9.639  1.00  0.00     0.183 HD
HETATM    4  C7  UNL     1       4.763  29.888   9.387  1.00  0.00     0.110 A 
HETATM    5  C8  UNL     1       5.424  29.151   8.425  1.00  0.00     0.066 A 
HETATM    6  C9  UNL     1       5.382  29.503   7.072  1.00  0.00     0.122 A 
HETATM    7  N4  UNL     1       4.669  30.586   6.774  1.00  0.00    -0.176 N 
ATOM      8  H4  UNL     1       4.623  30.864   5.793  1.00  0.00     0.186 HD
ENDROOT
BRANCH   6   9
HETATM    9  N3  UNL     1       6.091  28.691   6.161  1.00  0.00    -0.340 N 
ATOM     10  H3  UNL     1       6.448  27.813   6.539  1.00  0.00     0.167 HD
BRANCH   9  11
HETATM   11  C10 UNL     1       6.369  28.926   4.811  1.00  0.00     0.067 A 
HETATM   12  C11 UNL     1       5.373  29.098   3.884  1.00  0.00     0.032 A 
HETATM   13  C12 UNL     1       5.623  29.317   2.526  1.00  0.00     0.002 A 
HETATM   14  C13 UNL     1       6.933  29.358   2.128  1.00  0.00     0.003 A 
HETATM   15  C14 UNL     1       7.937  29.187   3.052  1.00  0.00     0.039 A 
HETATM   16  C15 UNL     1       7.676  28.973   4.380  1.00  0.00     0.104 A 
BRANCH  16  17
HETATM   17  O3  UNL     1       8.741  28.814   5.241  1.00  0.00    -0.253 OA
BRANCH  17  18
HETATM   18  C16 UNL     1       9.369  29.819   5.970  1.00  0.00     0.530 C 
HETATM   19  F1  UNL     1       9.293  31.075   5.430  1.00  0.00    -0.144 F 
HETATM   20  F2  UNL     1      10.723  29.551   6.162  1.00  0.00    -0.144 F 
HETATM   21  F3  UNL     1       8.818  29.880   7.251  1.00  0.00    -0.144 F 
ENDBRANCH  17  18
ENDBRANCH  16  17
ENDBRANCH   9  11
ENDBRANCH   6   9
BRANCH   1  22
HETATM   22  N1  UNL     1       3.265  32.497   7.216  1.00  0.00    -0.192 N 
ATOM     23  H1  UNL     1       2.934  33.149   7.927  1.00  0.00     0.184 HD
BRANCH  22  24
HETATM   24  C5  UNL     1       2.960  32.805   5.876  1.00  0.00     0.049 A 
HETATM   25  C4  UNL     1       3.691  32.400   4.797  1.00  0.00     0.031 A 
HETATM   26  C3  UNL     1       3.300  32.760   3.526  1.00  0.00     0.020 A 
HETATM   27  C2  UNL     1       2.176  33.527   3.304  1.00  0.00     0.041 A 
HETATM   28  C18 UNL     1       1.442  33.931   4.397  1.00  0.00     0.020 A 
HETATM   29  C17 UNL     1       1.832  33.573   5.655  1.00  0.00     0.031 A 
BRANCH  27  30
HETATM   30  C1  UNL     1       1.793  33.887   1.953  1.00  0.00     0.209 C 
HETATM   31  O1  UNL     1       0.641  34.270   1.637  1.00  0.00    -0.644 OA
HETATM   32  O2  UNL     1       2.725  33.816   0.926  1.00  0.00    -0.644 OA
ENDBRANCH  27  30
ENDBRANCH  22  24
ENDBRANCH   1  22
TORSDOF 7
ENDMDL
