MODEL 1
REMARK VINA RESULT: -9.066150059      0.000      0.000
REMARK  7 active torsions:
REMARK  status: ('A' for Active; 'I' for Inactive)
REMARK    1  A    between atoms: C1_2  and  C2_4 
REMARK    2  A    between atoms: C5_7  and  N1_8 
REMARK    3  A    between atoms: N1_8  and  C6_10 
REMARK    4  A    between atoms: C9_15  and  N3_16 
REMARK    5  A    between atoms: N3_16  and  C10_18 
REMARK    6  A    between atoms: C15_23  and  O3_24 
REMARK    7  A    between atoms: O3_24  and  C16_25 
ROOT
HETATM    1  C6  UNL     1       8.294  29.012   3.880  1.00  0.00     0.684 A 
HETATM    2  N2  UNL     1       8.278  29.269   2.574  1.00  0.00    -0.202 N 
ATOM      3  H2  UNL     1       9.162  29.175   2.074  1.00  0.00     0.183 HD
HETATM    4  C7  UNL     1       7.211  29.641   1.856  1.00  0.00     0.110 A 
HETATM    5  C8  UNL     1       6.028  29.762   2.555  1.00  0.00     0.066 A 
HETATM    6  C9  UNL     1       5.957  29.510   3.930  1.00  0.00     0.122 A 
HETATM    7  N4  UNL     1       7.096  29.149   4.515  1.00  0.00    -0.176 N 
ATOM      8  H4  UNL     1       7.071  28.960   5.517  1.00  0.00     0.186 HD
ENDROOT
BRANCH   6   9
HETATM    9  N3  UNL     1       4.704  29.662   4.560  1.00  0.00    -0.340 N 
ATOM     10  H3  UNL     1       3.954  29.073   4.199  1.00  0.00     0.167 HD
BRANCH   9  11
HETATM   11  C10 UNL     1       4.351  30.512   5.613  1.00  0.00     0.067 A 
HETATM   12  C11 UNL     1       3.661  31.679   5.404  1.00  0.00     0.032 A 
HETATM   13  C12 UNL     1       3.311  32.555   6.436  1.00  0.00     0.002 A 
HETATM   14  C13 UNL     1       3.684  32.207   7.708  1.00  0.00     0.003 A 
HETATM   15  C14 UNL     1       4.375  31.038   7.925  1.00  0.00     0.039 A 
HETATM   16  C15 UNL     1       4.712  30.190   6.903  1.00  0.00     0.104 A 
BRANCH  16  17
HETATM   17  O3  UNL     1       5.402  29.037   7.207  1.00  0.00    -0.253 OA
BRANCH  17  18
HETATM   18  C16 UNL     1       5.727  28.581   8.482  1.00  0.00     0.530 C 
HETATM   19  F1  UNL     1       4.719  28.651   9.407  1.00  0.00    -0.144 F 
HETATM   20  F2  UNL     1       6.809  29.273   9.020  1.00  0.00    -0.144 F 
HETATM   21  F3  UNL     1       6.136  27.249   8.410  1.00  0.00    -0.144 F 
ENDBRANCH  17  18
ENDBRANCH  16  17
ENDBRANCH   9  11
ENDBRANCH   6   9
BRANCH   1  22
HETATM   22  N1  UNL     1       9.445  28.615   4.634  1.00  0.00    -0.192 N 
ATOM     23  H1  UNL     1      10.355  28.754   4.195  1.00  0.00     0.184 HD
BRANCH  22  24
HETATM   24  C5  UNL     1       9.440  28.051   5.925  1.00  0.00     0.049 A 
HETATM   25  C4  UNL     1       9.640  28.748   7.081  1.00  0.00     0.031 A 
HETATM   26  C3  UNL     1       9.614  28.094   8.293  1.00  0.00     0.020 A 
HETATM   27  C2  UNL     1       9.388  26.736   8.379  1.00  0.00     0.041 A 
HETATM   28  C18 UNL     1       9.187  26.039   7.208  1.00  0.00     0.020 A 
HETATM   29  C17 UNL     1       9.213  26.690   6.009  1.00  0.00     0.031 A 
BRANCH  27  30
HETATM   30  C1  UNL     1       9.367  26.079   9.670  1.00  0.00     0.209 C 
HETATM   31  O1  UNL     1       9.660  24.872   9.840  1.00  0.00    -0.644 OA
HETATM   32  O2  UNL     1       9.007  26.794  10.806  1.00  0.00    -0.644 OA
ENDBRANCH  27  30
ENDBRANCH  22  24
ENDBRANCH   1  22
TORSDOF 7
ENDMDL
