MODEL 5
REMARK VINA RESULT: -8.741130646      2.787      3.488
REMARK  7 active torsions:
REMARK  status: ('A' for Active; 'I' for Inactive)
REMARK    1  A    between atoms: C1_2  and  C2_4 
REMARK    2  A    between atoms: C5_7  and  N1_8 
REMARK    3  A    between atoms: N1_8  and  C6_10 
REMARK    4  A    between atoms: C9_15  and  N3_16 
REMARK    5  A    between atoms: N3_16  and  C10_18 
REMARK    6  A    between atoms: C15_23  and  O3_24 
REMARK    7  A    between atoms: O3_24  and  C16_25 
ROOT
HETATM    1  C6  UNL     1       7.780  29.564   3.641  1.00  0.00     0.684 A 
HETATM    2  N2  UNL     1       7.625  29.486   2.322  1.00  0.00    -0.202 N 
ATOM      3  H2  UNL     1       8.435  29.189   1.778  1.00  0.00     0.183 HD
HETATM    4  C7  UNL     1       6.505  29.761   1.642  1.00  0.00     0.110 A 
HETATM    5  C8  UNL     1       5.424  30.161   2.399  1.00  0.00     0.066 A 
HETATM    6  C9  UNL     1       5.503  30.269   3.792  1.00  0.00     0.122 A 
HETATM    7  N4  UNL     1       6.678  29.964   4.334  1.00  0.00    -0.176 N 
ATOM      8  H4  UNL     1       6.761  30.036   5.349  1.00  0.00     0.186 HD
ENDROOT
BRANCH   6   9
HETATM    9  N3  UNL     1       4.345  30.688   4.483  1.00  0.00    -0.340 N 
ATOM     10  H3  UNL     1       3.516  30.832   3.907  1.00  0.00     0.167 HD
BRANCH   9  11
HETATM   11  C10 UNL     1       4.182  30.932   5.850  1.00  0.00     0.067 A 
HETATM   12  C11 UNL     1       4.513  29.998   6.799  1.00  0.00     0.032 A 
HETATM   13  C12 UNL     1       4.344  30.209   8.170  1.00  0.00     0.002 A 
HETATM   14  C13 UNL     1       3.821  31.414   8.560  1.00  0.00     0.003 A 
HETATM   15  C14 UNL     1       3.488  32.355   7.614  1.00  0.00     0.039 A 
HETATM   16  C15 UNL     1       3.659  32.133   6.274  1.00  0.00     0.104 A 
BRANCH  16  17
HETATM   17  O3  UNL     1       3.301  33.131   5.392  1.00  0.00    -0.253 OA
BRANCH  17  18
HETATM   18  C16 UNL     1       2.018  33.395   4.921  1.00  0.00     0.530 C 
HETATM   19  F1  UNL     1       1.020  33.317   5.855  1.00  0.00    -0.144 F 
HETATM   20  F2  UNL     1       1.660  32.536   3.884  1.00  0.00    -0.144 F 
HETATM   21  F3  UNL     1       1.979  34.677   4.371  1.00  0.00    -0.144 F 
ENDBRANCH  17  18
ENDBRANCH  16  17
ENDBRANCH   9  11
ENDBRANCH   6   9
BRANCH   1  22
HETATM   22  N1  UNL     1       8.987  29.266   4.354  1.00  0.00    -0.192 N 
ATOM     23  H1  UNL     1       9.852  29.655   3.979  1.00  0.00     0.184 HD
BRANCH  22  24
HETATM   24  C5  UNL     1       9.091  28.488   5.523  1.00  0.00     0.049 A 
HETATM   25  C4  UNL     1       9.043  27.124   5.559  1.00  0.00     0.031 A 
HETATM   26  C3  UNL     1       9.156  26.461   6.761  1.00  0.00     0.020 A 
HETATM   27  C2  UNL     1       9.319  27.141   7.950  1.00  0.00     0.041 A 
HETATM   28  C18 UNL     1       9.367  28.517   7.907  1.00  0.00     0.020 A 
HETATM   29  C17 UNL     1       9.255  29.170   6.714  1.00  0.00     0.031 A 
BRANCH  27  30
HETATM   30  C1  UNL     1       9.435  26.413   9.198  1.00  0.00     0.209 C 
HETATM   31  O1  UNL     1       9.042  26.860  10.301  1.00  0.00    -0.644 OA
HETATM   32  O2  UNL     1      10.008  25.147   9.211  1.00  0.00    -0.644 OA
ENDBRANCH  27  30
ENDBRANCH  22  24
ENDBRANCH   1  22
TORSDOF 7
ENDMDL
