MODEL 3
REMARK VINA RESULT: -8.824487598      2.779      3.359
REMARK  7 active torsions:
REMARK  status: ('A' for Active; 'I' for Inactive)
REMARK    1  A    between atoms: C1_2  and  C2_4 
REMARK    2  A    between atoms: C5_7  and  N1_8 
REMARK    3  A    between atoms: N1_8  and  C6_10 
REMARK    4  A    between atoms: C9_15  and  N3_16 
REMARK    5  A    between atoms: N3_16  and  C10_18 
REMARK    6  A    between atoms: C15_23  and  O3_24 
REMARK    7  A    between atoms: O3_24  and  C16_25 
ROOT
HETATM    1  C6  UNL     1       7.740  29.526   3.691  1.00  0.00     0.684 A 
HETATM    2  N2  UNL     1       7.520  29.275   2.403  1.00  0.00    -0.202 N 
ATOM      3  H2  UNL     1       8.292  28.874   1.871  1.00  0.00     0.183 HD
HETATM    4  C7  UNL     1       6.379  29.499   1.739  1.00  0.00     0.110 A 
HETATM    5  C8  UNL     1       5.349  30.042   2.479  1.00  0.00     0.066 A 
HETATM    6  C9  UNL     1       5.497  30.336   3.839  1.00  0.00     0.122 A 
HETATM    7  N4  UNL     1       6.686  30.061   4.368  1.00  0.00    -0.176 N 
ATOM      8  H4  UNL     1       6.820  30.267   5.359  1.00  0.00     0.186 HD
ENDROOT
BRANCH   6   9
HETATM    9  N3  UNL     1       4.389  30.891   4.514  1.00  0.00    -0.340 N 
ATOM     10  H3  UNL     1       3.634  31.230   3.917  1.00  0.00     0.167 HD
BRANCH   9  11
HETATM   11  C10 UNL     1       4.186  31.041   5.889  1.00  0.00     0.067 A 
HETATM   12  C11 UNL     1       4.508  30.050   6.782  1.00  0.00     0.032 A 
HETATM   13  C12 UNL     1       4.300  30.166   8.160  1.00  0.00     0.002 A 
HETATM   14  C13 UNL     1       3.748  31.335   8.615  1.00  0.00     0.003 A 
HETATM   15  C14 UNL     1       3.424  32.333   7.725  1.00  0.00     0.039 A 
HETATM   16  C15 UNL     1       3.634  32.204   6.378  1.00  0.00     0.104 A 
BRANCH  16  17
HETATM   17  O3  UNL     1       3.283  33.253   5.555  1.00  0.00    -0.253 OA
BRANCH  17  18
HETATM   18  C16 UNL     1       2.023  33.491   5.012  1.00  0.00     0.530 C 
HETATM   19  F1  UNL     1       1.823  34.752   4.518  1.00  0.00    -0.144 F 
HETATM   20  F2  UNL     1       1.008  33.261   5.938  1.00  0.00    -0.144 F 
HETATM   21  F3  UNL     1       1.788  32.591   3.972  1.00  0.00    -0.144 F 
ENDBRANCH  17  18
ENDBRANCH  16  17
ENDBRANCH   9  11
ENDBRANCH   6   9
BRANCH   1  22
HETATM   22  N1  UNL     1       8.968  29.280   4.387  1.00  0.00    -0.192 N 
ATOM     23  H1  UNL     1       9.821  29.641   3.959  1.00  0.00     0.184 HD
BRANCH  22  24
HETATM   24  C5  UNL     1       9.110  28.588   5.604  1.00  0.00     0.049 A 
HETATM   25  C4  UNL     1       9.487  29.157   6.786  1.00  0.00     0.031 A 
HETATM   26  C3  UNL     1       9.593  28.384   7.921  1.00  0.00     0.020 A 
HETATM   27  C2  UNL     1       9.327  27.030   7.903  1.00  0.00     0.041 A 
HETATM   28  C18 UNL     1       8.947  26.462   6.707  1.00  0.00     0.020 A 
HETATM   29  C17 UNL     1       8.842  27.231   5.585  1.00  0.00     0.031 A 
BRANCH  27  30
HETATM   30  C1  UNL     1       9.449  26.246   9.115  1.00  0.00     0.209 C 
HETATM   31  O1  UNL     1       8.924  26.570  10.207  1.00  0.00    -0.644 OA
HETATM   32  O2  UNL     1      10.179  25.064   9.106  1.00  0.00    -0.644 OA
ENDBRANCH  27  30
ENDBRANCH  22  24
ENDBRANCH   1  22
TORSDOF 7
ENDMDL
