MODEL 2
REMARK VINA RESULT: -9.566435558      3.995      6.050
REMARK  15 active torsions:
REMARK  status: ('A' for Active; 'I' for Inactive)
REMARK       I    between atoms: C2_2  and  N1_4 
REMARK    1  A    between atoms: N1_4  and  C3_6 
REMARK    2  A    between atoms: C4_7  and  O2_8 
REMARK    3  A    between atoms: O2_8  and  P1_9 
REMARK    4  A    between atoms: P1_9  and  O5_12 
REMARK    5  A    between atoms: O5_12  and  P2_13 
REMARK    6  A    between atoms: P2_13  and  O8_16 
REMARK    7  A    between atoms: O8_16  and  C5_17 
REMARK    8  A    between atoms: C5_17  and  C6_18 
REMARK    9  A    between atoms: C7_20  and  N2_21 
REMARK   10  A    between atoms: C12_30  and  O12_31 
REMARK   11  A    between atoms: C13_33  and  O13_34 
REMARK   12  A    between atoms: C14_37  and  C15_38 
REMARK   13  A    between atoms: C15_38  and  O15_39 
REMARK   14  A    between atoms: C16_41  and  O16_42 
REMARK   15  A    between atoms: C17_44  and  O17_45 
ROOT
HETATM    1  O5  UNL     1      87.701  -2.622 126.099  1.00  0.00    -0.180 OA
ENDROOT
BRANCH   1   2
HETATM    2  P1  UNL     1      87.360  -2.006 124.748  1.00  0.00     0.420 P 
HETATM    3  O3  UNL     1      88.117  -3.314 124.024  1.00  0.00    -0.624 OA
HETATM    4  O4  UNL     1      88.204  -0.654 124.927  1.00  0.00    -0.624 OA
BRANCH   2   5
HETATM    5  O2  UNL     1      86.815  -1.630 123.349  1.00  0.00    -0.256 OA
BRANCH   5   6
HETATM    6  C4  UNL     1      86.479  -0.311 123.121  1.00  0.00     0.298 C 
HETATM    7  C3  UNL     1      85.235   0.130 123.834  1.00  0.00     0.171 C 
HETATM    8  C17 UNL     1      85.293   1.643 123.868  1.00  0.00     0.177 C 
HETATM    9  C16 UNL     1      86.207   2.085 122.758  1.00  0.00     0.180 C 
HETATM   10  C14 UNL     1      86.201   1.231 121.542  1.00  0.00     0.179 C 
HETATM   11  O14 UNL     1      86.297  -0.132 121.785  1.00  0.00    -0.348 OA
BRANCH   7  12
HETATM   12  N1  UNL     1      84.017  -0.236 123.181  1.00  0.00    -0.349 N 
HETATM   13  C2  UNL     1      83.176  -1.302 123.565  1.00  0.00     0.214 C 
HETATM   14  C1  UNL     1      81.937  -1.592 122.816  1.00  0.00     0.117 C 
HETATM   15  O1  UNL     1      83.485  -1.996 124.539  1.00  0.00    -0.274 OA
ATOM     16  H1  UNL     1      83.732   0.318 122.373  1.00  0.00     0.163 HD
ENDBRANCH   7  12
BRANCH   8  17
HETATM   17  O17 UNL     1      85.773   2.076 125.122  1.00  0.00    -0.391 OA
ATOM     18  H17 UNL     1      85.076   2.032 125.766  1.00  0.00     0.210 HD
ENDBRANCH   8  17
BRANCH   9  19
HETATM   19  O16 UNL     1      85.731   3.359 122.361  1.00  0.00    -0.390 OA
ATOM     20  H16 UNL     1      85.210   3.691 123.082  1.00  0.00     0.210 HD
ENDBRANCH   9  19
BRANCH  10  21
HETATM   21  C15 UNL     1      87.423   1.643 120.708  1.00  0.00     0.198 C 
BRANCH  21  22
HETATM   22  O15 UNL     1      87.165   1.339 119.355  1.00  0.00    -0.398 OA
ATOM     23  H15 UNL     1      87.522   0.479 119.165  1.00  0.00     0.209 HD
ENDBRANCH  21  22
ENDBRANCH  10  21
ENDBRANCH   5   6
ENDBRANCH   2   5
ENDBRANCH   1   2
BRANCH   1  24
HETATM   24  P2  UNL     1      86.516  -3.281 127.043  1.00  0.00     0.417 P 
HETATM   25  O6  UNL     1      87.590  -3.921 127.923  1.00  0.00    -0.624 OA
HETATM   26  O7  UNL     1      85.878  -4.759 126.609  1.00  0.00    -0.624 OA
BRANCH  24  27
HETATM   27  O8  UNL     1      85.856  -2.426 128.257  1.00  0.00    -0.287 OA
BRANCH  27  28
HETATM   28  C5  UNL     1      84.934  -1.474 127.914  1.00  0.00     0.216 C 
BRANCH  28  29
HETATM   29  C6  UNL     1      85.519  -0.116 128.236  1.00  0.00     0.180 C 
HETATM   30  O9  UNL     1      84.690   0.918 127.839  1.00  0.00    -0.353 OA
HETATM   31  C7  UNL     1      85.226   2.013 128.528  1.00  0.00     0.263 C 
HETATM   32  C12 UNL     1      85.512   1.536 129.921  1.00  0.00     0.198 C 
HETATM   33  C13 UNL     1      85.475   0.024 129.755  1.00  0.00     0.182 C 
BRANCH  31  34
HETATM   34  N2  UNL     1      84.288   3.110 128.600  1.00  0.00    -0.280 N 
HETATM   35  C8  UNL     1      83.239   3.014 129.429  1.00  0.00     0.104 A 
HETATM   36  C9  UNL     1      82.358   4.081 129.476  1.00  0.00     0.092 A 
HETATM   37  C10 UNL     1      82.606   5.180 128.672  1.00  0.00     0.250 A 
HETATM   38  O10 UNL     1      81.778   6.126 128.749  1.00  0.00    -0.268 OA
HETATM   39  N3  UNL     1      83.670   5.249 127.848  1.00  0.00    -0.275 N 
HETATM   40  C11 UNL     1      84.515   4.185 127.825  1.00  0.00     0.331 A 
ATOM     41  H3  UNL     1      83.835   6.068 127.263  1.00  0.00     0.173 HD
HETATM   42  O11 UNL     1      85.515   4.255 127.047  1.00  0.00    -0.246 OA
ENDBRANCH  31  34
BRANCH  32  43
HETATM   43  O12 UNL     1      86.759   1.917 130.387  1.00  0.00    -0.388 OA
ATOM     44  H12 UNL     1      86.764   2.773 130.798  1.00  0.00     0.210 HD
ENDBRANCH  32  43
BRANCH  33  45
HETATM   45  O13 UNL     1      86.579  -0.556 130.343  1.00  0.00    -0.390 OA
ATOM     46  H13 UNL     1      86.335  -1.069 131.104  1.00  0.00     0.210 HD
ENDBRANCH  33  45
ENDBRANCH  28  29
ENDBRANCH  27  28
ENDBRANCH  24  27
ENDBRANCH   1  24
TORSDOF 15
ENDMDL
