MODEL 3
REMARK VINA RESULT: -9.565529859      2.452      8.868
REMARK  15 active torsions:
REMARK  status: ('A' for Active; 'I' for Inactive)
REMARK       I    between atoms: C2_2  and  N1_4 
REMARK    1  A    between atoms: N1_4  and  C3_6 
REMARK    2  A    between atoms: C4_7  and  O2_8 
REMARK    3  A    between atoms: O2_8  and  P1_9 
REMARK    4  A    between atoms: P1_9  and  O5_12 
REMARK    5  A    between atoms: O5_12  and  P2_13 
REMARK    6  A    between atoms: P2_13  and  O8_16 
REMARK    7  A    between atoms: O8_16  and  C5_17 
REMARK    8  A    between atoms: C5_17  and  C6_18 
REMARK    9  A    between atoms: C7_20  and  N2_21 
REMARK   10  A    between atoms: C12_30  and  O12_31 
REMARK   11  A    between atoms: C13_33  and  O13_34 
REMARK   12  A    between atoms: C14_37  and  C15_38 
REMARK   13  A    between atoms: C15_38  and  O15_39 
REMARK   14  A    between atoms: C16_41  and  O16_42 
REMARK   15  A    between atoms: C17_44  and  O17_45 
ROOT
HETATM    1  O5  UNL     1      85.576   4.192 120.265  1.00  0.00    -0.180 OA
ENDROOT
BRANCH   1   2
HETATM    2  P1  UNL     1      85.819   4.599 121.713  1.00  0.00     0.420 P 
HETATM    3  O3  UNL     1      86.575   5.980 121.140  1.00  0.00    -0.624 OA
HETATM    4  O4  UNL     1      86.742   3.350 122.119  1.00  0.00    -0.624 OA
BRANCH   2   5
HETATM    5  O2  UNL     1      85.854   5.243 123.120  1.00  0.00    -0.256 OA
BRANCH   5   6
HETATM    6  C4  UNL     1      84.665   5.696 123.652  1.00  0.00     0.298 C 
HETATM    7  C3  UNL     1      84.547   5.494 125.134  1.00  0.00     0.171 C 
HETATM    8  C17 UNL     1      83.460   6.444 125.594  1.00  0.00     0.177 C 
HETATM    9  C16 UNL     1      82.604   6.764 124.400  1.00  0.00     0.180 C 
HETATM   10  C14 UNL     1      82.454   5.671 123.405  1.00  0.00     0.179 C 
HETATM   11  O14 UNL     1      83.638   5.043 123.044  1.00  0.00    -0.348 OA
BRANCH   7  12
HETATM   12  N1  UNL     1      84.154   4.175 125.523  1.00  0.00    -0.349 N 
HETATM   13  C2  UNL     1      84.639   3.482 126.652  1.00  0.00     0.214 C 
HETATM   14  C1  UNL     1      84.163   2.118 126.960  1.00  0.00     0.117 C 
HETATM   15  O1  UNL     1      85.469   4.027 127.386  1.00  0.00    -0.274 OA
ATOM     16  H1  UNL     1      83.469   3.698 124.937  1.00  0.00     0.163 HD
ENDBRANCH   7  12
BRANCH   8  17
HETATM   17  O17 UNL     1      84.041   7.613 126.129  1.00  0.00    -0.391 OA
ATOM     18  H17 UNL     1      84.530   7.399 126.915  1.00  0.00     0.210 HD
ENDBRANCH   8  17
BRANCH   9  19
HETATM   19  O16 UNL     1      81.311   7.019 124.920  1.00  0.00    -0.390 OA
ATOM     20  H16 UNL     1      81.178   7.958 124.870  1.00  0.00     0.210 HD
ENDBRANCH   9  19
BRANCH  10  21
HETATM   21  C15 UNL     1      81.858   6.305 122.140  1.00  0.00     0.198 C 
BRANCH  21  22
HETATM   22  O15 UNL     1      80.930   7.293 122.529  1.00  0.00    -0.398 OA
ATOM     23  H15 UNL     1      80.473   7.599 121.755  1.00  0.00     0.209 HD
ENDBRANCH  21  22
ENDBRANCH  10  21
ENDBRANCH   5   6
ENDBRANCH   2   5
ENDBRANCH   1   2
BRANCH   1  24
HETATM   24  P2  UNL     1      84.557   2.942 119.906  1.00  0.00     0.417 P 
HETATM   25  O6  UNL     1      85.740   2.157 119.338  1.00  0.00    -0.624 OA
HETATM   26  O7  UNL     1      83.761   2.955 118.441  1.00  0.00    -0.624 OA
BRANCH  24  27
HETATM   27  O8  UNL     1      84.195   1.824 121.027  1.00  0.00    -0.287 OA
BRANCH  27  28
HETATM   28  C5  UNL     1      84.682   0.561 120.823  1.00  0.00     0.216 C 
BRANCH  28  29
HETATM   29  C6  UNL     1      83.588  -0.427 121.167  1.00  0.00     0.180 C 
HETATM   30  O9  UNL     1      82.363  -0.051 120.642  1.00  0.00    -0.353 OA
HETATM   31  C7  UNL     1      81.614  -1.229 120.761  1.00  0.00     0.263 C 
HETATM   32  C12 UNL     1      82.511  -2.347 120.317  1.00  0.00     0.198 C 
HETATM   33  C13 UNL     1      83.884  -1.695 120.372  1.00  0.00     0.182 C 
BRANCH  31  34
HETATM   34  N2  UNL     1      80.447  -1.208 119.909  1.00  0.00    -0.280 N 
HETATM   35  C8  UNL     1      80.490  -0.508 118.767  1.00  0.00     0.104 A 
HETATM   36  C9  UNL     1      79.357  -0.506 117.972  1.00  0.00     0.092 A 
HETATM   37  C10 UNL     1      78.251  -1.224 118.395  1.00  0.00     0.250 A 
HETATM   38  O10 UNL     1      77.244  -1.194 117.638  1.00  0.00    -0.268 OA
HETATM   39  N3  UNL     1      78.237  -1.920 119.548  1.00  0.00    -0.275 N 
HETATM   40  C11 UNL     1      79.365  -1.900 120.306  1.00  0.00     0.331 A 
ATOM     41  H3  UNL     1      77.411  -2.442 119.842  1.00  0.00     0.173 HD
HETATM   42  O11 UNL     1      79.347  -2.558 121.391  1.00  0.00    -0.246 OA
ENDBRANCH  31  34
BRANCH  32  43
HETATM   43  O12 UNL     1      82.488  -3.441 121.165  1.00  0.00    -0.388 OA
ATOM     44  H12 UNL     1      81.769  -3.421 121.786  1.00  0.00     0.210 HD
ENDBRANCH  32  43
BRANCH  33  45
HETATM   45  O13 UNL     1      84.780  -2.505 121.038  1.00  0.00    -0.390 OA
ATOM     46  H13 UNL     1      85.098  -3.202 120.477  1.00  0.00     0.210 HD
ENDBRANCH  33  45
ENDBRANCH  28  29
ENDBRANCH  27  28
ENDBRANCH  24  27
ENDBRANCH   1  24
TORSDOF 15
ENDMDL
