MODEL 1
REMARK VINA RESULT: -9.714746896      0.000      0.000
REMARK  15 active torsions:
REMARK  status: ('A' for Active; 'I' for Inactive)
REMARK       I    between atoms: C2_2  and  N1_4 
REMARK    1  A    between atoms: N1_4  and  C3_6 
REMARK    2  A    between atoms: C4_7  and  O2_8 
REMARK    3  A    between atoms: O2_8  and  P1_9 
REMARK    4  A    between atoms: P1_9  and  O5_12 
REMARK    5  A    between atoms: O5_12  and  P2_13 
REMARK    6  A    between atoms: P2_13  and  O8_16 
REMARK    7  A    between atoms: O8_16  and  C5_17 
REMARK    8  A    between atoms: C5_17  and  C6_18 
REMARK    9  A    between atoms: C7_20  and  N2_21 
REMARK   10  A    between atoms: C12_30  and  O12_31 
REMARK   11  A    between atoms: C13_33  and  O13_34 
REMARK   12  A    between atoms: C14_37  and  C15_38 
REMARK   13  A    between atoms: C15_38  and  O15_39 
REMARK   14  A    between atoms: C16_41  and  O16_42 
REMARK   15  A    between atoms: C17_44  and  O17_45 
ROOT
HETATM    1  O5  UNL     1      86.456   2.837 121.254  1.00  0.00    -0.180 OA
ENDROOT
BRANCH   1   2
HETATM    2  P1  UNL     1      86.222   1.485 120.591  1.00  0.00     0.420 P 
HETATM    3  O3  UNL     1      87.296   0.822 121.694  1.00  0.00    -0.624 OA
HETATM    4  O4  UNL     1      86.781   1.876 119.140  1.00  0.00    -0.624 OA
BRANCH   2   5
HETATM    5  O2  UNL     1      85.839   0.039 120.194  1.00  0.00    -0.256 OA
BRANCH   5   6
HETATM    6  C4  UNL     1      84.821  -0.574 120.894  1.00  0.00     0.298 C 
HETATM    7  C3  UNL     1      83.806  -1.251 120.020  1.00  0.00     0.171 C 
HETATM    8  C17 UNL     1      83.082  -2.236 120.916  1.00  0.00     0.177 C 
HETATM    9  C16 UNL     1      83.257  -1.769 122.334  1.00  0.00     0.180 C 
HETATM   10  C14 UNL     1      83.330  -0.297 122.522  1.00  0.00     0.179 C 
HETATM   11  O14 UNL     1      84.183   0.362 121.648  1.00  0.00    -0.348 OA
BRANCH   7  12
HETATM   12  N1  UNL     1      82.822  -0.375 119.465  1.00  0.00    -0.349 N 
HETATM   13  C2  UNL     1      82.935   0.296 118.229  1.00  0.00     0.214 C 
HETATM   14  C1  UNL     1      81.854   1.181 117.751  1.00  0.00     0.117 C 
HETATM   15  O1  UNL     1      83.951   0.138 117.545  1.00  0.00    -0.274 OA
ATOM     16  H1  UNL     1      81.971  -0.223 120.005  1.00  0.00     0.163 HD
ENDBRANCH   7  12
BRANCH   8  17
HETATM   17  O17 UNL     1      83.618  -3.529 120.738  1.00  0.00    -0.391 OA
ATOM     18  H17 UNL     1      83.239  -4.125 121.374  1.00  0.00     0.210 HD
ENDBRANCH   8  17
BRANCH   9  19
HETATM   19  O16 UNL     1      82.098  -2.208 123.022  1.00  0.00    -0.390 OA
ATOM     20  H16 UNL     1      82.307  -3.058 123.390  1.00  0.00     0.210 HD
ENDBRANCH   9  19
BRANCH  10  21
HETATM   21  C15 UNL     1      83.849  -0.059 123.948  1.00  0.00     0.198 C 
BRANCH  21  22
HETATM   22  O15 UNL     1      84.422   1.228 124.008  1.00  0.00    -0.398 OA
ATOM     23  H15 UNL     1      85.192   1.191 124.562  1.00  0.00     0.209 HD
ENDBRANCH  21  22
ENDBRANCH  10  21
ENDBRANCH   5   6
ENDBRANCH   2   5
ENDBRANCH   1   2
BRANCH   1  24
HETATM   24  P2  UNL     1      85.366   4.064 121.062  1.00  0.00     0.417 P 
HETATM   25  O6  UNL     1      84.381   3.313 121.958  1.00  0.00    -0.624 OA
HETATM   26  O7  UNL     1      84.334   4.019 119.754  1.00  0.00    -0.624 OA
BRANCH  24  27
HETATM   27  O8  UNL     1      85.425   5.377 122.017  1.00  0.00    -0.287 OA
BRANCH  27  28
HETATM   28  C5  UNL     1      84.273   5.717 122.674  1.00  0.00     0.216 C 
BRANCH  28  29
HETATM   29  C6  UNL     1      84.617   5.963 124.128  1.00  0.00     0.180 C 
HETATM   30  O9  UNL     1      83.638   6.691 124.780  1.00  0.00    -0.353 OA
HETATM   31  C7  UNL     1      83.968   6.496 126.127  1.00  0.00     0.263 C 
HETATM   32  C12 UNL     1      84.294   5.039 126.275  1.00  0.00     0.198 C 
HETATM   33  C13 UNL     1      84.512   4.613 124.831  1.00  0.00     0.182 C 
BRANCH  31  34
HETATM   34  N2  UNL     1      82.859   6.811 127.000  1.00  0.00    -0.280 N 
HETATM   35  C8  UNL     1      81.771   6.028 126.975  1.00  0.00     0.104 A 
HETATM   36  C9  UNL     1      80.726   6.356 127.822  1.00  0.00     0.092 A 
HETATM   37  C10 UNL     1      80.860   7.463 128.642  1.00  0.00     0.250 A 
HETATM   38  O10 UNL     1      79.884   7.721 129.395  1.00  0.00    -0.268 OA
HETATM   39  N3  UNL     1      81.967   8.232 128.645  1.00  0.00    -0.275 N 
HETATM   40  C11 UNL     1      82.974   7.883 127.802  1.00  0.00     0.331 A 
ATOM     41  H3  UNL     1      82.046   9.044 129.257  1.00  0.00     0.173 HD
HETATM   42  O11 UNL     1      84.014   8.611 127.809  1.00  0.00    -0.246 OA
ENDBRANCH  31  34
BRANCH  32  43
HETATM   43  O12 UNL     1      85.448   4.805 127.003  1.00  0.00    -0.388 OA
ATOM     44  H12 UNL     1      85.572   5.415 127.720  1.00  0.00     0.210 HD
ENDBRANCH  32  43
BRANCH  33  45
HETATM   45  O13 UNL     1      85.682   3.893 124.709  1.00  0.00    -0.390 OA
ATOM     46  H13 UNL     1      85.895   3.441 125.517  1.00  0.00     0.210 HD
ENDBRANCH  33  45
ENDBRANCH  28  29
ENDBRANCH  27  28
ENDBRANCH  24  27
ENDBRANCH   1  24
TORSDOF 15
ENDMDL
