MODEL 2
REMARK VINA RESULT: -5.120334536      4.357      8.291
REMARK  12 active torsions:
REMARK  status: ('A' for Active; 'I' for Inactive)
REMARK    1  A    between atoms: C2_2  and  C3_3 
REMARK    2  A    between atoms: C3_3  and  C4_4 
REMARK    3  A    between atoms: C4_4  and  C5_5 
REMARK    4  A    between atoms: C5_5  and  C6_6 
REMARK    5  A    between atoms: C6_6  and  C7_7 
REMARK    6  A    between atoms: C7_7  and  C8_8 
REMARK    7  A    between atoms: C8_8  and  C9_9 
REMARK    8  A    between atoms: C9_9  and  C10_10 
REMARK    9  A    between atoms: C10_10  and  C11_11 
REMARK   10  A    between atoms: C11_11  and  C12_12 
REMARK   11  A    between atoms: C12_12  and  C13_13 
REMARK   12  A    between atoms: C13_13  and  C14_14 
ROOT
HETATM    1  C8  UNL     1     -30.386 -21.527 -34.691  1.00  0.00     0.000 C 
ENDROOT
BRANCH   1   2
HETATM    2  C7  UNL     1     -31.430 -22.005 -33.718  1.00  0.00     0.000 C 
BRANCH   2   3
HETATM    3  C6  UNL     1     -32.584 -21.058 -33.542  1.00  0.00     0.000 C 
BRANCH   3   4
HETATM    4  C5  UNL     1     -32.166 -19.639 -33.770  1.00  0.00     0.000 C 
BRANCH   4   5
HETATM    5  C4  UNL     1     -32.943 -18.664 -32.929  1.00  0.00     0.000 C 
BRANCH   5   6
HETATM    6  C3  UNL     1     -32.175 -17.422 -32.635  1.00  0.00    -0.000 C 
BRANCH   6   7
HETATM    7  C2  UNL     1     -30.852 -17.468 -33.383  1.00  0.00    -0.005 C 
HETATM    8  C1  UNL     1     -29.802 -16.757 -32.539  1.00  0.00     0.005 C 
ENDBRANCH   6   7
ENDBRANCH   5   6
ENDBRANCH   4   5
ENDBRANCH   3   4
ENDBRANCH   2   3
ENDBRANCH   1   2
BRANCH   1   9
HETATM    9  C9  UNL     1     -30.124 -22.510 -35.795  1.00  0.00     0.000 C 
BRANCH   9  10
HETATM   10  C10 UNL     1     -31.323 -23.189 -36.322  1.00  0.00     0.000 C 
BRANCH  10  11
HETATM   11  C11 UNL     1     -31.138 -24.297 -37.278  1.00  0.00     0.001 C 
BRANCH  11  12
HETATM   12  C12 UNL     1     -29.742 -24.700 -37.568  1.00  0.00     0.010 C 
BRANCH  12  13
HETATM   13  C13 UNL     1     -29.385 -24.618 -39.037  1.00  0.00     0.113 C 
BRANCH  13  14
HETATM   14  C14 UNL     1     -28.522 -25.756 -39.427  1.00  0.00     0.172 C 
HETATM   15  O1  UNL     1     -27.319 -25.549 -39.682  1.00  0.00    -0.648 OA
HETATM   16  O2  UNL     1     -29.026 -27.040 -39.511  1.00  0.00    -0.648 OA
ENDBRANCH  13  14
ENDBRANCH  12  13
ENDBRANCH  11  12
ENDBRANCH  10  11
ENDBRANCH   9  10
ENDBRANCH   1   9
TORSDOF 12
ENDMDL
