MODEL 1
REMARK VINA RESULT: -6.228153191      0.000      0.000
REMARK  1 active torsions:
REMARK  status: ('A' for Active; 'I' for Inactive)
REMARK    1  A    between atoms: C7_8  and  C8_9 
ROOT
HETATM    1  C1  UNL     1       7.944  -3.019  29.575  1.00  0.00     0.048 C 
HETATM    2  C2  UNL     1       7.836  -3.984  28.451  1.00  0.00    -0.060 A 
HETATM    3  C3  UNL     1       8.571  -3.805  27.305  1.00  0.00     0.015 A 
HETATM    4  C4  UNL     1       8.492  -4.693  26.232  1.00  0.00    -0.036 A 
HETATM    5  C5  UNL     1       9.286  -4.504  24.990  1.00  0.00     0.050 C 
HETATM    6  C6  UNL     1       7.634  -5.784  26.354  1.00  0.00     0.069 A 
HETATM    7  N1  UNL     1       7.525  -6.712  25.283  1.00  0.00    -0.101 NA
HETATM    8  C7  UNL     1       6.884  -5.988  27.494  1.00  0.00     0.066 A 
HETATM    9  C9  UNL     1       6.995  -5.089  28.520  1.00  0.00     0.027 A 
ENDROOT
BRANCH   8  10
HETATM   10  C8  UNL     1       6.000  -7.149  27.569  1.00  0.00     0.211 C 
HETATM   11  O1  UNL     1       4.769  -7.080  27.328  1.00  0.00    -0.644 OA
HETATM   12  O2  UNL     1       6.503  -8.390  27.916  1.00  0.00    -0.644 OA
ENDBRANCH   8  10
TORSDOF 1
ENDMDL
