MODEL 19
REMARK VINA RESULT: -5.287450725      1.501      1.941
REMARK  1 active torsions:
REMARK  status: ('A' for Active; 'I' for Inactive)
REMARK    1  A    between atoms: C7_8  and  C8_9 
ROOT
HETATM    1  C1  UNL     1       7.123  -4.661  29.210  1.00  0.00     0.048 C 
HETATM    2  C2  UNL     1       7.395  -5.079  27.811  1.00  0.00    -0.060 A 
HETATM    3  C3  UNL     1       8.320  -4.406  27.050  1.00  0.00     0.015 A 
HETATM    4  C4  UNL     1       8.599  -4.774  25.734  1.00  0.00    -0.036 A 
HETATM    5  C5  UNL     1       9.599  -4.049  24.906  1.00  0.00     0.050 C 
HETATM    6  C6  UNL     1       7.905  -5.857  25.202  1.00  0.00     0.069 A 
HETATM    7  N1  UNL     1       8.160  -6.263  23.862  1.00  0.00    -0.101 NA
HETATM    8  C7  UNL     1       6.970  -6.551  25.943  1.00  0.00     0.066 A 
HETATM    9  C9  UNL     1       6.731  -6.153  27.230  1.00  0.00     0.027 A 
ENDROOT
BRANCH   8  10
HETATM   10  C8  UNL     1       6.271  -7.680  25.334  1.00  0.00     0.211 C 
HETATM   11  O1  UNL     1       6.827  -8.785  25.119  1.00  0.00    -0.644 OA
HETATM   12  O2  UNL     1       4.942  -7.564  24.965  1.00  0.00    -0.644 OA
ENDBRANCH   8  10
TORSDOF 1
ENDMDL
