MODEL 6
REMARK VINA RESULT: -5.804469941      7.327      8.397
REMARK  1 active torsions:
REMARK  status: ('A' for Active; 'I' for Inactive)
REMARK    1  A    between atoms: C7_8  and  C8_9 
ROOT
HETATM    1  C1  UNL     1       0.488  -4.965  35.377  1.00  0.00     0.048 C 
HETATM    2  C2  UNL     1       1.826  -4.663  34.808  1.00  0.00    -0.060 A 
HETATM    3  C3  UNL     1       2.098  -3.420  34.288  1.00  0.00     0.015 A 
HETATM    4  C4  UNL     1       3.344  -3.105  33.746  1.00  0.00    -0.036 A 
HETATM    5  C5  UNL     1       3.643  -1.762  33.184  1.00  0.00     0.050 C 
HETATM    6  C6  UNL     1       4.321  -4.096  33.745  1.00  0.00     0.069 A 
HETATM    7  N1  UNL     1       5.605  -3.815  33.201  1.00  0.00    -0.101 NA
HETATM    8  C7  UNL     1       4.075  -5.353  34.259  1.00  0.00     0.066 A 
HETATM    9  C9  UNL     1       2.837  -5.616  34.780  1.00  0.00     0.027 A 
ENDROOT
BRANCH   8  10
HETATM   10  C8  UNL     1       5.137  -6.356  34.231  1.00  0.00     0.211 C 
HETATM   11  O1  UNL     1       5.931  -6.530  35.188  1.00  0.00    -0.644 OA
HETATM   12  O2  UNL     1       5.306  -7.166  33.122  1.00  0.00    -0.644 OA
ENDBRANCH   8  10
TORSDOF 1
ENDMDL
