MODEL 4
REMARK VINA RESULT: -5.963076438      6.101      7.584
REMARK  1 active torsions:
REMARK  status: ('A' for Active; 'I' for Inactive)
REMARK    1  A    between atoms: C7_8  and  C8_9 
ROOT
HETATM    1  C1  UNL     1       3.256  -1.649  33.801  1.00  0.00     0.048 C 
HETATM    2  C2  UNL     1       3.779  -3.038  33.734  1.00  0.00    -0.060 A 
HETATM    3  C3  UNL     1       3.083  -4.073  34.310  1.00  0.00     0.015 A 
HETATM    4  C4  UNL     1       3.547  -5.388  34.264  1.00  0.00    -0.036 A 
HETATM    5  C5  UNL     1       2.797  -6.511  34.886  1.00  0.00     0.050 C 
HETATM    6  C6  UNL     1       4.752  -5.629  33.610  1.00  0.00     0.069 A 
HETATM    7  N1  UNL     1       5.259  -6.956  33.542  1.00  0.00    -0.101 NA
HETATM    8  C7  UNL     1       5.472  -4.608  33.024  1.00  0.00     0.066 A 
HETATM    9  C9  UNL     1       4.977  -3.334  33.094  1.00  0.00     0.027 A 
ENDROOT
BRANCH   8  10
HETATM   10  C8  UNL     1       6.731  -4.918  32.350  1.00  0.00     0.211 C 
HETATM   11  O1  UNL     1       7.838  -4.897  32.941  1.00  0.00    -0.644 OA
HETATM   12  O2  UNL     1       6.743  -5.251  31.007  1.00  0.00    -0.644 OA
ENDBRANCH   8  10
TORSDOF 1
ENDMDL
