MODEL 7
REMARK VINA RESULT: -5.666104177      7.286      8.552
REMARK  1 active torsions:
REMARK  status: ('A' for Active; 'I' for Inactive)
REMARK    1  A    between atoms: C7_8  and  C8_9 
ROOT
HETATM    1  C1  UNL     1       3.298  -1.533  33.809  1.00  0.00     0.048 C 
HETATM    2  C2  UNL     1       3.121  -3.000  33.956  1.00  0.00    -0.060 A 
HETATM    3  C3  UNL     1       1.887  -3.527  34.254  1.00  0.00     0.015 A 
HETATM    4  C4  UNL     1       1.686  -4.899  34.398  1.00  0.00    -0.036 A 
HETATM    5  C5  UNL     1       0.353  -5.473  34.720  1.00  0.00     0.050 C 
HETATM    6  C6  UNL     1       2.786  -5.737  34.231  1.00  0.00     0.069 A 
HETATM    7  N1  UNL     1       2.624  -7.143  34.371  1.00  0.00    -0.101 NA
HETATM    8  C7  UNL     1       4.037  -5.236  33.932  1.00  0.00     0.066 A 
HETATM    9  C9  UNL     1       4.184  -3.881  33.800  1.00  0.00     0.027 A 
ENDROOT
BRANCH   8  10
HETATM   10  C8  UNL     1       5.156  -6.160  33.768  1.00  0.00     0.211 C 
HETATM   11  O1  UNL     1       5.486  -6.633  32.652  1.00  0.00    -0.644 OA
HETATM   12  O2  UNL     1       5.904  -6.555  34.862  1.00  0.00    -0.644 OA
ENDBRANCH   8  10
TORSDOF 1
ENDMDL
