MODEL 16
REMARK VINA RESULT: -5.339069813      1.479      1.990
REMARK  1 active torsions:
REMARK  status: ('A' for Active; 'I' for Inactive)
REMARK    1  A    between atoms: C7_8  and  C8_9 
ROOT
HETATM    1  C1  UNL     1       8.649  -3.814  27.248  1.00  0.00     0.048 C 
HETATM    2  C2  UNL     1       8.013  -5.040  26.703  1.00  0.00    -0.060 A 
HETATM    3  C3  UNL     1       8.168  -5.376  25.380  1.00  0.00     0.015 A 
HETATM    4  C4  UNL     1       7.584  -6.520  24.837  1.00  0.00    -0.036 A 
HETATM    5  C5  UNL     1       7.749  -6.888  23.406  1.00  0.00     0.050 C 
HETATM    6  C6  UNL     1       6.827  -7.326  25.683  1.00  0.00     0.069 A 
HETATM    7  N1  UNL     1       6.214  -8.502  25.167  1.00  0.00    -0.101 NA
HETATM    8  C7  UNL     1       6.654  -7.013  27.015  1.00  0.00     0.066 A 
HETATM    9  C9  UNL     1       7.247  -5.879  27.503  1.00  0.00     0.027 A 
ENDROOT
BRANCH   8  10
HETATM   10  C8  UNL     1       5.849  -7.894  27.858  1.00  0.00     0.211 C 
HETATM   11  O1  UNL     1       4.609  -7.755  27.994  1.00  0.00    -0.644 OA
HETATM   12  O2  UNL     1       6.443  -8.935  28.550  1.00  0.00    -0.644 OA
ENDBRANCH   8  10
TORSDOF 1
ENDMDL
