MODEL 14
REMARK VINA RESULT: -3.924449764      1.368      3.929
REMARK  5 active torsions:
REMARK  status: ('A' for Active; 'I' for Inactive)
REMARK    1  A    between atoms: C1_2  and  C2_4 
REMARK    2  A    between atoms: C3_6  and  O4_7 
REMARK    3  A    between atoms: C4_9  and  O5_10 
REMARK    4  A    between atoms: C5_12  and  O6_13 
REMARK    5  A    between atoms: C6_15  and  O7_16 
ROOT
HETATM    1  C2  UNL     1     -63.022  14.538   7.328  1.00  0.00     0.256 C 
HETATM    2  O3  UNL     1     -63.084  13.371   8.041  1.00  0.00    -0.340 OA
HETATM    3  C3  UNL     1     -62.835  12.229   7.314  1.00  0.00     0.289 C 
HETATM    4  C4  UNL     1     -61.426  12.183   6.749  1.00  0.00     0.204 C 
HETATM    5  C5  UNL     1     -60.867  13.597   6.743  1.00  0.00     0.183 C 
HETATM    6  C6  UNL     1     -62.005  14.466   6.206  1.00  0.00     0.189 C 
ENDROOT
BRANCH   1   7
HETATM    7  C1  UNL     1     -64.330  15.031   6.868  1.00  0.00     0.206 C 
HETATM    8  O1  UNL     1     -64.635  14.897   5.664  1.00  0.00    -0.646 OA
HETATM    9  O2  UNL     1     -65.228  15.635   7.721  1.00  0.00    -0.646 OA
ENDBRANCH   1   7
BRANCH   6  10
HETATM   10  O7  UNL     1     -61.562  15.706   5.810  1.00  0.00    -0.390 OA
ATOM     11  H7  UNL     1     -60.968  15.664   5.069  1.00  0.00     0.210 HD
ENDBRANCH   6  10
BRANCH   3  12
HETATM   12  O4  UNL     1     -63.778  11.965   6.338  1.00  0.00    -0.368 OA
ATOM     13  H4  UNL     1     -63.468  12.105   5.452  1.00  0.00     0.212 HD
ENDBRANCH   3  12
BRANCH   5  14
HETATM   14  O6  UNL     1     -59.733  13.706   5.972  1.00  0.00    -0.390 OA
ATOM     15  H6  UNL     1     -59.148  14.386   6.285  1.00  0.00     0.210 HD
ENDBRANCH   5  14
BRANCH   4  16
HETATM   16  O5  UNL     1     -60.613  11.287   7.399  1.00  0.00    -0.388 OA
ATOM     17  H5  UNL     1     -60.369  10.544   6.859  1.00  0.00     0.210 HD
ENDBRANCH   4  16
TORSDOF 5
ENDMDL
