MODEL 7
REMARK VINA RESULT: -5.385987574      1.408      2.706
REMARK  5 active torsions:
REMARK  status: ('A' for Active; 'I' for Inactive)
REMARK    1  A    between atoms: C1_2  and  C2_4 
REMARK    2  A    between atoms: C3_6  and  O4_7 
REMARK    3  A    between atoms: C4_9  and  O5_10 
REMARK    4  A    between atoms: C5_12  and  O6_13 
REMARK    5  A    between atoms: C6_15  and  O7_16 
ROOT
HETATM    1  C2  UNL     1     -62.033  14.144   7.506  1.00  0.00     0.256 C 
HETATM    2  O3  UNL     1     -61.741  15.291   6.820  1.00  0.00    -0.340 OA
HETATM    3  C3  UNL     1     -62.591  15.580   5.777  1.00  0.00     0.289 C 
HETATM    4  C4  UNL     1     -64.018  15.834   6.229  1.00  0.00     0.204 C 
HETATM    5  C5  UNL     1     -64.193  15.236   7.617  1.00  0.00     0.183 C 
HETATM    6  C6  UNL     1     -63.523  13.864   7.540  1.00  0.00     0.189 C 
ENDROOT
BRANCH   1   7
HETATM    7  C1  UNL     1     -61.252  12.972   7.078  1.00  0.00     0.206 C 
HETATM    8  O1  UNL     1     -60.846  12.169   7.944  1.00  0.00    -0.646 OA
HETATM    9  O2  UNL     1     -60.954  12.734   5.754  1.00  0.00    -0.646 OA
ENDBRANCH   1   7
BRANCH   6  10
HETATM   10  O7  UNL     1     -63.888  13.054   8.589  1.00  0.00    -0.390 OA
ATOM     11  H7  UNL     1     -64.655  12.526   8.396  1.00  0.00     0.210 HD
ENDBRANCH   6  10
BRANCH   3  12
HETATM   12  O4  UNL     1     -62.545  14.663   4.743  1.00  0.00    -0.368 OA
ATOM     13  H4  UNL     1     -63.253  14.031   4.755  1.00  0.00     0.212 HD
ENDBRANCH   3  12
BRANCH   5  14
HETATM   14  O6  UNL     1     -65.516  15.139   7.980  1.00  0.00    -0.390 OA
ATOM     15  H6  UNL     1     -65.627  14.746   8.837  1.00  0.00     0.210 HD
ENDBRANCH   5  14
BRANCH   4  16
HETATM   16  O5  UNL     1     -64.377  17.158   6.166  1.00  0.00    -0.388 OA
ATOM     17  H5  UNL     1     -64.499  17.554   7.021  1.00  0.00     0.210 HD
ENDBRANCH   4  16
TORSDOF 5
ENDMDL
