MODEL 20
REMARK VINA RESULT: -2.205364926      4.570      6.736
REMARK  5 active torsions:
REMARK  status: ('A' for Active; 'I' for Inactive)
REMARK    1  A    between atoms: C1_2  and  C2_4 
REMARK    2  A    between atoms: C3_6  and  O4_7 
REMARK    3  A    between atoms: C4_9  and  O5_10 
REMARK    4  A    between atoms: C5_12  and  O6_13 
REMARK    5  A    between atoms: C6_15  and  O7_16 
ROOT
HETATM    1  C2  UNL     1     -57.554  12.476   5.294  1.00  0.00     0.256 C 
HETATM    2  O3  UNL     1     -58.545  13.223   5.871  1.00  0.00    -0.340 OA
HETATM    3  C3  UNL     1     -59.757  12.583   6.002  1.00  0.00     0.289 C 
HETATM    4  C4  UNL     1     -59.692  11.377   6.922  1.00  0.00     0.204 C 
HETATM    5  C5  UNL     1     -58.238  10.949   7.047  1.00  0.00     0.183 C 
HETATM    6  C6  UNL     1     -57.691  11.002   5.620  1.00  0.00     0.189 C 
ENDROOT
BRANCH   1   7
HETATM    7  C1  UNL     1     -57.381  12.718   3.853  1.00  0.00     0.206 C 
HETATM    8  O1  UNL     1     -57.985  11.984   3.042  1.00  0.00    -0.646 OA
HETATM    9  O2  UNL     1     -56.574  13.724   3.370  1.00  0.00    -0.646 OA
ENDBRANCH   1   7
BRANCH   6  10
HETATM   10  O7  UNL     1     -56.504  10.318   5.500  1.00  0.00    -0.390 OA
ATOM     11  H7  UNL     1     -56.507   9.699   4.780  1.00  0.00     0.210 HD
ENDBRANCH   6  10
BRANCH   3  12
HETATM   12  O4  UNL     1     -60.362  12.269   4.800  1.00  0.00    -0.368 OA
ATOM     13  H4  UNL     1     -60.703  11.384   4.758  1.00  0.00     0.212 HD
ENDBRANCH   3  12
BRANCH   5  14
HETATM   14  O6  UNL     1     -58.110   9.695   7.597  1.00  0.00    -0.390 OA
ATOM     15  H6  UNL     1     -57.225   9.522   7.898  1.00  0.00     0.210 HD
ENDBRANCH   5  14
BRANCH   4  16
HETATM   16  O5  UNL     1     -60.295  11.591   8.137  1.00  0.00    -0.388 OA
ATOM     17  H5  UNL     1     -60.064  10.940   8.789  1.00  0.00     0.210 HD
ENDBRANCH   4  16
TORSDOF 5
ENDMDL
