MODEL 5
REMARK VINA RESULT: -5.543925859      1.499      3.019
REMARK  5 active torsions:
REMARK  status: ('A' for Active; 'I' for Inactive)
REMARK    1  A    between atoms: C1_2  and  C2_4 
REMARK    2  A    between atoms: C3_6  and  O4_7 
REMARK    3  A    between atoms: C4_9  and  O5_10 
REMARK    4  A    between atoms: C5_12  and  O6_13 
REMARK    5  A    between atoms: C6_15  and  O7_16 
ROOT
HETATM    1  C2  UNL     1     -61.924  12.810   7.210  1.00  0.00     0.256 C 
HETATM    2  O3  UNL     1     -61.825  14.030   7.823  1.00  0.00    -0.340 OA
HETATM    3  C3  UNL     1     -62.211  15.104   7.052  1.00  0.00     0.289 C 
HETATM    4  C4  UNL     1     -63.679  15.059   6.669  1.00  0.00     0.204 C 
HETATM    5  C5  UNL     1     -64.174  13.630   6.836  1.00  0.00     0.183 C 
HETATM    6  C6  UNL     1     -63.075  12.761   6.224  1.00  0.00     0.189 C 
ENDROOT
BRANCH   1   7
HETATM    7  C1  UNL     1     -60.663  12.327   6.626  1.00  0.00     0.206 C 
HETATM    8  O1  UNL     1     -60.423  12.572   5.424  1.00  0.00    -0.646 OA
HETATM    9  O2  UNL     1     -59.741  11.614   7.359  1.00  0.00    -0.646 OA
ENDBRANCH   1   7
BRANCH   6  10
HETATM   10  O7  UNL     1     -63.510  11.481   5.978  1.00  0.00    -0.390 OA
ATOM     11  H7  UNL     1     -62.816  10.910   5.667  1.00  0.00     0.210 HD
ENDBRANCH   6  10
BRANCH   3  12
HETATM   12  O4  UNL     1     -61.407  15.323   5.949  1.00  0.00    -0.368 OA
ATOM     13  H4  UNL     1     -61.392  16.225   5.654  1.00  0.00     0.212 HD
ENDBRANCH   3  12
BRANCH   5  14
HETATM   14  O6  UNL     1     -65.388  13.424   6.224  1.00  0.00    -0.390 OA
ATOM     15  H6  UNL     1     -65.591  14.100   5.589  1.00  0.00     0.210 HD
ENDBRANCH   5  14
BRANCH   4  16
HETATM   16  O5  UNL     1     -64.443  15.975   7.349  1.00  0.00    -0.388 OA
ATOM     17  H5  UNL     1     -64.957  15.587   8.048  1.00  0.00     0.210 HD
ENDBRANCH   4  16
TORSDOF 5
ENDMDL
