MODEL 18
REMARK VINA RESULT: -2.359895482      6.289      8.863
REMARK  5 active torsions:
REMARK  status: ('A' for Active; 'I' for Inactive)
REMARK    1  A    between atoms: C1_2  and  C2_4 
REMARK    2  A    between atoms: C3_6  and  O4_7 
REMARK    3  A    between atoms: C4_9  and  O5_10 
REMARK    4  A    between atoms: C5_12  and  O6_13 
REMARK    5  A    between atoms: C6_15  and  O7_16 
ROOT
HETATM    1  C2  UNL     1     -57.720  10.260   5.827  1.00  0.00     0.256 C 
HETATM    2  O3  UNL     1     -56.733   9.405   5.416  1.00  0.00    -0.340 OA
HETATM    3  C3  UNL     1     -55.721   9.200   6.327  1.00  0.00     0.289 C 
HETATM    4  C4  UNL     1     -56.202   8.538   7.605  1.00  0.00     0.204 C 
HETATM    5  C5  UNL     1     -57.708   8.728   7.705  1.00  0.00     0.183 C 
HETATM    6  C6  UNL     1     -57.944  10.190   7.325  1.00  0.00     0.189 C 
ENDROOT
BRANCH   1   7
HETATM    7  C1  UNL     1     -57.556  11.642   5.348  1.00  0.00     0.206 C 
HETATM    8  O1  UNL     1     -58.563  12.379   5.280  1.00  0.00    -0.646 OA
HETATM    9  O2  UNL     1     -56.332  12.148   4.972  1.00  0.00    -0.646 OA
ENDBRANCH   1   7
BRANCH   6  10
HETATM   10  O7  UNL     1     -59.196  10.621   7.696  1.00  0.00    -0.390 OA
ATOM     11  H7  UNL     1     -59.336  11.543   7.512  1.00  0.00     0.210 HD
ENDBRANCH   6  10
BRANCH   3  12
HETATM   12  O4  UNL     1     -54.967  10.327   6.594  1.00  0.00    -0.368 OA
ATOM     13  H4  UNL     1     -55.472  11.061   6.922  1.00  0.00     0.212 HD
ENDBRANCH   3  12
BRANCH   5  14
HETATM   14  O6  UNL     1     -58.187   8.443   8.962  1.00  0.00    -0.390 OA
ATOM     15  H6  UNL     1     -59.134   8.369   8.979  1.00  0.00     0.210 HD
ENDBRANCH   5  14
BRANCH   4  16
HETATM   16  O5  UNL     1     -55.819   7.224   7.710  1.00  0.00    -0.388 OA
ATOM     17  H5  UNL     1     -56.426   6.623   7.296  1.00  0.00     0.210 HD
ENDBRANCH   4  16
TORSDOF 5
ENDMDL
