MODEL 6
REMARK VINA RESULT: -7.841222467      2.020      4.039
REMARK  2 active torsions:
REMARK  status: ('A' for Active; 'I' for Inactive)
REMARK    1  A    between atoms: O1_2  and  C2_3 
REMARK    2  A    between atoms: C11_18  and  N4_19 
ROOT
HETATM    1  C2  UNL     1       4.926  12.277  40.615  1.00  0.00     0.069 A 
HETATM    2  C3  UNL     1       4.179  13.366  40.216  1.00  0.00     0.045 A 
HETATM    3  C4  UNL     1       3.618  14.241  41.119  1.00  0.00    -0.032 A 
HETATM    4  C5  UNL     1       2.824  15.397  40.655  1.00  0.00     0.050 C 
HETATM    5  C6  UNL     1       3.828  13.994  42.470  1.00  0.00     0.052 A 
HETATM    6  N1  UNL     1       3.280  14.845  43.328  1.00  0.00    -0.339 N 
ATOM      7  H1  UNL     1       2.736  15.635  42.980  1.00  0.00     0.167 HD
HETATM    8  C7  UNL     1       3.436  14.672  44.661  1.00  0.00     0.135 A 
HETATM    9  N2  UNL     1       2.991  15.371  45.734  1.00  0.00    -0.284 N 
ATOM     10  H2  UNL     1       2.420  16.215  45.700  1.00  0.00     0.188 HD
HETATM   11  N3  UNL     1       3.422  14.776  46.823  1.00  0.00    -0.303 N 
ATOM     12  H3  UNL     1       3.237  15.086  47.777  1.00  0.00     0.186 HD
HETATM   13  C8  UNL     1       4.146  13.692  46.482  1.00  0.00     0.038 A 
HETATM   14  C9  UNL     1       4.772  12.785  47.443  1.00  0.00     0.071 C 
HETATM   15  C10 UNL     1       4.173  13.601  45.124  1.00  0.00     0.060 A 
HETATM   16  C11 UNL     1       4.762  12.691  44.258  1.00  0.00     0.059 A 
HETATM   17  C16 UNL     1       4.573  12.911  42.913  1.00  0.00     0.021 A 
HETATM   18  C17 UNL     1       5.107  12.075  41.989  1.00  0.00     0.053 A 
ENDROOT
BRANCH  16  19
HETATM   19  N4  UNL     1       5.533  11.598  44.685  1.00  0.00    -0.376 N 
HETATM   20  C12 UNL     1       4.872  10.323  45.001  1.00  0.00     0.150 C 
HETATM   21  C13 UNL     1       5.958   9.293  45.171  1.00  0.00     0.252 C 
HETATM   22  N5  UNL     1       6.777   9.649  46.338  1.00  0.00    -0.072 N 
HETATM   23  C14 UNL     1       7.366  10.947  46.201  1.00  0.00     0.252 C 
ATOM     24  H52 UNL     1       6.242   9.574  47.204  1.00  0.00     0.277 HD
ATOM     25  H51 UNL     1       7.485   8.939  46.525  1.00  0.00     0.277 HD
HETATM   26  C15 UNL     1       6.971  11.594  44.863  1.00  0.00     0.150 C 
ENDBRANCH  16  19
BRANCH   1  27
HETATM   27  O1  UNL     1       5.500  11.384  39.717  1.00  0.00    -0.356 OA
HETATM   28  C1  UNL     1       6.471  10.487  40.233  1.00  0.00     0.210 C 
ENDBRANCH   1  27
TORSDOF 2
ENDMDL
