MODEL 7
REMARK VINA RESULT: -7.713900412      1.604      2.198
REMARK  2 active torsions:
REMARK  status: ('A' for Active; 'I' for Inactive)
REMARK    1  A    between atoms: O1_2  and  C2_3 
REMARK    2  A    between atoms: C11_18  and  N4_19 
ROOT
HETATM    1  C2  UNL     1       5.323  11.930  43.407  1.00  0.00     0.069 A 
HETATM    2  C3  UNL     1       4.651  12.528  44.451  1.00  0.00     0.045 A 
HETATM    3  C4  UNL     1       4.917  12.222  45.767  1.00  0.00    -0.032 A 
HETATM    4  C5  UNL     1       4.176  12.884  46.861  1.00  0.00     0.050 C 
HETATM    5  C6  UNL     1       5.902  11.274  46.021  1.00  0.00     0.052 A 
HETATM    6  N1  UNL     1       6.146  10.988  47.293  1.00  0.00    -0.339 N 
ATOM      7  H1  UNL     1       5.619  11.461  48.028  1.00  0.00     0.167 HD
HETATM    8  C7  UNL     1       7.088  10.074  47.623  1.00  0.00     0.135 A 
HETATM    9  N2  UNL     1       7.527   9.600  48.814  1.00  0.00    -0.284 N 
ATOM     10  H2  UNL     1       7.186   9.886  49.732  1.00  0.00     0.188 HD
HETATM   11  N3  UNL     1       8.465   8.710  48.585  1.00  0.00    -0.303 N 
ATOM     12  H3  UNL     1       8.972   8.190  49.301  1.00  0.00     0.186 HD
HETATM   13  C8  UNL     1       8.651   8.590  47.255  1.00  0.00     0.038 A 
HETATM   14  C9  UNL     1       9.614   7.680  46.637  1.00  0.00     0.071 C 
HETATM   15  C10 UNL     1       7.796   9.441  46.622  1.00  0.00     0.060 A 
HETATM   16  C11 UNL     1       7.570   9.713  45.281  1.00  0.00     0.059 A 
HETATM   17  C16 UNL     1       6.601  10.649  44.999  1.00  0.00     0.021 A 
HETATM   18  C17 UNL     1       6.306  10.982  43.718  1.00  0.00     0.053 A 
ENDROOT
BRANCH  16  19
HETATM   19  N4  UNL     1       8.278   9.105  44.233  1.00  0.00    -0.376 N 
HETATM   20  C12 UNL     1       9.527   9.713  43.752  1.00  0.00     0.150 C 
HETATM   21  C13 UNL     1      10.175   8.716  42.827  1.00  0.00     0.252 C 
HETATM   22  N5  UNL     1       9.315   8.524  41.651  1.00  0.00    -0.072 N 
HETATM   23  C14 UNL     1       8.010   8.060  42.015  1.00  0.00     0.252 C 
ATOM     24  H52 UNL     1       9.263   9.372  41.086  1.00  0.00     0.277 HD
ATOM     25  H51 UNL     1       9.752   7.904  40.969  1.00  0.00     0.277 HD
HETATM   26  C15 UNL     1       7.889   7.894  43.538  1.00  0.00     0.150 C 
ENDBRANCH  16  19
BRANCH   1  27
HETATM   27  O1  UNL     1       5.067  12.227  42.073  1.00  0.00    -0.356 OA
HETATM   28  C1  UNL     1       4.251  13.358  41.810  1.00  0.00     0.210 C 
ENDBRANCH   1  27
TORSDOF 2
ENDMDL
