MODEL 3
REMARK VINA RESULT: -8.207361188      1.201      1.798
REMARK  2 active torsions:
REMARK  status: ('A' for Active; 'I' for Inactive)
REMARK    1  A    between atoms: O1_2  and  C2_3 
REMARK    2  A    between atoms: C11_18  and  N4_19 
ROOT
HETATM    1  C2  UNL     1       4.506  13.002  44.574  1.00  0.00     0.069 A 
HETATM    2  C3  UNL     1       4.099  13.403  45.830  1.00  0.00     0.045 A 
HETATM    3  C4  UNL     1       4.595  12.829  46.979  1.00  0.00    -0.032 A 
HETATM    4  C5  UNL     1       4.136  13.285  48.308  1.00  0.00     0.050 C 
HETATM    5  C6  UNL     1       5.534  11.814  46.839  1.00  0.00     0.052 A 
HETATM    6  N1  UNL     1       6.000  11.269  47.956  1.00  0.00    -0.339 N 
ATOM      7  H1  UNL     1       5.666  11.604  48.860  1.00  0.00     0.167 HD
HETATM    8  C7  UNL     1       6.915  10.274  47.903  1.00  0.00     0.135 A 
HETATM    9  N2  UNL     1       7.541   9.554  48.865  1.00  0.00    -0.284 N 
ATOM     10  H2  UNL     1       7.411   9.662  49.871  1.00  0.00     0.188 HD
HETATM   11  N3  UNL     1       8.345   8.694  48.283  1.00  0.00    -0.303 N 
ATOM     12  H3  UNL     1       8.942   8.022  48.766  1.00  0.00     0.186 HD
HETATM   13  C8  UNL     1       8.256   8.837  46.945  1.00  0.00     0.038 A 
HETATM   14  C9  UNL     1       9.006   8.034  45.980  1.00  0.00     0.071 C 
HETATM   15  C10 UNL     1       7.362   9.828  46.676  1.00  0.00     0.060 A 
HETATM   16  C11 UNL     1       6.899  10.373  45.487  1.00  0.00     0.059 A 
HETATM   17  C16 UNL     1       5.968  11.382  45.595  1.00  0.00     0.021 A 
HETATM   18  C17 UNL     1       5.454  11.975  44.490  1.00  0.00     0.053 A 
ENDROOT
BRANCH  16  19
HETATM   19  N4  UNL     1       7.338   9.961  44.219  1.00  0.00    -0.376 N 
HETATM   20  C12 UNL     1       8.526  10.589  43.623  1.00  0.00     0.150 C 
HETATM   21  C13 UNL     1       8.894   9.776  42.410  1.00  0.00     0.252 C 
HETATM   22  N5  UNL     1       7.814   9.881  41.418  1.00  0.00    -0.072 N 
HETATM   23  C14 UNL     1       6.563   9.422  41.941  1.00  0.00     0.252 C 
ATOM     24  H52 UNL     1       7.737  10.831  41.052  1.00  0.00     0.277 HD
ATOM     25  H51 UNL     1       8.055   9.396  40.554  1.00  0.00     0.277 HD
HETATM   26  C15 UNL     1       6.714   8.945  43.395  1.00  0.00     0.150 C 
ENDBRANCH  16  19
BRANCH   1  27
HETATM   27  O1  UNL     1       4.016  13.570  43.404  1.00  0.00    -0.356 OA
HETATM   28  C1  UNL     1       4.431  12.983  42.180  1.00  0.00     0.210 C 
ENDBRANCH   1  27
TORSDOF 2
ENDMDL
