MODEL 4
REMARK VINA RESULT: -8.087009620      1.339      2.136
REMARK  2 active torsions:
REMARK  status: ('A' for Active; 'I' for Inactive)
REMARK    1  A    between atoms: O1_2  and  C2_3 
REMARK    2  A    between atoms: C11_18  and  N4_19 
ROOT
HETATM    1  C2  UNL     1       4.982  13.019  44.330  1.00  0.00     0.069 A 
HETATM    2  C3  UNL     1       4.410  13.403  45.524  1.00  0.00     0.045 A 
HETATM    3  C4  UNL     1       4.754  12.821  46.724  1.00  0.00    -0.032 A 
HETATM    4  C5  UNL     1       4.119  13.259  47.984  1.00  0.00     0.050 C 
HETATM    5  C6  UNL     1       5.713  11.815  46.699  1.00  0.00     0.052 A 
HETATM    6  N1  UNL     1       6.032  11.262  47.863  1.00  0.00    -0.339 N 
ATOM      7  H1  UNL     1       5.578  11.584  48.718  1.00  0.00     0.167 HD
HETATM    8  C7  UNL     1       6.955  10.274  47.922  1.00  0.00     0.135 A 
HETATM    9  N2  UNL     1       7.455   9.550  48.952  1.00  0.00    -0.284 N 
ATOM     10  H2  UNL     1       7.192   9.646  49.933  1.00  0.00     0.188 HD
HETATM   11  N3  UNL     1       8.337   8.702  48.473  1.00  0.00    -0.303 N 
ATOM     12  H3  UNL     1       8.870   8.030  49.025  1.00  0.00     0.186 HD
HETATM   13  C8  UNL     1       8.425   8.859  47.137  1.00  0.00     0.038 A 
HETATM   14  C9  UNL     1       9.304   8.073  46.272  1.00  0.00     0.071 C 
HETATM   15  C10 UNL     1       7.565   9.846  46.761  1.00  0.00     0.060 A 
HETATM   16  C11 UNL     1       7.258  10.399  45.527  1.00  0.00     0.059 A 
HETATM   17  C16 UNL     1       6.312  11.400  45.520  1.00  0.00     0.021 A 
HETATM   18  C17 UNL     1       5.944  12.001  44.362  1.00  0.00     0.053 A 
ENDROOT
BRANCH  16  19
HETATM   19  N4  UNL     1       7.865  10.005  44.324  1.00  0.00    -0.376 N 
HETATM   20  C12 UNL     1       7.297   8.887  43.557  1.00  0.00     0.150 C 
HETATM   21  C13 UNL     1       7.990   8.871  42.220  1.00  0.00     0.252 C 
HETATM   22  N5  UNL     1       9.414   8.568  42.422  1.00  0.00    -0.072 N 
HETATM   23  C14 UNL     1      10.046   9.526  43.279  1.00  0.00     0.252 C 
ATOM     24  H52 UNL     1       9.546   7.617  42.768  1.00  0.00     0.277 HD
ATOM     25  H51 UNL     1       9.905   8.484  41.533  1.00  0.00     0.277 HD
HETATM   26  C15 UNL     1       9.048  10.601  43.737  1.00  0.00     0.150 C 
ENDBRANCH  16  19
BRANCH   1  27
HETATM   27  O1  UNL     1       4.647  13.596  43.110  1.00  0.00    -0.356 OA
HETATM   28  C1  UNL     1       3.596  14.550  43.115  1.00  0.00     0.210 C 
ENDBRANCH   1  27
TORSDOF 2
ENDMDL
