MODEL 5
REMARK VINA RESULT: -7.942307600      2.080      3.829
REMARK  2 active torsions:
REMARK  status: ('A' for Active; 'I' for Inactive)
REMARK    1  A    between atoms: O1_2  and  C2_3 
REMARK    2  A    between atoms: C11_18  and  N4_19 
ROOT
HETATM    1  C2  UNL     1       4.934  12.245  40.648  1.00  0.00     0.069 A 
HETATM    2  C3  UNL     1       4.215  13.345  40.232  1.00  0.00     0.045 A 
HETATM    3  C4  UNL     1       3.659  14.238  41.121  1.00  0.00    -0.032 A 
HETATM    4  C5  UNL     1       2.895  15.407  40.638  1.00  0.00     0.050 C 
HETATM    5  C6  UNL     1       3.845  13.996  42.477  1.00  0.00     0.052 A 
HETATM    6  N1  UNL     1       3.302  14.864  43.321  1.00  0.00    -0.339 N 
ATOM      7  H1  UNL     1       2.780  15.663  42.960  1.00  0.00     0.167 HD
HETATM    8  C7  UNL     1       3.436  14.697  44.657  1.00  0.00     0.135 A 
HETATM    9  N2  UNL     1       2.991  15.412  45.719  1.00  0.00    -0.284 N 
ATOM     10  H2  UNL     1       2.437  16.268  45.672  1.00  0.00     0.188 HD
HETATM   11  N3  UNL     1       3.393  14.817  46.818  1.00  0.00    -0.303 N 
ATOM     12  H3  UNL     1       3.201  15.137  47.767  1.00  0.00     0.186 HD
HETATM   13  C8  UNL     1       4.100  13.715  46.495  1.00  0.00     0.038 A 
HETATM   14  C9  UNL     1       4.694  12.803  47.471  1.00  0.00     0.071 C 
HETATM   15  C10 UNL     1       4.145  13.615  45.138  1.00  0.00     0.060 A 
HETATM   16  C11 UNL     1       4.727  12.687  44.287  1.00  0.00     0.059 A 
HETATM   17  C16 UNL     1       4.561  12.901  42.937  1.00  0.00     0.021 A 
HETATM   18  C17 UNL     1       5.092  12.048  42.027  1.00  0.00     0.053 A 
ENDROOT
BRANCH  16  19
HETATM   19  N4  UNL     1       5.470  11.582  44.731  1.00  0.00    -0.376 N 
HETATM   20  C12 UNL     1       6.915  11.722  44.958  1.00  0.00     0.150 C 
HETATM   21  C13 UNL     1       7.375  10.474  45.665  1.00  0.00     0.252 C 
HETATM   22  N5  UNL     1       7.195   9.323  44.769  1.00  0.00    -0.072 N 
HETATM   23  C14 UNL     1       5.829   9.170  44.366  1.00  0.00     0.252 C 
ATOM     24  H52 UNL     1       7.816   9.380  43.962  1.00  0.00     0.277 HD
ATOM     25  H51 UNL     1       7.555   8.466  45.189  1.00  0.00     0.277 HD
HETATM   26  C15 UNL     1       4.943  10.257  44.994  1.00  0.00     0.150 C 
ENDBRANCH  16  19
BRANCH   1  27
HETATM   27  O1  UNL     1       5.502  11.334  39.765  1.00  0.00    -0.356 OA
HETATM   28  C1  UNL     1       6.354  10.343  40.320  1.00  0.00     0.210 C 
ENDBRANCH   1  27
TORSDOF 2
ENDMDL
