MODEL 5
REMARK VINA RESULT: -7.008813518      1.634      2.117
REMARK  13 active torsions:
REMARK  status: ('A' for Active; 'I' for Inactive)
REMARK    1  A    between atoms: C2_2  and  C3_3 
REMARK    2  A    between atoms: C3_3  and  C4_4 
REMARK    3  A    between atoms: C4_4  and  C5_5 
REMARK    4  A    between atoms: C5_5  and  C6_6 
REMARK    5  A    between atoms: C6_6  and  C7_7 
REMARK    6  A    between atoms: C6_6  and  C9_14 
REMARK    7  A    between atoms: C7_7  and  C8_8 
REMARK       I    between atoms: C8_8  and  N1_10 
REMARK    8  A    between atoms: N1_10  and  O2_12 
REMARK       I    between atoms: C9_14  and  N2_16 
REMARK    9  A    between atoms: N2_16  and  C10_18 
REMARK   10  A    between atoms: C10_18  and  C11_19 
REMARK   11  A    between atoms: C10_18  and  C17_29 
REMARK       I    between atoms: C11_19  and  N3_21 
REMARK   12  A    between atoms: C15_25  and  C16_26 
REMARK   13  A    between atoms: C16_26  and  O5_27 
ROOT
HETATM    1  C9  UNL     1      10.689  30.259  14.356  1.00  0.00     0.223 C 
HETATM    2  O3  UNL     1      10.958  29.447  15.283  1.00  0.00    -0.273 OA
HETATM    3  N2  UNL     1      10.856  31.640  14.665  1.00  0.00    -0.347 N 
ATOM      4  H2  UNL     1      10.656  32.347  13.957  1.00  0.00     0.163 HD
ENDROOT
BRANCH   3   5
HETATM    5  C10 UNL     1      11.313  32.045  15.994  1.00  0.00     0.180 C 
BRANCH   5   6
HETATM    6  C11 UNL     1      10.262  32.767  16.732  1.00  0.00     0.243 C 
HETATM    7  O4  UNL     1       9.773  33.793  16.118  1.00  0.00    -0.271 OA
HETATM    8  N3  UNL     1       9.782  32.418  18.007  1.00  0.00    -0.344 N 
HETATM    9  C12 UNL     1       8.779  33.180  18.769  1.00  0.00     0.126 C 
HETATM   10  C15 UNL     1      10.069  31.295  18.852  1.00  0.00     0.111 C 
HETATM   11  C13 UNL     1       9.260  33.028  20.199  1.00  0.00     0.022 C 
HETATM   12  C14 UNL     1      10.319  31.943  20.205  1.00  0.00     0.029 C 
BRANCH  10  13
HETATM   13  C16 UNL     1       8.791  30.451  19.071  1.00  0.00     0.189 C 
BRANCH  13  14
HETATM   14  O5  UNL     1       8.980  29.466  20.011  1.00  0.00    -0.399 OA
ATOM     15  H5  UNL     1       8.298  28.807  19.977  1.00  0.00     0.209 HD
ENDBRANCH  13  14
ENDBRANCH  10  13
ENDBRANCH   5   6
BRANCH   5  16
HETATM   16  C17 UNL     1      12.532  32.949  15.835  1.00  0.00     0.009 C 
HETATM   17  C18 UNL     1      13.272  33.099  17.132  1.00  0.00     0.012 C 
HETATM   18  C19 UNL     1      13.425  32.413  14.733  1.00  0.00     0.012 C 
ENDBRANCH   5  16
ENDBRANCH   3   5
BRANCH   1  19
HETATM   19  C6  UNL     1      10.233  29.740  13.062  1.00  0.00     0.086 C 
BRANCH  19  20
HETATM   20  C5  UNL     1       8.914  29.046  13.232  1.00  0.00     0.014 C 
BRANCH  20  21
HETATM   21  C4  UNL     1       7.849  29.490  12.316  1.00  0.00     0.001 C 
BRANCH  21  22
HETATM   22  C3  UNL     1       6.816  30.359  12.973  1.00  0.00    -0.000 C 
BRANCH  22  23
HETATM   23  C2  UNL     1       7.145  31.805  12.785  1.00  0.00    -0.005 C 
HETATM   24  C1  UNL     1       7.250  32.413  14.177  1.00  0.00     0.005 C 
ENDBRANCH  22  23
ENDBRANCH  21  22
ENDBRANCH  20  21
ENDBRANCH  19  20
BRANCH  19  25
HETATM   25  C7  UNL     1      11.304  28.979  12.391  1.00  0.00     0.119 C 
BRANCH  25  26
HETATM   26  C8  UNL     1      11.403  29.289  10.959  1.00  0.00     0.241 C 
HETATM   27  O1  UNL     1      11.863  30.366  10.506  1.00  0.00    -0.271 OA
HETATM   28  N1  UNL     1      10.948  28.303  10.026  1.00  0.00    -0.237 N 
ATOM     29  H1  UNL     1      10.568  27.413  10.348  1.00  0.00     0.197 HD
BRANCH  28  30
HETATM   30  O2  UNL     1      11.038  28.583   8.713  1.00  0.00    -0.287 OA
ATOM     31  H2  UNL     1      11.687  29.218   8.434  1.00  0.00     0.244 HD
ENDBRANCH  28  30
ENDBRANCH  25  26
ENDBRANCH  19  25
ENDBRANCH   1  19
TORSDOF 13
ENDMDL
