MODEL 13
REMARK VINA RESULT: -6.737138991      1.673      4.797
REMARK  13 active torsions:
REMARK  status: ('A' for Active; 'I' for Inactive)
REMARK    1  A    between atoms: C2_2  and  C3_3 
REMARK    2  A    between atoms: C3_3  and  C4_4 
REMARK    3  A    between atoms: C4_4  and  C5_5 
REMARK    4  A    between atoms: C5_5  and  C6_6 
REMARK    5  A    between atoms: C6_6  and  C7_7 
REMARK    6  A    between atoms: C6_6  and  C9_14 
REMARK    7  A    between atoms: C7_7  and  C8_8 
REMARK       I    between atoms: C8_8  and  N1_10 
REMARK    8  A    between atoms: N1_10  and  O2_12 
REMARK       I    between atoms: C9_14  and  N2_16 
REMARK    9  A    between atoms: N2_16  and  C10_18 
REMARK   10  A    between atoms: C10_18  and  C11_19 
REMARK   11  A    between atoms: C10_18  and  C17_29 
REMARK       I    between atoms: C11_19  and  N3_21 
REMARK   12  A    between atoms: C15_25  and  C16_26 
REMARK   13  A    between atoms: C16_26  and  O5_27 
ROOT
HETATM    1  C9  UNL     1      11.346  30.430  15.314  1.00  0.00     0.223 C 
HETATM    2  O3  UNL     1      10.762  29.514  15.955  1.00  0.00    -0.273 OA
HETATM    3  N2  UNL     1      10.734  31.716  15.359  1.00  0.00    -0.347 N 
ATOM      4  H2  UNL     1      11.159  32.499  14.863  1.00  0.00     0.163 HD
ENDROOT
BRANCH   3   5
HETATM    5  C10 UNL     1       9.499  31.914  16.117  1.00  0.00     0.180 C 
BRANCH   5   6
HETATM    6  C11 UNL     1       8.414  32.424  15.260  1.00  0.00     0.243 C 
HETATM    7  O4  UNL     1       8.049  33.638  15.507  1.00  0.00    -0.271 OA
HETATM    8  N3  UNL     1       7.782  31.697  14.235  1.00  0.00    -0.344 N 
HETATM    9  C12 UNL     1       6.654  32.186  13.426  1.00  0.00     0.126 C 
HETATM   10  C15 UNL     1       8.051  30.397  13.693  1.00  0.00     0.111 C 
HETATM   11  C13 UNL     1       5.824  30.934  13.219  1.00  0.00     0.022 C 
HETATM   12  C14 UNL     1       6.673  29.755  13.651  1.00  0.00     0.029 C 
BRANCH  10  13
HETATM   13  C16 UNL     1       8.455  30.512  12.204  1.00  0.00     0.189 C 
BRANCH  13  14
HETATM   14  O5  UNL     1       8.655  29.280  11.629  1.00  0.00    -0.399 OA
ATOM     15  H5  UNL     1       8.447  28.571  12.225  1.00  0.00     0.209 HD
ENDBRANCH  13  14
ENDBRANCH  10  13
ENDBRANCH   5   6
BRANCH   5  16
HETATM   16  C17 UNL     1       9.770  32.913  17.239  1.00  0.00     0.009 C 
HETATM   17  C18 UNL     1       9.664  32.261  18.587  1.00  0.00     0.012 C 
HETATM   18  C19 UNL     1      11.125  33.562  17.028  1.00  0.00     0.012 C 
ENDBRANCH   5  16
ENDBRANCH   3   5
BRANCH   1  19
HETATM   19  C6  UNL     1      12.579  30.116  14.585  1.00  0.00     0.086 C 
BRANCH  19  20
HETATM   20  C5  UNL     1      13.751  30.744  15.278  1.00  0.00     0.014 C 
BRANCH  20  21
HETATM   21  C4  UNL     1      14.186  32.039  14.727  1.00  0.00     0.001 C 
BRANCH  21  22
HETATM   22  C3  UNL     1      14.638  33.016  15.773  1.00  0.00    -0.000 C 
BRANCH  22  23
HETATM   23  C2  UNL     1      14.314  34.417  15.363  1.00  0.00    -0.005 C 
HETATM   24  C1  UNL     1      15.077  34.681  14.073  1.00  0.00     0.005 C 
ENDBRANCH  22  23
ENDBRANCH  21  22
ENDBRANCH  20  21
ENDBRANCH  19  20
BRANCH  19  25
HETATM   25  C7  UNL     1      12.429  30.398  13.144  1.00  0.00     0.119 C 
BRANCH  25  26
HETATM   26  C8  UNL     1      11.805  29.288  12.414  1.00  0.00     0.241 C 
HETATM   27  O1  UNL     1      11.352  28.255  12.964  1.00  0.00    -0.271 OA
HETATM   28  N1  UNL     1      11.709  29.392  10.989  1.00  0.00    -0.237 N 
ATOM     29  H1  UNL     1      12.064  30.213  10.498  1.00  0.00     0.197 HD
BRANCH  28  30
HETATM   30  O2  UNL     1      11.139  28.377  10.316  1.00  0.00    -0.287 OA
ATOM     31  H2  UNL     1      11.666  27.609  10.133  1.00  0.00     0.244 HD
ENDBRANCH  28  30
ENDBRANCH  25  26
ENDBRANCH  19  25
ENDBRANCH   1  19
TORSDOF 13
ENDMDL
