MODEL 11
REMARK VINA RESULT: -6.831270421      1.426      1.977
REMARK  13 active torsions:
REMARK  status: ('A' for Active; 'I' for Inactive)
REMARK    1  A    between atoms: C2_2  and  C3_3 
REMARK    2  A    between atoms: C3_3  and  C4_4 
REMARK    3  A    between atoms: C4_4  and  C5_5 
REMARK    4  A    between atoms: C5_5  and  C6_6 
REMARK    5  A    between atoms: C6_6  and  C7_7 
REMARK    6  A    between atoms: C6_6  and  C9_14 
REMARK    7  A    between atoms: C7_7  and  C8_8 
REMARK       I    between atoms: C8_8  and  N1_10 
REMARK    8  A    between atoms: N1_10  and  O2_12 
REMARK       I    between atoms: C9_14  and  N2_16 
REMARK    9  A    between atoms: N2_16  and  C10_18 
REMARK   10  A    between atoms: C10_18  and  C11_19 
REMARK   11  A    between atoms: C10_18  and  C17_29 
REMARK       I    between atoms: C11_19  and  N3_21 
REMARK   12  A    between atoms: C15_25  and  C16_26 
REMARK   13  A    between atoms: C16_26  and  O5_27 
ROOT
HETATM    1  C9  UNL     1      10.480  30.184  13.855  1.00  0.00     0.223 C 
HETATM    2  O3  UNL     1      10.543  28.990  14.257  1.00  0.00    -0.273 OA
HETATM    3  N2  UNL     1      11.199  31.144  14.625  1.00  0.00    -0.347 N 
ATOM      4  H2  UNL     1      11.189  32.127  14.351  1.00  0.00     0.163 HD
ENDROOT
BRANCH   3   5
HETATM    5  C10 UNL     1      11.950  30.722  15.807  1.00  0.00     0.180 C 
BRANCH   5   6
HETATM    6  C11 UNL     1      11.144  30.848  17.034  1.00  0.00     0.243 C 
HETATM    7  O4  UNL     1      11.333  29.915  17.908  1.00  0.00    -0.271 OA
HETATM    8  N3  UNL     1      10.224  31.878  17.297  1.00  0.00    -0.344 N 
HETATM    9  C12 UNL     1       9.372  31.964  18.494  1.00  0.00     0.126 C 
HETATM   10  C15 UNL     1       9.899  33.067  16.563  1.00  0.00     0.111 C 
HETATM   11  C13 UNL     1       8.085  32.551  17.948  1.00  0.00     0.022 C 
HETATM   12  C14 UNL     1       8.378  33.052  16.547  1.00  0.00     0.029 C 
BRANCH  10  13
HETATM   13  C16 UNL     1      10.252  34.322  17.397  1.00  0.00     0.189 C 
BRANCH  13  14
HETATM   14  O5  UNL     1       9.604  35.443  16.938  1.00  0.00    -0.399 OA
ATOM     15  H5  UNL     1       9.866  36.224  17.410  1.00  0.00     0.209 HD
ENDBRANCH  13  14
ENDBRANCH  10  13
ENDBRANCH   5   6
BRANCH   5  16
HETATM   16  C17 UNL     1      13.197  31.595  15.928  1.00  0.00     0.009 C 
HETATM   17  C18 UNL     1      14.410  30.769  16.244  1.00  0.00     0.012 C 
HETATM   18  C19 UNL     1      13.377  32.406  14.661  1.00  0.00     0.012 C 
ENDBRANCH   5  16
ENDBRANCH   3   5
BRANCH   1  19
HETATM   19  C6  UNL     1       9.692  30.493  12.657  1.00  0.00     0.086 C 
BRANCH  19  20
HETATM   20  C5  UNL     1       8.327  30.968  13.059  1.00  0.00     0.014 C 
BRANCH  20  21
HETATM   21  C4  UNL     1       7.205  30.181  12.518  1.00  0.00     0.001 C 
BRANCH  21  22
HETATM   22  C3  UNL     1       5.857  30.775  12.810  1.00  0.00    -0.000 C 
BRANCH  22  23
HETATM   23  C2  UNL     1       5.950  31.774  13.918  1.00  0.00    -0.005 C 
HETATM   24  C1  UNL     1       5.598  31.037  15.202  1.00  0.00     0.005 C 
ENDBRANCH  22  23
ENDBRANCH  21  22
ENDBRANCH  20  21
ENDBRANCH  19  20
BRANCH  19  25
HETATM   25  C7  UNL     1       9.752  29.386  11.684  1.00  0.00     0.119 C 
BRANCH  25  26
HETATM   26  C8  UNL     1      10.993  29.390  10.901  1.00  0.00     0.241 C 
HETATM   27  O1  UNL     1      11.657  30.425  10.646  1.00  0.00    -0.271 OA
HETATM   28  N1  UNL     1      11.474  28.139  10.399  1.00  0.00    -0.237 N 
ATOM     29  H1  UNL     1      10.969  27.272  10.581  1.00  0.00     0.197 HD
BRANCH  28  30
HETATM   30  O2  UNL     1      12.611  28.138   9.681  1.00  0.00    -0.287 OA
ATOM     31  H2  UNL     1      13.436  28.072  10.148  1.00  0.00     0.244 HD
ENDBRANCH  28  30
ENDBRANCH  25  26
ENDBRANCH  19  25
ENDBRANCH   1  19
TORSDOF 13
ENDMDL
