MODEL 16
REMARK VINA RESULT: -6.562275558      1.816      5.102
REMARK  13 active torsions:
REMARK  status: ('A' for Active; 'I' for Inactive)
REMARK    1  A    between atoms: C2_2  and  C3_3 
REMARK    2  A    between atoms: C3_3  and  C4_4 
REMARK    3  A    between atoms: C4_4  and  C5_5 
REMARK    4  A    between atoms: C5_5  and  C6_6 
REMARK    5  A    between atoms: C6_6  and  C7_7 
REMARK    6  A    between atoms: C6_6  and  C9_14 
REMARK    7  A    between atoms: C7_7  and  C8_8 
REMARK       I    between atoms: C8_8  and  N1_10 
REMARK    8  A    between atoms: N1_10  and  O2_12 
REMARK       I    between atoms: C9_14  and  N2_16 
REMARK    9  A    between atoms: N2_16  and  C10_18 
REMARK   10  A    between atoms: C10_18  and  C11_19 
REMARK   11  A    between atoms: C10_18  and  C17_29 
REMARK       I    between atoms: C11_19  and  N3_21 
REMARK   12  A    between atoms: C15_25  and  C16_26 
REMARK   13  A    between atoms: C16_26  and  O5_27 
ROOT
HETATM    1  C9  UNL     1      11.589  30.921  15.561  1.00  0.00     0.223 C 
HETATM    2  O3  UNL     1      11.130  29.935  16.200  1.00  0.00    -0.273 OA
HETATM    3  N2  UNL     1      10.738  32.060  15.469  1.00  0.00    -0.347 N 
ATOM      4  H2  UNL     1      11.051  32.891  14.967  1.00  0.00     0.163 HD
ENDROOT
BRANCH   3   5
HETATM    5  C10 UNL     1       9.415  32.039  16.093  1.00  0.00     0.180 C 
BRANCH   5   6
HETATM    6  C11 UNL     1       8.364  32.461  15.151  1.00  0.00     0.243 C 
HETATM    7  O4  UNL     1       7.907  33.654  15.343  1.00  0.00    -0.271 OA
HETATM    8  N3  UNL     1       7.855  31.675  14.101  1.00  0.00    -0.344 N 
HETATM    9  C12 UNL     1       6.759  32.075  13.203  1.00  0.00     0.126 C 
HETATM   10  C15 UNL     1       8.243  30.385  13.610  1.00  0.00     0.111 C 
HETATM   11  C13 UNL     1       6.027  30.768  12.969  1.00  0.00     0.022 C 
HETATM   12  C14 UNL     1       6.915  29.655  13.487  1.00  0.00     0.029 C 
BRANCH  10  13
HETATM   13  C16 UNL     1       8.745  30.498  12.151  1.00  0.00     0.189 C 
BRANCH  13  14
HETATM   14  O5  UNL     1       9.121  29.278  11.641  1.00  0.00    -0.399 OA
ATOM     15  H5  UNL     1       9.954  28.988  11.992  1.00  0.00     0.209 HD
ENDBRANCH  13  14
ENDBRANCH  10  13
ENDBRANCH   5   6
BRANCH   5  16
HETATM   16  C17 UNL     1       9.428  32.983  17.293  1.00  0.00     0.009 C 
HETATM   17  C18 UNL     1       9.286  32.227  18.582  1.00  0.00     0.012 C 
HETATM   18  C19 UNL     1      10.688  33.826  17.266  1.00  0.00     0.012 C 
ENDBRANCH   5  16
ENDBRANCH   3   5
BRANCH   1  19
HETATM   19  C6  UNL     1      12.929  30.829  14.972  1.00  0.00     0.086 C 
BRANCH  19  20
HETATM   20  C5  UNL     1      13.897  31.632  15.788  1.00  0.00     0.014 C 
BRANCH  20  21
HETATM   21  C4  UNL     1      14.893  30.844  16.534  1.00  0.00     0.001 C 
BRANCH  21  22
HETATM   22  C3  UNL     1      14.877  31.100  18.014  1.00  0.00    -0.000 C 
BRANCH  22  23
HETATM   23  C2  UNL     1      13.690  31.924  18.394  1.00  0.00    -0.005 C 
HETATM   24  C1  UNL     1      12.808  31.042  19.268  1.00  0.00     0.005 C 
ENDBRANCH  22  23
ENDBRANCH  21  22
ENDBRANCH  20  21
ENDBRANCH  19  20
BRANCH  19  25
HETATM   25  C7  UNL     1      12.890  31.106  13.523  1.00  0.00     0.119 C 
BRANCH  25  26
HETATM   26  C8  UNL     1      12.251  30.027  12.759  1.00  0.00     0.241 C 
HETATM   27  O1  UNL     1      12.108  30.043  11.512  1.00  0.00    -0.271 OA
HETATM   28  N1  UNL     1      11.764  28.891  13.481  1.00  0.00    -0.237 N 
ATOM     29  H1  UNL     1      11.859  28.834  14.495  1.00  0.00     0.197 HD
BRANCH  28  30
HETATM   30  O2  UNL     1      11.179  27.901  12.785  1.00  0.00    -0.287 OA
ATOM     31  H2  UNL     1      11.250  27.015  13.120  1.00  0.00     0.244 HD
ENDBRANCH  28  30
ENDBRANCH  25  26
ENDBRANCH  19  25
ENDBRANCH   1  19
TORSDOF 13
ENDMDL
