MODEL 17
REMARK VINA RESULT: -6.551688532      2.572      6.300
REMARK  13 active torsions:
REMARK  status: ('A' for Active; 'I' for Inactive)
REMARK    1  A    between atoms: C2_2  and  C3_3 
REMARK    2  A    between atoms: C3_3  and  C4_4 
REMARK    3  A    between atoms: C4_4  and  C5_5 
REMARK    4  A    between atoms: C5_5  and  C6_6 
REMARK    5  A    between atoms: C6_6  and  C7_7 
REMARK    6  A    between atoms: C6_6  and  C9_14 
REMARK    7  A    between atoms: C7_7  and  C8_8 
REMARK       I    between atoms: C8_8  and  N1_10 
REMARK    8  A    between atoms: N1_10  and  O2_12 
REMARK       I    between atoms: C9_14  and  N2_16 
REMARK    9  A    between atoms: N2_16  and  C10_18 
REMARK   10  A    between atoms: C10_18  and  C11_19 
REMARK   11  A    between atoms: C10_18  and  C17_29 
REMARK       I    between atoms: C11_19  and  N3_21 
REMARK   12  A    between atoms: C15_25  and  C16_26 
REMARK   13  A    between atoms: C16_26  and  O5_27 
ROOT
HETATM    1  C9  UNL     1      12.801  32.462  15.430  1.00  0.00     0.223 C 
HETATM    2  O3  UNL     1      13.196  31.304  15.121  1.00  0.00    -0.273 OA
HETATM    3  N2  UNL     1      11.404  32.602  15.676  1.00  0.00    -0.347 N 
ATOM      4  H2  UNL     1      11.021  33.513  15.931  1.00  0.00     0.163 HD
ENDROOT
BRANCH   3   5
HETATM    5  C10 UNL     1      10.519  31.443  15.562  1.00  0.00     0.180 C 
BRANCH   5   6
HETATM    6  C11 UNL     1       9.402  31.703  14.637  1.00  0.00     0.243 C 
HETATM    7  O4  UNL     1       8.775  32.814  14.839  1.00  0.00    -0.271 OA
HETATM    8  N3  UNL     1       8.998  30.850  13.595  1.00  0.00    -0.344 N 
HETATM    9  C12 UNL     1       7.840  31.081  12.715  1.00  0.00     0.126 C 
HETATM   10  C15 UNL     1       9.566  29.631  13.095  1.00  0.00     0.111 C 
HETATM   11  C13 UNL     1       7.307  29.680  12.490  1.00  0.00     0.022 C 
HETATM   12  C14 UNL     1       8.360  28.711  12.992  1.00  0.00     0.029 C 
BRANCH  10  13
HETATM   13  C16 UNL     1      10.022  29.817  11.628  1.00  0.00     0.189 C 
BRANCH  13  14
HETATM   14  O5  UNL     1      11.186  30.541  11.540  1.00  0.00    -0.399 OA
ATOM     15  H5  UNL     1      11.598  30.450  10.688  1.00  0.00     0.209 HD
ENDBRANCH  13  14
ENDBRANCH  10  13
ENDBRANCH   5   6
BRANCH   5  16
HETATM   16  C17 UNL     1       9.965  31.116  16.946  1.00  0.00     0.009 C 
HETATM   17  C18 UNL     1      10.638  29.907  17.530  1.00  0.00     0.012 C 
HETATM   18  C19 UNL     1      10.096  32.328  17.848  1.00  0.00     0.012 C 
ENDBRANCH   5  16
ENDBRANCH   3   5
BRANCH   1  19
HETATM   19  C6  UNL     1      13.778  33.552  15.509  1.00  0.00     0.086 C 
BRANCH  19  20
HETATM   20  C5  UNL     1      13.109  34.795  16.017  1.00  0.00     0.014 C 
BRANCH  20  21
HETATM   21  C4  UNL     1      13.248  35.036  17.464  1.00  0.00     0.001 C 
BRANCH  21  22
HETATM   22  C3  UNL     1      12.180  35.925  18.031  1.00  0.00    -0.000 C 
BRANCH  22  23
HETATM   23  C2  UNL     1      11.458  36.646  16.938  1.00  0.00    -0.005 C 
HETATM   24  C1  UNL     1      10.018  36.814  17.403  1.00  0.00     0.005 C 
ENDBRANCH  22  23
ENDBRANCH  21  22
ENDBRANCH  20  21
ENDBRANCH  19  20
BRANCH  19  25
HETATM   25  C7  UNL     1      14.540  33.673  14.252  1.00  0.00     0.119 C 
BRANCH  25  26
HETATM   26  C8  UNL     1      15.343  34.901  14.194  1.00  0.00     0.241 C 
HETATM   27  O1  UNL     1      16.277  35.163  14.991  1.00  0.00    -0.271 OA
HETATM   28  N1  UNL     1      15.042  35.853  13.168  1.00  0.00    -0.237 N 
ATOM     29  H1  UNL     1      14.292  35.682  12.499  1.00  0.00     0.197 HD
BRANCH  28  30
HETATM   30  O2  UNL     1      15.776  36.979  13.113  1.00  0.00    -0.287 OA
ATOM     31  H2  UNL     1      16.182  37.288  13.914  1.00  0.00     0.244 HD
ENDBRANCH  28  30
ENDBRANCH  25  26
ENDBRANCH  19  25
ENDBRANCH   1  19
TORSDOF 13
ENDMDL
