MODEL 8
REMARK VINA RESULT: -6.962755022      1.349      1.751
REMARK  13 active torsions:
REMARK  status: ('A' for Active; 'I' for Inactive)
REMARK    1  A    between atoms: C2_2  and  C3_3 
REMARK    2  A    between atoms: C3_3  and  C4_4 
REMARK    3  A    between atoms: C4_4  and  C5_5 
REMARK    4  A    between atoms: C5_5  and  C6_6 
REMARK    5  A    between atoms: C6_6  and  C7_7 
REMARK    6  A    between atoms: C6_6  and  C9_14 
REMARK    7  A    between atoms: C7_7  and  C8_8 
REMARK       I    between atoms: C8_8  and  N1_10 
REMARK    8  A    between atoms: N1_10  and  O2_12 
REMARK       I    between atoms: C9_14  and  N2_16 
REMARK    9  A    between atoms: N2_16  and  C10_18 
REMARK   10  A    between atoms: C10_18  and  C11_19 
REMARK   11  A    between atoms: C10_18  and  C17_29 
REMARK       I    between atoms: C11_19  and  N3_21 
REMARK   12  A    between atoms: C15_25  and  C16_26 
REMARK   13  A    between atoms: C16_26  and  O5_27 
ROOT
HETATM    1  C9  UNL     1      11.175  30.198  14.482  1.00  0.00     0.223 C 
HETATM    2  O3  UNL     1      11.331  29.240  15.287  1.00  0.00    -0.273 OA
HETATM    3  N2  UNL     1      11.612  31.476  14.938  1.00  0.00    -0.347 N 
ATOM      4  H2  UNL     1      11.515  32.292  14.334  1.00  0.00     0.163 HD
ENDROOT
BRANCH   3   5
HETATM    5  C10 UNL     1      12.197  31.619  16.272  1.00  0.00     0.180 C 
BRANCH   5   6
HETATM    6  C11 UNL     1      11.181  31.470  17.328  1.00  0.00     0.243 C 
HETATM    7  O4  UNL     1      11.423  30.537  18.188  1.00  0.00    -0.271 OA
HETATM    8  N3  UNL     1      10.017  32.250  17.448  1.00  0.00    -0.344 N 
HETATM    9  C12 UNL     1       8.972  32.055  18.466  1.00  0.00     0.126 C 
HETATM   10  C15 UNL     1       9.563  33.392  16.709  1.00  0.00     0.111 C 
HETATM   11  C13 UNL     1       7.702  32.386  17.708  1.00  0.00     0.022 C 
HETATM   12  C14 UNL     1       8.113  33.045  16.406  1.00  0.00     0.029 C 
BRANCH  10  13
HETATM   13  C16 UNL     1       9.466  34.625  17.638  1.00  0.00     0.189 C 
BRANCH  13  14
HETATM   14  O5  UNL     1       9.618  35.803  16.946  1.00  0.00    -0.399 OA
ATOM     15  H5  UNL     1       9.343  36.554  17.458  1.00  0.00     0.209 HD
ENDBRANCH  13  14
ENDBRANCH  10  13
ENDBRANCH   5   6
BRANCH   5  16
HETATM   16  C17 UNL     1      12.838  33.000  16.376  1.00  0.00     0.009 C 
HETATM   17  C18 UNL     1      13.671  33.121  17.619  1.00  0.00     0.012 C 
HETATM   18  C19 UNL     1      13.644  33.285  15.124  1.00  0.00     0.012 C 
ENDBRANCH   5  16
ENDBRANCH   3   5
BRANCH   1  19
HETATM   19  C6  UNL     1      10.572  29.940  13.171  1.00  0.00     0.086 C 
BRANCH  19  20
HETATM   20  C5  UNL     1       9.114  29.626  13.338  1.00  0.00     0.014 C 
BRANCH  20  21
HETATM   21  C4  UNL     1       8.214  30.308  12.392  1.00  0.00     0.001 C 
BRANCH  21  22
HETATM   22  C3  UNL     1       7.688  31.619  12.902  1.00  0.00    -0.000 C 
BRANCH  22  23
HETATM   23  C2  UNL     1       6.194  31.608  12.944  1.00  0.00    -0.005 C 
HETATM   24  C1  UNL     1       5.800  31.045  14.303  1.00  0.00     0.005 C 
ENDBRANCH  22  23
ENDBRANCH  21  22
ENDBRANCH  20  21
ENDBRANCH  19  20
BRANCH  19  25
HETATM   25  C7  UNL     1      11.376  28.973  12.400  1.00  0.00     0.119 C 
BRANCH  25  26
HETATM   26  C8  UNL     1      11.416  29.289  10.966  1.00  0.00     0.241 C 
HETATM   27  O1  UNL     1      11.809  30.387  10.502  1.00  0.00    -0.271 OA
HETATM   28  N1  UNL     1      10.981  28.283  10.046  1.00  0.00    -0.237 N 
ATOM     29  H1  UNL     1      10.653  27.375  10.376  1.00  0.00     0.197 HD
BRANCH  28  30
HETATM   30  O2  UNL     1      11.016  28.568   8.731  1.00  0.00    -0.287 OA
ATOM     31  H2  UNL     1      11.863  28.712   8.327  1.00  0.00     0.244 HD
ENDBRANCH  28  30
ENDBRANCH  25  26
ENDBRANCH  19  25
ENDBRANCH   1  19
TORSDOF 13
ENDMDL
