MODEL 10
REMARK VINA RESULT: -6.045803708      3.525      4.880
REMARK  0 active torsions:
REMARK  status: ('A' for Active; 'I' for Inactive)
ROOT
HETATM    1 CL1  UNL     1       9.499  -1.414   7.793  1.00  0.00    -0.084 Cl
HETATM    2  C1  UNL     1       8.480  -0.755   9.067  1.00  0.00     0.038 A 
HETATM    3  C2  UNL     1       9.017  -0.255  10.233  1.00  0.00     0.050 A 
HETATM    4  C3  UNL     1       8.261   0.272  11.258  1.00  0.00     0.066 A 
HETATM    5 CL2  UNL     1       9.007   0.896  12.728  1.00  0.00    -0.082 Cl
HETATM    6  C4  UNL     1       6.892   0.287  11.079  1.00  0.00     0.099 A 
HETATM    7  N1  UNL     1       5.880   0.721  11.863  1.00  0.00    -0.282 N 
ATOM      8  H1  UNL     1       5.973   1.141  12.789  1.00  0.00     0.188 HD
HETATM    9  N2  UNL     1       4.754   0.504  11.219  1.00  0.00    -0.242 N 
ATOM     10  H2  UNL     1       3.827   0.736  11.578  1.00  0.00     0.208 HD
HETATM   11  N3  UNL     1       4.986  -0.055  10.043  1.00  0.00    -0.284 N 
ATOM     12  H3  UNL     1       4.282  -0.323   9.354  1.00  0.00     0.188 HD
HETATM   13  C5  UNL     1       6.330  -0.208   9.918  1.00  0.00     0.081 A 
HETATM   14  C6  UNL     1       7.111  -0.730   8.907  1.00  0.00     0.057 A 
ENDROOT
TORSDOF 0
ENDMDL
