MODEL 2
REMARK VINA RESULT: -6.872230340      0.916      1.112
REMARK  0 active torsions:
REMARK  status: ('A' for Active; 'I' for Inactive)
ROOT
HETATM    1 CL1  UNL     1       5.152   0.433  11.239  1.00  0.00    -0.084 Cl
HETATM    2  C1  UNL     1       6.460  -0.124  10.203  1.00  0.00     0.038 A 
HETATM    3  C2  UNL     1       6.212  -0.713   8.982  1.00  0.00     0.050 A 
HETATM    4  C3  UNL     1       7.202  -1.164   8.137  1.00  0.00     0.066 A 
HETATM    5 CL2  UNL     1       6.821  -1.910   6.585  1.00  0.00    -0.082 Cl
HETATM    6  C4  UNL     1       8.506  -1.006   8.562  1.00  0.00     0.099 A 
HETATM    7  N1  UNL     1       9.690  -1.328   7.995  1.00  0.00    -0.282 N 
ATOM      8  H1  UNL     1       9.821  -1.778   7.088  1.00  0.00     0.188 HD
HETATM    9  N2  UNL     1      10.644  -0.959   8.823  1.00  0.00    -0.242 N 
ATOM     10  H2  UNL     1      11.641  -1.082   8.649  1.00  0.00     0.208 HD
HETATM   11  N3  UNL     1      10.133  -0.407   9.911  1.00  0.00    -0.284 N 
ATOM     12  H3  UNL     1      10.659  -0.039  10.704  1.00  0.00     0.188 HD
HETATM   13  C5  UNL     1       8.780  -0.418   9.782  1.00  0.00     0.081 A 
HETATM   14  C6  UNL     1       7.769   0.026  10.610  1.00  0.00     0.057 A 
ENDROOT
TORSDOF 0
ENDMDL
