MODEL 20
REMARK VINA RESULT: -4.780590280      3.771      5.062
REMARK  0 active torsions:
REMARK  status: ('A' for Active; 'I' for Inactive)
ROOT
HETATM    1 CL1  UNL     1       9.400  -7.375   6.339  1.00  0.00    -0.084 Cl
HETATM    2  C1  UNL     1       9.921  -5.752   6.776  1.00  0.00     0.038 A 
HETATM    3  C2  UNL     1       9.297  -4.634   6.268  1.00  0.00     0.050 A 
HETATM    4  C3  UNL     1       9.669  -3.344   6.580  1.00  0.00     0.066 A 
HETATM    5 CL2  UNL     1       8.831  -1.952   5.897  1.00  0.00    -0.082 Cl
HETATM    6  C4  UNL     1      10.728  -3.194   7.452  1.00  0.00     0.099 A 
HETATM    7  N1  UNL     1      11.337  -2.098   7.959  1.00  0.00    -0.282 N 
ATOM      8  H1  UNL     1      11.092  -1.127   7.762  1.00  0.00     0.188 HD
HETATM    9  N2  UNL     1      12.303  -2.508   8.752  1.00  0.00    -0.242 N 
ATOM     10  H2  UNL     1      12.929  -1.891   9.270  1.00  0.00     0.208 HD
HETATM   11  N3  UNL     1      12.353  -3.830   8.787  1.00  0.00    -0.284 N 
ATOM     12  H3  UNL     1      13.011  -4.394   9.325  1.00  0.00     0.188 HD
HETATM   13  C5  UNL     1      11.369  -4.300   7.976  1.00  0.00     0.081 A 
HETATM   14  C6  UNL     1      10.977  -5.581   7.646  1.00  0.00     0.057 A 
ENDROOT
TORSDOF 0
ENDMDL
