MODEL 1
REMARK VINA RESULT: -7.289047846      0.000      0.000
REMARK  0 active torsions:
REMARK  status: ('A' for Active; 'I' for Inactive)
ROOT
HETATM    1 CL1  UNL     1       6.862   0.744  11.663  1.00  0.00    -0.084 Cl
HETATM    2  C1  UNL     1       7.614  -0.065  10.294  1.00  0.00     0.038 A 
HETATM    3  C2  UNL     1       6.865  -0.557   9.248  1.00  0.00     0.050 A 
HETATM    4  C3  UNL     1       7.408  -1.197   8.154  1.00  0.00     0.066 A 
HETATM    5 CL2  UNL     1       6.395  -1.806   6.846  1.00  0.00    -0.082 Cl
HETATM    6  C4  UNL     1       8.780  -1.339   8.133  1.00  0.00     0.099 A 
HETATM    7  N1  UNL     1       9.620  -1.902   7.235  1.00  0.00    -0.282 N 
ATOM      8  H1  UNL     1       9.351  -2.349   6.357  1.00  0.00     0.188 HD
HETATM    9  N2  UNL     1      10.845  -1.771   7.695  1.00  0.00    -0.242 N 
ATOM     10  H2  UNL     1      11.682  -2.107   7.219  1.00  0.00     0.208 HD
HETATM   11  N3  UNL     1      10.844  -1.144   8.860  1.00  0.00    -0.284 N 
ATOM     12  H3  UNL     1      11.664  -0.919   9.423  1.00  0.00     0.188 HD
HETATM   13  C5  UNL     1       9.554  -0.853   9.170  1.00  0.00     0.081 A 
HETATM   14  C6  UNL     1       8.984  -0.216  10.254  1.00  0.00     0.057 A 
ENDROOT
TORSDOF 0
ENDMDL
