MODEL 13
REMARK VINA RESULT: -5.010815785      3.342      4.420
REMARK  2 active torsions:
REMARK  status: ('A' for Active; 'I' for Inactive)
REMARK       I    between atoms: C1_2  and  N1_3 
REMARK    1  A    between atoms: C1_2  and  C2_7 
REMARK    2  A    between atoms: N1_3  and  O2_5 
ROOT
HETATM    1  C2  UNL     1      50.442 -50.484  17.277  1.00  0.00     0.034 A 
HETATM    2  C3  UNL     1      50.606 -51.435  16.294  1.00  0.00     0.017 A 
HETATM    3  C4  UNL     1      51.861 -51.810  15.847  1.00  0.00     0.001 A 
HETATM    4  C5  UNL     1      53.006 -51.248  16.365  1.00  0.00     0.000 A 
HETATM    5  C6  UNL     1      52.849 -50.295  17.349  1.00  0.00     0.001 A 
HETATM    6  C7  UNL     1      51.600 -49.922  17.794  1.00  0.00     0.017 A 
ENDROOT
BRANCH   1   7
HETATM    7  C1  UNL     1      49.136 -50.062  17.775  1.00  0.00     0.275 C 
HETATM    8  O1  UNL     1      48.200 -50.896  17.863  1.00  0.00    -0.265 OA
HETATM    9  N1  UNL     1      48.850 -48.734  18.179  1.00  0.00    -0.233 N 
ATOM     10  H1  UNL     1      49.589 -48.034  18.120  1.00  0.00     0.197 HD
BRANCH   9  11
HETATM   11  O2  UNL     1      47.627 -48.354  18.641  1.00  0.00    -0.287 OA
ATOM     12  H2  UNL     1      46.862 -48.914  18.587  1.00  0.00     0.244 HD
ENDBRANCH   9  11
ENDBRANCH   1   7
TORSDOF 2
ENDMDL
