MODEL 9
REMARK VINA RESULT: -6.663411814      1.409      2.267
REMARK  2 active torsions:
REMARK  status: ('A' for Active; 'I' for Inactive)
REMARK       I    between atoms: C1_2  and  N1_3 
REMARK    1  A    between atoms: C1_2  and  C2_7 
REMARK    2  A    between atoms: N1_3  and  O2_5 
ROOT
HETATM    1  C2  UNL     1      51.281 -51.939  17.633  1.00  0.00     0.034 A 
HETATM    2  C3  UNL     1      52.058 -50.827  17.396  1.00  0.00     0.017 A 
HETATM    3  C4  UNL     1      51.501 -49.571  17.234  1.00  0.00     0.001 A 
HETATM    4  C5  UNL     1      50.139 -49.374  17.301  1.00  0.00     0.000 A 
HETATM    5  C6  UNL     1      49.355 -50.484  17.538  1.00  0.00     0.001 A 
HETATM    6  C7  UNL     1      49.911 -51.734  17.700  1.00  0.00     0.017 A 
ENDROOT
BRANCH   1   7
HETATM    7  C1  UNL     1      51.831 -53.279  17.810  1.00  0.00     0.275 C 
HETATM    8  O1  UNL     1      53.029 -53.510  17.508  1.00  0.00    -0.265 OA
HETATM    9  N1  UNL     1      51.078 -54.369  18.316  1.00  0.00    -0.233 N 
ATOM     10  H1  UNL     1      50.103 -54.214  18.571  1.00  0.00     0.197 HD
BRANCH   9  11
HETATM   11  O2  UNL     1      51.603 -55.615  18.475  1.00  0.00    -0.287 OA
ATOM     12  H2  UNL     1      51.113 -56.406  18.286  1.00  0.00     0.244 HD
ENDBRANCH   9  11
ENDBRANCH   1   7
TORSDOF 2
ENDMDL
