MODEL 6
REMARK VINA RESULT: -6.980458782      1.482      2.110
REMARK  2 active torsions:
REMARK  status: ('A' for Active; 'I' for Inactive)
REMARK       I    between atoms: C1_2  and  N1_3 
REMARK    1  A    between atoms: C1_2  and  C2_7 
REMARK    2  A    between atoms: N1_3  and  O2_5 
ROOT
HETATM    1  C2  UNL     1      50.423 -51.615  17.939  1.00  0.00     0.034 A 
HETATM    2  C3  UNL     1      51.063 -50.426  17.667  1.00  0.00     0.017 A 
HETATM    3  C4  UNL     1      50.393 -49.216  17.697  1.00  0.00     0.001 A 
HETATM    4  C5  UNL     1      49.052 -49.145  18.000  1.00  0.00     0.000 A 
HETATM    5  C6  UNL     1      48.405 -50.331  18.274  1.00  0.00     0.001 A 
HETATM    6  C7  UNL     1      49.073 -51.536  18.244  1.00  0.00     0.017 A 
ENDROOT
BRANCH   1   7
HETATM    7  C1  UNL     1      51.095 -52.911  17.918  1.00  0.00     0.275 C 
HETATM    8  O1  UNL     1      52.182 -53.044  17.301  1.00  0.00    -0.265 OA
HETATM    9  N1  UNL     1      50.584 -54.063  18.568  1.00  0.00    -0.233 N 
ATOM     10  H1  UNL     1      49.704 -53.988  19.078  1.00  0.00     0.197 HD
BRANCH   9  11
HETATM   11  O2  UNL     1      51.221 -55.266  18.540  1.00  0.00    -0.287 OA
ATOM     12  H2  UNL     1      52.009 -55.440  19.039  1.00  0.00     0.244 HD
ENDBRANCH   9  11
ENDBRANCH   1   7
TORSDOF 2
ENDMDL
