MODEL 12
REMARK VINA RESULT: -6.057422209      1.824      2.290
REMARK  2 active torsions:
REMARK  status: ('A' for Active; 'I' for Inactive)
REMARK       I    between atoms: C1_2  and  N1_3 
REMARK    1  A    between atoms: C1_2  and  C2_7 
REMARK    2  A    between atoms: N1_3  and  O2_5 
ROOT
HETATM    1  C2  UNL     1      50.723 -51.917  17.701  1.00  0.00     0.034 A 
HETATM    2  C3  UNL     1      49.646 -51.148  18.082  1.00  0.00     0.017 A 
HETATM    3  C4  UNL     1      49.606 -49.785  17.848  1.00  0.00     0.001 A 
HETATM    4  C5  UNL     1      50.646 -49.132  17.223  1.00  0.00     0.000 A 
HETATM    5  C6  UNL     1      51.727 -49.896  16.839  1.00  0.00     0.001 A 
HETATM    6  C7  UNL     1      51.766 -51.254  17.071  1.00  0.00     0.017 A 
ENDROOT
BRANCH   1   7
HETATM    7  C1  UNL     1      50.803 -53.357  17.929  1.00  0.00     0.275 C 
HETATM    8  O1  UNL     1      49.749 -54.029  18.061  1.00  0.00    -0.265 OA
HETATM    9  N1  UNL     1      52.028 -54.065  18.013  1.00  0.00    -0.233 N 
ATOM     10  H1  UNL     1      52.901 -53.548  17.909  1.00  0.00     0.197 HD
BRANCH   9  11
HETATM   11  O2  UNL     1      52.087 -55.408  18.227  1.00  0.00    -0.287 OA
ATOM     12  H2  UNL     1      52.488 -56.008  17.609  1.00  0.00     0.244 HD
ENDBRANCH   9  11
ENDBRANCH   1   7
TORSDOF 2
ENDMDL
