MODEL 20
REMARK VINA RESULT: -4.131920626      1.446      1.777
REMARK  2 active torsions:
REMARK  status: ('A' for Active; 'I' for Inactive)
REMARK       I    between atoms: C1_2  and  N1_3 
REMARK    1  A    between atoms: C1_2  and  C2_7 
REMARK    2  A    between atoms: N1_3  and  O2_5 
ROOT
HETATM    1  C2  UNL     1      51.570 -51.216  17.232  1.00  0.00     0.034 A 
HETATM    2  C3  UNL     1      50.338 -50.990  17.806  1.00  0.00     0.017 A 
HETATM    3  C4  UNL     1      49.728 -49.749  17.754  1.00  0.00     0.001 A 
HETATM    4  C5  UNL     1      50.326 -48.680  17.124  1.00  0.00     0.000 A 
HETATM    5  C6  UNL     1      51.559 -48.899  16.547  1.00  0.00     0.001 A 
HETATM    6  C7  UNL     1      52.166 -50.136  16.599  1.00  0.00     0.017 A 
ENDROOT
BRANCH   1   7
HETATM    7  C1  UNL     1      52.245 -52.510  17.265  1.00  0.00     0.275 C 
HETATM    8  O1  UNL     1      51.574 -53.564  17.393  1.00  0.00    -0.265 OA
HETATM    9  N1  UNL     1      53.652 -52.656  17.159  1.00  0.00    -0.233 N 
ATOM     10  H1  UNL     1      54.224 -51.819  17.053  1.00  0.00     0.197 HD
BRANCH   9  11
HETATM   11  O2  UNL     1      54.269 -53.869  17.192  1.00  0.00    -0.287 OA
ATOM     12  H2  UNL     1      54.638 -54.277  16.418  1.00  0.00     0.244 HD
ENDBRANCH   9  11
ENDBRANCH   1   7
TORSDOF 2
ENDMDL
