MODEL 14
REMARK VINA RESULT: -4.989513994      3.343      4.593
REMARK  2 active torsions:
REMARK  status: ('A' for Active; 'I' for Inactive)
REMARK       I    between atoms: C1_2  and  N1_3 
REMARK    1  A    between atoms: C1_2  and  C2_7 
REMARK    2  A    between atoms: N1_3  and  O2_5 
ROOT
HETATM    1  C2  UNL     1      50.480 -50.443  17.309  1.00  0.00     0.034 A 
HETATM    2  C3  UNL     1      51.651 -49.921  17.811  1.00  0.00     0.017 A 
HETATM    3  C4  UNL     1      52.889 -50.325  17.341  1.00  0.00     0.001 A 
HETATM    4  C5  UNL     1      53.006 -51.271  16.348  1.00  0.00     0.000 A 
HETATM    5  C6  UNL     1      51.838 -51.798  15.840  1.00  0.00     0.001 A 
HETATM    6  C7  UNL     1      50.606 -51.395  16.308  1.00  0.00     0.017 A 
ENDROOT
BRANCH   1   7
HETATM    7  C1  UNL     1      49.157 -50.043  17.777  1.00  0.00     0.275 C 
HETATM    8  O1  UNL     1      48.229 -50.889  17.833  1.00  0.00    -0.265 OA
HETATM    9  N1  UNL     1      48.843 -48.722  18.186  1.00  0.00    -0.233 N 
ATOM     10  H1  UNL     1      49.574 -48.013  18.154  1.00  0.00     0.197 HD
BRANCH   9  11
HETATM   11  O2  UNL     1      47.604 -48.363  18.621  1.00  0.00    -0.287 OA
ATOM     12  H2  UNL     1      47.452 -47.593  19.155  1.00  0.00     0.244 HD
ENDBRANCH   9  11
ENDBRANCH   1   7
TORSDOF 2
ENDMDL
