MODEL 5
REMARK VINA RESULT: -6.999227804      1.479      1.623
REMARK  2 active torsions:
REMARK  status: ('A' for Active; 'I' for Inactive)
REMARK       I    between atoms: C1_2  and  N1_3 
REMARK    1  A    between atoms: C1_2  and  C2_7 
REMARK    2  A    between atoms: N1_3  and  O2_5 
ROOT
HETATM    1  C2  UNL     1      50.372 -51.649  17.949  1.00  0.00     0.034 A 
HETATM    2  C3  UNL     1      49.026 -51.526  18.214  1.00  0.00     0.017 A 
HETATM    3  C4  UNL     1      48.398 -50.292  18.229  1.00  0.00     0.001 A 
HETATM    4  C5  UNL     1      49.092 -49.129  17.979  1.00  0.00     0.000 A 
HETATM    5  C6  UNL     1      50.439 -49.246  17.713  1.00  0.00     0.001 A 
HETATM    6  C7  UNL     1      51.064 -50.474  17.698  1.00  0.00     0.017 A 
ENDROOT
BRANCH   1   7
HETATM    7  C1  UNL     1      51.070 -52.931  17.924  1.00  0.00     0.275 C 
HETATM    8  O1  UNL     1      52.161 -53.038  17.310  1.00  0.00    -0.265 OA
HETATM    9  N1  UNL     1      50.582 -54.096  18.568  1.00  0.00    -0.233 N 
ATOM     10  H1  UNL     1      49.700 -54.041  19.077  1.00  0.00     0.197 HD
BRANCH   9  11
HETATM   11  O2  UNL     1      51.244 -55.285  18.537  1.00  0.00    -0.287 OA
ATOM     12  H2  UNL     1      50.799 -56.116  18.427  1.00  0.00     0.244 HD
ENDBRANCH   9  11
ENDBRANCH   1   7
TORSDOF 2
ENDMDL
