MODEL 4
REMARK VINA RESULT: -6.432173743      4.401      6.584
REMARK  3 active torsions:
REMARK  status: ('A' for Active; 'I' for Inactive)
REMARK    1  A    between atoms: N1_4  and  C4_5 
REMARK    2  A    between atoms: C6_7  and  O1_8 
REMARK    3  A    between atoms: C7_10  and  C8_11 
ROOT
HETATM    1  C1  UNL     1       6.404  -1.031  25.343  1.00  0.00     0.056 C 
HETATM    2  C2  UNL     1       7.078   0.306  25.413  1.00  0.00     0.022 A 
HETATM    3  C3  UNL     1       7.363   1.054  24.307  1.00  0.00     0.110 A 
HETATM    4  N1  UNL     1       7.970   2.249  24.425  1.00  0.00    -0.282 N 
HETATM    5  C9  UNL     1       8.277   2.665  25.668  1.00  0.00     0.331 A 
HETATM    6  O3  UNL     1       8.853   3.783  25.879  1.00  0.00    -0.246 OA
HETATM    7  N2  UNL     1       8.005   1.942  26.774  1.00  0.00    -0.275 N 
ATOM      8  H2  UNL     1       8.258   2.299  27.695  1.00  0.00     0.173 HD
HETATM    9  C10 UNL     1       7.407   0.765  26.658  1.00  0.00     0.256 A 
HETATM   10  O4  UNL     1       7.161   0.103  27.706  1.00  0.00    -0.267 OA
ENDROOT
BRANCH   4  11
HETATM   11  C4  UNL     1       8.304   3.093  23.332  1.00  0.00     0.235 C 
HETATM   12  C5  UNL     1       9.500   2.580  22.537  1.00  0.00     0.088 C 
HETATM   13  C6  UNL     1       9.396   3.538  21.341  1.00  0.00     0.153 C 
HETATM   14  C7  UNL     1       7.901   3.658  21.212  1.00  0.00     0.181 C 
HETATM   15  O2  UNL     1       7.330   3.174  22.360  1.00  0.00    -0.356 OA
BRANCH  13  16
HETATM   16  O1  UNL     1       9.874   4.768  21.793  1.00  0.00    -0.393 OA
ATOM     17  H1  UNL     1      10.820   4.720  21.727  1.00  0.00     0.210 HD
ENDBRANCH  13  16
BRANCH  14  18
HETATM   18  C8  UNL     1       7.505   2.853  19.972  1.00  0.00     0.256 C 
HETATM   19  F1  UNL     1       8.297   3.305  18.933  1.00  0.00    -0.253 F 
ENDBRANCH  14  18
ENDBRANCH   4  11
TORSDOF 3
ENDMDL
