MODEL 7
REMARK VINA RESULT: -5.986748855      4.879      7.192
REMARK  3 active torsions:
REMARK  status: ('A' for Active; 'I' for Inactive)
REMARK    1  A    between atoms: N1_4  and  C4_5 
REMARK    2  A    between atoms: C6_7  and  O1_8 
REMARK    3  A    between atoms: C7_10  and  C8_11 
ROOT
HETATM    1  C1  UNL     1       5.822   5.347  26.570  1.00  0.00     0.056 C 
HETATM    2  C2  UNL     1       6.248   3.949  26.234  1.00  0.00     0.022 A 
HETATM    3  C3  UNL     1       7.127   3.661  25.230  1.00  0.00     0.110 A 
HETATM    4  N1  UNL     1       7.476   2.388  24.969  1.00  0.00    -0.282 N 
HETATM    5  C9  UNL     1       6.925   1.427  25.734  1.00  0.00     0.331 A 
HETATM    6  O3  UNL     1       7.195   0.193  25.562  1.00  0.00    -0.246 OA
HETATM    7  N2  UNL     1       6.054   1.690  26.730  1.00  0.00    -0.275 N 
ATOM      8  H2  UNL     1       5.662   0.928  27.283  1.00  0.00     0.173 HD
HETATM    9  C10 UNL     1       5.710   2.944  26.988  1.00  0.00     0.256 A 
HETATM   10  O4  UNL     1       4.892   3.169  27.926  1.00  0.00    -0.267 OA
ENDROOT
BRANCH   4  11
HETATM   11  C4  UNL     1       8.382   1.996  23.947  1.00  0.00     0.235 C 
HETATM   12  C5  UNL     1       7.688   1.741  22.612  1.00  0.00     0.088 C 
HETATM   13  C6  UNL     1       8.942   1.622  21.733  1.00  0.00     0.153 C 
HETATM   14  C7  UNL     1       9.834   2.645  22.383  1.00  0.00     0.181 C 
HETATM   15  O2  UNL     1       9.306   2.961  23.608  1.00  0.00    -0.356 OA
BRANCH  13  16
HETATM   16  O1  UNL     1       9.482   0.365  22.006  1.00  0.00    -0.393 OA
ATOM     17  H1  UNL     1      10.417   0.500  22.105  1.00  0.00     0.210 HD
ENDBRANCH  13  16
BRANCH  14  18
HETATM   18  C8  UNL     1       9.883   3.845  21.435  1.00  0.00     0.256 C 
HETATM   19  F1  UNL     1       9.188   3.483  20.297  1.00  0.00    -0.253 F 
ENDBRANCH  14  18
ENDBRANCH   4  11
TORSDOF 3
ENDMDL
