MODEL 6
REMARK VINA RESULT: -6.028534844      4.766      6.379
REMARK  3 active torsions:
REMARK  status: ('A' for Active; 'I' for Inactive)
REMARK    1  A    between atoms: N1_4  and  C4_5 
REMARK    2  A    between atoms: C6_7  and  O1_8 
REMARK    3  A    between atoms: C7_10  and  C8_11 
ROOT
HETATM    1  C1  UNL     1       8.565   3.690  20.676  1.00  0.00     0.056 C 
HETATM    2  C2  UNL     1       8.193   2.706  21.745  1.00  0.00     0.022 A 
HETATM    3  C3  UNL     1       7.870   3.078  23.018  1.00  0.00     0.110 A 
HETATM    4  N1  UNL     1       7.545   2.155  23.941  1.00  0.00    -0.282 N 
HETATM    5  C9  UNL     1       7.552   0.866  23.553  1.00  0.00     0.331 A 
HETATM    6  O3  UNL     1       7.257  -0.080  24.356  1.00  0.00    -0.246 OA
HETATM    7  N2  UNL     1       7.868   0.476  22.300  1.00  0.00    -0.275 N 
ATOM      8  H2  UNL     1       7.860  -0.513  22.054  1.00  0.00     0.173 HD
HETATM    9  C10 UNL     1       8.189   1.386  21.391  1.00  0.00     0.256 A 
HETATM   10  O4  UNL     1       8.482   1.001  20.223  1.00  0.00    -0.267 OA
ENDROOT
BRANCH   4  11
HETATM   11  C4  UNL     1       7.196   2.450  25.286  1.00  0.00     0.235 C 
HETATM   12  C5  UNL     1       7.565   3.873  25.691  1.00  0.00     0.088 C 
HETATM   13  C6  UNL     1       6.825   3.918  27.036  1.00  0.00     0.153 C 
HETATM   14  C7  UNL     1       5.605   3.101  26.707  1.00  0.00     0.181 C 
HETATM   15  O2  UNL     1       5.841   2.424  25.539  1.00  0.00    -0.356 OA
BRANCH  13  16
HETATM   16  O1  UNL     1       7.599   3.171  27.923  1.00  0.00    -0.393 OA
ATOM     17  H1  UNL     1       7.569   3.636  28.751  1.00  0.00     0.210 HD
ENDBRANCH  13  16
BRANCH  14  18
HETATM   18  C8  UNL     1       4.439   4.086  26.593  1.00  0.00     0.256 C 
HETATM   19  F1  UNL     1       3.349   3.362  26.148  1.00  0.00    -0.253 F 
ENDBRANCH  14  18
ENDBRANCH   4  11
TORSDOF 3
ENDMDL
