MODEL 2
REMARK VINA RESULT: -7.287459108      1.129      1.173
REMARK  3 active torsions:
REMARK  status: ('A' for Active; 'I' for Inactive)
REMARK    1  A    between atoms: N1_4  and  C4_5 
REMARK    2  A    between atoms: C6_7  and  O1_8 
REMARK    3  A    between atoms: C7_10  and  C8_11 
ROOT
HETATM    1  C1  UNL     1       4.731  -1.447  18.826  1.00  0.00     0.056 C 
HETATM    2  C2  UNL     1       5.628  -0.270  18.584  1.00  0.00     0.022 A 
HETATM    3  C3  UNL     1       6.434   0.261  19.548  1.00  0.00     0.110 A 
HETATM    4  N1  UNL     1       7.220   1.319  19.279  1.00  0.00    -0.282 N 
HETATM    5  C9  UNL     1       7.173   1.821  18.030  1.00  0.00     0.331 A 
HETATM    6  O3  UNL     1       7.881   2.822  17.681  1.00  0.00    -0.246 OA
HETATM    7  N2  UNL     1       6.383   1.312  17.063  1.00  0.00    -0.275 N 
ATOM      8  H2  UNL     1       6.381   1.727  16.131  1.00  0.00     0.173 HD
HETATM    9  C10 UNL     1       5.609   0.269  17.327  1.00  0.00     0.256 A 
HETATM   10  O4  UNL     1       4.876  -0.193  16.407  1.00  0.00    -0.267 OA
ENDROOT
BRANCH   4  11
HETATM   11  C4  UNL     1       8.089   1.935  20.218  1.00  0.00     0.235 C 
HETATM   12  C5  UNL     1       7.533   3.247  20.763  1.00  0.00     0.088 C 
HETATM   13  C6  UNL     1       8.551   3.466  21.892  1.00  0.00     0.153 C 
HETATM   14  C7  UNL     1       8.781   2.047  22.336  1.00  0.00     0.181 C 
HETATM   15  O2  UNL     1       8.285   1.208  21.373  1.00  0.00    -0.356 OA
BRANCH  13  16
HETATM   16  O1  UNL     1       9.721   3.902  21.271  1.00  0.00    -0.393 OA
ATOM     17  H1  UNL     1      10.414   3.787  21.911  1.00  0.00     0.210 HD
ENDBRANCH  13  16
BRANCH  14  18
HETATM   18  C8  UNL     1       8.065   1.890  23.680  1.00  0.00     0.256 C 
HETATM   19  F1  UNL     1       7.479   0.638  23.675  1.00  0.00    -0.253 F 
ENDBRANCH  14  18
ENDBRANCH   4  11
TORSDOF 3
ENDMDL
