MODEL 1
REMARK VINA RESULT: -8.392010692      0.000      0.000
REMARK  3 active torsions:
REMARK  status: ('A' for Active; 'I' for Inactive)
REMARK    1  A    between atoms: N1_4  and  C4_5 
REMARK    2  A    between atoms: C6_7  and  O1_8 
REMARK    3  A    between atoms: C7_10  and  C8_11 
ROOT
HETATM    1  C1  UNL     1       4.478  -1.699  19.174  1.00  0.00     0.056 C 
HETATM    2  C2  UNL     1       5.284  -0.595  18.557  1.00  0.00     0.022 A 
HETATM    3  C3  UNL     1       6.123   0.205  19.278  1.00  0.00     0.110 A 
HETATM    4  N1  UNL     1       6.823   1.183  18.677  1.00  0.00    -0.282 N 
HETATM    5  C9  UNL     1       6.660   1.331  17.348  1.00  0.00     0.331 A 
HETATM    6  O3  UNL     1       7.282   2.230  16.691  1.00  0.00    -0.246 OA
HETATM    7  N2  UNL     1       5.836   0.552  16.617  1.00  0.00    -0.275 N 
ATOM      8  H2  UNL     1       5.745   0.703  15.613  1.00  0.00     0.173 HD
HETATM    9  C10 UNL     1       5.146  -0.411  17.210  1.00  0.00     0.256 A 
HETATM   10  O4  UNL     1       4.379  -1.131  16.507  1.00  0.00    -0.267 OA
ENDROOT
BRANCH   4  11
HETATM   11  C4  UNL     1       7.718   2.060  19.346  1.00  0.00     0.235 C 
HETATM   12  C5  UNL     1       7.039   2.859  20.454  1.00  0.00     0.088 C 
HETATM   13  C6  UNL     1       8.300   3.452  21.101  1.00  0.00     0.153 C 
HETATM   14  C7  UNL     1       9.260   2.304  20.939  1.00  0.00     0.181 C 
HETATM   15  O2  UNL     1       8.730   1.424  20.032  1.00  0.00    -0.356 OA
BRANCH  13  16
HETATM   16  O1  UNL     1       8.723   4.472  20.248  1.00  0.00    -0.393 OA
ATOM     17  H1  UNL     1       9.505   4.144  19.819  1.00  0.00     0.210 HD
ENDBRANCH  13  16
BRANCH  14  18
HETATM   18  C8  UNL     1       9.436   1.685  22.327  1.00  0.00     0.256 C 
HETATM   19  F1  UNL     1       8.918   0.405  22.262  1.00  0.00    -0.253 F 
ENDBRANCH  14  18
ENDBRANCH   4  11
TORSDOF 3
ENDMDL
