MODEL 7
REMARK VINA RESULT: -5.372110231      4.504      5.459
REMARK  0 active torsions:
REMARK  status: ('A' for Active; 'I' for Inactive)
ROOT
HETATM    1 CL1  UNL     1      20.130  -2.003   9.197  1.00  0.00    -0.084 Cl
HETATM    2  C1  UNL     1      20.843  -2.849   7.832  1.00  0.00     0.038 A 
HETATM    3  C2  UNL     1      21.655  -3.930   8.100  1.00  0.00     0.050 A 
HETATM    4  C3  UNL     1      22.245  -4.637   7.072  1.00  0.00     0.065 A 
HETATM    5 CL2  UNL     1      23.267  -6.001   7.447  1.00  0.00    -0.082 Cl
HETATM    6  C4  UNL     1      22.002  -4.235   5.772  1.00  0.00     0.095 A 
HETATM    7  N1  UNL     1      22.429  -4.717   4.588  1.00  0.00    -0.280 N 
ATOM      8  H1  UNL     1      23.047  -5.518   4.460  1.00  0.00     0.184 HD
HETATM    9  N2  UNL     1      21.908  -3.971   3.614  1.00  0.00    -0.022 NA
HETATM   10  N3  UNL     1      21.152  -3.014   4.127  1.00  0.00    -0.282 N 
ATOM     11  H3  UNL     1      20.636  -2.306   3.605  1.00  0.00     0.184 HD
HETATM   12  C5  UNL     1      21.189  -3.151   5.485  1.00  0.00     0.077 A 
HETATM   13  C6  UNL     1      20.615  -2.467   6.530  1.00  0.00     0.057 A 
ENDROOT
TORSDOF 0
ENDMDL
