MODEL 2
REMARK VINA RESULT: -5.957187551      3.229      4.616
REMARK  0 active torsions:
REMARK  status: ('A' for Active; 'I' for Inactive)
ROOT
HETATM    1 CL1  UNL     1      20.137  -0.623   7.522  1.00  0.00    -0.084 Cl
HETATM    2  C1  UNL     1      21.154   0.778   7.224  1.00  0.00     0.038 A 
HETATM    3  C2  UNL     1      21.017   1.425   6.014  1.00  0.00     0.050 A 
HETATM    4  C3  UNL     1      21.787   2.531   5.719  1.00  0.00     0.065 A 
HETATM    5 CL2  UNL     1      21.588   3.326   4.178  1.00  0.00    -0.082 Cl
HETATM    6  C4  UNL     1      22.694   2.973   6.662  1.00  0.00     0.095 A 
HETATM    7  N1  UNL     1      23.564   4.003   6.659  1.00  0.00    -0.280 N 
ATOM      8  H1  UNL     1      23.696   4.668   5.897  1.00  0.00     0.184 HD
HETATM    9  N2  UNL     1      24.223   4.006   7.818  1.00  0.00    -0.022 NA
HETATM   10  N3  UNL     1      23.807   3.006   8.581  1.00  0.00    -0.282 N 
ATOM     11  H3  UNL     1      24.144   2.780   9.516  1.00  0.00     0.184 HD
HETATM   12  C5  UNL     1      22.845   2.336   7.882  1.00  0.00     0.077 A 
HETATM   13  C6  UNL     1      22.064   1.237   8.148  1.00  0.00     0.057 A 
ENDROOT
TORSDOF 0
ENDMDL
