MODEL 6
REMARK VINA RESULT: -5.395623916      4.842      5.976
REMARK  0 active torsions:
REMARK  status: ('A' for Active; 'I' for Inactive)
ROOT
HETATM    1 CL1  UNL     1      23.916  -6.507   8.261  1.00  0.00    -0.084 Cl
HETATM    2  C1  UNL     1      22.913  -5.342   7.412  1.00  0.00     0.038 A 
HETATM    3  C2  UNL     1      22.125  -4.501   8.169  1.00  0.00     0.050 A 
HETATM    4  C3  UNL     1      21.315  -3.563   7.562  1.00  0.00     0.065 A 
HETATM    5 CL2  UNL     1      20.330  -2.515   8.550  1.00  0.00    -0.082 Cl
HETATM    6  C4  UNL     1      21.313  -3.488   6.182  1.00  0.00     0.095 A 
HETATM    7  N1  UNL     1      20.642  -2.692   5.326  1.00  0.00    -0.280 N 
ATOM      8  H1  UNL     1      19.977  -1.964   5.588  1.00  0.00     0.184 HD
HETATM    9  N2  UNL     1      20.991  -3.017   4.082  1.00  0.00    -0.022 NA
HETATM   10  N3  UNL     1      21.874  -4.004   4.099  1.00  0.00    -0.282 N 
ATOM     11  H3  UNL     1      22.306  -4.442   3.286  1.00  0.00     0.184 HD
HETATM   12  C5  UNL     1      22.099  -4.325   5.407  1.00  0.00     0.077 A 
HETATM   13  C6  UNL     1      22.895  -5.248   6.040  1.00  0.00     0.057 A 
ENDROOT
TORSDOF 0
ENDMDL
