MODEL 1
REMARK VINA RESULT: -6.710875911      0.000      0.000
REMARK  0 active torsions:
REMARK  status: ('A' for Active; 'I' for Inactive)
ROOT
HETATM    1 CL1  UNL     1      23.917   3.809   7.380  1.00  0.00    -0.084 Cl
HETATM    2  C1  UNL     1      22.752   2.495   7.357  1.00  0.00     0.038 A 
HETATM    3  C2  UNL     1      22.734   1.633   8.433  1.00  0.00     0.050 A 
HETATM    4  C3  UNL     1      21.842   0.582   8.475  1.00  0.00     0.065 A 
HETATM    5 CL2  UNL     1      21.845  -0.490   9.853  1.00  0.00    -0.082 Cl
HETATM    6  C4  UNL     1      20.970   0.414   7.416  1.00  0.00     0.095 A 
HETATM    7  N1  UNL     1      20.008  -0.501   7.179  1.00  0.00    -0.280 N 
ATOM      8  H1  UNL     1      19.756  -1.272   7.797  1.00  0.00     0.184 HD
HETATM    9  N2  UNL     1      19.443  -0.228   6.004  1.00  0.00    -0.022 NA
HETATM   10  N3  UNL     1      20.009   0.841   5.463  1.00  0.00    -0.282 N 
ATOM     11  H3  UNL     1      19.767   1.265   4.568  1.00  0.00     0.184 HD
HETATM   12  C5  UNL     1      20.975   1.270   6.327  1.00  0.00     0.077 A 
HETATM   13  C6  UNL     1      21.875   2.308   6.314  1.00  0.00     0.057 A 
ENDROOT
TORSDOF 0
ENDMDL
