MODEL 15
REMARK VINA RESULT: -5.051931535      5.384      6.258
REMARK  0 active torsions:
REMARK  status: ('A' for Active; 'I' for Inactive)
ROOT
HETATM    1  C1  UNL     1       4.234  38.043 -13.165  1.00  0.00     0.002 A 
HETATM    2  C2  UNL     1       3.177  38.205 -12.295  1.00  0.00     0.002 A 
HETATM    3  C3  UNL     1       2.203  37.240 -12.149  1.00  0.00     0.033 A 
HETATM    4  C4  UNL     1       2.243  36.057 -12.874  1.00  0.00     0.077 A 
HETATM    5  N1  UNL     1       1.457  34.967 -12.939  1.00  0.00    -0.284 N 
ATOM      6  H1  UNL     1       0.601  34.799 -12.411  1.00  0.00     0.188 HD
HETATM    7  N2  UNL     1       2.007  34.171 -13.810  1.00  0.00    -0.242 N 
ATOM      8  H2  UNL     1       1.629  33.260 -14.070  1.00  0.00     0.208 HD
HETATM    9  N3  UNL     1       3.112  34.685 -14.317  1.00  0.00    -0.284 N 
ATOM     10  H3  UNL     1       3.715  34.248 -15.015  1.00  0.00     0.188 HD
HETATM   11  C5  UNL     1       3.301  35.898 -13.742  1.00  0.00     0.077 A 
HETATM   12  C6  UNL     1       4.281  36.870 -13.888  1.00  0.00     0.033 A 
ENDROOT
TORSDOF 0
ENDMDL
