MODEL 3
REMARK VINA RESULT: -6.129908983      2.552      3.179
REMARK  0 active torsions:
REMARK  status: ('A' for Active; 'I' for Inactive)
ROOT
HETATM    1  C1  UNL     1      -3.331  37.375 -15.836  1.00  0.00     0.002 A 
HETATM    2  C2  UNL     1      -2.498  37.377 -14.738  1.00  0.00     0.002 A 
HETATM    3  C3  UNL     1      -1.399  36.548 -14.661  1.00  0.00     0.033 A 
HETATM    4  C4  UNL     1      -1.081  35.670 -15.688  1.00  0.00     0.077 A 
HETATM    5  N1  UNL     1      -0.102  34.769 -15.885  1.00  0.00    -0.284 N 
ATOM      6  H1  UNL     1       0.661  34.546 -15.247  1.00  0.00     0.188 HD
HETATM    7  N2  UNL     1      -0.325  34.237 -17.053  1.00  0.00    -0.242 N 
ATOM      8  H2  UNL     1       0.260  33.514 -17.473  1.00  0.00     0.208 HD
HETATM    9  N3  UNL     1      -1.398  34.745 -17.628  1.00  0.00    -0.284 N 
ATOM     10  H3  UNL     1      -1.771  34.488 -18.542  1.00  0.00     0.188 HD
HETATM   11  C5  UNL     1      -1.916  35.671 -16.784  1.00  0.00     0.077 A 
HETATM   12  C6  UNL     1      -3.022  36.507 -16.861  1.00  0.00     0.033 A 
ENDROOT
TORSDOF 0
ENDMDL
