MODEL 4
REMARK VINA RESULT: -6.111988860      2.587      3.704
REMARK  0 active torsions:
REMARK  status: ('A' for Active; 'I' for Inactive)
ROOT
HETATM    1  C1  UNL     1      -2.561  37.392 -14.786  1.00  0.00     0.002 A 
HETATM    2  C2  UNL     1      -3.317  37.273 -15.933  1.00  0.00     0.002 A 
HETATM    3  C3  UNL     1      -2.981  36.388 -16.935  1.00  0.00     0.033 A 
HETATM    4  C4  UNL     1      -1.863  35.573 -16.835  1.00  0.00     0.077 A 
HETATM    5  N1  UNL     1      -1.303  34.642 -17.629  1.00  0.00    -0.284 N 
ATOM      6  H1  UNL     1      -1.637  34.338 -18.543  1.00  0.00     0.188 HD
HETATM    7  N2  UNL     1      -0.250  34.208 -16.998  1.00  0.00    -0.242 N 
ATOM      8  H2  UNL     1       0.379  33.491 -17.361  1.00  0.00     0.208 HD
HETATM    9  N3  UNL     1      -0.093  34.807 -15.833  1.00  0.00    -0.284 N 
ATOM     10  H3  UNL     1       0.657  34.635 -15.163  1.00  0.00     0.188 HD
HETATM   11  C5  UNL     1      -1.109  35.693 -15.688  1.00  0.00     0.077 A 
HETATM   12  C6  UNL     1      -1.449  36.585 -14.679  1.00  0.00     0.033 A 
ENDROOT
TORSDOF 0
ENDMDL
