MODEL 6
REMARK VINA RESULT: -5.612255915      2.780      3.440
REMARK  0 active torsions:
REMARK  status: ('A' for Active; 'I' for Inactive)
ROOT
HETATM    1  C1  UNL     1      -2.310  35.752 -16.883  1.00  0.00     0.002 A 
HETATM    2  C2  UNL     1      -2.468  36.519 -15.749  1.00  0.00     0.002 A 
HETATM    3  C3  UNL     1      -1.537  36.511 -14.732  1.00  0.00     0.033 A 
HETATM    4  C4  UNL     1      -0.394  35.726 -14.804  1.00  0.00     0.077 A 
HETATM    5  N1  UNL     1       0.658  35.519 -13.992  1.00  0.00    -0.284 N 
ATOM      6  H1  UNL     1       0.820  35.948 -13.081  1.00  0.00     0.188 HD
HETATM    7  N2  UNL     1       1.428  34.663 -14.600  1.00  0.00    -0.242 N 
ATOM      8  H2  UNL     1       2.308  34.314 -14.219  1.00  0.00     0.208 HD
HETATM    9  N3  UNL     1       0.933  34.301 -15.768  1.00  0.00    -0.284 N 
ATOM     10  H3  UNL     1       1.355  33.642 -16.424  1.00  0.00     0.188 HD
HETATM   11  C5  UNL     1      -0.239  34.960 -15.940  1.00  0.00     0.077 A 
HETATM   12  C6  UNL     1      -1.177  34.971 -16.963  1.00  0.00     0.033 A 
ENDROOT
TORSDOF 0
ENDMDL
