MODEL 17
REMARK VINA RESULT: -5.031808329      6.330      7.023
REMARK  0 active torsions:
REMARK  status: ('A' for Active; 'I' for Inactive)
ROOT
HETATM    1  C1  UNL     1       5.525  37.518 -15.676  1.00  0.00     0.002 A 
HETATM    2  C2  UNL     1       4.846  36.566 -14.945  1.00  0.00     0.002 A 
HETATM    3  C3  UNL     1       4.001  35.658 -15.545  1.00  0.00     0.033 A 
HETATM    4  C4  UNL     1       3.794  35.659 -16.918  1.00  0.00     0.077 A 
HETATM    5  N1  UNL     1       3.050  34.917 -17.757  1.00  0.00    -0.284 N 
ATOM      6  H1  UNL     1       2.441  34.138 -17.508  1.00  0.00     0.188 HD
HETATM    7  N2  UNL     1       3.263  35.391 -18.951  1.00  0.00    -0.242 N 
ATOM      8  H2  UNL     1       2.828  35.023 -19.798  1.00  0.00     0.208 HD
HETATM    9  N3  UNL     1       4.107  36.404 -18.934  1.00  0.00    -0.284 N 
ATOM     10  H3  UNL     1       4.427  36.937 -19.744  1.00  0.00     0.188 HD
HETATM   11  C5  UNL     1       4.474  36.611 -17.646  1.00  0.00     0.077 A 
HETATM   12  C6  UNL     1       5.326  37.525 -17.040  1.00  0.00     0.033 A 
ENDROOT
TORSDOF 0
ENDMDL
