MODEL 5
REMARK VINA RESULT: -5.630300868      2.791      3.815
REMARK  0 active torsions:
REMARK  status: ('A' for Active; 'I' for Inactive)
ROOT
HETATM    1  C1  UNL     1      -2.496  36.500 -15.744  1.00  0.00     0.002 A 
HETATM    2  C2  UNL     1      -2.269  35.708 -16.849  1.00  0.00     0.002 A 
HETATM    3  C3  UNL     1      -1.139  34.926 -16.960  1.00  0.00     0.033 A 
HETATM    4  C4  UNL     1      -0.175  34.900 -15.962  1.00  0.00     0.077 A 
HETATM    5  N1  UNL     1       0.994  34.254 -15.800  1.00  0.00    -0.284 N 
ATOM      6  H1  UNL     1       1.425  33.599 -16.451  1.00  0.00     0.188 HD
HETATM    7  N2  UNL     1       1.464  34.634 -14.646  1.00  0.00    -0.242 N 
ATOM      8  H2  UNL     1       2.347  34.306 -14.253  1.00  0.00     0.208 HD
HETATM    9  N3  UNL     1       0.662  35.493 -14.047  1.00  0.00    -0.284 N 
ATOM     10  H3  UNL     1       0.817  35.929 -13.137  1.00  0.00     0.188 HD
HETATM   11  C5  UNL     1      -0.405  35.693 -14.858  1.00  0.00     0.077 A 
HETATM   12  C6  UNL     1      -1.543  36.480 -14.747  1.00  0.00     0.033 A 
ENDROOT
TORSDOF 0
ENDMDL
