MODEL 16
REMARK VINA RESULT: -5.035657556      5.397      6.316
REMARK  0 active torsions:
REMARK  status: ('A' for Active; 'I' for Inactive)
ROOT
HETATM    1  C1  UNL     1       3.122  38.235 -12.218  1.00  0.00     0.002 A 
HETATM    2  C2  UNL     1       4.158  38.019 -13.102  1.00  0.00     0.002 A 
HETATM    3  C3  UNL     1       4.244  36.864 -13.850  1.00  0.00     0.033 A 
HETATM    4  C4  UNL     1       3.290  35.862 -13.746  1.00  0.00     0.077 A 
HETATM    5  N1  UNL     1       3.118  34.663 -14.331  1.00  0.00    -0.284 N 
ATOM      6  H1  UNL     1       3.723  34.231 -15.028  1.00  0.00     0.188 HD
HETATM    7  N2  UNL     1       2.025  34.164 -13.828  1.00  0.00    -0.242 N 
ATOM      8  H2  UNL     1       1.640  33.255 -14.085  1.00  0.00     0.208 HD
HETATM    9  N3  UNL     1       1.474  34.976 -12.946  1.00  0.00    -0.284 N 
ATOM     10  H3  UNL     1       0.616  34.804 -12.421  1.00  0.00     0.188 HD
HETATM   11  C5  UNL     1       2.255  36.081 -12.862  1.00  0.00     0.077 A 
HETATM   12  C6  UNL     1       2.169  37.245 -12.110  1.00  0.00     0.033 A 
ENDROOT
TORSDOF 0
ENDMDL
