MODEL 10
REMARK VINA RESULT: -5.844017852      8.066     12.323
REMARK  12 active torsions:
REMARK  status: ('A' for Active; 'I' for Inactive)
REMARK    1  A    between atoms: C2_2  and  C3_3 
REMARK    2  A    between atoms: C3_3  and  C4_4 
REMARK    3  A    between atoms: C4_4  and  C5_5 
REMARK    4  A    between atoms: C5_5  and  C6_6 
REMARK    5  A    between atoms: C6_6  and  C7_7 
REMARK    6  A    between atoms: C7_7  and  C8_8 
REMARK    7  A    between atoms: C8_8  and  C9_9 
REMARK    8  A    between atoms: C9_9  and  C10_10 
REMARK    9  A    between atoms: C10_10  and  C11_11 
REMARK   10  A    between atoms: C11_11  and  C12_12 
REMARK   11  A    between atoms: C12_12  and  C13_13 
REMARK   12  A    between atoms: C13_13  and  C14_14 
ROOT
HETATM    1  C8  UNL     1       9.818  -0.442   1.904  1.00  0.00     0.000 C 
ENDROOT
BRANCH   1   2
HETATM    2  C7  UNL     1       9.463   0.873   2.543  1.00  0.00     0.000 C 
BRANCH   2   3
HETATM    3  C6  UNL     1       7.986   1.092   2.718  1.00  0.00     0.000 C 
BRANCH   3   4
HETATM    4  C5  UNL     1       7.232  -0.199   2.662  1.00  0.00     0.000 C 
BRANCH   4   5
HETATM    5  C4  UNL     1       6.365  -0.416   3.871  1.00  0.00     0.000 C 
BRANCH   5   6
HETATM    6  C3  UNL     1       4.944  -0.035   3.633  1.00  0.00    -0.000 C 
BRANCH   6   7
HETATM    7  C2  UNL     1       4.635   1.236   4.409  1.00  0.00    -0.005 C 
HETATM    8  C1  UNL     1       5.562   1.295   5.616  1.00  0.00     0.005 C 
ENDBRANCH   6   7
ENDBRANCH   5   6
ENDBRANCH   4   5
ENDBRANCH   3   4
ENDBRANCH   2   3
ENDBRANCH   1   2
BRANCH   1   9
HETATM    9  C9  UNL     1      10.669  -0.285   0.678  1.00  0.00     0.000 C 
BRANCH   9  10
HETATM   10  C10 UNL     1      10.333   0.875  -0.169  1.00  0.00     0.000 C 
BRANCH  10  11
HETATM   11  C11 UNL     1      11.360   1.390  -1.094  1.00  0.00     0.001 C 
BRANCH  11  12
HETATM   12  C12 UNL     1      11.691   0.539  -2.261  1.00  0.00     0.010 C 
BRANCH  12  13
HETATM   13  C13 UNL     1      13.136   0.653  -2.697  1.00  0.00     0.113 C 
BRANCH  13  14
HETATM   14  C14 UNL     1      14.014  -0.130  -1.799  1.00  0.00     0.172 C 
HETATM   15  O1  UNL     1      14.853   0.466  -1.096  1.00  0.00    -0.648 OA
HETATM   16  O2  UNL     1      13.917  -1.507  -1.727  1.00  0.00    -0.648 OA
ENDBRANCH  13  14
ENDBRANCH  12  13
ENDBRANCH  11  12
ENDBRANCH  10  11
ENDBRANCH   9  10
ENDBRANCH   1   9
TORSDOF 12
ENDMDL
