MODEL 12
REMARK VINA RESULT: -5.772815341      7.834     11.955
REMARK  12 active torsions:
REMARK  status: ('A' for Active; 'I' for Inactive)
REMARK    1  A    between atoms: C2_2  and  C3_3 
REMARK    2  A    between atoms: C3_3  and  C4_4 
REMARK    3  A    between atoms: C4_4  and  C5_5 
REMARK    4  A    between atoms: C5_5  and  C6_6 
REMARK    5  A    between atoms: C6_6  and  C7_7 
REMARK    6  A    between atoms: C7_7  and  C8_8 
REMARK    7  A    between atoms: C8_8  and  C9_9 
REMARK    8  A    between atoms: C9_9  and  C10_10 
REMARK    9  A    between atoms: C10_10  and  C11_11 
REMARK   10  A    between atoms: C11_11  and  C12_12 
REMARK   11  A    between atoms: C12_12  and  C13_13 
REMARK   12  A    between atoms: C13_13  and  C14_14 
ROOT
HETATM    1  C8  UNL     1       9.144   0.546   2.928  1.00  0.00     0.000 C 
ENDROOT
BRANCH   1   2
HETATM    2  C7  UNL     1       8.136  -0.340   2.247  1.00  0.00     0.000 C 
BRANCH   2   3
HETATM    3  C6  UNL     1       6.794  -0.376   2.922  1.00  0.00     0.000 C 
BRANCH   3   4
HETATM    4  C5  UNL     1       6.355   0.993   3.338  1.00  0.00     0.000 C 
BRANCH   4   5
HETATM    5  C4  UNL     1       5.587   0.986   4.631  1.00  0.00     0.000 C 
BRANCH   5   6
HETATM    6  C3  UNL     1       6.471   1.104   5.824  1.00  0.00    -0.000 C 
BRANCH   6   7
HETATM    7  C2  UNL     1       6.487  -0.224   6.564  1.00  0.00    -0.005 C 
HETATM    8  C1  UNL     1       5.158  -0.925   6.313  1.00  0.00     0.005 C 
ENDBRANCH   6   7
ENDBRANCH   5   6
ENDBRANCH   4   5
ENDBRANCH   3   4
ENDBRANCH   2   3
ENDBRANCH   1   2
BRANCH   1   9
HETATM    9  C9  UNL     1      10.201   1.055   1.993  1.00  0.00     0.000 C 
BRANCH   9  10
HETATM   10  C10 UNL     1      10.150   0.492   0.630  1.00  0.00     0.000 C 
BRANCH  10  11
HETATM   11  C11 UNL     1      11.066   1.038  -0.389  1.00  0.00     0.001 C 
BRANCH  11  12
HETATM   12  C12 UNL     1      11.496   0.111  -1.463  1.00  0.00     0.010 C 
BRANCH  12  13
HETATM   13  C13 UNL     1      12.747   0.566  -2.183  1.00  0.00     0.113 C 
BRANCH  13  14
HETATM   14  C14 UNL     1      13.929  -0.181  -1.696  1.00  0.00     0.172 C 
HETATM   15  O1  UNL     1      14.852   0.439  -1.133  1.00  0.00    -0.648 OA
HETATM   16  O2  UNL     1      14.023  -1.551  -1.854  1.00  0.00    -0.648 OA
ENDBRANCH  13  14
ENDBRANCH  12  13
ENDBRANCH  11  12
ENDBRANCH  10  11
ENDBRANCH   9  10
ENDBRANCH   1   9
TORSDOF 12
ENDMDL
