MODEL 12
REMARK VINA RESULT: -6.648418399      6.311     11.413
REMARK  16 active torsions:
REMARK  status: ('A' for Active; 'I' for Inactive)
REMARK    1  A    between atoms: C2_2  and  C3_3 
REMARK    2  A    between atoms: C3_3  and  C4_4 
REMARK    3  A    between atoms: C4_4  and  C5_5 
REMARK    4  A    between atoms: C5_5  and  C6_6 
REMARK    5  A    between atoms: C6_6  and  C7_7 
REMARK    6  A    between atoms: C7_7  and  C8_8 
REMARK    7  A    between atoms: C8_8  and  C9_9 
REMARK    8  A    between atoms: C9_9  and  C10_10 
REMARK    9  A    between atoms: C10_10  and  C11_11 
REMARK   10  A    between atoms: C11_11  and  C12_12 
REMARK   11  A    between atoms: C12_12  and  C13_13 
REMARK   12  A    between atoms: C13_13  and  C14_14 
REMARK   13  A    between atoms: C14_14  and  C15_15 
REMARK   14  A    between atoms: C15_15  and  C16_16 
REMARK   15  A    between atoms: C16_16  and  C17_17 
REMARK   16  A    between atoms: C17_17  and  C18_18 
ROOT
HETATM    1  C10 UNL     1       6.568   0.652   3.644  1.00  0.00     0.000 C 
ENDROOT
BRANCH   1   2
HETATM    2  C9  UNL     1       5.273  -0.089   3.379  1.00  0.00     0.000 C 
BRANCH   2   3
HETATM    3  C8  UNL     1       4.599  -0.494   4.655  1.00  0.00     0.000 C 
BRANCH   3   4
HETATM    4  C7  UNL     1       5.566  -0.987   5.700  1.00  0.00     0.000 C 
BRANCH   4   5
HETATM    5  C6  UNL     1       5.523  -0.216   6.977  1.00  0.00     0.000 C 
BRANCH   5   6
HETATM    6  C5  UNL     1       4.281   0.645   6.962  1.00  0.00     0.000 C 
BRANCH   6   7
HETATM    7  C4  UNL     1       3.481   0.495   8.226  1.00  0.00     0.000 C 
BRANCH   7   8
HETATM    8  C3  UNL     1       3.935  -0.633   9.091  1.00  0.00    -0.000 C 
BRANCH   8   9
HETATM    9  C2  UNL     1       2.850  -1.634   9.385  1.00  0.00    -0.005 C 
HETATM   10  C1  UNL     1       1.691  -1.512   8.420  1.00  0.00     0.005 C 
ENDBRANCH   8   9
ENDBRANCH   7   8
ENDBRANCH   6   7
ENDBRANCH   5   6
ENDBRANCH   4   5
ENDBRANCH   3   4
ENDBRANCH   2   3
ENDBRANCH   1   2
BRANCH   1  11
HETATM   11  C11 UNL     1       7.594   0.156   2.687  1.00  0.00     0.000 C 
BRANCH  11  12
HETATM   12  C12 UNL     1       8.920   0.820   2.755  1.00  0.00     0.000 C 
BRANCH  12  13
HETATM   13  C13 UNL     1      10.040   0.054   2.095  1.00  0.00     0.000 C 
BRANCH  13  14
HETATM   14  C14 UNL     1       9.603  -0.147   0.664  1.00  0.00     0.000 C 
BRANCH  14  15
HETATM   15  C15 UNL     1      10.150   0.822  -0.316  1.00  0.00     0.001 C 
BRANCH  15  16
HETATM   16  C16 UNL     1      11.193   0.189  -1.170  1.00  0.00     0.010 C 
BRANCH  16  17
HETATM   17  C17 UNL     1      12.412   1.074  -1.359  1.00  0.00     0.113 C 
BRANCH  17  18
HETATM   18  C18 UNL     1      12.218   2.120  -2.366  1.00  0.00     0.172 C 
HETATM   19  O1  UNL     1      11.551   1.877  -3.408  1.00  0.00    -0.648 OA
HETATM   20  O2  UNL     1      12.759   3.398  -2.200  1.00  0.00    -0.648 OA
ENDBRANCH  17  18
ENDBRANCH  16  17
ENDBRANCH  15  16
ENDBRANCH  14  15
ENDBRANCH  13  14
ENDBRANCH  12  13
ENDBRANCH  11  12
ENDBRANCH   1  11
TORSDOF 16
ENDMDL
