MODEL 10
REMARK VINA RESULT: -6.106564261      4.984      9.601
REMARK  14 active torsions:
REMARK  status: ('A' for Active; 'I' for Inactive)
REMARK    1  A    between atoms: C2_2  and  C3_3 
REMARK    2  A    between atoms: C3_3  and  C4_4 
REMARK    3  A    between atoms: C4_4  and  C5_5 
REMARK    4  A    between atoms: C5_5  and  C6_6 
REMARK    5  A    between atoms: C6_6  and  C7_7 
REMARK    6  A    between atoms: C7_7  and  C8_8 
REMARK    7  A    between atoms: C8_8  and  C9_9 
REMARK    8  A    between atoms: C9_9  and  C10_10 
REMARK    9  A    between atoms: C10_10  and  C11_11 
REMARK   10  A    between atoms: C11_11  and  C12_12 
REMARK   11  A    between atoms: C12_12  and  C13_13 
REMARK   12  A    between atoms: C13_13  and  C14_14 
REMARK   13  A    between atoms: C14_14  and  C15_15 
REMARK   14  A    between atoms: C15_15  and  C16_16 
ROOT
HETATM    1  C9  UNL     1       5.795   0.854   6.281  1.00  0.00     0.000 C 
ENDROOT
BRANCH   1   2
HETATM    2  C8  UNL     1       5.048  -0.144   7.097  1.00  0.00     0.000 C 
BRANCH   2   3
HETATM    3  C7  UNL     1       4.246   0.431   8.217  1.00  0.00     0.000 C 
BRANCH   3   4
HETATM    4  C6  UNL     1       4.309  -0.343   9.493  1.00  0.00     0.000 C 
BRANCH   4   5
HETATM    5  C5  UNL     1       3.651  -1.721   9.349  1.00  0.00     0.000 C 
BRANCH   5   6
HETATM    6  C4  UNL     1       2.313  -1.681  10.047  1.00  0.00     0.000 C 
BRANCH   6   7
HETATM    7  C3  UNL     1       1.172  -1.507   9.075  1.00  0.00    -0.000 C 
BRANCH   7   8
HETATM    8  C2  UNL     1       0.502  -0.157   9.228  1.00  0.00    -0.005 C 
HETATM    9  C1  UNL     1       0.824   0.434  10.591  1.00  0.00     0.005 C 
ENDBRANCH   7   8
ENDBRANCH   6   7
ENDBRANCH   5   6
ENDBRANCH   4   5
ENDBRANCH   3   4
ENDBRANCH   2   3
ENDBRANCH   1   2
BRANCH   1  10
HETATM   10  C10 UNL     1       5.028   1.075   4.993  1.00  0.00     0.000 C 
BRANCH  10  11
HETATM   11  C11 UNL     1       5.232  -0.074   4.027  1.00  0.00     0.000 C 
BRANCH  11  12
HETATM   12  C12 UNL     1       6.676  -0.426   3.858  1.00  0.00     0.000 C 
BRANCH  12  13
HETATM   13  C13 UNL     1       7.404   0.407   2.855  1.00  0.00     0.001 C 
BRANCH  13  14
HETATM   14  C14 UNL     1       8.719  -0.213   2.519  1.00  0.00     0.010 C 
BRANCH  14  15
HETATM   15  C15 UNL     1       8.829  -0.459   1.009  1.00  0.00     0.113 C 
BRANCH  15  16
HETATM   16  C16 UNL     1       9.746   0.535   0.401  1.00  0.00     0.172 C 
HETATM   17  O1  UNL     1      10.369   0.213  -0.640  1.00  0.00    -0.648 OA
HETATM   18  O2  UNL     1       9.948   1.796   0.923  1.00  0.00    -0.648 OA
ENDBRANCH  15  16
ENDBRANCH  14  15
ENDBRANCH  13  14
ENDBRANCH  12  13
ENDBRANCH  11  12
ENDBRANCH  10  11
ENDBRANCH   1  10
TORSDOF 14
ENDMDL
