MODEL 1
REMARK VINA RESULT: -5.165784447      0.000      0.000
REMARK  15 active torsions:
REMARK  status: ('A' for Active; 'I' for Inactive)
REMARK    1  A    between atoms: C2_2  and  C3_3 
REMARK    2  A    between atoms: C3_3  and  C4_4 
REMARK    3  A    between atoms: C4_4  and  C5_5 
REMARK    4  A    between atoms: C5_5  and  C6_6 
REMARK    5  A    between atoms: C6_6  and  C7_7 
REMARK    6  A    between atoms: C7_7  and  C8_8 
REMARK    7  A    between atoms: C8_8  and  O1_9 
REMARK    8  A    between atoms: C8_8  and  C9_11 
REMARK    9  A    between atoms: C11_13  and  O2_14 
REMARK   10  A    between atoms: C13_16  and  O3_17 
REMARK   11  A    between atoms: C15_19  and  O4_20 
REMARK   12  A    between atoms: C17_22  and  C18_23 
REMARK   13  A    between atoms: C18_23  and  C19_24 
REMARK   14  A    between atoms: C19_24  and  O6_26 
REMARK   15  A    between atoms: O6_26  and  C20_27 
ROOT
HETATM    1  C9  UNL     1     -15.754  25.611   6.148  1.00  0.00     0.005 A 
HETATM    2  C10 UNL     1     -15.492  26.981   5.942  1.00  0.00     0.054 A 
HETATM    3  C11 UNL     1     -16.323  27.995   6.333  1.00  0.00     0.105 A 
HETATM    4  C13 UNL     1     -17.486  27.643   6.965  1.00  0.00     0.135 A 
HETATM    5  C15 UNL     1     -17.787  26.325   7.186  1.00  0.00     0.112 A 
HETATM    6  C17 UNL     1     -16.919  25.292   6.776  1.00  0.00     0.000 A 
ENDROOT
BRANCH   1   7
HETATM    7  C8  UNL     1     -14.708  24.723   5.705  1.00  0.00     0.054 C 
BRANCH   7   8
HETATM    8  C7  UNL     1     -13.717  23.968   6.460  1.00  0.00     0.065 C 
BRANCH   8   9
HETATM    9  C6  UNL     1     -12.538  23.480   5.567  1.00  0.00     0.006 C 
BRANCH   9  10
HETATM   10  C5  UNL     1     -11.292  24.253   5.799  1.00  0.00     0.000 C 
BRANCH  10  11
HETATM   11  C4  UNL     1     -11.082  24.921   7.086  1.00  0.00     0.000 C 
BRANCH  11  12
HETATM   12  C3  UNL     1     -11.099  26.371   7.261  1.00  0.00    -0.000 C 
BRANCH  12  13
HETATM   13  C2  UNL     1     -11.842  27.217   6.287  1.00  0.00    -0.005 C 
HETATM   14  C1  UNL     1     -10.911  27.810   5.236  1.00  0.00     0.005 C 
ENDBRANCH  12  13
ENDBRANCH  11  12
ENDBRANCH  10  11
ENDBRANCH   9  10
ENDBRANCH   8   9
ENDBRANCH   7   8
BRANCH   7  15
HETATM   15  O1  UNL     1     -14.603  24.555   4.416  1.00  0.00    -0.364 OA
ATOM     16  H1  UNL     1     -15.286  23.999   4.058  1.00  0.00     0.217 HD
ENDBRANCH   7  15
ENDBRANCH   1   7
BRANCH   6  17
HETATM   17  C18 UNL     1     -17.320  23.901   7.001  1.00  0.00     0.153 C 
BRANCH  17  18
HETATM   18  C19 UNL     1     -17.940  23.270   5.818  1.00  0.00     0.263 C 
HETATM   19  O5  UNL     1     -17.299  22.799   4.850  1.00  0.00    -0.265 OA
BRANCH  18  20
HETATM   20  O6  UNL     1     -19.321  23.184   5.761  1.00  0.00    -0.322 OA
BRANCH  20  21
HETATM   21  C20 UNL     1     -20.100  23.676   4.719  1.00  0.00     0.174 C 
HETATM   22  C21 UNL     1     -19.968  25.136   4.461  1.00  0.00     0.034 C 
ENDBRANCH  20  21
ENDBRANCH  18  20
ENDBRANCH  17  18
ENDBRANCH   6  17
BRANCH   3  23
HETATM   23  O2  UNL     1     -16.001  29.347   6.098  1.00  0.00    -0.353 OA
HETATM   24  C12 UNL     1     -14.820  29.838   6.684  1.00  0.00     0.210 C 
ENDBRANCH   3  23
BRANCH   5  25
HETATM   25  O4  UNL     1     -18.957  25.923   7.824  1.00  0.00    -0.352 OA
HETATM   26  C16 UNL     1     -19.067  26.006   9.236  1.00  0.00     0.210 C 
ENDBRANCH   5  25
BRANCH   4  27
HETATM   27  O3  UNL     1     -18.365  28.618   7.384  1.00  0.00    -0.351 OA
HETATM   28  C14 UNL     1     -19.421  29.107   6.568  1.00  0.00     0.210 C 
ENDBRANCH   4  27
TORSDOF 15
ENDMDL
