MODEL 3
REMARK VINA RESULT: -5.079000189      1.397      2.257
REMARK  15 active torsions:
REMARK  status: ('A' for Active; 'I' for Inactive)
REMARK    1  A    between atoms: C2_2  and  C3_3 
REMARK    2  A    between atoms: C3_3  and  C4_4 
REMARK    3  A    between atoms: C4_4  and  C5_5 
REMARK    4  A    between atoms: C5_5  and  C6_6 
REMARK    5  A    between atoms: C6_6  and  C7_7 
REMARK    6  A    between atoms: C7_7  and  C8_8 
REMARK    7  A    between atoms: C8_8  and  O1_9 
REMARK    8  A    between atoms: C8_8  and  C9_11 
REMARK    9  A    between atoms: C11_13  and  O2_14 
REMARK   10  A    between atoms: C13_16  and  O3_17 
REMARK   11  A    between atoms: C15_19  and  O4_20 
REMARK   12  A    between atoms: C17_22  and  C18_23 
REMARK   13  A    between atoms: C18_23  and  C19_24 
REMARK   14  A    between atoms: C19_24  and  O6_26 
REMARK   15  A    between atoms: O6_26  and  C20_27 
ROOT
HETATM    1  C9  UNL     1     -15.898  25.074   5.792  1.00  0.00     0.005 A 
HETATM    2  C10 UNL     1     -15.820  26.481   5.785  1.00  0.00     0.054 A 
HETATM    3  C11 UNL     1     -16.869  27.316   6.062  1.00  0.00     0.105 A 
HETATM    4  C13 UNL     1     -18.070  26.733   6.365  1.00  0.00     0.135 A 
HETATM    5  C15 UNL     1     -18.197  25.369   6.384  1.00  0.00     0.112 A 
HETATM    6  C17 UNL     1     -17.107  24.523   6.095  1.00  0.00     0.000 A 
ENDROOT
BRANCH   1   7
HETATM    7  C8  UNL     1     -14.652  24.399   5.528  1.00  0.00     0.054 C 
BRANCH   7   8
HETATM    8  C7  UNL     1     -13.639  23.879   6.436  1.00  0.00     0.065 C 
BRANCH   8   9
HETATM    9  C6  UNL     1     -12.366  23.389   5.686  1.00  0.00     0.006 C 
BRANCH   9  10
HETATM   10  C5  UNL     1     -11.204  24.289   5.892  1.00  0.00     0.000 C 
BRANCH  10  11
HETATM   11  C4  UNL     1     -10.962  24.870   7.215  1.00  0.00     0.000 C 
BRANCH  11  12
HETATM   12  C3  UNL     1     -10.998  26.304   7.491  1.00  0.00    -0.000 C 
BRANCH  12  13
HETATM   13  C2  UNL     1     -11.069  27.266   6.357  1.00  0.00    -0.005 C 
HETATM   14  C1  UNL     1     -12.502  27.712   6.091  1.00  0.00     0.005 C 
ENDBRANCH  12  13
ENDBRANCH  11  12
ENDBRANCH  10  11
ENDBRANCH   9  10
ENDBRANCH   8   9
ENDBRANCH   7   8
BRANCH   7  15
HETATM   15  O1  UNL     1     -14.352  24.217   4.272  1.00  0.00    -0.364 OA
ATOM     16  H1  UNL     1     -15.099  24.318   3.694  1.00  0.00     0.217 HD
ENDBRANCH   7  15
ENDBRANCH   1   7
BRANCH   6  17
HETATM   17  C18 UNL     1     -17.318  23.074   6.087  1.00  0.00     0.153 C 
BRANCH  17  18
HETATM   18  C19 UNL     1     -17.427  22.503   4.728  1.00  0.00     0.263 C 
HETATM   19  O5  UNL     1     -18.431  22.626   3.988  1.00  0.00    -0.265 OA
BRANCH  18  20
HETATM   20  O6  UNL     1     -16.357  21.784   4.225  1.00  0.00    -0.322 OA
BRANCH  20  21
HETATM   21  C20 UNL     1     -15.582  20.897   4.966  1.00  0.00     0.174 C 
HETATM   22  C21 UNL     1     -14.291  20.503   4.338  1.00  0.00     0.034 C 
ENDBRANCH  20  21
ENDBRANCH  18  20
ENDBRANCH  17  18
ENDBRANCH   6  17
BRANCH   3  23
HETATM   23  O2  UNL     1     -16.724  28.718   6.038  1.00  0.00    -0.353 OA
HETATM   24  C12 UNL     1     -15.856  29.291   6.986  1.00  0.00     0.210 C 
ENDBRANCH   3  23
BRANCH   5  25
HETATM   25  O4  UNL     1     -19.398  24.735   6.687  1.00  0.00    -0.352 OA
HETATM   26  C16 UNL     1     -20.481  24.777   5.770  1.00  0.00     0.210 C 
ENDBRANCH   5  25
BRANCH   4  27
HETATM   27  O3  UNL     1     -19.165  27.519   6.655  1.00  0.00    -0.351 OA
HETATM   28  C14 UNL     1     -19.500  27.918   7.977  1.00  0.00     0.210 C 
ENDBRANCH   4  27
TORSDOF 15
ENDMDL
