MODEL 2
REMARK VINA RESULT: -5.104129509      1.366      1.897
REMARK  15 active torsions:
REMARK  status: ('A' for Active; 'I' for Inactive)
REMARK    1  A    between atoms: C2_2  and  C3_3 
REMARK    2  A    between atoms: C3_3  and  C4_4 
REMARK    3  A    between atoms: C4_4  and  C5_5 
REMARK    4  A    between atoms: C5_5  and  C6_6 
REMARK    5  A    between atoms: C6_6  and  C7_7 
REMARK    6  A    between atoms: C7_7  and  C8_8 
REMARK    7  A    between atoms: C8_8  and  O1_9 
REMARK    8  A    between atoms: C8_8  and  C9_11 
REMARK    9  A    between atoms: C11_13  and  O2_14 
REMARK   10  A    between atoms: C13_16  and  O3_17 
REMARK   11  A    between atoms: C15_19  and  O4_20 
REMARK   12  A    between atoms: C17_22  and  C18_23 
REMARK   13  A    between atoms: C18_23  and  C19_24 
REMARK   14  A    between atoms: C19_24  and  O6_26 
REMARK   15  A    between atoms: O6_26  and  C20_27 
ROOT
HETATM    1  C9  UNL     1     -16.639  26.449   6.279  1.00  0.00     0.005 A 
HETATM    2  C10 UNL     1     -15.911  27.635   6.499  1.00  0.00     0.054 A 
HETATM    3  C11 UNL     1     -16.455  28.803   6.961  1.00  0.00     0.105 A 
HETATM    4  C13 UNL     1     -17.798  28.807   7.223  1.00  0.00     0.135 A 
HETATM    5  C15 UNL     1     -18.550  27.680   7.024  1.00  0.00     0.112 A 
HETATM    6  C17 UNL     1     -17.975  26.485   6.547  1.00  0.00     0.000 A 
ENDROOT
BRANCH   1   7
HETATM    7  C8  UNL     1     -15.846  25.325   5.846  1.00  0.00     0.054 C 
BRANCH   7   8
HETATM    8  C7  UNL     1     -15.327  24.184   6.588  1.00  0.00     0.065 C 
BRANCH   8   9
HETATM    9  C6  UNL     1     -14.137  23.495   5.858  1.00  0.00     0.006 C 
BRANCH   9  10
HETATM   10  C5  UNL     1     -12.914  23.437   6.696  1.00  0.00     0.000 C 
BRANCH  10  11
HETATM   11  C4  UNL     1     -11.751  24.254   6.339  1.00  0.00     0.000 C 
BRANCH  11  12
HETATM   12  C3  UNL     1     -10.965  25.016   7.307  1.00  0.00    -0.000 C 
BRANCH  12  13
HETATM   13  C2  UNL     1     -11.049  26.502   7.311  1.00  0.00    -0.005 C 
HETATM   14  C1  UNL     1     -11.854  27.020   6.125  1.00  0.00     0.005 C 
ENDBRANCH  12  13
ENDBRANCH  11  12
ENDBRANCH  10  11
ENDBRANCH   9  10
ENDBRANCH   8   9
ENDBRANCH   7   8
BRANCH   7  15
HETATM   15  O1  UNL     1     -15.518  25.305   4.585  1.00  0.00    -0.364 OA
ATOM     16  H1  UNL     1     -14.789  25.879   4.382  1.00  0.00     0.217 HD
ENDBRANCH   7  15
ENDBRANCH   1   7
BRANCH   6  17
HETATM   17  C18 UNL     1     -18.840  25.327   6.311  1.00  0.00     0.153 C 
BRANCH  17  18
HETATM   18  C19 UNL     1     -19.239  25.169   4.897  1.00  0.00     0.263 C 
HETATM   19  O5  UNL     1     -20.146  25.831   4.340  1.00  0.00    -0.265 OA
BRANCH  18  20
HETATM   20  O6  UNL     1     -18.575  24.234   4.122  1.00  0.00    -0.322 OA
BRANCH  20  21
HETATM   21  C20 UNL     1     -18.836  22.867   4.137  1.00  0.00     0.174 C 
HETATM   22  C21 UNL     1     -17.898  22.050   4.955  1.00  0.00     0.034 C 
ENDBRANCH  20  21
ENDBRANCH  18  20
ENDBRANCH  17  18
ENDBRANCH   6  17
BRANCH   3  23
HETATM   23  O2  UNL     1     -15.669  29.957   7.161  1.00  0.00    -0.353 OA
HETATM   24  C12 UNL     1     -15.406  30.758   6.036  1.00  0.00     0.210 C 
ENDBRANCH   3  23
BRANCH   5  25
HETATM   25  O4  UNL     1     -19.919  27.640   7.277  1.00  0.00    -0.352 OA
HETATM   26  C16 UNL     1     -20.398  27.566   8.610  1.00  0.00     0.210 C 
ENDBRANCH   5  25
BRANCH   4  27
HETATM   27  O3  UNL     1     -18.406  29.953   7.691  1.00  0.00    -0.351 OA
HETATM   28  C14 UNL     1     -19.008  30.912   6.833  1.00  0.00     0.210 C 
ENDBRANCH   4  27
TORSDOF 15
ENDMDL
