MODEL 2
REMARK VINA RESULT: -9.583405975      3.425      5.878
REMARK  15 active torsions:
REMARK  status: ('A' for Active; 'I' for Inactive)
REMARK       I    between atoms: C2_2  and  N1_4 
REMARK    1  A    between atoms: N1_4  and  C3_6 
REMARK    2  A    between atoms: C4_7  and  O2_8 
REMARK    3  A    between atoms: O2_8  and  P1_9 
REMARK    4  A    between atoms: P1_9  and  O5_12 
REMARK    5  A    between atoms: O5_12  and  P2_13 
REMARK    6  A    between atoms: P2_13  and  O8_16 
REMARK    7  A    between atoms: O8_16  and  C5_17 
REMARK    8  A    between atoms: C5_17  and  C6_18 
REMARK    9  A    between atoms: C7_20  and  N2_21 
REMARK   10  A    between atoms: C12_30  and  O12_31 
REMARK   11  A    between atoms: C13_33  and  O13_34 
REMARK   12  A    between atoms: C14_37  and  C15_38 
REMARK   13  A    between atoms: C15_38  and  O15_39 
REMARK   14  A    between atoms: C16_41  and  O16_42 
REMARK   15  A    between atoms: C17_44  and  O17_45 
ROOT
HETATM    1  O5  UNL     1     -38.921  -0.517  12.027  1.00  0.00    -0.180 OA
ENDROOT
BRANCH   1   2
HETATM    2  P1  UNL     1     -38.919  -0.614  10.507  1.00  0.00     0.420 P 
HETATM    3  O3  UNL     1     -40.303   0.330  10.501  1.00  0.00    -0.624 OA
HETATM    4  O4  UNL     1     -39.094  -2.205  10.408  1.00  0.00    -0.624 OA
BRANCH   2   5
HETATM    5  O2  UNL     1     -38.846  -0.401   8.976  1.00  0.00    -0.256 OA
BRANCH   5   6
HETATM    6  C4  UNL     1     -37.902   0.481   8.491  1.00  0.00     0.298 C 
HETATM    7  C3  UNL     1     -36.703  -0.186   7.884  1.00  0.00     0.171 C 
HETATM    8  C17 UNL     1     -36.046   0.863   7.009  1.00  0.00     0.177 C 
HETATM    9  C16 UNL     1     -36.489   2.210   7.510  1.00  0.00     0.180 C 
HETATM   10  C14 UNL     1     -36.725   2.307   8.974  1.00  0.00     0.179 C 
HETATM   11  O14 UNL     1     -37.482   1.276   9.513  1.00  0.00    -0.348 OA
BRANCH   7  12
HETATM   12  N1  UNL     1     -35.726  -0.625   8.831  1.00  0.00    -0.349 N 
HETATM   13  C2  UNL     1     -35.539  -1.960   9.247  1.00  0.00     0.214 C 
HETATM   14  C1  UNL     1     -34.496  -2.302  10.235  1.00  0.00     0.117 C 
HETATM   15  O1  UNL     1     -36.258  -2.847   8.777  1.00  0.00    -0.274 OA
ATOM     16  H1  UNL     1     -35.115   0.083   9.238  1.00  0.00     0.163 HD
ENDBRANCH   7  12
BRANCH   8  17
HETATM   17  O17 UNL     1     -36.427   0.672   5.664  1.00  0.00    -0.391 OA
ATOM     18  H17 UNL     1     -37.237   1.137   5.489  1.00  0.00     0.210 HD
ENDBRANCH   8  17
BRANCH   9  19
HETATM   19  O16 UNL     1     -35.422   3.093   7.212  1.00  0.00    -0.390 OA
ATOM     20  H16 UNL     1     -35.643   3.929   7.606  1.00  0.00     0.210 HD
ENDBRANCH   9  19
BRANCH  10  21
HETATM   21  C15 UNL     1     -37.486   3.619   9.212  1.00  0.00     0.198 C 
BRANCH  21  22
HETATM   22  O15 UNL     1     -38.030   4.050   7.984  1.00  0.00    -0.398 OA
ATOM     23  H15 UNL     1     -38.976   3.985   8.034  1.00  0.00     0.209 HD
ENDBRANCH  21  22
ENDBRANCH  10  21
ENDBRANCH   5   6
ENDBRANCH   2   5
ENDBRANCH   1   2
BRANCH   1  24
HETATM   24  P2  UNL     1     -37.550  -0.847  12.889  1.00  0.00     0.417 P 
HETATM   25  O6  UNL     1     -36.710  -0.259  11.755  1.00  0.00    -0.624 OA
HETATM   26  O7  UNL     1     -36.851  -2.353  12.735  1.00  0.00    -0.624 OA
BRANCH  24  27
HETATM   27  O8  UNL     1     -37.003   0.202  14.004  1.00  0.00    -0.287 OA
BRANCH  27  28
HETATM   28  C5  UNL     1     -37.762   0.359  15.132  1.00  0.00     0.216 C 
BRANCH  28  29
HETATM   29  C6  UNL     1     -38.207   1.804  15.201  1.00  0.00     0.180 C 
HETATM   30  O9  UNL     1     -37.242   2.621  15.763  1.00  0.00    -0.353 OA
HETATM   31  C7  UNL     1     -37.691   3.900  15.409  1.00  0.00     0.263 C 
HETATM   32  C12 UNL     1     -38.114   3.816  13.971  1.00  0.00     0.198 C 
HETATM   33  C13 UNL     1     -38.240   2.315  13.763  1.00  0.00     0.182 C 
BRANCH  31  34
HETATM   34  N2  UNL     1     -36.640   4.886  15.523  1.00  0.00    -0.280 N 
HETATM   35  C8  UNL     1     -35.688   4.931  14.581  1.00  0.00     0.104 A 
HETATM   36  C9  UNL     1     -34.695   5.886  14.719  1.00  0.00     0.092 A 
HETATM   37  C10 UNL     1     -34.739   6.735  15.811  1.00  0.00     0.250 A 
HETATM   38  O10 UNL     1     -33.815   7.587  15.893  1.00  0.00    -0.268 OA
HETATM   39  N3  UNL     1     -35.710   6.666  16.743  1.00  0.00    -0.275 N 
HETATM   40  C11 UNL     1     -36.670   5.718  16.579  1.00  0.00     0.331 A 
ATOM     41  H3  UNL     1     -35.725   7.302  17.540  1.00  0.00     0.173 HD
HETATM   42  O11 UNL     1     -37.582   5.657  17.459  1.00  0.00    -0.246 OA
ENDBRANCH  31  34
BRANCH  32  43
HETATM   43  O12 UNL     1     -39.335   4.419  13.722  1.00  0.00    -0.388 OA
ATOM     44  H12 UNL     1     -39.979   3.827  13.351  1.00  0.00     0.210 HD
ENDBRANCH  32  43
BRANCH  33  45
HETATM   45  O13 UNL     1     -39.436   2.008  13.150  1.00  0.00    -0.390 OA
ATOM     46  H13 UNL     1     -40.175   2.314  13.663  1.00  0.00     0.210 HD
ENDBRANCH  33  45
ENDBRANCH  28  29
ENDBRANCH  27  28
ENDBRANCH  24  27
ENDBRANCH   1  24
TORSDOF 15
ENDMDL
