MODEL 1
REMARK VINA RESULT: -9.737494913      0.000      0.000
REMARK  15 active torsions:
REMARK  status: ('A' for Active; 'I' for Inactive)
REMARK       I    between atoms: C2_2  and  N1_4 
REMARK    1  A    between atoms: N1_4  and  C3_6 
REMARK    2  A    between atoms: C4_7  and  O2_8 
REMARK    3  A    between atoms: O2_8  and  P1_9 
REMARK    4  A    between atoms: P1_9  and  O5_12 
REMARK    5  A    between atoms: O5_12  and  P2_13 
REMARK    6  A    between atoms: P2_13  and  O8_16 
REMARK    7  A    between atoms: O8_16  and  C5_17 
REMARK    8  A    between atoms: C5_17  and  C6_18 
REMARK    9  A    between atoms: C7_20  and  N2_21 
REMARK   10  A    between atoms: C12_30  and  O12_31 
REMARK   11  A    between atoms: C13_33  and  O13_34 
REMARK   12  A    between atoms: C14_37  and  C15_38 
REMARK   13  A    between atoms: C15_38  and  O15_39 
REMARK   14  A    between atoms: C16_41  and  O16_42 
REMARK   15  A    between atoms: C17_44  and  O17_45 
ROOT
HETATM    1  O5  UNL     1     -37.723   2.151  15.789  1.00  0.00    -0.180 OA
ENDROOT
BRANCH   1   2
HETATM    2  P1  UNL     1     -37.694   0.959  14.840  1.00  0.00     0.420 P 
HETATM    3  O3  UNL     1     -39.357   0.852  15.014  1.00  0.00    -0.624 OA
HETATM    4  O4  UNL     1     -36.780   0.004  15.748  1.00  0.00    -0.624 OA
BRANCH   2   5
HETATM    5  O2  UNL     1     -37.816  -0.053  13.676  1.00  0.00    -0.256 OA
BRANCH   5   6
HETATM    6  C4  UNL     1     -38.566   0.314  12.577  1.00  0.00     0.298 C 
HETATM    7  C3  UNL     1     -38.439  -0.626  11.415  1.00  0.00     0.171 C 
HETATM    8  C17 UNL     1     -39.643  -0.357  10.534  1.00  0.00     0.177 C 
HETATM    9  C16 UNL     1     -40.134   1.028  10.852  1.00  0.00     0.180 C 
HETATM   10  C14 UNL     1     -39.087   2.010  11.235  1.00  0.00     0.179 C 
HETATM   11  O14 UNL     1     -38.174   1.553  12.175  1.00  0.00    -0.348 OA
BRANCH   7  12
HETATM   12  N1  UNL     1     -37.271  -0.425  10.615  1.00  0.00    -0.349 N 
HETATM   13  C2  UNL     1     -36.639  -1.417   9.834  1.00  0.00     0.214 C 
HETATM   14  C1  UNL     1     -35.434  -1.098   9.044  1.00  0.00     0.117 C 
HETATM   15  O1  UNL     1     -37.105  -2.560   9.816  1.00  0.00    -0.274 OA
ATOM     16  H1  UNL     1     -36.862   0.509  10.607  1.00  0.00     0.163 HD
ENDBRANCH   7  12
BRANCH   8  17
HETATM   17  O17 UNL     1     -40.644  -1.320  10.784  1.00  0.00    -0.391 OA
ATOM     18  H17 UNL     1     -41.261  -1.337  10.062  1.00  0.00     0.210 HD
ENDBRANCH   8  17
BRANCH   9  19
HETATM   19  O16 UNL     1     -40.718   1.506   9.652  1.00  0.00    -0.390 OA
ATOM     20  H16 UNL     1     -40.631   0.810   9.012  1.00  0.00     0.210 HD
ENDBRANCH   9  19
BRANCH  10  21
HETATM   21  C15 UNL     1     -39.816   3.218  11.842  1.00  0.00     0.198 C 
BRANCH  21  22
HETATM   22  O15 UNL     1     -40.127   2.924  13.186  1.00  0.00    -0.398 OA
ATOM     23  H15 UNL     1     -40.518   3.694  13.580  1.00  0.00     0.209 HD
ENDBRANCH  21  22
ENDBRANCH  10  21
ENDBRANCH   5   6
ENDBRANCH   2   5
ENDBRANCH   1   2
BRANCH   1  24
HETATM   24  P2  UNL     1     -37.022   3.583  15.357  1.00  0.00     0.417 P 
HETATM   25  O6  UNL     1     -36.048   2.821  14.458  1.00  0.00    -0.624 OA
HETATM   26  O7  UNL     1     -35.794   4.191  16.307  1.00  0.00    -0.624 OA
BRANCH  24  27
HETATM   27  O8  UNL     1     -37.639   4.472  14.144  1.00  0.00    -0.287 OA
BRANCH  27  28
HETATM   28  C5  UNL     1     -36.763   4.899  13.182  1.00  0.00     0.216 C 
BRANCH  28  29
HETATM   29  C6  UNL     1     -37.317   6.171  12.575  1.00  0.00     0.180 C 
HETATM   30  O9  UNL     1     -37.680   6.001  11.250  1.00  0.00    -0.353 OA
HETATM   31  C7  UNL     1     -38.466   7.135  11.009  1.00  0.00     0.263 C 
HETATM   32  C12 UNL     1     -39.360   7.292  12.204  1.00  0.00     0.198 C 
HETATM   33  C13 UNL     1     -38.672   6.410  13.234  1.00  0.00     0.182 C 
BRANCH  31  34
HETATM   34  N2  UNL     1     -39.291   6.973   9.834  1.00  0.00    -0.280 N 
HETATM   35  C8  UNL     1     -39.675   5.740   9.475  1.00  0.00     0.104 A 
HETATM   36  C9  UNL     1     -40.464   5.617   8.345  1.00  0.00     0.092 A 
HETATM   37  C10 UNL     1     -40.813   6.763   7.653  1.00  0.00     0.250 A 
HETATM   38  O10 UNL     1     -41.533   6.601   6.632  1.00  0.00    -0.268 OA
HETATM   39  N3  UNL     1     -40.413   7.991   8.037  1.00  0.00    -0.275 N 
HETATM   40  C11 UNL     1     -39.638   8.078   9.151  1.00  0.00     0.331 A 
ATOM     41  H3  UNL     1     -40.681   8.824   7.513  1.00  0.00     0.173 HD
HETATM   42  O11 UNL     1     -39.264   9.236   9.509  1.00  0.00    -0.246 OA
ENDBRANCH  31  34
BRANCH  32  43
HETATM   43  O12 UNL     1     -39.421   8.591  12.678  1.00  0.00    -0.388 OA
ATOM     44  H12 UNL     1     -39.809   8.660  13.542  1.00  0.00     0.210 HD
ENDBRANCH  32  43
BRANCH  33  45
HETATM   45  O13 UNL     1     -38.535   7.079  14.432  1.00  0.00    -0.390 OA
ATOM     46  H13 UNL     1     -39.198   7.752  14.529  1.00  0.00     0.210 HD
ENDBRANCH  33  45
ENDBRANCH  28  29
ENDBRANCH  27  28
ENDBRANCH  24  27
ENDBRANCH   1  24
TORSDOF 15
ENDMDL
