MODEL 3
REMARK VINA RESULT: -9.465372342      4.210      6.759
REMARK  15 active torsions:
REMARK  status: ('A' for Active; 'I' for Inactive)
REMARK       I    between atoms: C2_2  and  N1_4 
REMARK    1  A    between atoms: N1_4  and  C3_6 
REMARK    2  A    between atoms: C4_7  and  O2_8 
REMARK    3  A    between atoms: O2_8  and  P1_9 
REMARK    4  A    between atoms: P1_9  and  O5_12 
REMARK    5  A    between atoms: O5_12  and  P2_13 
REMARK    6  A    between atoms: P2_13  and  O8_16 
REMARK    7  A    between atoms: O8_16  and  C5_17 
REMARK    8  A    between atoms: C5_17  and  C6_18 
REMARK    9  A    between atoms: C7_20  and  N2_21 
REMARK   10  A    between atoms: C12_30  and  O12_31 
REMARK   11  A    between atoms: C13_33  and  O13_34 
REMARK   12  A    between atoms: C14_37  and  C15_38 
REMARK   13  A    between atoms: C15_38  and  O15_39 
REMARK   14  A    between atoms: C16_41  and  O16_42 
REMARK   15  A    between atoms: C17_44  and  O17_45 
ROOT
HETATM    1  O5  UNL     1     -36.713  -1.111   8.019  1.00  0.00    -0.180 OA
ENDROOT
BRANCH   1   2
HETATM    2  P1  UNL     1     -35.545  -1.584   8.875  1.00  0.00     0.420 P 
HETATM    3  O3  UNL     1     -36.363  -3.031   9.091  1.00  0.00    -0.624 OA
HETATM    4  O4  UNL     1     -35.674  -0.470  10.022  1.00  0.00    -0.624 OA
BRANCH   2   5
HETATM    5  O2  UNL     1     -34.306  -2.267   9.503  1.00  0.00    -0.256 OA
BRANCH   5   6
HETATM    6  C4  UNL     1     -33.093  -2.117   8.862  1.00  0.00     0.298 C 
HETATM    7  C3  UNL     1     -32.072  -3.146   9.248  1.00  0.00     0.171 C 
HETATM    8  C17 UNL     1     -31.033  -3.131   8.145  1.00  0.00     0.177 C 
HETATM    9  C16 UNL     1     -31.127  -1.798   7.455  1.00  0.00     0.180 C 
HETATM   10  C14 UNL     1     -31.509  -0.651   8.320  1.00  0.00     0.179 C 
HETATM   11  O14 UNL     1     -32.595  -0.885   9.152  1.00  0.00    -0.348 OA
BRANCH   7  12
HETATM   12  N1  UNL     1     -31.393  -2.875  10.477  1.00  0.00    -0.349 N 
HETATM   13  C2  UNL     1     -31.175  -3.812  11.510  1.00  0.00     0.214 C 
HETATM   14  C1  UNL     1     -30.460  -3.422  12.741  1.00  0.00     0.117 C 
HETATM   15  O1  UNL     1     -31.589  -4.967  11.376  1.00  0.00    -0.274 OA
ATOM     16  H1  UNL     1     -31.038  -1.929  10.619  1.00  0.00     0.163 HD
ENDBRANCH   7  12
BRANCH   8  17
HETATM   17  O17 UNL     1     -31.278  -4.187   7.242  1.00  0.00    -0.391 OA
ATOM     18  H17 UNL     1     -31.374  -3.843   6.362  1.00  0.00     0.210 HD
ENDBRANCH   8  17
BRANCH   9  19
HETATM   19  O16 UNL     1     -29.820  -1.527   6.978  1.00  0.00    -0.390 OA
ATOM     20  H16 UNL     1     -29.716  -2.024   6.176  1.00  0.00     0.210 HD
ENDBRANCH   9  19
BRANCH  10  21
HETATM   21  C15 UNL     1     -31.882   0.504   7.380  1.00  0.00     0.198 C 
BRANCH  21  22
HETATM   22  O15 UNL     1     -32.638  -0.015   6.309  1.00  0.00    -0.398 OA
ATOM     23  H15 UNL     1     -32.393   0.446   5.515  1.00  0.00     0.209 HD
ENDBRANCH  21  22
ENDBRANCH  10  21
ENDBRANCH   5   6
ENDBRANCH   2   5
ENDBRANCH   1   2
BRANCH   1  24
HETATM   24  P2  UNL     1     -36.635   0.334   7.221  1.00  0.00     0.417 P 
HETATM   25  O6  UNL     1     -37.905  -0.036   6.453  1.00  0.00    -0.624 OA
HETATM   26  O7  UNL     1     -35.725   0.430   5.827  1.00  0.00    -0.624 OA
BRANCH  24  27
HETATM   27  O8  UNL     1     -37.274   1.676   7.878  1.00  0.00    -0.287 OA
BRANCH  27  28
HETATM   28  C5  UNL     1     -36.396   2.622   8.333  1.00  0.00     0.216 C 
BRANCH  28  29
HETATM   29  C6  UNL     1     -37.198   3.762   8.922  1.00  0.00     0.180 C 
HETATM   30  O9  UNL     1     -37.669   4.626   7.949  1.00  0.00    -0.353 OA
HETATM   31  C7  UNL     1     -38.640   5.359   8.645  1.00  0.00     0.263 C 
HETATM   32  C12 UNL     1     -39.416   4.365   9.458  1.00  0.00     0.198 C 
HETATM   33  C13 UNL     1     -38.497   3.153   9.443  1.00  0.00     0.182 C 
BRANCH  31  34
HETATM   34  N2  UNL     1     -39.550   6.029   7.744  1.00  0.00    -0.280 N 
HETATM   35  C8  UNL     1     -39.833   5.460   6.564  1.00  0.00     0.104 A 
HETATM   36  C9  UNL     1     -40.707   6.126   5.723  1.00  0.00     0.092 A 
HETATM   37  C10 UNL     1     -41.239   7.332   6.143  1.00  0.00     0.250 A 
HETATM   38  O10 UNL     1     -42.031   7.901   5.345  1.00  0.00    -0.268 OA
HETATM   39  N3  UNL     1     -40.938   7.881   7.336  1.00  0.00    -0.275 N 
HETATM   40  C11 UNL     1     -40.075   7.202   8.138  1.00  0.00     0.331 A 
ATOM     41  H3  UNL     1     -41.341   8.772   7.627  1.00  0.00     0.173 HD
HETATM   42  O11 UNL     1     -39.794   7.723   9.260  1.00  0.00    -0.246 OA
ENDBRANCH  31  34
BRANCH  32  43
HETATM   43  O12 UNL     1     -39.624   4.768  10.766  1.00  0.00    -0.388 OA
ATOM     44  H12 UNL     1     -39.448   4.086  11.403  1.00  0.00     0.210 HD
ENDBRANCH  32  43
BRANCH  33  45
HETATM   45  O13 UNL     1     -38.338   2.649  10.717  1.00  0.00    -0.390 OA
ATOM     46  H13 UNL     1     -39.073   2.101  10.965  1.00  0.00     0.210 HD
ENDBRANCH  33  45
ENDBRANCH  28  29
ENDBRANCH  27  28
ENDBRANCH  24  27
ENDBRANCH   1  24
TORSDOF 15
ENDMDL
