MODEL 15
REMARK VINA RESULT: -10.483772362      5.198     10.799
REMARK  5 active torsions:
REMARK  status: ('A' for Active; 'I' for Inactive)
REMARK    1  A    between atoms: C2_2  and  N1_4 
REMARK    2  A    between atoms: C4_7  and  C5_8 
REMARK    3  A    between atoms: C10_13  and  O1_14 
REMARK    4  A    between atoms: O1_14  and  C11_15 
REMARK    5  A    between atoms: C11_15  and  C12_16 
ROOT
HETATM    1  C5  UNL     1       8.578  14.736  65.148  1.00  0.00    -0.006 A 
HETATM    2  C6  UNL     1       9.362  14.352  66.228  1.00  0.00     0.014 A 
HETATM    3  C7  UNL     1      10.741  14.501  66.214  1.00  0.00     0.013 A 
HETATM    4  C8  UNL     1      11.350  15.046  65.096  1.00  0.00    -0.023 A 
HETATM    5  C9  UNL     1      12.717  15.228  65.001  1.00  0.00     0.049 A 
HETATM    6  C10 UNL     1      13.335  15.763  63.906  1.00  0.00     0.070 A 
HETATM    7  C18 UNL     1      12.556  16.144  62.835  1.00  0.00     0.037 A 
HETATM    8  C19 UNL     1      11.170  15.973  62.900  1.00  0.00     0.015 A 
HETATM    9  C20 UNL     1      10.565  15.430  64.015  1.00  0.00    -0.025 A 
HETATM   10  C21 UNL     1       9.190  15.277  64.041  1.00  0.00     0.026 A 
ENDROOT
BRANCH   1  11
HETATM   11  C4  UNL     1       7.142  14.577  65.257  1.00  0.00     0.076 A 
HETATM   12  N2  UNL     1       6.368  14.805  66.346  1.00  0.00    -0.295 N 
HETATM   13  N1  UNL     1       5.111  14.542  66.110  1.00  0.00    -0.271 N 
ATOM     14  H2  UNL     1       6.724  15.140  67.241  1.00  0.00     0.187 HD
HETATM   15  C25 UNL     1       5.033  14.125  64.824  1.00  0.00     0.139 A 
HETATM   16  C22 UNL     1       6.311  14.134  64.251  1.00  0.00     0.080 A 
HETATM   17  N5  UNL     1       3.999  13.722  64.060  1.00  0.00    -0.337 N 
HETATM   18  C23 UNL     1       6.474  13.730  62.927  1.00  0.00     0.133 A 
HETATM   19  N3  UNL     1       7.763  13.722  62.377  1.00  0.00    -0.082 NA
HETATM   20  N4  UNL     1       5.375  13.348  62.259  1.00  0.00    -0.340 N 
HETATM   21  C24 UNL     1       4.142  13.332  62.786  1.00  0.00     0.183 A 
ATOM     22  H4  UNL     1       5.483  13.052  61.289  1.00  0.00     0.167 HD
ATOM     23  H5  UNL     1       3.065  13.712  64.470  1.00  0.00     0.168 HD
BRANCH  13  24
HETATM   24  C2  UNL     1       3.950  14.640  66.968  1.00  0.00     0.102 C 
HETATM   25  C1  UNL     1       4.308  14.473  68.411  1.00  0.00     0.034 C 
HETATM   26  C3  UNL     1       3.283  15.976  66.685  1.00  0.00     0.034 C 
ENDBRANCH  13  24
ENDBRANCH   1  11
BRANCH   6  27
HETATM   27  O1  UNL     1      14.701  15.950  63.798  1.00  0.00    -0.347 OA
BRANCH  27  28
HETATM   28  C11 UNL     1      15.437  15.802  62.603  1.00  0.00     0.214 C 
BRANCH  28  29
HETATM   29  C12 UNL     1      16.524  14.816  62.832  1.00  0.00    -0.033 A 
HETATM   30  C13 UNL     1      16.208  13.569  63.326  1.00  0.00     0.009 A 
HETATM   31  C14 UNL     1      17.160  12.600  63.574  1.00  0.00     0.002 A 
HETATM   32  C15 UNL     1      18.505  12.877  63.318  1.00  0.00     0.024 A 
HETATM   33  C16 UNL     1      18.810  14.118  62.827  1.00  0.00     0.034 A 
HETATM   34 CL1  UNL     1      20.513  14.471  62.503  1.00  0.00    -0.084 Cl
HETATM   35  C17 UNL     1      17.867  15.090  62.578  1.00  0.00     0.033 A 
ENDBRANCH  28  29
ENDBRANCH  27  28
ENDBRANCH   6  27
TORSDOF 5
ENDMDL
