MODEL 17
REMARK VINA RESULT: -10.387030699      2.989      5.629
REMARK  5 active torsions:
REMARK  status: ('A' for Active; 'I' for Inactive)
REMARK    1  A    between atoms: C2_2  and  N1_4 
REMARK    2  A    between atoms: C4_7  and  C5_8 
REMARK    3  A    between atoms: C10_13  and  O1_14 
REMARK    4  A    between atoms: O1_14  and  C11_15 
REMARK    5  A    between atoms: C11_15  and  C12_16 
ROOT
HETATM    1  C5  UNL     1      17.791  13.597  62.606  1.00  0.00    -0.006 A 
HETATM    2  C6  UNL     1      17.126  12.397  62.823  1.00  0.00     0.014 A 
HETATM    3  C7  UNL     1      15.776  12.362  63.142  1.00  0.00     0.013 A 
HETATM    4  C8  UNL     1      15.076  13.552  63.246  1.00  0.00    -0.023 A 
HETATM    5  C9  UNL     1      13.731  13.605  63.559  1.00  0.00     0.049 A 
HETATM    6  C10 UNL     1      13.024  14.769  63.667  1.00  0.00     0.070 A 
HETATM    7  C18 UNL     1      13.685  15.959  63.450  1.00  0.00     0.037 A 
HETATM    8  C19 UNL     1      15.045  15.939  63.130  1.00  0.00     0.015 A 
HETATM    9  C20 UNL     1      15.742  14.753  63.028  1.00  0.00    -0.025 A 
HETATM   10  C21 UNL     1      17.088  14.775  62.709  1.00  0.00     0.026 A 
ENDROOT
BRANCH   1  11
HETATM   11  C4  UNL     1      19.193  13.544  62.244  1.00  0.00     0.076 A 
HETATM   12  N2  UNL     1      20.159  12.772  62.799  1.00  0.00    -0.295 N 
HETATM   13  N1  UNL     1      21.324  12.986  62.249  1.00  0.00    -0.271 N 
ATOM     14  H2  UNL     1      19.996  12.106  63.553  1.00  0.00     0.187 HD
HETATM   15  C25 UNL     1      21.140  13.929  61.295  1.00  0.00     0.139 A 
HETATM   16  C22 UNL     1      19.792  14.308  61.266  1.00  0.00     0.080 A 
HETATM   17  N5  UNL     1      21.986  14.528  60.433  1.00  0.00    -0.337 N 
HETATM   18  C23 UNL     1      19.371  15.282  60.362  1.00  0.00     0.133 A 
HETATM   19  N3  UNL     1      18.023  15.666  60.363  1.00  0.00    -0.082 NA
HETATM   20  N4  UNL     1      20.298  15.811  59.549  1.00  0.00    -0.340 N 
HETATM   21  C24 UNL     1      21.593  15.464  59.559  1.00  0.00     0.183 A 
ATOM     22  H4  UNL     1      20.000  16.523  58.883  1.00  0.00     0.167 HD
ATOM     23  H5  UNL     1      22.969  14.257  60.448  1.00  0.00     0.168 HD
BRANCH  13  24
HETATM   24  C2  UNL     1      22.617  12.395  62.520  1.00  0.00     0.102 C 
HETATM   25  C1  UNL     1      23.478  13.292  63.351  1.00  0.00     0.034 C 
HETATM   26  C3  UNL     1      22.375  11.047  63.180  1.00  0.00     0.034 C 
ENDBRANCH  13  24
ENDBRANCH   1  11
BRANCH   6  27
HETATM   27  O1  UNL     1      11.678  14.836  63.980  1.00  0.00    -0.347 OA
BRANCH  27  28
HETATM   28  C11 UNL     1      11.145  15.564  65.066  1.00  0.00     0.214 C 
BRANCH  28  29
HETATM   29  C12 UNL     1       9.744  15.126  65.289  1.00  0.00    -0.033 A 
HETATM   30  C13 UNL     1       9.450  14.338  66.381  1.00  0.00     0.009 A 
HETATM   31  C14 UNL     1       8.176  13.883  66.655  1.00  0.00     0.002 A 
HETATM   32  C15 UNL     1       7.125  14.227  65.800  1.00  0.00     0.024 A 
HETATM   33  C16 UNL     1       7.425  15.011  64.717  1.00  0.00     0.034 A 
HETATM   34 CL1  UNL     1       6.097  15.447  63.633  1.00  0.00    -0.084 Cl
HETATM   35  C17 UNL     1       8.694  15.468  64.438  1.00  0.00     0.033 A 
ENDBRANCH  28  29
ENDBRANCH  27  28
ENDBRANCH   6  27
TORSDOF 5
ENDMDL
