MODEL 16
REMARK VINA RESULT: -10.433552652      3.856      6.693
REMARK  5 active torsions:
REMARK  status: ('A' for Active; 'I' for Inactive)
REMARK    1  A    between atoms: C2_2  and  N1_4 
REMARK    2  A    between atoms: C4_7  and  C5_8 
REMARK    3  A    between atoms: C10_13  and  O1_14 
REMARK    4  A    between atoms: O1_14  and  C11_15 
REMARK    5  A    between atoms: C11_15  and  C12_16 
ROOT
HETATM    1  C5  UNL     1      19.258  14.545  62.474  1.00  0.00    -0.006 A 
HETATM    2  C6  UNL     1      18.834  13.250  62.741  1.00  0.00     0.014 A 
HETATM    3  C7  UNL     1      17.505  12.964  63.021  1.00  0.00     0.013 A 
HETATM    4  C8  UNL     1      16.581  13.995  63.033  1.00  0.00    -0.023 A 
HETATM    5  C9  UNL     1      15.241  13.796  63.302  1.00  0.00     0.049 A 
HETATM    6  C10 UNL     1      14.314  14.801  63.319  1.00  0.00     0.070 A 
HETATM    7  C18 UNL     1      14.737  16.086  63.053  1.00  0.00     0.037 A 
HETATM    8  C19 UNL     1      16.087  16.319  62.777  1.00  0.00     0.015 A 
HETATM    9  C20 UNL     1      17.007  15.291  62.765  1.00  0.00    -0.025 A 
HETATM   10  C21 UNL     1      18.334  15.563  62.487  1.00  0.00     0.026 A 
ENDROOT
BRANCH   1  11
HETATM   11  C4  UNL     1      20.658  14.752  62.158  1.00  0.00     0.076 A 
HETATM   12  N2  UNL     1      21.722  14.577  62.977  1.00  0.00    -0.295 N 
HETATM   13  N1  UNL     1      22.845  14.874  62.381  1.00  0.00    -0.271 N 
ATOM     14  H2  UNL     1      21.655  14.252  63.942  1.00  0.00     0.187 HD
HETATM   15  C25 UNL     1      22.530  15.262  61.122  1.00  0.00     0.139 A 
HETATM   16  C22 UNL     1      21.142  15.197  60.947  1.00  0.00     0.080 A 
HETATM   17  N5  UNL     1      23.282  15.679  60.085  1.00  0.00    -0.337 N 
HETATM   18  C23 UNL     1      20.586  15.563  59.723  1.00  0.00     0.133 A 
HETATM   19  N3  UNL     1      19.194  15.516  59.572  1.00  0.00    -0.082 NA
HETATM   20  N4  UNL     1      21.429  15.963  58.758  1.00  0.00    -0.340 N 
HETATM   21  C24 UNL     1      22.760  16.032  58.903  1.00  0.00     0.183 A 
ATOM     22  H4  UNL     1      21.032  16.232  57.857  1.00  0.00     0.167 HD
ATOM     23  H5  UNL     1      24.293  15.729  60.205  1.00  0.00     0.168 HD
BRANCH  13  24
HETATM   24  C2  UNL     1      24.208  14.835  62.866  1.00  0.00     0.102 C 
HETATM   25  C1  UNL     1      24.425  15.788  63.998  1.00  0.00     0.034 C 
HETATM   26  C3  UNL     1      24.518  13.397  63.248  1.00  0.00     0.034 C 
ENDBRANCH  13  24
ENDBRANCH   1  11
BRANCH   6  27
HETATM   27  O1  UNL     1      12.970  14.615  63.588  1.00  0.00    -0.347 OA
BRANCH  27  28
HETATM   28  C11 UNL     1      12.009  15.648  63.611  1.00  0.00     0.214 C 
BRANCH  28  29
HETATM   29  C12 UNL     1      10.931  15.274  64.562  1.00  0.00    -0.033 A 
HETATM   30  C13 UNL     1      11.250  14.554  65.693  1.00  0.00     0.009 A 
HETATM   31  C14 UNL     1      10.307  14.162  66.621  1.00  0.00     0.002 A 
HETATM   32  C15 UNL     1       8.965  14.500  66.422  1.00  0.00     0.024 A 
HETATM   33  C16 UNL     1       8.657  15.216  65.296  1.00  0.00     0.034 A 
HETATM   34 CL1  UNL     1       6.959  15.645  65.043  1.00  0.00    -0.084 Cl
HETATM   35  C17 UNL     1       9.592  15.611  64.366  1.00  0.00     0.033 A 
ENDBRANCH  28  29
ENDBRANCH  27  28
ENDBRANCH   6  27
TORSDOF 5
ENDMDL
