MODEL 2
REMARK VINA RESULT: -12.718242040      0.890      1.490
REMARK  5 active torsions:
REMARK  status: ('A' for Active; 'I' for Inactive)
REMARK    1  A    between atoms: C2_2  and  N1_4 
REMARK    2  A    between atoms: C4_7  and  C5_8 
REMARK    3  A    between atoms: C10_13  and  O1_14 
REMARK    4  A    between atoms: O1_14  and  C11_15 
REMARK    5  A    between atoms: C11_15  and  C12_16 
ROOT
HETATM    1  C5  UNL     1      12.751  15.508  64.150  1.00  0.00    -0.006 A 
HETATM    2  C6  UNL     1      12.826  15.059  65.462  1.00  0.00     0.014 A 
HETATM    3  C7  UNL     1      11.688  14.714  66.177  1.00  0.00     0.013 A 
HETATM    4  C8  UNL     1      10.449  14.818  65.566  1.00  0.00    -0.023 A 
HETATM    5  C9  UNL     1       9.269  14.494  66.207  1.00  0.00     0.049 A 
HETATM    6  C10 UNL     1       8.038  14.591  65.622  1.00  0.00     0.070 A 
HETATM    7  C18 UNL     1       7.966  15.036  64.319  1.00  0.00     0.037 A 
HETATM    8  C19 UNL     1       9.143  15.371  63.643  1.00  0.00     0.015 A 
HETATM    9  C20 UNL     1      10.376  15.267  64.253  1.00  0.00    -0.025 A 
HETATM   10  C21 UNL     1      11.518  15.608  63.550  1.00  0.00     0.026 A 
ENDROOT
BRANCH   1  11
HETATM   11  C4  UNL     1      13.990  15.817  63.464  1.00  0.00     0.076 A 
HETATM   12  N2  UNL     1      14.378  17.013  62.961  1.00  0.00    -0.295 N 
HETATM   13  N1  UNL     1      15.547  16.939  62.383  1.00  0.00    -0.271 N 
ATOM     14  H2  UNL     1      13.825  17.867  63.026  1.00  0.00     0.187 HD
HETATM   15  C25 UNL     1      15.961  15.655  62.499  1.00  0.00     0.139 A 
HETATM   16  C22 UNL     1      14.990  14.911  63.182  1.00  0.00     0.080 A 
HETATM   17  N5  UNL     1      17.074  15.018  62.086  1.00  0.00    -0.337 N 
HETATM   18  C23 UNL     1      15.200  13.552  63.409  1.00  0.00     0.133 A 
HETATM   19  N3  UNL     1      14.208  12.817  64.072  1.00  0.00    -0.082 NA
HETATM   20  N4  UNL     1      16.345  13.020  62.954  1.00  0.00    -0.340 N 
HETATM   21  C24 UNL     1      17.288  13.713  62.299  1.00  0.00     0.183 A 
ATOM     22  H4  UNL     1      16.508  12.027  63.116  1.00  0.00     0.167 HD
ATOM     23  H5  UNL     1      17.785  15.553  61.588  1.00  0.00     0.168 HD
BRANCH  13  24
HETATM   24  C2  UNL     1      16.337  17.956  61.722  1.00  0.00     0.102 C 
HETATM   25  C1  UNL     1      15.485  18.908  60.945  1.00  0.00     0.034 C 
HETATM   26  C3  UNL     1      17.168  18.654  62.786  1.00  0.00     0.034 C 
ENDBRANCH  13  24
ENDBRANCH   1  11
BRANCH   6  27
HETATM   27  O1  UNL     1       6.849  14.271  66.252  1.00  0.00    -0.347 OA
BRANCH  27  28
HETATM   28  C11 UNL     1       5.605  14.147  65.598  1.00  0.00     0.214 C 
BRANCH  28  29
HETATM   29  C12 UNL     1       4.563  14.806  66.427  1.00  0.00    -0.033 A 
HETATM   30  C13 UNL     1       4.479  14.503  67.769  1.00  0.00     0.009 A 
HETATM   31  C14 UNL     1       3.536  15.066  68.605  1.00  0.00     0.002 A 
HETATM   32  C15 UNL     1       2.619  15.985  68.086  1.00  0.00     0.024 A 
HETATM   33  C16 UNL     1       2.709  16.280  66.752  1.00  0.00     0.034 A 
HETATM   34 CL1  UNL     1       1.549  17.442  66.094  1.00  0.00    -0.084 Cl
HETATM   35  C17 UNL     1       3.647  15.722  65.912  1.00  0.00     0.033 A 
ENDBRANCH  28  29
ENDBRANCH  27  28
ENDBRANCH   6  27
TORSDOF 5
ENDMDL
