MODEL 1
REMARK VINA RESULT: -12.751069324      0.000      0.000
REMARK  5 active torsions:
REMARK  status: ('A' for Active; 'I' for Inactive)
REMARK    1  A    between atoms: C2_2  and  N1_4 
REMARK    2  A    between atoms: C4_7  and  C5_8 
REMARK    3  A    between atoms: C10_13  and  O1_14 
REMARK    4  A    between atoms: O1_14  and  C11_15 
REMARK    5  A    between atoms: C11_15  and  C12_16 
ROOT
HETATM    1  C5  UNL     1      13.076  15.356  63.727  1.00  0.00    -0.006 A 
HETATM    2  C6  UNL     1      12.116  15.872  62.867  1.00  0.00     0.014 A 
HETATM    3  C7  UNL     1      10.765  15.831  63.178  1.00  0.00     0.013 A 
HETATM    4  C8  UNL     1      10.365  15.262  64.376  1.00  0.00    -0.023 A 
HETATM    5  C9  UNL     1       9.041  15.181  64.761  1.00  0.00     0.049 A 
HETATM    6  C10 UNL     1       8.627  14.622  65.938  1.00  0.00     0.070 A 
HETATM    7  C18 UNL     1       9.582  14.111  66.791  1.00  0.00     0.037 A 
HETATM    8  C19 UNL     1      10.930  14.179  66.430  1.00  0.00     0.015 A 
HETATM    9  C20 UNL     1      11.327  14.746  65.237  1.00  0.00    -0.025 A 
HETATM   10  C21 UNL     1      12.672  14.794  64.915  1.00  0.00     0.026 A 
ENDROOT
BRANCH   1  11
HETATM   11  C4  UNL     1      14.469  15.470  63.341  1.00  0.00     0.076 A 
HETATM   12  N2  UNL     1      15.161  16.604  63.079  1.00  0.00    -0.295 N 
HETATM   13  N1  UNL     1      16.395  16.350  62.737  1.00  0.00    -0.271 N 
ATOM     14  H2  UNL     1      14.766  17.543  63.140  1.00  0.00     0.187 HD
HETATM   15  C25 UNL     1      16.542  15.004  62.770  1.00  0.00     0.139 A 
HETATM   16  C22 UNL     1      15.331  14.411  63.151  1.00  0.00     0.080 A 
HETATM   17  N5  UNL     1      17.587  14.196  62.507  1.00  0.00    -0.337 N 
HETATM   18  C23 UNL     1      15.243  13.024  63.242  1.00  0.00     0.133 A 
HETATM   19  N3  UNL     1      14.018  12.446  63.600  1.00  0.00    -0.082 NA
HETATM   20  N4  UNL     1      16.348  12.316  62.957  1.00  0.00    -0.340 N 
HETATM   21  C24 UNL     1      17.517  12.861  62.592  1.00  0.00     0.183 A 
ATOM     22  H4  UNL     1      16.294  11.300  63.023  1.00  0.00     0.167 HD
ATOM     23  H5  UNL     1      18.472  14.620  62.229  1.00  0.00     0.168 HD
BRANCH  13  24
HETATM   24  C2  UNL     1      17.477  17.242  62.377  1.00  0.00     0.102 C 
HETATM   25  C1  UNL     1      17.673  17.311  60.896  1.00  0.00     0.034 C 
HETATM   26  C3  UNL     1      17.173  18.600  62.988  1.00  0.00     0.034 C 
ENDBRANCH  13  24
ENDBRANCH   1  11
BRANCH   6  27
HETATM   27  O1  UNL     1       7.305  14.534  66.335  1.00  0.00    -0.347 OA
BRANCH  27  28
HETATM   28  C11 UNL     1       6.203  14.530  65.453  1.00  0.00     0.214 C 
BRANCH  28  29
HETATM   29  C12 UNL     1       4.980  14.882  66.218  1.00  0.00    -0.033 A 
HETATM   30  C13 UNL     1       4.863  14.471  67.528  1.00  0.00     0.009 A 
HETATM   31  C14 UNL     1       3.756  14.751  68.304  1.00  0.00     0.002 A 
HETATM   32  C15 UNL     1       2.699  15.481  67.755  1.00  0.00     0.024 A 
HETATM   33  C16 UNL     1       2.823  15.885  66.452  1.00  0.00     0.034 A 
HETATM   34 CL1  UNL     1       1.485  16.809  65.754  1.00  0.00    -0.084 Cl
HETATM   35  C17 UNL     1       3.923  15.610  65.672  1.00  0.00     0.033 A 
ENDBRANCH  28  29
ENDBRANCH  27  28
ENDBRANCH   6  27
TORSDOF 5
ENDMDL
