MODEL 5
REMARK VINA RESULT: -12.144128425      0.738      1.137
REMARK  5 active torsions:
REMARK  status: ('A' for Active; 'I' for Inactive)
REMARK    1  A    between atoms: C2_2  and  N1_4 
REMARK    2  A    between atoms: C4_7  and  C5_8 
REMARK    3  A    between atoms: C10_13  and  O1_14 
REMARK    4  A    between atoms: O1_14  and  C11_15 
REMARK    5  A    between atoms: C11_15  and  C12_16 
ROOT
HETATM    1  C5  UNL     1      13.105  15.366  63.724  1.00  0.00    -0.006 A 
HETATM    2  C6  UNL     1      12.154  15.901  62.867  1.00  0.00     0.014 A 
HETATM    3  C7  UNL     1      10.801  15.876  63.175  1.00  0.00     0.013 A 
HETATM    4  C8  UNL     1      10.392  15.303  64.368  1.00  0.00    -0.023 A 
HETATM    5  C9  UNL     1       9.065  15.237  64.750  1.00  0.00     0.049 A 
HETATM    6  C10 UNL     1       8.642  14.675  65.922  1.00  0.00     0.070 A 
HETATM    7  C18 UNL     1       9.589  14.145  66.773  1.00  0.00     0.037 A 
HETATM    8  C19 UNL     1      10.939  14.197  66.415  1.00  0.00     0.015 A 
HETATM    9  C20 UNL     1      11.345  14.768  65.226  1.00  0.00    -0.025 A 
HETATM   10  C21 UNL     1      12.691  14.800  64.908  1.00  0.00     0.026 A 
ENDROOT
BRANCH   1  11
HETATM   11  C4  UNL     1      14.500  15.464  63.342  1.00  0.00     0.076 A 
HETATM   12  N2  UNL     1      15.206  16.591  63.084  1.00  0.00    -0.295 N 
HETATM   13  N1  UNL     1      16.438  16.322  62.745  1.00  0.00    -0.271 N 
ATOM     14  H2  UNL     1      14.823  17.534  63.148  1.00  0.00     0.187 HD
HETATM   15  C25 UNL     1      16.568  14.975  62.774  1.00  0.00     0.139 A 
HETATM   16  C22 UNL     1      15.349  14.396  63.150  1.00  0.00     0.080 A 
HETATM   17  N5  UNL     1      17.604  14.155  62.510  1.00  0.00    -0.337 N 
HETATM   18  C23 UNL     1      15.244  13.009  63.237  1.00  0.00     0.133 A 
HETATM   19  N3  UNL     1      14.011  12.445  63.590  1.00  0.00    -0.082 NA
HETATM   20  N4  UNL     1      16.341  12.289  62.952  1.00  0.00    -0.340 N 
HETATM   21  C24 UNL     1      17.517  12.821  62.592  1.00  0.00     0.183 A 
ATOM     22  H4  UNL     1      16.275  11.273  63.014  1.00  0.00     0.167 HD
ATOM     23  H5  UNL     1      18.495  14.569  62.236  1.00  0.00     0.168 HD
BRANCH  13  24
HETATM   24  C2  UNL     1      17.531  17.202  62.390  1.00  0.00     0.102 C 
HETATM   25  C1  UNL     1      17.752  17.249  60.911  1.00  0.00     0.034 C 
HETATM   26  C3  UNL     1      17.226  18.571  62.976  1.00  0.00     0.034 C 
ENDBRANCH  13  24
ENDBRANCH   1  11
BRANCH   6  27
HETATM   27  O1  UNL     1       7.319  14.602  66.316  1.00  0.00    -0.347 OA
BRANCH  27  28
HETATM   28  C11 UNL     1       6.282  14.041  65.538  1.00  0.00     0.214 C 
BRANCH  28  29
HETATM   29  C12 UNL     1       5.029  14.792  65.805  1.00  0.00    -0.033 A 
HETATM   30  C13 UNL     1       4.292  15.273  64.745  1.00  0.00     0.009 A 
HETATM   31  C14 UNL     1       3.121  15.986  64.908  1.00  0.00     0.002 A 
HETATM   32  C15 UNL     1       2.646  16.239  66.198  1.00  0.00     0.024 A 
HETATM   33  C16 UNL     1       3.384  15.758  67.247  1.00  0.00     0.034 A 
HETATM   34 CL1  UNL     1       2.785  16.079  68.880  1.00  0.00    -0.084 Cl
HETATM   35  C17 UNL     1       4.552  15.046  67.091  1.00  0.00     0.033 A 
ENDBRANCH  28  29
ENDBRANCH  27  28
ENDBRANCH   6  27
TORSDOF 5
ENDMDL
