MODEL 5
REMARK VINA RESULT: -7.841271089      3.911      8.234
REMARK  4 active torsions:
REMARK  status: ('A' for Active; 'I' for Inactive)
REMARK    1  A    between atoms: O1_2  and  C2_3 
REMARK    2  A    between atoms: C5_6  and  C6_7 
REMARK    3  A    between atoms: N2_10  and  C7_11 
REMARK    4  A    between atoms: C7_11  and  C8_12 
ROOT
HETATM    1  C6  UNL     1      27.826  15.089  29.204  1.00  0.00     0.076 A 
HETATM    2  N1  UNL     1      26.821  14.972  30.122  1.00  0.00    -0.295 N 
ATOM      3  H1  UNL     1      26.770  14.243  30.834  1.00  0.00     0.187 HD
HETATM    4  N2  UNL     1      25.941  15.913  29.968  1.00  0.00    -0.275 N 
HETATM    5  C13 UNL     1      26.352  16.678  28.933  1.00  0.00     0.139 A 
HETATM    6  N4  UNL     1      25.834  17.770  28.359  1.00  0.00    -0.337 N 
ATOM      7  H4  UNL     1      24.958  18.157  28.708  1.00  0.00     0.168 HD
HETATM    8  C14 UNL     1      26.459  18.363  27.326  1.00  0.00     0.183 A 
HETATM    9  N5  UNL     1      27.617  17.876  26.842  1.00  0.00    -0.340 N 
ATOM     10  H5  UNL     1      28.067  18.348  26.057  1.00  0.00     0.167 HD
HETATM   11  C15 UNL     1      28.196  16.782  27.368  1.00  0.00     0.133 A 
HETATM   12  N6  UNL     1      29.424  16.302  26.858  1.00  0.00    -0.082 NA
HETATM   13  C16 UNL     1      27.550  16.176  28.429  1.00  0.00     0.080 A 
ENDROOT
BRANCH   1  14
HETATM   14  C5  UNL     1      28.988  14.202  29.109  1.00  0.00    -0.006 A 
HETATM   15  C4  UNL     1      29.103  13.262  28.116  1.00  0.00     0.016 A 
HETATM   16  C3  UNL     1      30.242  12.483  28.078  1.00  0.00     0.038 A 
HETATM   17  C2  UNL     1      31.258  12.616  28.999  1.00  0.00     0.074 A 
HETATM   18  C18 UNL     1      31.152  13.557  30.002  1.00  0.00    -0.028 A 
HETATM   19  C17 UNL     1      30.013  14.326  30.026  1.00  0.00     0.023 A 
HETATM   20  C19 UNL     1      32.229  13.740  31.027  1.00  0.00     0.051 C 
BRANCH  17  21
HETATM   21  O1  UNL     1      32.410  11.846  28.982  1.00  0.00    -0.355 OA
HETATM   22  C1  UNL     1      33.430  11.968  28.021  1.00  0.00     0.210 C 
ENDBRANCH  17  21
ENDBRANCH   1  14
BRANCH   4  23
HETATM   23  C7  UNL     1      24.719  16.166  30.720  1.00  0.00     0.155 C 
BRANCH  23  24
HETATM   24  C8  UNL     1      23.816  14.931  30.697  1.00  0.00     0.009 C 
HETATM   25  C9  UNL     1      22.399  15.389  30.786  1.00  0.00     0.034 C 
HETATM   26  C10 UNL     1      21.451  14.363  31.326  1.00  0.00     0.232 C 
HETATM   27  N3  UNL     1      21.989  13.913  32.607  1.00  0.00    -0.075 N 
HETATM   28  C11 UNL     1      23.164  13.133  32.315  1.00  0.00     0.232 C 
ATOM     29  H32 UNL     1      22.165  14.676  33.259  1.00  0.00     0.277 HD
ATOM     30  H31 UNL     1      21.306  13.412  33.176  1.00  0.00     0.277 HD
HETATM   31  C12 UNL     1      24.250  14.071  31.858  1.00  0.00     0.034 C 
ENDBRANCH  23  24
ENDBRANCH   4  23
TORSDOF 4
ENDMDL
