MODEL 1
REMARK VINA RESULT: -8.937136709      0.000      0.000
REMARK  4 active torsions:
REMARK  status: ('A' for Active; 'I' for Inactive)
REMARK    1  A    between atoms: O1_2  and  C2_3 
REMARK    2  A    between atoms: C5_6  and  C6_7 
REMARK    3  A    between atoms: N2_10  and  C7_11 
REMARK    4  A    between atoms: C7_11  and  C8_12 
ROOT
HETATM    1  C6  UNL     1      24.395  14.514  31.296  1.00  0.00     0.076 A 
HETATM    2  N1  UNL     1      25.169  15.634  31.183  1.00  0.00    -0.295 N 
ATOM      3  H1  UNL     1      24.826  16.588  31.296  1.00  0.00     0.187 HD
HETATM    4  N2  UNL     1      26.399  15.322  30.912  1.00  0.00    -0.275 N 
HETATM    5  C13 UNL     1      26.461  13.974  30.840  1.00  0.00     0.139 A 
HETATM    6  N4  UNL     1      27.472  13.131  30.599  1.00  0.00    -0.337 N 
ATOM      7  H4  UNL     1      28.405  13.500  30.418  1.00  0.00     0.168 HD
HETATM    8  C14 UNL     1      27.269  11.801  30.594  1.00  0.00     0.183 A 
HETATM    9  N5  UNL     1      26.048  11.283  30.830  1.00  0.00    -0.340 N 
ATOM     10  H5  UNL     1      25.927  10.271  30.819  1.00  0.00     0.167 HD
HETATM   11  C15 UNL     1      24.986  12.069  31.079  1.00  0.00     0.133 A 
HETATM   12  N6  UNL     1      23.719  11.503  31.346  1.00  0.00    -0.082 NA
HETATM   13  C16 UNL     1      25.199  13.435  31.081  1.00  0.00     0.080 A 
ENDROOT
BRANCH   1  14
HETATM   14  C5  UNL     1      22.965  14.507  31.614  1.00  0.00    -0.006 A 
HETATM   15  C4  UNL     1      22.021  14.950  30.721  1.00  0.00     0.016 A 
HETATM   16  C3  UNL     1      20.692  14.885  31.084  1.00  0.00     0.038 A 
HETATM   17  C2  UNL     1      20.284  14.395  32.306  1.00  0.00     0.074 A 
HETATM   18  C18 UNL     1      21.223  13.949  33.211  1.00  0.00    -0.028 A 
HETATM   19  C17 UNL     1      22.543  14.019  32.835  1.00  0.00     0.023 A 
HETATM   20  C19 UNL     1      20.829  13.408  34.552  1.00  0.00     0.051 C 
BRANCH  17  21
HETATM   21  O1  UNL     1      18.955  14.321  32.693  1.00  0.00    -0.355 OA
HETATM   22  C1  UNL     1      17.865  14.511  31.823  1.00  0.00     0.210 C 
ENDBRANCH  17  21
ENDBRANCH   1  14
BRANCH   4  23
HETATM   23  C7  UNL     1      27.549  16.193  30.708  1.00  0.00     0.155 C 
BRANCH  23  24
HETATM   24  C8  UNL     1      27.255  17.210  29.603  1.00  0.00     0.009 C 
HETATM   25  C9  UNL     1      26.980  16.461  28.342  1.00  0.00     0.034 C 
HETATM   26  C10 UNL     1      27.224  17.247  27.091  1.00  0.00     0.232 C 
HETATM   27  N3  UNL     1      28.588  17.763  27.166  1.00  0.00    -0.075 N 
HETATM   28  C11 UNL     1      28.594  18.781  28.184  1.00  0.00     0.232 C 
ATOM     29  H32 UNL     1      29.285  17.034  27.322  1.00  0.00     0.277 HD
ATOM     30  H31 UNL     1      28.944  18.091  26.268  1.00  0.00     0.277 HD
HETATM   31  C12 UNL     1      28.465  18.107  29.525  1.00  0.00     0.034 C 
ENDBRANCH  23  24
ENDBRANCH   4  23
TORSDOF 4
ENDMDL
