MODEL 3
REMARK VINA RESULT: -8.155482704      3.568      8.409
REMARK  4 active torsions:
REMARK  status: ('A' for Active; 'I' for Inactive)
REMARK    1  A    between atoms: O1_2  and  C2_3 
REMARK    2  A    between atoms: C5_6  and  C6_7 
REMARK    3  A    between atoms: N2_10  and  C7_11 
REMARK    4  A    between atoms: C7_11  and  C8_12 
ROOT
HETATM    1  C6  UNL     1      21.656  14.585  31.662  1.00  0.00     0.076 A 
HETATM    2  N1  UNL     1      20.503  15.030  31.082  1.00  0.00    -0.295 N 
ATOM      3  H1  UNL     1      20.457  15.528  30.193  1.00  0.00     0.187 HD
HETATM    4  N2  UNL     1      19.472  14.736  31.814  1.00  0.00    -0.275 N 
HETATM    5  C13 UNL     1      19.932  14.082  32.903  1.00  0.00     0.139 A 
HETATM    6  N4  UNL     1      19.311  13.552  33.964  1.00  0.00    -0.337 N 
ATOM      7  H4  UNL     1      18.297  13.620  34.042  1.00  0.00     0.168 HD
HETATM    8  C14 UNL     1      20.012  12.930  34.929  1.00  0.00     0.183 A 
HETATM    9  N5  UNL     1      21.353  12.824  34.855  1.00  0.00    -0.340 N 
ATOM     10  H5  UNL     1      21.857  12.347  35.603  1.00  0.00     0.167 HD
HETATM   11  C15 UNL     1      22.044  13.333  33.820  1.00  0.00     0.133 A 
HETATM   12  N6  UNL     1      23.449  13.189  33.752  1.00  0.00    -0.082 NA
HETATM   13  C16 UNL     1      21.319  13.972  32.832  1.00  0.00     0.080 A 
ENDROOT
BRANCH   1  14
HETATM   14  C5  UNL     1      22.998  14.735  31.093  1.00  0.00    -0.006 A 
HETATM   15  C4  UNL     1      23.762  13.651  30.741  1.00  0.00     0.016 A 
HETATM   16  C3  UNL     1      25.006  13.876  30.185  1.00  0.00     0.038 A 
HETATM   17  C2  UNL     1      25.502  15.145  29.977  1.00  0.00     0.074 A 
HETATM   18  C18 UNL     1      24.742  16.242  30.328  1.00  0.00    -0.028 A 
HETATM   19  C17 UNL     1      23.506  16.001  30.879  1.00  0.00     0.023 A 
HETATM   20  C19 UNL     1      25.238  17.640  30.122  1.00  0.00     0.051 C 
BRANCH  17  21
HETATM   21  O1  UNL     1      26.747  15.395  29.421  1.00  0.00    -0.355 OA
HETATM   22  C1  UNL     1      27.862  14.551  29.565  1.00  0.00     0.210 C 
ENDBRANCH  17  21
ENDBRANCH   1  14
BRANCH   4  23
HETATM   23  C7  UNL     1      18.063  15.018  31.580  1.00  0.00     0.155 C 
BRANCH  23  24
HETATM   24  C8  UNL     1      17.230  13.747  31.765  1.00  0.00     0.009 C 
HETATM   25  C9  UNL     1      16.802  13.271  30.418  1.00  0.00     0.034 C 
HETATM   26  C10 UNL     1      15.571  12.418  30.426  1.00  0.00     0.232 C 
HETATM   27  N3  UNL     1      14.532  13.169  31.126  1.00  0.00    -0.075 N 
HETATM   28  C11 UNL     1      14.904  13.200  32.517  1.00  0.00     0.232 C 
ATOM     29  H32 UNL     1      14.372  14.096  30.732  1.00  0.00     0.277 HD
ATOM     30  H31 UNL     1      13.594  12.799  30.969  1.00  0.00     0.277 HD
HETATM   31  C12 UNL     1      16.082  14.125  32.669  1.00  0.00     0.034 C 
ENDBRANCH  23  24
ENDBRANCH   4  23
TORSDOF 4
ENDMDL
