MODEL 8
REMARK VINA RESULT: -7.464837771      1.175      1.835
REMARK  4 active torsions:
REMARK  status: ('A' for Active; 'I' for Inactive)
REMARK    1  A    between atoms: O1_2  and  C2_3 
REMARK    2  A    between atoms: C5_6  and  C6_7 
REMARK    3  A    between atoms: N2_10  and  C7_11 
REMARK    4  A    between atoms: C7_11  and  C8_12 
ROOT
HETATM    1  C6  UNL     1      24.267  14.674  31.325  1.00  0.00     0.076 A 
HETATM    2  N1  UNL     1      24.848  15.876  31.038  1.00  0.00    -0.295 N 
ATOM      3  H1  UNL     1      24.393  16.781  31.156  1.00  0.00     0.187 HD
HETATM    4  N2  UNL     1      26.057  15.713  30.595  1.00  0.00    -0.275 N 
HETATM    5  C13 UNL     1      26.300  14.384  30.581  1.00  0.00     0.139 A 
HETATM    6  N4  UNL     1      27.374  13.669  30.228  1.00  0.00    -0.337 N 
ATOM      7  H4  UNL     1      28.209  14.146  29.886  1.00  0.00     0.168 HD
HETATM    8  C14 UNL     1      27.365  12.327  30.320  1.00  0.00     0.183 A 
HETATM    9  N5  UNL     1      26.279  11.668  30.767  1.00  0.00    -0.340 N 
ATOM     10  H5  UNL     1      26.302  10.651  30.825  1.00  0.00     0.167 HD
HETATM   11  C15 UNL     1      25.162  12.321  31.139  1.00  0.00     0.133 A 
HETATM   12  N6  UNL     1      24.043  11.610  31.627  1.00  0.00    -0.082 NA
HETATM   13  C16 UNL     1      25.177  13.700  31.041  1.00  0.00     0.080 A 
ENDROOT
BRANCH   1  14
HETATM   14  C5  UNL     1      22.915  14.498  31.860  1.00  0.00    -0.006 A 
HETATM   15  C4  UNL     1      22.676  14.394  33.208  1.00  0.00     0.016 A 
HETATM   16  C3  UNL     1      21.371  14.257  33.635  1.00  0.00     0.038 A 
HETATM   17  C2  UNL     1      20.308  14.219  32.758  1.00  0.00     0.074 A 
HETATM   18  C18 UNL     1      20.537  14.321  31.402  1.00  0.00    -0.028 A 
HETATM   19  C17 UNL     1      21.842  14.458  30.992  1.00  0.00     0.023 A 
HETATM   20  C19 UNL     1      19.414  14.285  30.410  1.00  0.00     0.051 C 
BRANCH  17  21
HETATM   21  O1  UNL     1      18.990  14.082  33.164  1.00  0.00    -0.355 OA
HETATM   22  C1  UNL     1      18.121  15.160  33.410  1.00  0.00     0.210 C 
ENDBRANCH  17  21
ENDBRANCH   1  14
BRANCH   4  23
HETATM   23  C7  UNL     1      27.028  16.713  30.173  1.00  0.00     0.155 C 
BRANCH  23  24
HETATM   24  C8  UNL     1      26.703  17.206  28.761  1.00  0.00     0.009 C 
HETATM   25  C9  UNL     1      27.839  18.052  28.290  1.00  0.00     0.034 C 
HETATM   26  C10 UNL     1      27.474  19.037  27.223  1.00  0.00     0.232 C 
HETATM   27  N3  UNL     1      26.346  19.818  27.726  1.00  0.00    -0.075 N 
HETATM   28  C11 UNL     1      25.206  18.939  27.747  1.00  0.00     0.232 C 
ATOM     29  H32 UNL     1      26.533  20.257  28.628  1.00  0.00     0.277 HD
ATOM     30  H31 UNL     1      26.183  20.675  27.197  1.00  0.00     0.277 HD
HETATM   31  C12 UNL     1      25.395  17.950  28.866  1.00  0.00     0.034 C 
ENDBRANCH  23  24
ENDBRANCH   4  23
TORSDOF 4
ENDMDL
