MODEL 2
REMARK VINA RESULT: -8.570029142      2.781      7.451
REMARK  4 active torsions:
REMARK  status: ('A' for Active; 'I' for Inactive)
REMARK    1  A    between atoms: O1_2  and  C2_3 
REMARK    2  A    between atoms: C5_6  and  C6_7 
REMARK    3  A    between atoms: N2_10  and  C7_11 
REMARK    4  A    between atoms: C7_11  and  C8_12 
ROOT
HETATM    1  C6  UNL     1      25.477  15.122  30.457  1.00  0.00     0.076 A 
HETATM    2  N1  UNL     1      24.133  15.304  30.616  1.00  0.00    -0.295 N 
ATOM      3  H1  UNL     1      23.660  16.205  30.545  1.00  0.00     0.187 HD
HETATM    4  N2  UNL     1      23.539  14.179  30.870  1.00  0.00    -0.275 N 
HETATM    5  C13 UNL     1      24.491  13.221  30.883  1.00  0.00     0.139 A 
HETATM    6  N4  UNL     1      24.435  11.899  31.083  1.00  0.00    -0.337 N 
ATOM      7  H4  UNL     1      23.537  11.454  31.277  1.00  0.00     0.168 HD
HETATM    8  C14 UNL     1      25.551  11.149  31.032  1.00  0.00     0.183 A 
HETATM    9  N5  UNL     1      26.751  11.706  30.778  1.00  0.00    -0.340 N 
ATOM     10  H5  UNL     1      27.579  11.112  30.746  1.00  0.00     0.167 HD
HETATM   11  C15 UNL     1      26.884  13.028  30.568  1.00  0.00     0.133 A 
HETATM   12  N6  UNL     1      28.150  13.587  30.281  1.00  0.00    -0.082 NA
HETATM   13  C16 UNL     1      25.734  13.793  30.623  1.00  0.00     0.080 A 
ENDROOT
BRANCH   1  14
HETATM   14  C5  UNL     1      26.441  16.180  30.145  1.00  0.00    -0.006 A 
HETATM   15  C4  UNL     1      27.342  16.638  31.074  1.00  0.00     0.016 A 
HETATM   16  C3  UNL     1      28.235  17.619  30.695  1.00  0.00     0.038 A 
HETATM   17  C2  UNL     1      28.251  18.150  29.423  1.00  0.00     0.074 A 
HETATM   18  C18 UNL     1      27.350  17.698  28.482  1.00  0.00    -0.028 A 
HETATM   19  C17 UNL     1      26.467  16.721  28.875  1.00  0.00     0.023 A 
HETATM   20  C19 UNL     1      27.328  18.245  27.088  1.00  0.00     0.051 C 
BRANCH  17  21
HETATM   21  O1  UNL     1      29.139  19.136  29.019  1.00  0.00    -0.355 OA
HETATM   22  C1  UNL     1      30.516  19.125  29.304  1.00  0.00     0.210 C 
ENDBRANCH  17  21
ENDBRANCH   1  14
BRANCH   4  23
HETATM   23  C7  UNL     1      22.126  13.914  31.106  1.00  0.00     0.155 C 
BRANCH  23  24
HETATM   24  C8  UNL     1      21.741  14.325  32.529  1.00  0.00     0.009 C 
HETATM   25  C9  UNL     1      22.122  13.217  33.453  1.00  0.00     0.034 C 
HETATM   26  C10 UNL     1      21.349  13.188  34.735  1.00  0.00     0.232 C 
HETATM   27  N3  UNL     1      19.932  13.178  34.382  1.00  0.00    -0.075 N 
HETATM   28  C11 UNL     1      19.623  14.483  33.858  1.00  0.00     0.232 C 
ATOM     29  H32 UNL     1      19.681  12.420  33.748  1.00  0.00     0.277 HD
ATOM     30  H31 UNL     1      19.327  12.904  35.157  1.00  0.00     0.277 HD
HETATM   31  C12 UNL     1      20.259  14.607  32.499  1.00  0.00     0.034 C 
ENDBRANCH  23  24
ENDBRANCH   4  23
TORSDOF 4
ENDMDL
