MODEL 1
REMARK VINA RESULT: -9.439458460      0.000      0.000
REMARK  7 active torsions:
REMARK  status: ('A' for Active; 'I' for Inactive)
REMARK    1  A    between atoms: C2_2  and  O1_3 
REMARK    2  A    between atoms: O1_3  and  C3_4 
REMARK    3  A    between atoms: C8_9  and  C9_10 
REMARK    4  A    between atoms: N2_13  and  C10_14 
REMARK    5  A    between atoms: C10_14  and  C11_15 
REMARK    6  A    between atoms: C11_15  and  C12_16 
REMARK    7  A    between atoms: C11_15  and  N3_19 
ROOT
HETATM    1  C9  UNL     1      15.596  15.046  63.515  1.00  0.00     0.076 A 
HETATM    2  N1  UNL     1      16.488  16.053  63.424  1.00  0.00    -0.295 N 
ATOM      3  H1  UNL     1      16.245  17.041  63.509  1.00  0.00     0.187 HD
HETATM    4  N2  UNL     1      17.701  15.614  63.214  1.00  0.00    -0.273 N 
HETATM    5  C17 UNL     1      17.631  14.280  63.160  1.00  0.00     0.139 A 
HETATM    6  N4  UNL     1      18.536  13.293  62.962  1.00  0.00    -0.337 N 
ATOM      7  H4  UNL     1      19.518  13.530  62.821  1.00  0.00     0.168 HD
HETATM    8  C18 UNL     1      18.153  12.005  62.949  1.00  0.00     0.183 A 
HETATM    9  N5  UNL     1      16.871  11.641  63.127  1.00  0.00    -0.340 N 
ATOM     10  H5  UNL     1      16.616  10.653  63.110  1.00  0.00     0.167 HD
HETATM   11  C19 UNL     1      15.917  12.581  63.330  1.00  0.00     0.133 A 
HETATM   12  N6  UNL     1      14.551  12.225  63.492  1.00  0.00    -0.082 NA
HETATM   13  C20 UNL     1      16.321  13.904  63.344  1.00  0.00     0.080 A 
ENDROOT
BRANCH   1  14
HETATM   14  C8  UNL     1      14.157  15.168  63.723  1.00  0.00    -0.006 A 
HETATM   15  C7  UNL     1      13.656  14.636  64.896  1.00  0.00     0.026 A 
HETATM   16  C6  UNL     1      12.309  14.654  65.200  1.00  0.00    -0.025 A 
HETATM   17  C5  UNL     1      11.803  14.127  66.368  1.00  0.00     0.015 A 
HETATM   18  C23 UNL     1      11.464  15.231  64.279  1.00  0.00    -0.023 A 
HETATM   19  C4  UNL     1      10.444  14.161  66.644  1.00  0.00     0.037 A 
HETATM   20  C3  UNL     1       9.584  14.736  65.731  1.00  0.00     0.069 A 
HETATM   21  C24 UNL     1      10.108  15.255  64.576  1.00  0.00     0.049 A 
HETATM   22  C22 UNL     1      11.955  15.765  63.101  1.00  0.00     0.013 A 
HETATM   23  C21 UNL     1      13.300  15.740  62.810  1.00  0.00     0.014 A 
BRANCH  20  24
HETATM   24  O1  UNL     1       8.234  14.753  66.037  1.00  0.00    -0.351 OA
BRANCH  24  25
HETATM   25  C2  UNL     1       7.289  13.843  65.556  1.00  0.00     0.171 C 
HETATM   26  C1  UNL     1       6.003  13.868  66.335  1.00  0.00     0.034 C 
ENDBRANCH  24  25
ENDBRANCH  20  24
ENDBRANCH   1  14
BRANCH   4  27
HETATM   27  C10 UNL     1      18.857  16.427  63.088  1.00  0.00     0.187 C 
BRANCH  27  28
HETATM   28  C11 UNL     1      19.061  17.208  61.864  1.00  0.00     0.245 C 
BRANCH  28  29
HETATM   29  C12 UNL     1      18.660  18.641  61.855  1.00  0.00     0.012 C 
HETATM   30  C13 UNL     1      17.986  19.145  63.089  1.00  0.00     0.012 C 
HETATM   31  C14 UNL     1      19.841  19.566  61.541  1.00  0.00     0.012 C 
ENDBRANCH  28  29
BRANCH  28  32
HETATM   32  N3  UNL     1      18.584  16.533  60.648  1.00  0.00     0.086 N 
HETATM   33  C15 UNL     1      19.682  16.280  59.732  1.00  0.00     0.310 C 
HETATM   34  C16 UNL     1      17.677  17.397  59.908  1.00  0.00     0.310 C 
ENDBRANCH  28  32
ENDBRANCH  27  28
ENDBRANCH   4  27
TORSDOF 7
ENDMDL
