MODEL 9
REMARK VINA RESULT: -8.428347755      2.345      4.801
REMARK  7 active torsions:
REMARK  status: ('A' for Active; 'I' for Inactive)
REMARK    1  A    between atoms: C2_2  and  O1_3 
REMARK    2  A    between atoms: O1_3  and  C3_4 
REMARK    3  A    between atoms: C8_9  and  C9_10 
REMARK    4  A    between atoms: N2_13  and  C10_14 
REMARK    5  A    between atoms: C10_14  and  C11_15 
REMARK    6  A    between atoms: C11_15  and  C12_16 
REMARK    7  A    between atoms: C11_15  and  N3_19 
ROOT
HETATM    1  C9  UNL     1      17.682  16.865  61.499  1.00  0.00     0.076 A 
HETATM    2  N1  UNL     1      18.273  15.991  60.659  1.00  0.00    -0.295 N 
ATOM      3  H1  UNL     1      17.868  15.094  60.391  1.00  0.00     0.187 HD
HETATM    4  N2  UNL     1      19.428  16.430  60.231  1.00  0.00    -0.273 N 
HETATM    5  C17 UNL     1      19.625  17.627  60.793  1.00  0.00     0.139 A 
HETATM    6  N4  UNL     1      20.619  18.543  60.741  1.00  0.00    -0.337 N 
ATOM      7  H4  UNL     1      21.439  18.366  60.161  1.00  0.00     0.168 HD
HETATM    8  C18 UNL     1      20.538  19.685  61.447  1.00  0.00     0.183 A 
HETATM    9  N5  UNL     1      19.480  19.964  62.229  1.00  0.00    -0.340 N 
ATOM     10  H5  UNL     1      19.452  20.840  62.752  1.00  0.00     0.167 HD
HETATM   11  C19 UNL     1      18.451  19.088  62.324  1.00  0.00     0.133 A 
HETATM   12  N6  UNL     1      17.336  19.346  63.165  1.00  0.00    -0.082 NA
HETATM   13  C20 UNL     1      18.543  17.917  61.592  1.00  0.00     0.080 A 
ENDROOT
BRANCH   1  14
HETATM   14  C8  UNL     1      16.402  16.696  62.179  1.00  0.00    -0.006 A 
HETATM   15  C7  UNL     1      16.265  15.567  62.964  1.00  0.00     0.026 A 
HETATM   16  C6  UNL     1      15.094  15.270  63.634  1.00  0.00    -0.025 A 
HETATM   17  C5  UNL     1      14.951  14.147  64.420  1.00  0.00     0.015 A 
HETATM   18  C23 UNL     1      14.048  16.153  63.493  1.00  0.00    -0.023 A 
HETATM   19  C4  UNL     1      13.761  13.877  65.080  1.00  0.00     0.037 A 
HETATM   20  C3  UNL     1      12.702  14.752  64.948  1.00  0.00     0.069 A 
HETATM   21  C24 UNL     1      12.866  15.864  64.163  1.00  0.00     0.049 A 
HETATM   22  C22 UNL     1      14.174  17.285  62.708  1.00  0.00     0.013 A 
HETATM   23  C21 UNL     1      15.346  17.569  62.045  1.00  0.00     0.014 A 
BRANCH  20  24
HETATM   24  O1  UNL     1      11.530  14.454  65.620  1.00  0.00    -0.351 OA
BRANCH  24  25
HETATM   25  C2  UNL     1      10.294  15.063  65.388  1.00  0.00     0.171 C 
HETATM   26  C1  UNL     1       9.154  14.350  66.064  1.00  0.00     0.034 C 
ENDBRANCH  24  25
ENDBRANCH  20  24
ENDBRANCH   1  14
BRANCH   4  27
HETATM   27  C10 UNL     1      20.281  15.746  59.327  1.00  0.00     0.187 C 
BRANCH  27  28
HETATM   28  C11 UNL     1      21.617  15.333  59.767  1.00  0.00     0.245 C 
BRANCH  28  29
HETATM   29  C12 UNL     1      22.781  15.620  58.884  1.00  0.00     0.012 C 
HETATM   30  C13 UNL     1      22.551  16.612  57.791  1.00  0.00     0.012 C 
HETATM   31  C14 UNL     1      24.011  16.064  59.683  1.00  0.00     0.012 C 
ENDBRANCH  28  29
BRANCH  28  32
HETATM   32  N3  UNL     1      21.674  13.948  60.257  1.00  0.00     0.086 N 
HETATM   33  C15 UNL     1      20.456  13.231  59.922  1.00  0.00     0.310 C 
HETATM   34  C16 UNL     1      21.729  13.923  61.710  1.00  0.00     0.310 C 
ENDBRANCH  28  32
ENDBRANCH  27  28
ENDBRANCH   4  27
TORSDOF 7
ENDMDL
