MODEL 5
REMARK VINA RESULT: -9.088363579      1.017      2.035
REMARK  7 active torsions:
REMARK  status: ('A' for Active; 'I' for Inactive)
REMARK    1  A    between atoms: C2_2  and  O1_3 
REMARK    2  A    between atoms: O1_3  and  C3_4 
REMARK    3  A    between atoms: C8_9  and  C9_10 
REMARK    4  A    between atoms: N2_13  and  C10_14 
REMARK    5  A    between atoms: C10_14  and  C11_15 
REMARK    6  A    between atoms: C11_15  and  C12_16 
REMARK    7  A    between atoms: C11_15  and  N3_19 
ROOT
HETATM    1  C9  UNL     1      15.384  14.763  63.834  1.00  0.00     0.076 A 
HETATM    2  N1  UNL     1      16.101  15.876  63.582  1.00  0.00    -0.295 N 
ATOM      3  H1  UNL     1      15.783  16.821  63.799  1.00  0.00     0.187 HD
HETATM    4  N2  UNL     1      17.252  15.601  63.028  1.00  0.00    -0.273 N 
HETATM    5  C17 UNL     1      17.317  14.272  62.898  1.00  0.00     0.139 A 
HETATM    6  N4  UNL     1      18.236  13.414  62.397  1.00  0.00    -0.337 N 
ATOM      7  H4  UNL     1      19.111  13.777  62.018  1.00  0.00     0.168 HD
HETATM    8  C18 UNL     1      18.008  12.089  62.394  1.00  0.00     0.183 A 
HETATM    9  N5  UNL     1      16.871  11.561  62.879  1.00  0.00    -0.340 N 
ATOM     10  H5  UNL     1      16.731  10.551  62.860  1.00  0.00     0.167 HD
HETATM   11  C19 UNL     1      15.911  12.366  63.395  1.00  0.00     0.133 A 
HETATM   12  N6  UNL     1      14.688  11.836  63.887  1.00  0.00    -0.082 NA
HETATM   13  C20 UNL     1      16.155  13.728  63.396  1.00  0.00     0.080 A 
ENDROOT
BRANCH   1  14
HETATM   14  C8  UNL     1      14.051  14.695  64.425  1.00  0.00    -0.006 A 
HETATM   15  C7  UNL     1      12.985  14.881  63.566  1.00  0.00     0.026 A 
HETATM   16  C6  UNL     1      11.674  14.876  64.003  1.00  0.00    -0.025 A 
HETATM   17  C5  UNL     1      10.606  15.060  63.152  1.00  0.00     0.015 A 
HETATM   18  C23 UNL     1      11.460  14.674  65.347  1.00  0.00    -0.023 A 
HETATM   19  C4  UNL     1       9.301  15.048  63.622  1.00  0.00     0.037 A 
HETATM   20  C3  UNL     1       9.070  14.848  64.967  1.00  0.00     0.069 A 
HETATM   21  C24 UNL     1      10.146  14.665  65.796  1.00  0.00     0.049 A 
HETATM   22  C22 UNL     1      12.521  14.487  66.216  1.00  0.00     0.013 A 
HETATM   23  C21 UNL     1      13.822  14.496  65.768  1.00  0.00     0.014 A 
BRANCH  20  24
HETATM   24  O1  UNL     1       7.756  14.842  65.403  1.00  0.00    -0.351 OA
BRANCH  24  25
HETATM   25  C2  UNL     1       7.151  13.804  66.117  1.00  0.00     0.171 C 
HETATM   26  C1  UNL     1       5.706  14.077  66.435  1.00  0.00     0.034 C 
ENDBRANCH  24  25
ENDBRANCH  20  24
ENDBRANCH   1  14
BRANCH   4  27
HETATM   27  C10 UNL     1      18.234  16.556  62.658  1.00  0.00     0.187 C 
BRANCH  27  28
HETATM   28  C11 UNL     1      18.085  17.295  61.400  1.00  0.00     0.245 C 
BRANCH  28  29
HETATM   29  C12 UNL     1      19.192  17.246  60.407  1.00  0.00     0.012 C 
HETATM   30  C13 UNL     1      20.456  17.942  60.793  1.00  0.00     0.012 C 
HETATM   31  C14 UNL     1      19.539  15.808  60.005  1.00  0.00     0.012 C 
ENDBRANCH  28  29
BRANCH  28  32
HETATM   32  N3  UNL     1      17.618  18.677  61.581  1.00  0.00     0.086 N 
HETATM   33  C15 UNL     1      17.744  19.089  62.968  1.00  0.00     0.310 C 
HETATM   34  C16 UNL     1      16.195  18.777  61.294  1.00  0.00     0.310 C 
ENDBRANCH  28  32
ENDBRANCH  27  28
ENDBRANCH   4  27
TORSDOF 7
ENDMDL
