MODEL 2
REMARK VINA RESULT: -9.387966851      0.754      1.537
REMARK  7 active torsions:
REMARK  status: ('A' for Active; 'I' for Inactive)
REMARK    1  A    between atoms: C2_2  and  O1_3 
REMARK    2  A    between atoms: O1_3  and  C3_4 
REMARK    3  A    between atoms: C8_9  and  C9_10 
REMARK    4  A    between atoms: N2_13  and  C10_14 
REMARK    5  A    between atoms: C10_14  and  C11_15 
REMARK    6  A    between atoms: C11_15  and  C12_16 
REMARK    7  A    between atoms: C11_15  and  N3_19 
ROOT
HETATM    1  C9  UNL     1      15.562  15.123  63.457  1.00  0.00     0.076 A 
HETATM    2  N1  UNL     1      16.422  16.154  63.328  1.00  0.00    -0.295 N 
ATOM      3  H1  UNL     1      16.151  17.135  63.401  1.00  0.00     0.187 HD
HETATM    4  N2  UNL     1      17.642  15.747  63.098  1.00  0.00    -0.273 N 
HETATM    5  C17 UNL     1      17.611  14.410  63.068  1.00  0.00     0.139 A 
HETATM    6  N4  UNL     1      18.539  13.447  62.866  1.00  0.00    -0.337 N 
ATOM      7  H4  UNL     1      19.510  13.710  62.699  1.00  0.00     0.168 HD
HETATM    8  C18 UNL     1      18.195  12.148  62.884  1.00  0.00     0.183 A 
HETATM    9  N5  UNL     1      16.929  11.750  63.098  1.00  0.00    -0.340 N 
ATOM     10  H5  UNL     1      16.702  10.755  63.104  1.00  0.00     0.167 HD
HETATM   11  C19 UNL     1      15.952  12.665  63.307  1.00  0.00     0.133 A 
HETATM   12  N6  UNL     1      14.601  12.272  63.507  1.00  0.00    -0.082 NA
HETATM   13  C20 UNL     1      16.316  13.999  63.289  1.00  0.00     0.080 A 
ENDROOT
BRANCH   1  14
HETATM   14  C8  UNL     1      14.125  15.206  63.696  1.00  0.00    -0.006 A 
HETATM   15  C7  UNL     1      13.663  14.657  64.877  1.00  0.00     0.026 A 
HETATM   16  C6  UNL     1      12.323  14.638  65.209  1.00  0.00    -0.025 A 
HETATM   17  C5  UNL     1      11.856  14.094  66.386  1.00  0.00     0.015 A 
HETATM   18  C23 UNL     1      11.444  15.197  64.309  1.00  0.00    -0.023 A 
HETATM   19  C4  UNL     1      10.502  14.091  66.691  1.00  0.00     0.037 A 
HETATM   20  C3  UNL     1       9.609  14.647  65.798  1.00  0.00     0.069 A 
HETATM   21  C24 UNL     1      10.094  15.184  64.634  1.00  0.00     0.049 A 
HETATM   22  C22 UNL     1      11.896  15.748  63.123  1.00  0.00     0.013 A 
HETATM   23  C21 UNL     1      13.235  15.759  62.804  1.00  0.00     0.014 A 
BRANCH  20  24
HETATM   24  O1  UNL     1       8.266  14.628  66.132  1.00  0.00    -0.351 OA
BRANCH  24  25
HETATM   25  C2  UNL     1       7.285  13.877  65.478  1.00  0.00     0.171 C 
HETATM   26  C1  UNL     1       5.967  13.876  66.204  1.00  0.00     0.034 C 
ENDBRANCH  24  25
ENDBRANCH  20  24
ENDBRANCH   1  14
BRANCH   4  27
HETATM   27  C10 UNL     1      18.771  16.591  62.931  1.00  0.00     0.187 C 
BRANCH  27  28
HETATM   28  C11 UNL     1      19.142  17.044  61.587  1.00  0.00     0.245 C 
BRANCH  28  29
HETATM   29  C12 UNL     1      20.456  16.623  61.028  1.00  0.00     0.012 C 
HETATM   30  C13 UNL     1      21.232  15.638  61.839  1.00  0.00     0.012 C 
HETATM   31  C14 UNL     1      20.325  16.075  59.603  1.00  0.00     0.012 C 
ENDBRANCH  28  29
BRANCH  28  32
HETATM   32  N3  UNL     1      18.928  18.481  61.370  1.00  0.00     0.086 N 
HETATM   33  C15 UNL     1      18.582  19.147  62.614  1.00  0.00     0.310 C 
HETATM   34  C16 UNL     1      17.780  18.702  60.503  1.00  0.00     0.310 C 
ENDBRANCH  28  32
ENDBRANCH  27  28
ENDBRANCH   4  27
TORSDOF 7
ENDMDL
