MODEL 10
REMARK VINA RESULT: -8.413241782      2.511      5.193
REMARK  7 active torsions:
REMARK  status: ('A' for Active; 'I' for Inactive)
REMARK    1  A    between atoms: C2_2  and  O1_3 
REMARK    2  A    between atoms: O1_3  and  C3_4 
REMARK    3  A    between atoms: C8_9  and  C9_10 
REMARK    4  A    between atoms: N2_13  and  C10_14 
REMARK    5  A    between atoms: C10_14  and  C11_15 
REMARK    6  A    between atoms: C11_15  and  C12_16 
REMARK    7  A    between atoms: C11_15  and  N3_19 
ROOT
HETATM    1  C9  UNL     1      18.588  16.081  61.522  1.00  0.00     0.076 A 
HETATM    2  N1  UNL     1      19.282  15.427  60.569  1.00  0.00    -0.295 N 
ATOM      3  H1  UNL     1      19.119  14.453  60.310  1.00  0.00     0.187 HD
HETATM    4  N2  UNL     1      20.190  16.188  60.016  1.00  0.00    -0.273 N 
HETATM    5  C17 UNL     1      20.111  17.385  60.607  1.00  0.00     0.139 A 
HETATM    6  N4  UNL     1      20.781  18.552  60.473  1.00  0.00    -0.337 N 
ATOM      7  H4  UNL     1      21.527  18.628  59.781  1.00  0.00     0.168 HD
HETATM    8  C18 UNL     1      20.474  19.613  61.240  1.00  0.00     0.183 A 
HETATM    9  N5  UNL     1      19.501  19.563  62.166  1.00  0.00    -0.340 N 
ATOM     10  H5  UNL     1      19.295  20.386  62.732  1.00  0.00     0.167 HD
HETATM   11  C19 UNL     1      18.792  18.423  62.351  1.00  0.00     0.133 A 
HETATM   12  N6  UNL     1      17.779  18.335  63.343  1.00  0.00    -0.082 NA
HETATM   13  C20 UNL     1      19.114  17.338  61.555  1.00  0.00     0.080 A 
ENDROOT
BRANCH   1  14
HETATM   14  C8  UNL     1      17.520  15.538  62.354  1.00  0.00    -0.006 A 
HETATM   15  C7  UNL     1      16.278  16.131  62.230  1.00  0.00     0.026 A 
HETATM   16  C6  UNL     1      15.191  15.736  62.985  1.00  0.00    -0.025 A 
HETATM   17  C5  UNL     1      13.949  16.322  62.865  1.00  0.00     0.015 A 
HETATM   18  C23 UNL     1      15.387  14.710  63.881  1.00  0.00    -0.023 A 
HETATM   19  C4  UNL     1      12.877  15.902  63.638  1.00  0.00     0.037 A 
HETATM   20  C3  UNL     1      13.058  14.875  64.542  1.00  0.00     0.069 A 
HETATM   21  C24 UNL     1      14.300  14.304  64.644  1.00  0.00     0.049 A 
HETATM   22  C22 UNL     1      16.627  14.110  64.014  1.00  0.00     0.013 A 
HETATM   23  C21 UNL     1      17.702  14.514  63.257  1.00  0.00     0.014 A 
BRANCH  20  24
HETATM   24  O1  UNL     1      11.968  14.479  65.297  1.00  0.00    -0.351 OA
BRANCH  24  25
HETATM   25  C2  UNL     1      10.703  15.074  65.256  1.00  0.00     0.171 C 
HETATM   26  C1  UNL     1       9.718  14.419  66.185  1.00  0.00     0.034 C 
ENDBRANCH  24  25
ENDBRANCH  20  24
ENDBRANCH   1  14
BRANCH   4  27
HETATM   27  C10 UNL     1      21.068  15.793  58.975  1.00  0.00     0.187 C 
BRANCH  27  28
HETATM   28  C11 UNL     1      22.452  15.429  59.296  1.00  0.00     0.245 C 
BRANCH  28  29
HETATM   29  C12 UNL     1      22.803  15.133  60.711  1.00  0.00     0.012 C 
HETATM   30  C13 UNL     1      23.525  13.849  60.957  1.00  0.00     0.012 C 
HETATM   31  C14 UNL     1      23.611  16.267  61.352  1.00  0.00     0.012 C 
ENDBRANCH  28  29
BRANCH  28  32
HETATM   32  N3  UNL     1      23.451  16.325  58.696  1.00  0.00     0.086 N 
HETATM   33  C15 UNL     1      22.822  17.262  57.780  1.00  0.00     0.310 C 
HETATM   34  C16 UNL     1      24.383  15.572  57.870  1.00  0.00     0.310 C 
ENDBRANCH  28  32
ENDBRANCH  27  28
ENDBRANCH   4  27
TORSDOF 7
ENDMDL
