MODEL 11
REMARK VINA RESULT: -8.371265057      2.422      4.742
REMARK  7 active torsions:
REMARK  status: ('A' for Active; 'I' for Inactive)
REMARK    1  A    between atoms: C2_2  and  O1_3 
REMARK    2  A    between atoms: O1_3  and  C3_4 
REMARK    3  A    between atoms: C8_9  and  C9_10 
REMARK    4  A    between atoms: N2_13  and  C10_14 
REMARK    5  A    between atoms: C10_14  and  C11_15 
REMARK    6  A    between atoms: C11_15  and  C12_16 
REMARK    7  A    between atoms: C11_15  and  N3_19 
ROOT
HETATM    1  C9  UNL     1      17.858  16.616  61.696  1.00  0.00     0.076 A 
HETATM    2  N1  UNL     1      18.505  15.660  60.999  1.00  0.00    -0.295 N 
ATOM      3  H1  UNL     1      18.112  14.742  60.789  1.00  0.00     0.187 HD
HETATM    4  N2  UNL     1      19.695  16.050  60.624  1.00  0.00    -0.273 N 
HETATM    5  C17 UNL     1      19.860  17.297  61.077  1.00  0.00     0.139 A 
HETATM    6  N4  UNL     1      20.866  18.200  61.015  1.00  0.00    -0.337 N 
ATOM      7  H4  UNL     1      21.727  17.963  60.523  1.00  0.00     0.168 HD
HETATM    8  C18 UNL     1      20.741  19.407  61.594  1.00  0.00     0.183 A 
HETATM    9  N5  UNL     1      19.627  19.767  62.256  1.00  0.00    -0.340 N 
ATOM     10  H5  UNL     1      19.566  20.691  62.685  1.00  0.00     0.167 HD
HETATM   11  C19 UNL     1      18.584  18.908  62.354  1.00  0.00     0.133 A 
HETATM   12  N6  UNL     1      17.407  19.253  63.072  1.00  0.00    -0.082 NA
HETATM   13  C20 UNL     1      18.721  17.670  61.753  1.00  0.00     0.080 A 
ENDROOT
BRANCH   1  14
HETATM   14  C8  UNL     1      16.526  16.520  62.284  1.00  0.00    -0.006 A 
HETATM   15  C7  UNL     1      16.295  15.444  63.119  1.00  0.00     0.026 A 
HETATM   16  C6  UNL     1      15.069  15.217  63.712  1.00  0.00    -0.025 A 
HETATM   17  C5  UNL     1      14.833  14.147  64.548  1.00  0.00     0.015 A 
HETATM   18  C23 UNL     1      14.063  16.116  63.440  1.00  0.00    -0.023 A 
HETATM   19  C4  UNL     1      13.589  13.947  65.128  1.00  0.00     0.037 A 
HETATM   20  C3  UNL     1      12.570  14.839  64.865  1.00  0.00     0.069 A 
HETATM   21  C24 UNL     1      12.826  15.898  64.032  1.00  0.00     0.049 A 
HETATM   22  C22 UNL     1      14.282  17.197  62.604  1.00  0.00     0.013 A 
HETATM   23  C21 UNL     1      15.509  17.410  62.018  1.00  0.00     0.014 A 
BRANCH  20  24
HETATM   24  O1  UNL     1      11.342  14.612  65.460  1.00  0.00    -0.351 OA
BRANCH  24  25
HETATM   25  C2  UNL     1      10.171  15.324  65.185  1.00  0.00     0.171 C 
HETATM   26  C1  UNL     1       8.935  14.643  65.706  1.00  0.00     0.034 C 
ENDBRANCH  24  25
ENDBRANCH  20  24
ENDBRANCH   1  14
BRANCH   4  27
HETATM   27  C10 UNL     1      20.610  15.276  59.864  1.00  0.00     0.187 C 
BRANCH  27  28
HETATM   28  C11 UNL     1      21.734  14.619  60.539  1.00  0.00     0.245 C 
BRANCH  28  29
HETATM   29  C12 UNL     1      21.675  14.439  62.015  1.00  0.00     0.012 C 
HETATM   30  C13 UNL     1      21.850  13.043  62.518  1.00  0.00     0.012 C 
HETATM   31  C14 UNL     1      22.678  15.341  62.744  1.00  0.00     0.012 C 
ENDBRANCH  28  29
BRANCH  28  32
HETATM   32  N3  UNL     1      23.048  15.139  60.137  1.00  0.00     0.086 N 
HETATM   33  C15 UNL     1      22.923  16.041  59.006  1.00  0.00     0.310 C 
HETATM   34  C16 UNL     1      23.899  14.061  59.657  1.00  0.00     0.310 C 
ENDBRANCH  28  32
ENDBRANCH  27  28
ENDBRANCH   4  27
TORSDOF 7
ENDMDL
