MODEL 9
REMARK VINA RESULT: -9.161346131      3.208      7.953
REMARK  7 active torsions:
REMARK  status: ('A' for Active; 'I' for Inactive)
REMARK    1  A    between atoms: O1_2  and  C2_3 
REMARK    2  A    between atoms: C6_7  and  C7_8 
REMARK    3  A    between atoms: C8_10  and  C9_11 
REMARK    4  A    between atoms: C9_11  and  C10_12 
REMARK       I    between atoms: C10_12  and  N1_14 
REMARK    5  A    between atoms: C13_17  and  C14_18 
REMARK    6  A    between atoms: C14_18  and  C15_19 
REMARK    7  A    between atoms: C28_36  and  O6_37 
ROOT
HETATM    1  C7  UNL     1      15.856  -2.856  57.260  1.00  0.00     0.095 C 
HETATM    2  O2  UNL     1      16.143  -2.108  56.195  1.00  0.00    -0.337 OA
HETATM    3  C8  UNL     1      16.615  -2.606  55.025  1.00  0.00     0.188 C 
HETATM    4  C18 UNL     1      15.494  -3.243  54.223  1.00  0.00     0.046 A 
HETATM    5  C19 UNL     1      15.036  -2.930  52.994  1.00  0.00     0.029 A 
HETATM    6  C20 UNL     1      14.006  -3.838  52.756  1.00  0.00     0.020 A 
HETATM    7  C21 UNL     1      13.858  -4.679  53.838  1.00  0.00     0.097 A 
HETATM    8  N2  UNL     1      14.789  -4.286  54.728  1.00  0.00    -0.323 N 
HETATM    9  C22 UNL     1      14.957  -4.910  56.007  1.00  0.00     0.052 A 
HETATM   10  C23 UNL     1      14.584  -6.237  56.008  1.00  0.00     0.032 A 
HETATM   11  C24 UNL     1      14.712  -6.931  57.181  1.00  0.00     0.026 A 
HETATM   12  C25 UNL     1      15.204  -6.314  58.339  1.00  0.00     0.035 A 
HETATM   13 CL1  UNL     1      15.374  -7.185  59.849  1.00  0.00    -0.084 Cl
HETATM   14  C26 UNL     1      15.569  -4.989  58.312  1.00  0.00     0.040 A 
HETATM   15  C27 UNL     1      15.447  -4.257  57.122  1.00  0.00     0.027 A 
ENDROOT
BRANCH   3  16
HETATM   16  C9  UNL     1      17.332  -1.601  54.186  1.00  0.00     0.141 C 
BRANCH  16  17
HETATM   17  C10 UNL     1      18.717  -2.129  53.919  1.00  0.00     0.222 C 
HETATM   18  O3  UNL     1      18.922  -3.375  53.718  1.00  0.00    -0.273 OA
HETATM   19  N1  UNL     1      19.840  -1.286  53.880  1.00  0.00    -0.352 N 
HETATM   20  C11 UNL     1      21.158  -1.796  53.621  1.00  0.00     0.126 C 
HETATM   21  C17 UNL     1      19.671   0.127  54.105  1.00  0.00     0.126 C 
HETATM   22  C12 UNL     1      22.071  -0.684  53.098  1.00  0.00     0.025 C 
HETATM   23  C13 UNL     1      22.180   0.401  54.146  1.00  0.00    -0.002 C 
HETATM   24  C16 UNL     1      20.890   0.642  54.855  1.00  0.00     0.025 C 
BRANCH  23  25
HETATM   25  C14 UNL     1      22.793   1.639  53.532  1.00  0.00     0.117 C 
BRANCH  25  26
HETATM   26  C15 UNL     1      22.381   1.868  52.131  1.00  0.00     0.172 C 
HETATM   27  O4  UNL     1      21.259   2.345  51.832  1.00  0.00    -0.648 OA
HETATM   28  O5  UNL     1      23.303   1.529  51.127  1.00  0.00    -0.648 OA
ENDBRANCH  25  26
ENDBRANCH  23  25
ENDBRANCH  16  17
ENDBRANCH   3  16
BRANCH   1  29
HETATM   29  C6  UNL     1      16.853  -2.733  58.391  1.00  0.00     0.034 A 
HETATM   30  C5  UNL     1      18.089  -3.327  58.273  1.00  0.00     0.017 A 
HETATM   31  C4  UNL     1      19.003  -3.211  59.307  1.00  0.00     0.004 A 
HETATM   32  C3  UNL     1      18.716  -2.517  60.459  1.00  0.00     0.040 A 
HETATM   33  C2  UNL     1      17.475  -1.931  60.556  1.00  0.00     0.102 A 
HETATM   34  C28 UNL     1      16.556  -2.037  59.540  1.00  0.00     0.114 A 
BRANCH  33  35
HETATM   35  O1  UNL     1      17.123  -1.217  61.694  1.00  0.00    -0.353 OA
HETATM   36  C1  UNL     1      17.512   0.112  61.863  1.00  0.00     0.210 C 
ENDBRANCH  33  35
BRANCH  34  37
HETATM   37  O6  UNL     1      15.288  -1.420  59.676  1.00  0.00    -0.352 OA
HETATM   38  C29 UNL     1      14.187  -2.051  60.253  1.00  0.00     0.210 C 
ENDBRANCH  34  37
ENDBRANCH   1  29
TORSDOF 7
ENDMDL
