MODEL 7
REMARK VINA RESULT: -9.263174594      3.068      8.083
REMARK  7 active torsions:
REMARK  status: ('A' for Active; 'I' for Inactive)
REMARK    1  A    between atoms: O1_2  and  C2_3 
REMARK    2  A    between atoms: C6_7  and  C7_8 
REMARK    3  A    between atoms: C8_10  and  C9_11 
REMARK    4  A    between atoms: C9_11  and  C10_12 
REMARK       I    between atoms: C10_12  and  N1_14 
REMARK    5  A    between atoms: C13_17  and  C14_18 
REMARK    6  A    between atoms: C14_18  and  C15_19 
REMARK    7  A    between atoms: C28_36  and  O6_37 
ROOT
HETATM    1  C7  UNL     1      15.639  -2.981  55.821  1.00  0.00     0.095 C 
HETATM    2  O2  UNL     1      15.897  -1.682  55.669  1.00  0.00    -0.337 OA
HETATM    3  C8  UNL     1      16.625  -1.170  54.645  1.00  0.00     0.188 C 
HETATM    4  C18 UNL     1      15.797  -1.112  53.374  1.00  0.00     0.046 A 
HETATM    5  C19 UNL     1      15.456  -0.044  52.623  1.00  0.00     0.029 A 
HETATM    6  C20 UNL     1      14.697  -0.571  51.580  1.00  0.00     0.020 A 
HETATM    7  C21 UNL     1      14.590  -1.938  51.717  1.00  0.00     0.097 A 
HETATM    8  N2  UNL     1      15.278  -2.242  52.834  1.00  0.00    -0.323 N 
HETATM    9  C22 UNL     1      15.402  -3.579  53.334  1.00  0.00     0.052 A 
HETATM   10  C23 UNL     1      15.336  -4.531  52.339  1.00  0.00     0.032 A 
HETATM   11  C24 UNL     1      15.451  -5.844  52.708  1.00  0.00     0.026 A 
HETATM   12  C25 UNL     1      15.628  -6.208  54.050  1.00  0.00     0.035 A 
HETATM   13 CL1  UNL     1      15.776  -7.882  54.542  1.00  0.00    -0.084 Cl
HETATM   14  C26 UNL     1      15.689  -5.239  55.024  1.00  0.00     0.040 A 
HETATM   15  C27 UNL     1      15.574  -3.888  54.670  1.00  0.00     0.027 A 
ENDROOT
BRANCH   3  16
HETATM   16  C9  UNL     1      17.211   0.172  54.933  1.00  0.00     0.141 C 
BRANCH  16  17
HETATM   17  C10 UNL     1      18.552  -0.041  55.584  1.00  0.00     0.222 C 
HETATM   18  O3  UNL     1      18.661  -0.702  56.674  1.00  0.00    -0.273 OA
HETATM   19  N1  UNL     1      19.738   0.471  55.031  1.00  0.00    -0.352 N 
HETATM   20  C11 UNL     1      21.014   0.259  55.656  1.00  0.00     0.126 C 
HETATM   21  C17 UNL     1      19.677   1.228  53.807  1.00  0.00     0.126 C 
HETATM   22  C12 UNL     1      22.145   0.414  54.633  1.00  0.00     0.025 C 
HETATM   23  C13 UNL     1      22.117   1.819  54.074  1.00  0.00    -0.002 C 
HETATM   24  C16 UNL     1      20.728   2.325  53.869  1.00  0.00     0.025 C 
BRANCH  23  25
HETATM   25  C14 UNL     1      22.992   1.892  52.843  1.00  0.00     0.117 C 
BRANCH  25  26
HETATM   26  C15 UNL     1      22.287   1.530  51.596  1.00  0.00     0.172 C 
HETATM   27  O4  UNL     1      21.750   0.407  51.432  1.00  0.00    -0.648 OA
HETATM   28  O5  UNL     1      22.237   2.501  50.582  1.00  0.00    -0.648 OA
ENDBRANCH  25  26
ENDBRANCH  23  25
ENDBRANCH  16  17
ENDBRANCH   3  16
BRANCH   1  29
HETATM   29  C6  UNL     1      16.417  -3.641  56.937  1.00  0.00     0.034 A 
HETATM   30  C5  UNL     1      17.754  -3.915  56.762  1.00  0.00     0.017 A 
HETATM   31  C4  UNL     1      18.467  -4.516  57.787  1.00  0.00     0.004 A 
HETATM   32  C3  UNL     1      17.879  -4.853  58.983  1.00  0.00     0.040 A 
HETATM   33  C2  UNL     1      16.542  -4.571  59.137  1.00  0.00     0.102 A 
HETATM   34  C28 UNL     1      15.820  -3.975  58.131  1.00  0.00     0.114 A 
BRANCH  33  35
HETATM   35  O1  UNL     1      15.889  -4.886  60.321  1.00  0.00    -0.353 OA
HETATM   36  C1  UNL     1      16.569  -4.905  61.539  1.00  0.00     0.210 C 
ENDBRANCH  33  35
BRANCH  34  37
HETATM   37  O6  UNL     1      14.444  -3.699  58.325  1.00  0.00    -0.352 OA
HETATM   38  C29 UNL     1      13.970  -2.510  58.877  1.00  0.00     0.210 C 
ENDBRANCH  34  37
ENDBRANCH   1  29
TORSDOF 7
ENDMDL
