MODEL 8
REMARK VINA RESULT: -9.226774665      3.488      5.598
REMARK  7 active torsions:
REMARK  status: ('A' for Active; 'I' for Inactive)
REMARK    1  A    between atoms: O1_2  and  C2_3 
REMARK    2  A    between atoms: C6_7  and  C7_8 
REMARK    3  A    between atoms: C8_10  and  C9_11 
REMARK    4  A    between atoms: C9_11  and  C10_12 
REMARK       I    between atoms: C10_12  and  N1_14 
REMARK    5  A    between atoms: C13_17  and  C14_18 
REMARK    6  A    between atoms: C14_18  and  C15_19 
REMARK    7  A    between atoms: C28_36  and  O6_37 
ROOT
HETATM    1  C7  UNL     1      16.746  -4.384  56.479  1.00  0.00     0.095 C 
HETATM    2  O2  UNL     1      15.627  -5.053  56.758  1.00  0.00    -0.337 OA
HETATM    3  C8  UNL     1      14.380  -4.542  56.600  1.00  0.00     0.188 C 
HETATM    4  C18 UNL     1      13.975  -4.558  55.137  1.00  0.00     0.046 A 
HETATM    5  C19 UNL     1      12.938  -5.183  54.543  1.00  0.00     0.029 A 
HETATM    6  C20 UNL     1      13.049  -4.850  53.194  1.00  0.00     0.020 A 
HETATM    7  C21 UNL     1      14.143  -4.037  52.996  1.00  0.00     0.097 A 
HETATM    8  N2  UNL     1      14.696  -3.875  54.213  1.00  0.00    -0.323 N 
HETATM    9  C22 UNL     1      15.875  -3.092  54.436  1.00  0.00     0.052 A 
HETATM   10  C23 UNL     1      16.021  -2.072  53.522  1.00  0.00     0.032 A 
HETATM   11  C24 UNL     1      17.114  -1.257  53.649  1.00  0.00     0.026 A 
HETATM   12  C25 UNL     1      18.052  -1.455  54.672  1.00  0.00     0.035 A 
HETATM   13 CL1  UNL     1      19.456  -0.425  54.851  1.00  0.00    -0.084 Cl
HETATM   14  C26 UNL     1      17.884  -2.481  55.572  1.00  0.00     0.040 A 
HETATM   15  C27 UNL     1      16.772  -3.329  55.461  1.00  0.00     0.027 A 
ENDROOT
BRANCH   3  16
HETATM   16  C9  UNL     1      13.340  -5.226  57.423  1.00  0.00     0.141 C 
BRANCH  16  17
HETATM   17  C10 UNL     1      13.902  -5.418  58.808  1.00  0.00     0.222 C 
HETATM   18  O3  UNL     1      14.231  -6.578  59.233  1.00  0.00    -0.273 OA
HETATM   19  N1  UNL     1      14.090  -4.341  59.690  1.00  0.00    -0.352 N 
HETATM   20  C11 UNL     1      14.631  -4.532  61.008  1.00  0.00     0.126 C 
HETATM   21  C17 UNL     1      13.733  -3.011  59.269  1.00  0.00     0.126 C 
HETATM   22  C12 UNL     1      15.233  -3.225  61.535  1.00  0.00     0.025 C 
HETATM   23  C13 UNL     1      14.147  -2.176  61.615  1.00  0.00    -0.002 C 
HETATM   24  C16 UNL     1      13.191  -2.255  60.472  1.00  0.00     0.025 C 
BRANCH  23  25
HETATM   25  C14 UNL     1      14.772  -0.813  61.809  1.00  0.00     0.117 C 
BRANCH  25  26
HETATM   26  C15 UNL     1      14.313  -0.124  63.033  1.00  0.00     0.172 C 
HETATM   27  O4  UNL     1      15.111   0.271  63.918  1.00  0.00    -0.648 OA
HETATM   28  O5  UNL     1      12.931   0.079  63.176  1.00  0.00    -0.648 OA
ENDBRANCH  25  26
ENDBRANCH  23  25
ENDBRANCH  16  17
ENDBRANCH   3  16
BRANCH   1  29
HETATM   29  C6  UNL     1      17.513  -3.924  57.699  1.00  0.00     0.034 A 
HETATM   30  C5  UNL     1      17.273  -2.673  58.220  1.00  0.00     0.017 A 
HETATM   31  C4  UNL     1      17.974  -2.254  59.338  1.00  0.00     0.004 A 
HETATM   32  C3  UNL     1      18.911  -3.052  59.953  1.00  0.00     0.040 A 
HETATM   33  C2  UNL     1      19.135  -4.298  59.415  1.00  0.00     0.102 A 
HETATM   34  C28 UNL     1      18.449  -4.729  58.306  1.00  0.00     0.114 A 
BRANCH  33  35
HETATM   35  O1  UNL     1      20.069  -5.152  59.989  1.00  0.00    -0.353 OA
HETATM   36  C1  UNL     1      20.637  -4.873  61.232  1.00  0.00     0.210 C 
ENDBRANCH  33  35
BRANCH  34  37
HETATM   37  O6  UNL     1      18.707  -6.020  57.781  1.00  0.00    -0.352 OA
HETATM   38  C29 UNL     1      19.575  -6.255  56.715  1.00  0.00     0.210 C 
ENDBRANCH  34  37
ENDBRANCH   1  29
TORSDOF 7
ENDMDL
