MODEL 4
REMARK VINA RESULT: -7.209312404      1.721      6.468
REMARK  2 active torsions:
REMARK  status: ('A' for Active; 'I' for Inactive)
REMARK    1  A    between atoms: C2_2  and  N1_3 
REMARK    2  A    between atoms: C15_18  and  C16_19 
ROOT
HETATM    1  N1  UNL     1     -32.078  -9.280   1.115  1.00  0.00    -0.367 N 
HETATM    2  C3  UNL     1     -33.091  -8.298   1.212  1.00  0.00     0.044 A 
HETATM    3  C4  UNL     1     -32.658  -6.987   1.354  1.00  0.00     0.056 A 
HETATM    4  C5  UNL     1     -33.577  -5.955   1.460  1.00  0.00     0.048 A 
HETATM    5  N2  UNL     1     -33.166  -4.592   1.607  1.00  0.00    -0.102 NA
HETATM    6  C6  UNL     1     -34.918  -6.250   1.422  1.00  0.00     0.027 A 
HETATM    7  C7  UNL     1     -35.391  -7.562   1.280  1.00  0.00     0.016 A 
HETATM    8  C8  UNL     1     -34.455  -8.553   1.178  1.00  0.00     0.001 A 
HETATM    9  C9  UNL     1     -34.902  -9.943   1.034  1.00  0.00    -0.015 A 
HETATM   10  C10 UNL     1     -36.251 -10.295   0.974  1.00  0.00     0.015 A 
HETATM   11  C11 UNL     1     -36.623 -11.612   0.822  1.00  0.00     0.027 A 
HETATM   12  C12 UNL     1     -35.666 -12.598   0.728  1.00  0.00     0.047 A 
HETATM   13  N3  UNL     1     -36.043 -13.970   0.570  1.00  0.00    -0.102 NA
HETATM   14  C13 UNL     1     -34.356 -12.222   0.791  1.00  0.00     0.037 A 
HETATM   15  C14 UNL     1     -33.918 -10.901   0.944  1.00  0.00    -0.018 A 
HETATM   16  C15 UNL     1     -32.470 -10.664   1.005  1.00  0.00     0.152 A 
ENDROOT
BRANCH  16  17
HETATM   17  C16 UNL     1     -31.755 -11.341  -0.126  1.00  0.00    -0.031 A 
HETATM   18  C17 UNL     1     -30.662 -10.750  -0.752  1.00  0.00     0.009 A 
HETATM   19  C18 UNL     1     -30.007 -11.382  -1.802  1.00  0.00     0.001 A 
HETATM   20  C19 UNL     1     -30.429 -12.617  -2.250  1.00  0.00     0.000 A 
HETATM   21  C20 UNL     1     -31.503 -13.218  -1.649  1.00  0.00     0.001 A 
HETATM   22  C21 UNL     1     -32.141 -12.578  -0.610  1.00  0.00     0.009 A 
ENDBRANCH  16  17
BRANCH   1  23
HETATM   23  C2  UNL     1     -30.652  -9.000   1.123  1.00  0.00     0.120 C 
HETATM   24  C1  UNL     1     -30.273  -8.389  -0.215  1.00  0.00     0.026 C 
ENDBRANCH   1  23
TORSDOF 2
ENDMDL
