MODEL 5
REMARK VINA RESULT: -7.086306791      1.794      6.447
REMARK  2 active torsions:
REMARK  status: ('A' for Active; 'I' for Inactive)
REMARK    1  A    between atoms: C2_2  and  N1_3 
REMARK    2  A    between atoms: C15_18  and  C16_19 
ROOT
HETATM    1  N1  UNL     1     -32.106  -8.945   0.971  1.00  0.00    -0.367 N 
HETATM    2  C3  UNL     1     -33.224  -8.086   1.070  1.00  0.00     0.044 A 
HETATM    3  C4  UNL     1     -32.946  -6.729   1.141  1.00  0.00     0.056 A 
HETATM    4  C5  UNL     1     -33.978  -5.808   1.243  1.00  0.00     0.048 A 
HETATM    5  N2  UNL     1     -33.727  -4.401   1.317  1.00  0.00    -0.102 NA
HETATM    6  C6  UNL     1     -35.274  -6.260   1.273  1.00  0.00     0.027 A 
HETATM    7  C7  UNL     1     -35.592  -7.624   1.204  1.00  0.00     0.016 A 
HETATM    8  C8  UNL     1     -34.548  -8.502   1.104  1.00  0.00     0.001 A 
HETATM    9  C9  UNL     1     -34.831  -9.940   1.035  1.00  0.00    -0.015 A 
HETATM   10  C10 UNL     1     -36.130 -10.450   1.046  1.00  0.00     0.015 A 
HETATM   11  C11 UNL     1     -36.346 -11.808   0.964  1.00  0.00     0.027 A 
HETATM   12  C12 UNL     1     -35.283 -12.678   0.869  1.00  0.00     0.047 A 
HETATM   13  N3  UNL     1     -35.498 -14.090   0.783  1.00  0.00    -0.102 NA
HETATM   14  C13 UNL     1     -34.026 -12.148   0.862  1.00  0.00     0.037 A 
HETATM   15  C14 UNL     1     -33.743 -10.778   0.943  1.00  0.00    -0.018 A 
HETATM   16  C15 UNL     1     -32.333 -10.370   0.934  1.00  0.00     0.152 A 
ENDROOT
BRANCH  16  17
HETATM   17  C16 UNL     1     -31.584 -11.009  -0.198  1.00  0.00    -0.031 A 
HETATM   18  C17 UNL     1     -31.959 -12.248  -0.708  1.00  0.00     0.009 A 
HETATM   19  C18 UNL     1     -31.257 -12.835  -1.755  1.00  0.00     0.001 A 
HETATM   20  C19 UNL     1     -30.168 -12.198  -2.314  1.00  0.00     0.000 A 
HETATM   21  C20 UNL     1     -29.782 -10.978  -1.828  1.00  0.00     0.001 A 
HETATM   22  C21 UNL     1     -30.488 -10.410  -0.790  1.00  0.00     0.009 A 
ENDBRANCH  16  17
BRANCH   1  23
HETATM   23  C2  UNL     1     -30.723  -8.499   0.908  1.00  0.00     0.120 C 
HETATM   24  C1  UNL     1     -30.111  -8.629   2.292  1.00  0.00     0.026 C 
ENDBRANCH   1  23
TORSDOF 2
ENDMDL
