MODEL 3
REMARK VINA RESULT: -8.040989972      1.768      5.610
REMARK  2 active torsions:
REMARK  status: ('A' for Active; 'I' for Inactive)
REMARK    1  A    between atoms: C2_2  and  N1_3 
REMARK    2  A    between atoms: C15_18  and  C16_19 
ROOT
HETATM    1  N1  UNL     1     -34.683 -10.057   0.900  1.00  0.00    -0.367 N 
HETATM    2  C3  UNL     1     -33.311  -9.817   0.657  1.00  0.00     0.044 A 
HETATM    3  C4  UNL     1     -32.861  -8.530   0.915  1.00  0.00     0.056 A 
HETATM    4  C5  UNL     1     -31.532  -8.199   0.705  1.00  0.00     0.048 A 
HETATM    5  N2  UNL     1     -31.034  -6.882   0.961  1.00  0.00    -0.102 NA
HETATM    6  C6  UNL     1     -30.671  -9.161   0.238  1.00  0.00     0.027 A 
HETATM    7  C7  UNL     1     -31.090 -10.472  -0.034  1.00  0.00     0.016 A 
HETATM    8  C8  UNL     1     -32.409 -10.760   0.186  1.00  0.00     0.001 A 
HETATM    9  C9  UNL     1     -32.896 -12.117  -0.090  1.00  0.00    -0.015 A 
HETATM   10  C10 UNL     1     -32.059 -13.136  -0.549  1.00  0.00     0.015 A 
HETATM   11  C11 UNL     1     -32.559 -14.398  -0.779  1.00  0.00     0.027 A 
HETATM   12  C12 UNL     1     -33.891 -14.670  -0.558  1.00  0.00     0.047 A 
HETATM   13  N3  UNL     1     -34.419 -15.979  -0.794  1.00  0.00    -0.102 NA
HETATM   14  C13 UNL     1     -34.682 -13.653  -0.110  1.00  0.00     0.037 A 
HETATM   15  C14 UNL     1     -34.232 -12.351   0.142  1.00  0.00    -0.018 A 
HETATM   16  C15 UNL     1     -35.215 -11.367   0.612  1.00  0.00     0.152 A 
ENDROOT
BRANCH  16  17
HETATM   17  C16 UNL     1     -36.011 -11.895   1.768  1.00  0.00    -0.031 A 
HETATM   18  C17 UNL     1     -35.445 -12.754   2.706  1.00  0.00     0.009 A 
HETATM   19  C18 UNL     1     -36.190 -13.242   3.774  1.00  0.00     0.001 A 
HETATM   20  C19 UNL     1     -37.514 -12.884   3.927  1.00  0.00     0.000 A 
HETATM   21  C20 UNL     1     -38.091 -12.039   3.016  1.00  0.00     0.001 A 
HETATM   22  C21 UNL     1     -37.339 -11.565   1.964  1.00  0.00     0.009 A 
ENDBRANCH  16  17
BRANCH   1  23
HETATM   23  C2  UNL     1     -35.615  -9.070   1.420  1.00  0.00     0.120 C 
HETATM   24  C1  UNL     1     -35.240  -7.709   0.858  1.00  0.00     0.026 C 
ENDBRANCH   1  23
TORSDOF 2
ENDMDL
