MODEL 2
REMARK VINA RESULT: -9.062808794      0.487      1.078
REMARK  2 active torsions:
REMARK  status: ('A' for Active; 'I' for Inactive)
REMARK    1  A    between atoms: C2_2  and  N1_3 
REMARK    2  A    between atoms: C15_18  and  C16_19 
ROOT
HETATM    1  N1  UNL     1     -33.325 -11.084   1.278  1.00  0.00    -0.367 N 
HETATM    2  C3  UNL     1     -33.141 -12.153   0.370  1.00  0.00     0.044 A 
HETATM    3  C4  UNL     1     -34.039 -13.205   0.476  1.00  0.00     0.056 A 
HETATM    4  C5  UNL     1     -33.938 -14.298  -0.369  1.00  0.00     0.048 A 
HETATM    5  N2  UNL     1     -34.848 -15.400  -0.289  1.00  0.00    -0.102 NA
HETATM    6  C6  UNL     1     -32.937 -14.324  -1.309  1.00  0.00     0.027 A 
HETATM    7  C7  UNL     1     -32.011 -13.279  -1.444  1.00  0.00     0.016 A 
HETATM    8  C8  UNL     1     -32.143 -12.218  -0.592  1.00  0.00     0.001 A 
HETATM    9  C9  UNL     1     -31.194 -11.103  -0.692  1.00  0.00    -0.015 A 
HETATM   10  C10 UNL     1     -30.170 -11.072  -1.639  1.00  0.00     0.015 A 
HETATM   11  C11 UNL     1     -29.312  -9.996  -1.704  1.00  0.00     0.027 A 
HETATM   12  C12 UNL     1     -29.456  -8.938  -0.835  1.00  0.00     0.047 A 
HETATM   13  N3  UNL     1     -28.570  -7.816  -0.895  1.00  0.00    -0.102 NA
HETATM   14  C13 UNL     1     -30.467  -8.999   0.080  1.00  0.00     0.037 A 
HETATM   15  C14 UNL     1     -31.369 -10.064   0.194  1.00  0.00    -0.018 A 
HETATM   16  C15 UNL     1     -32.396  -9.981   1.240  1.00  0.00     0.152 A 
ENDROOT
BRANCH  16  17
HETATM   17  C16 UNL     1     -33.117  -8.666   1.198  1.00  0.00    -0.031 A 
HETATM   18  C17 UNL     1     -34.359  -8.539   0.582  1.00  0.00     0.009 A 
HETATM   19  C18 UNL     1     -35.019  -7.316   0.544  1.00  0.00     0.001 A 
HETATM   20  C19 UNL     1     -34.454  -6.196   1.119  1.00  0.00     0.000 A 
HETATM   21  C20 UNL     1     -33.233  -6.298   1.731  1.00  0.00     0.001 A 
HETATM   22  C21 UNL     1     -32.592  -7.517   1.759  1.00  0.00     0.009 A 
ENDBRANCH  16  17
BRANCH   1  23
HETATM   23  C2  UNL     1     -34.390 -11.012   2.265  1.00  0.00     0.120 C 
HETATM   24  C1  UNL     1     -34.675 -12.416   2.770  1.00  0.00     0.026 C 
ENDBRANCH   1  23
TORSDOF 2
ENDMDL
