MODEL 1
REMARK VINA RESULT: -11.362078656      0.000      0.000
REMARK  2 active torsions:
REMARK  status: ('A' for Active; 'I' for Inactive)
REMARK    1  A    between atoms: C2_2  and  N1_3 
REMARK    2  A    between atoms: C15_18  and  C16_19 
ROOT
HETATM    1  N1  UNL     1     -33.067 -10.876   1.295  1.00  0.00    -0.367 N 
HETATM    2  C3  UNL     1     -32.904 -11.966   0.409  1.00  0.00     0.044 A 
HETATM    3  C4  UNL     1     -33.788 -13.023   0.572  1.00  0.00     0.056 A 
HETATM    4  C5  UNL     1     -33.705 -14.137  -0.248  1.00  0.00     0.048 A 
HETATM    5  N2  UNL     1     -34.602 -15.244  -0.109  1.00  0.00    -0.102 NA
HETATM    6  C6  UNL     1     -32.737 -14.178  -1.221  1.00  0.00     0.027 A 
HETATM    7  C7  UNL     1     -31.826 -13.129  -1.414  1.00  0.00     0.016 A 
HETATM    8  C8  UNL     1     -31.940 -12.047  -0.586  1.00  0.00     0.001 A 
HETATM    9  C9  UNL     1     -31.005 -10.927  -0.746  1.00  0.00    -0.015 A 
HETATM   10  C10 UNL     1     -30.014 -10.911  -1.728  1.00  0.00     0.015 A 
HETATM   11  C11 UNL     1     -29.169  -9.831  -1.850  1.00  0.00     0.027 A 
HETATM   12  C12 UNL     1     -29.293  -8.751  -1.003  1.00  0.00     0.047 A 
HETATM   13  N3  UNL     1     -28.420  -7.624  -1.122  1.00  0.00    -0.102 NA
HETATM   14  C13 UNL     1     -30.271  -8.798  -0.053  1.00  0.00     0.037 A 
HETATM   15  C14 UNL     1     -31.159  -9.867   0.119  1.00  0.00    -0.018 A 
HETATM   16  C15 UNL     1     -32.150  -9.766   1.198  1.00  0.00     0.152 A 
ENDROOT
BRANCH  16  17
HETATM   17  C16 UNL     1     -32.885  -8.460   1.147  1.00  0.00    -0.031 A 
HETATM   18  C17 UNL     1     -32.533  -7.397   1.974  1.00  0.00     0.009 A 
HETATM   19  C18 UNL     1     -33.221  -6.190   1.924  1.00  0.00     0.001 A 
HETATM   20  C19 UNL     1     -34.274  -6.019   1.048  1.00  0.00     0.000 A 
HETATM   21  C20 UNL     1     -34.638  -7.051   0.225  1.00  0.00     0.001 A 
HETATM   22  C21 UNL     1     -33.945  -8.240   0.288  1.00  0.00     0.009 A 
ENDBRANCH  16  17
BRANCH   1  23
HETATM   23  C2  UNL     1     -34.098 -10.788   2.316  1.00  0.00     0.120 C 
HETATM   24  C1  UNL     1     -35.450 -10.989   1.654  1.00  0.00     0.026 C 
ENDBRANCH   1  23
TORSDOF 2
ENDMDL
