MODEL 3
REMARK VINA RESULT: -7.483583955      3.876      9.169
REMARK  8 active torsions:
REMARK  status: ('A' for Active; 'I' for Inactive)
REMARK    1  A    between atoms: O1_2  and  C2_3 
REMARK    2  A    between atoms: C5_6  and  C6_7 
REMARK    3  A    between atoms: C6_7  and  C7_8 
REMARK    4  A    between atoms: C7_8  and  N1_9 
REMARK       I    between atoms: N1_9  and  C8_11 
REMARK    5  A    between atoms: C8_11  and  C9_13 
REMARK    6  A    between atoms: C12_16  and  S1_17 
REMARK    7  A    between atoms: S1_17  and  N2_18 
REMARK    8  A    between atoms: C16_26  and  O5_27 
ROOT
HETATM    1  N1  UNL     1      17.150   7.275  12.261  1.00  0.00    -0.357 N 
ATOM      2  H1  UNL     1      16.407   6.726  11.827  1.00  0.00     0.162 HD
HETATM    3  C8  UNL     1      17.543   6.999  13.584  1.00  0.00     0.251 C 
HETATM    4  O2  UNL     1      18.463   7.702  14.076  1.00  0.00    -0.268 OA
ENDROOT
BRANCH   1   5
HETATM    5  C7  UNL     1      17.784   8.316  11.525  1.00  0.00     0.127 C 
BRANCH   5   6
HETATM    6  C6  UNL     1      17.114   9.655  11.623  1.00  0.00     0.058 C 
BRANCH   6   7
HETATM    7  C5  UNL     1      15.857   9.567  10.799  1.00  0.00    -0.054 A 
HETATM    8  C4  UNL     1      14.658  10.082  11.239  1.00  0.00     0.010 A 
HETATM    9  C3  UNL     1      13.506  10.004  10.489  1.00  0.00     0.040 A 
HETATM   10  C2  UNL     1      13.534   9.387   9.238  1.00  0.00     0.101 A 
HETATM   11  C16 UNL     1      14.723   8.864   8.777  1.00  0.00     0.102 A 
HETATM   12  C15 UNL     1      15.854   8.963   9.558  1.00  0.00     0.046 A 
BRANCH  10  13
HETATM   13  O1  UNL     1      12.392   9.291   8.456  1.00  0.00    -0.353 OA
HETATM   14  C1  UNL     1      11.870  10.426   7.784  1.00  0.00     0.210 C 
ENDBRANCH  10  13
BRANCH  11  15
HETATM   15  O5  UNL     1      14.713   8.258   7.528  1.00  0.00    -0.353 OA
HETATM   16  C17 UNL     1      15.740   8.623   6.629  1.00  0.00     0.210 C 
ENDBRANCH  11  15
ENDBRANCH   6   7
ENDBRANCH   5   6
ENDBRANCH   1   5
BRANCH   3  17
HETATM   17  C9  UNL     1      16.955   5.950  14.425  1.00  0.00     0.032 A 
HETATM   18  C10 UNL     1      17.713   5.016  15.094  1.00  0.00     0.018 A 
HETATM   19  C11 UNL     1      17.137   4.025  15.889  1.00  0.00     0.026 A 
HETATM   20  C12 UNL     1      15.768   3.945  16.035  1.00  0.00     0.079 A 
HETATM   21  C13 UNL     1      15.013   4.882  15.363  1.00  0.00     0.026 A 
HETATM   22  C14 UNL     1      15.576   5.862  14.577  1.00  0.00     0.018 A 
BRANCH  20  23
HETATM   23  S1  UNL     1      15.020   2.706  17.031  1.00  0.00     0.256 S 
HETATM   24  O3  UNL     1      15.513   1.342  16.690  1.00  0.00    -0.201 OA
HETATM   25  O4  UNL     1      15.413   2.976  18.467  1.00  0.00    -0.201 OA
BRANCH  23  26
HETATM   26  N2  UNL     1      13.313   2.766  16.948  1.00  0.00    -0.324 N 
ATOM     27  H22 UNL     1      12.719   2.914  17.764  1.00  0.00     0.169 HD
ATOM     28  H21 UNL     1      12.974   2.638  15.994  1.00  0.00     0.169 HD
ENDBRANCH  23  26
ENDBRANCH  20  23
ENDBRANCH   3  17
TORSDOF 8
ENDMDL
