MODEL 2
REMARK VINA RESULT: -7.654129488      3.870      9.021
REMARK  8 active torsions:
REMARK  status: ('A' for Active; 'I' for Inactive)
REMARK    1  A    between atoms: O1_2  and  C2_3 
REMARK    2  A    between atoms: C5_6  and  C6_7 
REMARK    3  A    between atoms: C6_7  and  C7_8 
REMARK    4  A    between atoms: C7_8  and  N1_9 
REMARK       I    between atoms: N1_9  and  C8_11 
REMARK    5  A    between atoms: C8_11  and  C9_13 
REMARK    6  A    between atoms: C12_16  and  S1_17 
REMARK    7  A    between atoms: S1_17  and  N2_18 
REMARK    8  A    between atoms: C16_26  and  O5_27 
ROOT
HETATM    1  N1  UNL     1      17.446   7.687  12.854  1.00  0.00    -0.357 N 
ATOM      2  H1  UNL     1      17.675   8.036  13.785  1.00  0.00     0.162 HD
HETATM    3  C8  UNL     1      16.718   6.489  12.714  1.00  0.00     0.251 C 
HETATM    4  O2  UNL     1      16.459   6.098  11.547  1.00  0.00    -0.268 OA
ENDROOT
BRANCH   1   5
HETATM    5  C7  UNL     1      17.863   8.413  11.702  1.00  0.00     0.127 C 
BRANCH   5   6
HETATM    6  C6  UNL     1      17.278   9.788  11.578  1.00  0.00     0.058 C 
BRANCH   6   7
HETATM    7  C5  UNL     1      16.014   9.645  10.773  1.00  0.00    -0.054 A 
HETATM    8  C4  UNL     1      14.814  10.173  11.199  1.00  0.00     0.010 A 
HETATM    9  C3  UNL     1      13.655  10.044  10.467  1.00  0.00     0.040 A 
HETATM   10  C2  UNL     1      13.675   9.361   9.251  1.00  0.00     0.101 A 
HETATM   11  C16 UNL     1      14.864   8.824   8.805  1.00  0.00     0.102 A 
HETATM   12  C15 UNL     1      16.003   8.974   9.567  1.00  0.00     0.046 A 
BRANCH  10  13
HETATM   13  O1  UNL     1      12.526   9.213   8.489  1.00  0.00    -0.353 OA
HETATM   14  C1  UNL     1      11.901  10.335   7.885  1.00  0.00     0.210 C 
ENDBRANCH  10  13
BRANCH  11  15
HETATM   15  O5  UNL     1      14.846   8.151   7.591  1.00  0.00    -0.353 OA
HETATM   16  C17 UNL     1      15.696   8.640   6.574  1.00  0.00     0.210 C 
ENDBRANCH  11  15
ENDBRANCH   6   7
ENDBRANCH   5   6
ENDBRANCH   1   5
BRANCH   3  17
HETATM   17  C9  UNL     1      16.244   5.669  13.836  1.00  0.00     0.032 A 
HETATM   18  C10 UNL     1      15.205   6.052  14.654  1.00  0.00     0.018 A 
HETATM   19  C11 UNL     1      14.766   5.261  15.715  1.00  0.00     0.026 A 
HETATM   20  C12 UNL     1      15.367   4.050  15.987  1.00  0.00     0.079 A 
HETATM   21  C13 UNL     1      16.407   3.671  15.166  1.00  0.00     0.026 A 
HETATM   22  C14 UNL     1      16.844   4.448  14.117  1.00  0.00     0.018 A 
BRANCH  20  23
HETATM   23  S1  UNL     1      14.832   3.037  17.318  1.00  0.00     0.256 S 
HETATM   24  O3  UNL     1      13.488   2.447  17.067  1.00  0.00    -0.201 OA
HETATM   25  O4  UNL     1      15.808   1.887  17.438  1.00  0.00    -0.201 OA
BRANCH  23  26
HETATM   26  N2  UNL     1      14.850   3.879  18.807  1.00  0.00    -0.324 N 
ATOM     27  H22 UNL     1      14.607   4.865  18.894  1.00  0.00     0.169 HD
ATOM     28  H21 UNL     1      15.130   3.276  19.581  1.00  0.00     0.169 HD
ENDBRANCH  23  26
ENDBRANCH  20  23
ENDBRANCH   3  17
TORSDOF 8
ENDMDL
