MODEL 1
REMARK VINA RESULT: -7.697665235      0.000      0.000
REMARK  8 active torsions:
REMARK  status: ('A' for Active; 'I' for Inactive)
REMARK    1  A    between atoms: O1_2  and  C2_3 
REMARK    2  A    between atoms: C5_6  and  C6_7 
REMARK    3  A    between atoms: C6_7  and  C7_8 
REMARK    4  A    between atoms: C7_8  and  N1_9 
REMARK       I    between atoms: N1_9  and  C8_11 
REMARK    5  A    between atoms: C8_11  and  C9_13 
REMARK    6  A    between atoms: C12_16  and  S1_17 
REMARK    7  A    between atoms: S1_17  and  N2_18 
REMARK    8  A    between atoms: C16_26  and  O5_27 
ROOT
HETATM    1  N1  UNL     1      15.641   8.492  11.875  1.00  0.00    -0.357 N 
ATOM      2  H1  UNL     1      15.319   9.329  12.362  1.00  0.00     0.162 HD
HETATM    3  C8  UNL     1      15.250   8.262  10.542  1.00  0.00     0.251 C 
HETATM    4  O2  UNL     1      15.672   7.217   9.984  1.00  0.00    -0.268 OA
ENDROOT
BRANCH   1   5
HETATM    5  C7  UNL     1      16.484   7.562  12.547  1.00  0.00     0.127 C 
BRANCH   5   6
HETATM    6  C6  UNL     1      16.465   7.661  14.043  1.00  0.00     0.058 C 
BRANCH   6   7
HETATM    7  C5  UNL     1      16.093   6.297  14.559  1.00  0.00    -0.054 A 
HETATM    8  C4  UNL     1      15.068   6.112  15.462  1.00  0.00     0.010 A 
HETATM    9  C3  UNL     1      14.724   4.867  15.937  1.00  0.00     0.040 A 
HETATM   10  C2  UNL     1      15.424   3.741  15.502  1.00  0.00     0.101 A 
HETATM   11  C16 UNL     1      16.453   3.902  14.599  1.00  0.00     0.102 A 
HETATM   12  C15 UNL     1      16.767   5.165  14.147  1.00  0.00     0.046 A 
BRANCH  10  13
HETATM   13  O1  UNL     1      15.103   2.471  15.960  1.00  0.00    -0.353 OA
HETATM   14  C1  UNL     1      15.144   2.164  17.345  1.00  0.00     0.210 C 
ENDBRANCH  10  13
BRANCH  11  15
HETATM   15  O5  UNL     1      17.127   2.759  14.189  1.00  0.00    -0.353 OA
HETATM   16  C17 UNL     1      16.922   2.338  12.855  1.00  0.00     0.210 C 
ENDBRANCH  11  15
ENDBRANCH   6   7
ENDBRANCH   5   6
ENDBRANCH   1   5
BRANCH   3  17
HETATM   17  C9  UNL     1      14.386   9.158   9.763  1.00  0.00     0.032 A 
HETATM   18  C10 UNL     1      14.449  10.530   9.863  1.00  0.00     0.018 A 
HETATM   19  C11 UNL     1      13.620  11.366   9.115  1.00  0.00     0.026 A 
HETATM   20  C12 UNL     1      12.696  10.841   8.237  1.00  0.00     0.079 A 
HETATM   21  C13 UNL     1      12.636   9.467   8.140  1.00  0.00     0.026 A 
HETATM   22  C14 UNL     1      13.451   8.636   8.876  1.00  0.00     0.018 A 
BRANCH  20  23
HETATM   23  S1  UNL     1      11.642  11.875   7.285  1.00  0.00     0.256 S 
HETATM   24  O3  UNL     1      11.796  13.312   7.643  1.00  0.00    -0.201 OA
HETATM   25  O4  UNL     1      12.048  11.730   5.835  1.00  0.00    -0.201 OA
BRANCH  23  26
HETATM   26  N2  UNL     1      10.004  11.398   7.406  1.00  0.00    -0.324 N 
ATOM     27  H22 UNL     1       9.300  11.633   6.705  1.00  0.00     0.169 HD
ATOM     28  H21 UNL     1       9.826  10.859   8.253  1.00  0.00     0.169 HD
ENDBRANCH  23  26
ENDBRANCH  20  23
ENDBRANCH   3  17
TORSDOF 8
ENDMDL
