MODEL 6
REMARK VINA RESULT: -8.125241316      2.442      8.226
REMARK  4 active torsions:
REMARK  status: ('A' for Active; 'I' for Inactive)
REMARK       I    between atoms: C1_2  and  N1_3 
REMARK       I    between atoms: C1_2  and  N2_13 
REMARK    1  A    between atoms: N1_3  and  C2_5 
REMARK    2  A    between atoms: C2_5  and  C3_6 
REMARK    3  A    between atoms: C3_6  and  C4_7 
REMARK    4  A    between atoms: N2_13  and  C10_15 
ROOT
HETATM    1  O1  UNL     1     -44.744   4.241  31.428  1.00  0.00    -0.247 OA
HETATM    2  C1  UNL     1     -45.667   3.463  31.735  1.00  0.00     0.320 C 
HETATM    3  N1  UNL     1     -45.916   3.200  33.132  1.00  0.00    -0.343 N 
ATOM      4  H1  UNL     1     -46.671   2.564  33.391  1.00  0.00     0.164 HD
HETATM    5  N2  UNL     1     -46.445   2.859  30.729  1.00  0.00    -0.309 N 
ATOM      6  H2  UNL     1     -47.187   2.228  31.032  1.00  0.00     0.170 HD
ENDROOT
BRANCH   5   7
HETATM    7  C10 UNL     1     -46.290   3.048  29.339  1.00  0.00     0.037 A 
HETATM    8  C11 UNL     1     -46.947   2.150  28.483  1.00  0.00     0.032 A 
HETATM    9  C12 UNL     1     -46.873   2.239  27.109  1.00  0.00     0.034 A 
HETATM   10  C13 UNL     1     -46.136   3.234  26.506  1.00  0.00     0.059 A 
HETATM   11  N3  UNL     1     -45.898   3.546  25.211  1.00  0.00    -0.300 N 
HETATM   12  C15 UNL     1     -45.490   4.118  27.322  1.00  0.00     0.011 A 
HETATM   13  N4  UNL     1     -45.118   4.606  25.225  1.00  0.00    -0.311 N 
ATOM     14  H3  UNL     1     -46.253   3.058  24.389  1.00  0.00     0.187 HD
HETATM   15  C14 UNL     1     -44.837   4.998  26.492  1.00  0.00     0.120 A 
ATOM     16  H4  UNL     1     -44.769   5.073  24.388  1.00  0.00     0.186 HD
HETATM   17  C16 UNL     1     -45.576   4.013  28.709  1.00  0.00     0.044 A 
ENDBRANCH   5   7
BRANCH   3  18
HETATM   18  C2  UNL     1     -45.123   3.816  34.174  1.00  0.00     0.129 C 
BRANCH  18  19
HETATM   19  C3  UNL     1     -43.950   2.990  34.593  1.00  0.00     0.058 C 
BRANCH  19  20
HETATM   20  C4  UNL     1     -44.484   1.729  35.188  1.00  0.00    -0.057 A 
HETATM   21  C5  UNL     1     -43.703   0.581  35.198  1.00  0.00     0.007 A 
HETATM   22  C6  UNL     1     -44.174  -0.594  35.740  1.00  0.00     0.001 A 
HETATM   23  C7  UNL     1     -45.426  -0.676  36.289  1.00  0.00     0.000 A 
HETATM   24  C8  UNL     1     -46.211   0.442  36.289  1.00  0.00     0.001 A 
HETATM   25  C9  UNL     1     -45.740   1.631  35.743  1.00  0.00     0.007 A 
ENDBRANCH  19  20
ENDBRANCH  18  19
ENDBRANCH   3  18
TORSDOF 4
ENDMDL
