MODEL 5
REMARK VINA RESULT: -8.185809782      2.477      7.855
REMARK  4 active torsions:
REMARK  status: ('A' for Active; 'I' for Inactive)
REMARK       I    between atoms: C1_2  and  N1_3 
REMARK       I    between atoms: C1_2  and  N2_13 
REMARK    1  A    between atoms: N1_3  and  C2_5 
REMARK    2  A    between atoms: C2_5  and  C3_6 
REMARK    3  A    between atoms: C3_6  and  C4_7 
REMARK    4  A    between atoms: N2_13  and  C10_15 
ROOT
HETATM    1  O1  UNL     1     -46.457   4.542  31.464  1.00  0.00    -0.247 OA
HETATM    2  C1  UNL     1     -45.256   4.871  31.497  1.00  0.00     0.320 C 
HETATM    3  N1  UNL     1     -44.684   5.284  32.756  1.00  0.00    -0.343 N 
ATOM      4  H1  UNL     1     -43.701   5.555  32.791  1.00  0.00     0.164 HD
HETATM    5  N2  UNL     1     -44.482   4.836  30.321  1.00  0.00    -0.309 N 
ATOM      6  H2  UNL     1     -43.505   5.118  30.401  1.00  0.00     0.170 HD
ENDROOT
BRANCH   5   7
HETATM    7  C10 UNL     1     -44.937   4.447  29.044  1.00  0.00     0.037 A 
HETATM    8  C11 UNL     1     -44.635   5.287  27.960  1.00  0.00     0.032 A 
HETATM    9  C12 UNL     1     -45.022   5.007  26.668  1.00  0.00     0.034 A 
HETATM   10  C13 UNL     1     -45.737   3.866  26.378  1.00  0.00     0.059 A 
HETATM   11  N3  UNL     1     -46.233   3.360  25.225  1.00  0.00    -0.300 N 
HETATM   12  C15 UNL     1     -46.041   3.035  27.418  1.00  0.00     0.011 A 
HETATM   13  N4  UNL     1     -46.833   2.234  25.546  1.00  0.00    -0.311 N 
ATOM     14  H3  UNL     1     -46.156   3.769  24.294  1.00  0.00     0.187 HD
HETATM   15  C14 UNL     1     -46.746   1.987  26.876  1.00  0.00     0.120 A 
ATOM     16  H4  UNL     1     -47.304   1.623  24.878  1.00  0.00     0.186 HD
HETATM   17  C16 UNL     1     -45.641   3.334  28.719  1.00  0.00     0.044 A 
ENDBRANCH   5   7
BRANCH   3  18
HETATM   18  C2  UNL     1     -45.470   5.324  33.971  1.00  0.00     0.129 C 
BRANCH  18  19
HETATM   19  C3  UNL     1     -44.711   4.891  35.183  1.00  0.00     0.058 C 
BRANCH  19  20
HETATM   20  C4  UNL     1     -44.884   3.413  35.311  1.00  0.00    -0.057 A 
HETATM   21  C5  UNL     1     -46.005   2.898  35.947  1.00  0.00     0.007 A 
HETATM   22  C6  UNL     1     -46.186   1.539  36.077  1.00  0.00     0.001 A 
HETATM   23  C7  UNL     1     -45.271   0.646  35.586  1.00  0.00     0.000 A 
HETATM   24  C8  UNL     1     -44.160   1.133  34.957  1.00  0.00     0.001 A 
HETATM   25  C9  UNL     1     -43.973   2.504  34.823  1.00  0.00     0.007 A 
ENDBRANCH  19  20
ENDBRANCH  18  19
ENDBRANCH   3  18
TORSDOF 4
ENDMDL
