MODEL 2
REMARK VINA RESULT: -8.351769792      0.043      1.028
REMARK  4 active torsions:
REMARK  status: ('A' for Active; 'I' for Inactive)
REMARK       I    between atoms: C1_2  and  N1_3 
REMARK       I    between atoms: C1_2  and  N2_13 
REMARK    1  A    between atoms: N1_3  and  C2_5 
REMARK    2  A    between atoms: C2_5  and  C3_6 
REMARK    3  A    between atoms: C3_6  and  C4_7 
REMARK    4  A    between atoms: N2_13  and  C10_15 
ROOT
HETATM    1  O1  UNL     1     -45.770   3.384  31.918  1.00  0.00    -0.247 OA
HETATM    2  C1  UNL     1     -44.994   4.188  32.469  1.00  0.00     0.320 C 
HETATM    3  N1  UNL     1     -44.687   5.427  31.796  1.00  0.00    -0.343 N 
ATOM      4  H1  UNL     1     -44.051   6.090  32.241  1.00  0.00     0.164 HD
HETATM    5  N2  UNL     1     -44.434   3.881  33.724  1.00  0.00    -0.309 N 
ATOM      6  H2  UNL     1     -43.802   4.571  34.131  1.00  0.00     0.170 HD
ENDROOT
BRANCH   5   7
HETATM    7  C10 UNL     1     -44.668   2.705  34.468  1.00  0.00     0.037 A 
HETATM    8  C11 UNL     1     -43.596   1.814  34.632  1.00  0.00     0.032 A 
HETATM    9  C12 UNL     1     -43.706   0.638  35.343  1.00  0.00     0.034 A 
HETATM   10  C13 UNL     1     -44.896   0.280  35.934  1.00  0.00     0.059 A 
HETATM   11  N3  UNL     1     -45.272  -0.792  36.671  1.00  0.00    -0.300 N 
HETATM   12  C15 UNL     1     -45.951   1.134  35.787  1.00  0.00     0.011 A 
HETATM   13  N4  UNL     1     -46.539  -0.604  36.974  1.00  0.00    -0.311 N 
ATOM     14  H3  UNL     1     -44.690  -1.585  36.937  1.00  0.00     0.187 HD
HETATM   15  C14 UNL     1     -47.005   0.560  36.457  1.00  0.00     0.120 A 
ATOM     16  H4  UNL     1     -47.099  -1.252  37.528  1.00  0.00     0.186 HD
HETATM   17  C16 UNL     1     -45.823   2.320  35.065  1.00  0.00     0.044 A 
ENDBRANCH   5   7
BRANCH   3  18
HETATM   18  C2  UNL     1     -45.256   5.753  30.506  1.00  0.00     0.129 C 
BRANCH  18  19
HETATM   19  C3  UNL     1     -44.260   5.722  29.392  1.00  0.00     0.058 C 
BRANCH  19  20
HETATM   20  C4  UNL     1     -44.846   4.894  28.296  1.00  0.00    -0.057 A 
HETATM   21  C5  UNL     1     -45.476   3.693  28.595  1.00  0.00     0.007 A 
HETATM   22  C6  UNL     1     -46.023   2.913  27.601  1.00  0.00     0.001 A 
HETATM   23  C7  UNL     1     -45.968   3.288  26.285  1.00  0.00     0.000 A 
HETATM   24  C8  UNL     1     -45.352   4.466  25.970  1.00  0.00     0.001 A 
HETATM   25  C9  UNL     1     -44.798   5.259  26.969  1.00  0.00     0.007 A 
ENDBRANCH  19  20
ENDBRANCH  18  19
ENDBRANCH   3  18
TORSDOF 4
ENDMDL
