MODEL 4
REMARK VINA RESULT: -8.208744080      0.558      1.376
REMARK  4 active torsions:
REMARK  status: ('A' for Active; 'I' for Inactive)
REMARK       I    between atoms: C1_2  and  N1_3 
REMARK       I    between atoms: C1_2  and  N2_13 
REMARK    1  A    between atoms: N1_3  and  C2_5 
REMARK    2  A    between atoms: C2_5  and  C3_6 
REMARK    3  A    between atoms: C3_6  and  C4_7 
REMARK    4  A    between atoms: N2_13  and  C10_15 
ROOT
HETATM    1  O1  UNL     1     -45.843   3.529  31.978  1.00  0.00    -0.247 OA
HETATM    2  C1  UNL     1     -44.969   4.289  32.440  1.00  0.00     0.320 C 
HETATM    3  N1  UNL     1     -44.574   5.442  31.668  1.00  0.00    -0.343 N 
ATOM      4  H1  UNL     1     -43.859   6.068  32.040  1.00  0.00     0.164 HD
HETATM    5  N2  UNL     1     -44.387   4.015  33.692  1.00  0.00    -0.309 N 
ATOM      6  H2  UNL     1     -43.675   4.665  34.025  1.00  0.00     0.170 HD
ENDROOT
BRANCH   5   7
HETATM    7  C10 UNL     1     -44.700   2.922  34.528  1.00  0.00     0.037 A 
HETATM    8  C11 UNL     1     -45.857   3.018  35.319  1.00  0.00     0.032 A 
HETATM    9  C12 UNL     1     -46.265   2.012  36.169  1.00  0.00     0.034 A 
HETATM   10  C13 UNL     1     -45.541   0.846  36.280  1.00  0.00     0.059 A 
HETATM   11  N3  UNL     1     -45.711  -0.275  37.019  1.00  0.00    -0.300 N 
HETATM   12  C15 UNL     1     -44.413   0.733  35.519  1.00  0.00     0.011 A 
HETATM   13  N4  UNL     1     -44.705  -1.069  36.720  1.00  0.00    -0.311 N 
ATOM     14  H3  UNL     1     -46.467  -0.466  37.676  1.00  0.00     0.187 HD
HETATM   15  C14 UNL     1     -43.880  -0.501  35.806  1.00  0.00     0.120 A 
ATOM     16  H4  UNL     1     -44.564  -1.995  37.125  1.00  0.00     0.186 HD
HETATM   17  C16 UNL     1     -44.015   1.760  34.665  1.00  0.00     0.044 A 
ENDBRANCH   5   7
BRANCH   3  18
HETATM   18  C2  UNL     1     -45.165   5.733  30.379  1.00  0.00     0.129 C 
BRANCH  18  19
HETATM   19  C3  UNL     1     -44.200   5.620  29.244  1.00  0.00     0.058 C 
BRANCH  19  20
HETATM   20  C4  UNL     1     -44.847   4.780  28.193  1.00  0.00    -0.057 A 
HETATM   21  C5  UNL     1     -44.838   5.197  26.869  1.00  0.00     0.007 A 
HETATM   22  C6  UNL     1     -45.429   4.439  25.882  1.00  0.00     0.001 A 
HETATM   23  C7  UNL     1     -46.046   3.250  26.166  1.00  0.00     0.000 A 
HETATM   24  C8  UNL     1     -46.066   2.822  27.464  1.00  0.00     0.001 A 
HETATM   25  C9  UNL     1     -45.471   3.582  28.464  1.00  0.00     0.007 A 
ENDBRANCH  19  20
ENDBRANCH  18  19
ENDBRANCH   3  18
TORSDOF 4
ENDMDL
