MODEL 3
REMARK VINA RESULT: -8.297212574      2.370      8.056
REMARK  4 active torsions:
REMARK  status: ('A' for Active; 'I' for Inactive)
REMARK       I    between atoms: C1_2  and  N1_3 
REMARK       I    between atoms: C1_2  and  N2_13 
REMARK    1  A    between atoms: N1_3  and  C2_5 
REMARK    2  A    between atoms: C2_5  and  C3_6 
REMARK    3  A    between atoms: C3_6  and  C4_7 
REMARK    4  A    between atoms: N2_13  and  C10_15 
ROOT
HETATM    1  O1  UNL     1     -45.829   3.095  31.619  1.00  0.00    -0.247 OA
HETATM    2  C1  UNL     1     -45.113   4.113  31.689  1.00  0.00     0.320 C 
HETATM    3  N1  UNL     1     -44.680   4.569  32.988  1.00  0.00    -0.343 N 
ATOM      4  H1  UNL     1     -44.094   5.402  33.053  1.00  0.00     0.164 HD
HETATM    5  N2  UNL     1     -44.743   4.798  30.515  1.00  0.00    -0.309 N 
ATOM      6  H2  UNL     1     -44.159   5.626  30.626  1.00  0.00     0.170 HD
ENDROOT
BRANCH   5   7
HETATM    7  C10 UNL     1     -45.108   4.439  29.200  1.00  0.00     0.037 A 
HETATM    8  C11 UNL     1     -44.700   5.285  28.157  1.00  0.00     0.032 A 
HETATM    9  C12 UNL     1     -44.993   5.034  26.834  1.00  0.00     0.034 A 
HETATM   10  C13 UNL     1     -45.712   3.917  26.471  1.00  0.00     0.059 A 
HETATM   11  N3  UNL     1     -46.130   3.441  25.275  1.00  0.00    -0.300 N 
HETATM   12  C15 UNL     1     -46.118   3.081  27.471  1.00  0.00     0.011 A 
HETATM   13  N4  UNL     1     -46.782   2.327  25.530  1.00  0.00    -0.311 N 
ATOM     14  H3  UNL     1     -45.970   3.861  24.360  1.00  0.00     0.187 HD
HETATM   15  C14 UNL     1     -46.806   2.060  26.860  1.00  0.00     0.120 A 
ATOM     16  H4  UNL     1     -47.216   1.740  24.818  1.00  0.00     0.186 HD
HETATM   17  C16 UNL     1     -45.813   3.350  28.804  1.00  0.00     0.044 A 
ENDBRANCH   5   7
BRANCH   3  18
HETATM   18  C2  UNL     1     -45.054   3.874  34.201  1.00  0.00     0.129 C 
BRANCH  18  19
HETATM   19  C3  UNL     1     -44.008   2.923  34.688  1.00  0.00     0.058 C 
BRANCH  19  20
HETATM   20  C4  UNL     1     -44.715   1.720  35.219  1.00  0.00    -0.057 A 
HETATM   21  C5  UNL     1     -44.007   0.552  35.466  1.00  0.00     0.007 A 
HETATM   22  C6  UNL     1     -44.637  -0.570  35.956  1.00  0.00     0.001 A 
HETATM   23  C7  UNL     1     -45.981  -0.579  36.218  1.00  0.00     0.000 A 
HETATM   24  C8  UNL     1     -46.697   0.561  35.981  1.00  0.00     0.001 A 
HETATM   25  C9  UNL     1     -46.066   1.697  35.487  1.00  0.00     0.007 A 
ENDBRANCH  19  20
ENDBRANCH  18  19
ENDBRANCH   3  18
TORSDOF 4
ENDMDL
