MODEL 1
REMARK VINA RESULT: -8.362009958      0.000      0.000
REMARK  4 active torsions:
REMARK  status: ('A' for Active; 'I' for Inactive)
REMARK       I    between atoms: C1_2  and  N1_3 
REMARK       I    between atoms: C1_2  and  N2_13 
REMARK    1  A    between atoms: N1_3  and  C2_5 
REMARK    2  A    between atoms: C2_5  and  C3_6 
REMARK    3  A    between atoms: C3_6  and  C4_7 
REMARK    4  A    between atoms: N2_13  and  C10_15 
ROOT
HETATM    1  O1  UNL     1     -45.792   3.409  31.950  1.00  0.00    -0.247 OA
HETATM    2  C1  UNL     1     -44.983   4.186  32.492  1.00  0.00     0.320 C 
HETATM    3  N1  UNL     1     -44.652   5.421  31.823  1.00  0.00    -0.343 N 
ATOM      4  H1  UNL     1     -43.990   6.061  32.262  1.00  0.00     0.164 HD
HETATM    5  N2  UNL     1     -44.409   3.852  33.734  1.00  0.00    -0.309 N 
ATOM      6  H2  UNL     1     -43.750   4.520  34.135  1.00  0.00     0.170 HD
ENDROOT
BRANCH   5   7
HETATM    7  C10 UNL     1     -44.664   2.678  34.473  1.00  0.00     0.037 A 
HETATM    8  C11 UNL     1     -43.605   1.771  34.641  1.00  0.00     0.032 A 
HETATM    9  C12 UNL     1     -43.735   0.594  35.347  1.00  0.00     0.034 A 
HETATM   10  C13 UNL     1     -44.933   0.251  35.932  1.00  0.00     0.059 A 
HETATM   11  N3  UNL     1     -45.328  -0.817  36.663  1.00  0.00    -0.300 N 
HETATM   12  C15 UNL     1     -45.976   1.121  35.781  1.00  0.00     0.011 A 
HETATM   13  N4  UNL     1     -46.593  -0.612  36.961  1.00  0.00    -0.311 N 
ATOM     14  H3  UNL     1     -44.759  -1.619  36.930  1.00  0.00     0.187 HD
HETATM   15  C14 UNL     1     -47.040   0.560  36.445  1.00  0.00     0.120 A 
ATOM     16  H4  UNL     1     -47.165  -1.254  37.510  1.00  0.00     0.186 HD
HETATM   17  C16 UNL     1     -45.827   2.307  35.064  1.00  0.00     0.044 A 
ENDBRANCH   5   7
BRANCH   3  18
HETATM   18  C2  UNL     1     -45.236   5.773  30.547  1.00  0.00     0.129 C 
BRANCH  18  19
HETATM   19  C3  UNL     1     -44.261   5.725  29.415  1.00  0.00     0.058 C 
BRANCH  19  20
HETATM   20  C4  UNL     1     -44.858   4.863  28.351  1.00  0.00    -0.057 A 
HETATM   21  C5  UNL     1     -44.799   5.261  27.022  1.00  0.00     0.007 A 
HETATM   22  C6  UNL     1     -45.344   4.483  26.024  1.00  0.00     0.001 A 
HETATM   23  C7  UNL     1     -45.961   3.293  26.302  1.00  0.00     0.000 A 
HETATM   24  C8  UNL     1     -46.030   2.884  27.604  1.00  0.00     0.001 A 
HETATM   25  C9  UNL     1     -45.482   3.665  28.615  1.00  0.00     0.007 A 
ENDBRANCH  19  20
ENDBRANCH  18  19
ENDBRANCH   3  18
TORSDOF 4
ENDMDL
