MODEL 7
REMARK VINA RESULT: -6.649441494      4.522      6.916
REMARK  4 active torsions:
REMARK  status: ('A' for Active; 'I' for Inactive)
REMARK    1  A    between atoms: O1_2  and  C2_3 
REMARK    2  A    between atoms: C10_14  and  C11_15 
REMARK    3  A    between atoms: C14_18  and  S1_19 
REMARK    4  A    between atoms: S1_19  and  N2_20 
ROOT
HETATM    1  C2  UNL     1      -3.522   3.846  14.552  1.00  0.00     0.068 A 
HETATM    2  C3  UNL     1      -4.543   3.969  13.634  1.00  0.00     0.037 A 
HETATM    3  C4  UNL     1      -4.665   5.086  12.824  1.00  0.00     0.013 A 
HETATM    4  C5  UNL     1      -3.738   6.093  12.947  1.00  0.00    -0.017 A 
HETATM    5  C6  UNL     1      -2.714   5.976  13.862  1.00  0.00    -0.045 A 
HETATM    6  C7  UNL     1      -2.591   4.857  14.675  1.00  0.00     0.044 A 
HETATM    7  C8  UNL     1      -1.752   7.106  13.936  1.00  0.00     0.066 C 
HETATM    8  C9  UNL     1      -1.473   7.755  12.624  1.00  0.00     0.238 C 
HETATM    9  N1  UNL     1      -2.430   7.506  11.593  1.00  0.00    -0.062 N 
ATOM     10  H11 UNL     1      -2.161   6.710  11.014  1.00  0.00     0.278 HD
ATOM     11  H12 UNL     1      -2.410   8.232  10.877  1.00  0.00     0.278 HD
HETATM   12  C10 UNL     1      -3.751   7.340  12.144  1.00  0.00     0.252 C 
ENDROOT
BRANCH  12  13
HETATM   13  C11 UNL     1      -4.816   7.359  11.131  1.00  0.00    -0.023 A 
HETATM   14  C12 UNL     1      -6.087   7.784  11.429  1.00  0.00     0.011 A 
HETATM   15  C13 UNL     1      -7.029   7.772  10.427  1.00  0.00     0.026 A 
HETATM   16  C14 UNL     1      -6.760   7.359   9.156  1.00  0.00     0.079 A 
HETATM   17  C15 UNL     1      -5.486   6.935   8.860  1.00  0.00     0.026 A 
HETATM   18  C16 UNL     1      -4.544   6.942   9.848  1.00  0.00     0.011 A 
BRANCH  16  19
HETATM   19  S1  UNL     1      -7.940   7.336   7.868  1.00  0.00     0.256 S 
HETATM   20  O2  UNL     1      -9.204   7.959   8.384  1.00  0.00    -0.201 OA
HETATM   21  O3  UNL     1      -8.191   5.897   7.477  1.00  0.00    -0.201 OA
BRANCH  19  22
HETATM   22  N2  UNL     1      -7.397   8.229   6.500  1.00  0.00    -0.324 N 
ATOM     23  H22 UNL     1      -7.072   9.194   6.553  1.00  0.00     0.169 HD
ATOM     24  H21 UNL     1      -7.443   7.671   5.648  1.00  0.00     0.169 HD
ENDBRANCH  19  22
ENDBRANCH  16  19
ENDBRANCH  12  13
BRANCH   1  25
HETATM   25  O1  UNL     1      -3.412   2.705  15.365  1.00  0.00    -0.356 OA
HETATM   26  C1  UNL     1      -4.543   1.886  15.574  1.00  0.00     0.210 C 
ENDBRANCH   1  25
TORSDOF 4
ENDMDL
