MODEL 11
REMARK VINA RESULT: -6.544921833      4.484      7.008
REMARK  4 active torsions:
REMARK  status: ('A' for Active; 'I' for Inactive)
REMARK    1  A    between atoms: O1_2  and  C2_3 
REMARK    2  A    between atoms: C10_14  and  C11_15 
REMARK    3  A    between atoms: C14_18  and  S1_19 
REMARK    4  A    between atoms: S1_19  and  N2_20 
ROOT
HETATM    1  C2  UNL     1      -3.675   3.553  14.555  1.00  0.00     0.068 A 
HETATM    2  C3  UNL     1      -4.602   3.667  13.540  1.00  0.00     0.037 A 
HETATM    3  C4  UNL     1      -4.703   4.813  12.769  1.00  0.00     0.013 A 
HETATM    4  C5  UNL     1      -3.852   5.859  13.030  1.00  0.00    -0.017 A 
HETATM    5  C6  UNL     1      -2.922   5.752  14.041  1.00  0.00    -0.045 A 
HETATM    6  C7  UNL     1      -2.820   4.604  14.816  1.00  0.00     0.044 A 
HETATM    7  C8  UNL     1      -2.038   6.926  14.263  1.00  0.00     0.066 C 
HETATM    8  C9  UNL     1      -1.663   7.649  13.014  1.00  0.00     0.238 C 
HETATM    9  N1  UNL     1      -2.494   7.400  11.880  1.00  0.00    -0.062 N 
ATOM     10  H11 UNL     1      -2.123   6.646  11.300  1.00  0.00     0.278 HD
ATOM     11  H12 UNL     1      -2.441   8.159  11.200  1.00  0.00     0.278 HD
HETATM   12  C10 UNL     1      -3.853   7.140  12.282  1.00  0.00     0.252 C 
ENDROOT
BRANCH  12  13
HETATM   13  C11 UNL     1      -4.808   7.152  11.165  1.00  0.00    -0.023 A 
HETATM   14  C12 UNL     1      -4.451   6.734   9.906  1.00  0.00     0.011 A 
HETATM   15  C13 UNL     1      -5.401   6.775   8.913  1.00  0.00     0.026 A 
HETATM   16  C14 UNL     1      -6.676   7.211   9.119  1.00  0.00     0.079 A 
HETATM   17  C15 UNL     1      -7.031   7.629  10.380  1.00  0.00     0.026 A 
HETATM   18  C16 UNL     1      -6.095   7.592  11.373  1.00  0.00     0.011 A 
BRANCH  16  19
HETATM   19  S1  UNL     1      -7.900   7.272   7.873  1.00  0.00     0.256 S 
HETATM   20  O2  UNL     1      -9.088   8.003   8.425  1.00  0.00    -0.201 OA
HETATM   21  O3  UNL     1      -8.283   5.854   7.513  1.00  0.00    -0.201 OA
BRANCH  19  22
HETATM   22  N2  UNL     1      -7.334   8.100   6.475  1.00  0.00    -0.324 N 
ATOM     23  H22 UNL     1      -7.688   9.010   6.180  1.00  0.00     0.169 HD
ATOM     24  H21 UNL     1      -6.612   7.567   5.991  1.00  0.00     0.169 HD
ENDBRANCH  19  22
ENDBRANCH  16  19
ENDBRANCH  12  13
BRANCH   1  25
HETATM   25  O1  UNL     1      -3.585   2.383  15.327  1.00  0.00    -0.356 OA
HETATM   26  C1  UNL     1      -4.765   1.714  15.720  1.00  0.00     0.210 C 
ENDBRANCH   1  25
TORSDOF 4
ENDMDL
