MODEL 12
REMARK VINA RESULT: -6.530254314      3.126      3.737
REMARK  4 active torsions:
REMARK  status: ('A' for Active; 'I' for Inactive)
REMARK    1  A    between atoms: O1_2  and  C2_3 
REMARK    2  A    between atoms: C10_14  and  C11_15 
REMARK    3  A    between atoms: C14_18  and  S1_19 
REMARK    4  A    between atoms: S1_19  and  N2_20 
ROOT
HETATM    1  C2  UNL     1       0.518   5.164   9.737  1.00  0.00     0.068 A 
HETATM    2  C3  UNL     1       0.166   4.250  10.708  1.00  0.00     0.037 A 
HETATM    3  C4  UNL     1      -1.104   4.226  11.261  1.00  0.00     0.013 A 
HETATM    4  C5  UNL     1      -2.031   5.142  10.823  1.00  0.00    -0.017 A 
HETATM    5  C6  UNL     1      -1.686   6.058   9.853  1.00  0.00    -0.045 A 
HETATM    6  C7  UNL     1      -0.413   6.084   9.298  1.00  0.00     0.044 A 
HETATM    7  C8  UNL     1      -2.742   7.015   9.433  1.00  0.00     0.066 C 
HETATM    8  C9  UNL     1      -4.116   6.439   9.422  1.00  0.00     0.238 C 
HETATM    9  N1  UNL     1      -4.293   5.242  10.182  1.00  0.00    -0.062 N 
ATOM     10  H11 UNL     1      -4.170   4.409   9.605  1.00  0.00     0.278 HD
ATOM     11  H12 UNL     1      -5.268   5.105  10.447  1.00  0.00     0.278 HD
HETATM   12  C10 UNL     1      -3.422   5.225  11.329  1.00  0.00     0.252 C 
ENDROOT
BRANCH  12  13
HETATM   13  C11 UNL     1      -3.746   4.167  12.296  1.00  0.00    -0.023 A 
HETATM   14  C12 UNL     1      -4.178   2.928  11.891  1.00  0.00     0.011 A 
HETATM   15  C13 UNL     1      -4.462   1.990  12.857  1.00  0.00     0.026 A 
HETATM   16  C14 UNL     1      -4.335   2.234  14.192  1.00  0.00     0.079 A 
HETATM   17  C15 UNL     1      -3.901   3.475  14.595  1.00  0.00     0.026 A 
HETATM   18  C16 UNL     1      -3.617   4.413  13.644  1.00  0.00     0.011 A 
BRANCH  16  19
HETATM   19  S1  UNL     1      -4.688   1.058  15.436  1.00  0.00     0.256 S 
HETATM   20  O2  UNL     1      -3.543   1.049  16.405  1.00  0.00    -0.201 OA
HETATM   21  O3  UNL     1      -4.828  -0.299  14.783  1.00  0.00    -0.201 OA
BRANCH  19  22
HETATM   22  N2  UNL     1      -6.133   1.452  16.283  1.00  0.00    -0.324 N 
ATOM     23  H22 UNL     1      -6.796   2.159  15.964  1.00  0.00     0.169 HD
ATOM     24  H21 UNL     1      -6.234   0.894  17.130  1.00  0.00     0.169 HD
ENDBRANCH  19  22
ENDBRANCH  16  19
ENDBRANCH  12  13
BRANCH   1  25
HETATM   25  O1  UNL     1       1.810   5.175   9.185  1.00  0.00    -0.356 OA
HETATM   26  C1  UNL     1       2.493   3.956   8.985  1.00  0.00     0.210 C 
ENDBRANCH   1  25
TORSDOF 4
ENDMDL
