MODEL 9
REMARK VINA RESULT: -5.352093334      2.882      5.641
REMARK  7 active torsions:
REMARK  status: ('A' for Active; 'I' for Inactive)
REMARK    1  A    between atoms: C2_2  and  S1_4 
REMARK    2  A    between atoms: S1_4  and  C4_5 
REMARK    3  A    between atoms: C5_7  and  C6_8 
REMARK    4  A    between atoms: C6_8  and  O2_9 
REMARK    5  A    between atoms: C7_11  and  O3_12 
REMARK    6  A    between atoms: C8_14  and  O4_15 
REMARK    7  A    between atoms: C9_17  and  O5_18 
ROOT
HETATM    1  C4  UNL     1     -14.971 -26.955 -25.458  1.00  0.00     0.215 C 
HETATM    2  O1  UNL     1     -14.501 -25.959 -24.629  1.00  0.00    -0.363 OA
HETATM    3  C5  UNL     1     -15.555 -25.119 -24.319  1.00  0.00     0.178 C 
HETATM    4  C7  UNL     1     -16.315 -25.859 -23.223  1.00  0.00     0.180 C 
HETATM    5  C8  UNL     1     -16.996 -26.997 -23.925  1.00  0.00     0.181 C 
HETATM    6  C9  UNL     1     -16.278 -27.548 -25.100  1.00  0.00     0.188 C 
ENDROOT
BRANCH   1   7
HETATM    7  S1  UNL     1     -13.701 -28.260 -25.576  1.00  0.00    -0.131 SA
BRANCH   7   8
HETATM    8  C2  UNL     1     -12.231 -27.695 -26.441  1.00  0.00     0.041 C 
HETATM    9  C1  UNL     1     -12.465 -27.395 -27.894  1.00  0.00     0.021 C 
HETATM   10  C3  UNL     1     -11.052 -28.617 -26.303  1.00  0.00     0.021 C 
ENDBRANCH   7   8
ENDBRANCH   1   7
BRANCH   6  11
HETATM   11  O5  UNL     1     -17.116 -27.496 -26.228  1.00  0.00    -0.389 OA
ATOM     12  H5  UNL     1     -16.864 -26.751 -26.759  1.00  0.00     0.210 HD
ENDBRANCH   6  11
BRANCH   3  13
HETATM   13  C6  UNL     1     -15.159 -23.737 -23.919  1.00  0.00     0.198 C 
BRANCH  13  14
HETATM   14  O2  UNL     1     -15.464 -23.557 -22.574  1.00  0.00    -0.398 OA
ATOM     15  H2  UNL     1     -16.403 -23.445 -22.486  1.00  0.00     0.209 HD
ENDBRANCH  13  14
ENDBRANCH   3  13
BRANCH   5  16
HETATM   16  O4  UNL     1     -17.283 -27.962 -22.946  1.00  0.00    -0.390 OA
ATOM     17  H4  UNL     1     -16.883 -28.773 -23.236  1.00  0.00     0.210 HD
ENDBRANCH   5  16
BRANCH   4  18
HETATM   18  O3  UNL     1     -15.381 -26.285 -22.289  1.00  0.00    -0.390 OA
ATOM     19  H3  UNL     1     -15.859 -26.541 -21.508  1.00  0.00     0.210 HD
ENDBRANCH   4  18
TORSDOF 7
ENDMDL
