MODEL 5
REMARK VINA RESULT: -5.929373756      2.078      3.583
REMARK  7 active torsions:
REMARK  status: ('A' for Active; 'I' for Inactive)
REMARK    1  A    between atoms: C2_2  and  S1_4 
REMARK    2  A    between atoms: S1_4  and  C4_5 
REMARK    3  A    between atoms: C5_7  and  C6_8 
REMARK    4  A    between atoms: C6_8  and  O2_9 
REMARK    5  A    between atoms: C7_11  and  O3_12 
REMARK    6  A    between atoms: C8_14  and  O4_15 
REMARK    7  A    between atoms: C9_17  and  O5_18 
ROOT
HETATM    1  C4  UNL     1     -15.333 -27.719 -26.114  1.00  0.00     0.215 C 
HETATM    2  O1  UNL     1     -15.158 -28.663 -27.104  1.00  0.00    -0.363 OA
HETATM    3  C5  UNL     1     -14.124 -28.248 -27.921  1.00  0.00     0.178 C 
HETATM    4  C7  UNL     1     -12.863 -28.625 -27.152  1.00  0.00     0.180 C 
HETATM    5  C8  UNL     1     -12.796 -27.648 -26.016  1.00  0.00     0.181 C 
HETATM    6  C9  UNL     1     -14.103 -27.178 -25.495  1.00  0.00     0.188 C 
ENDROOT
BRANCH   1   7
HETATM    7  S1  UNL     1     -16.427 -28.417 -24.831  1.00  0.00    -0.131 SA
BRANCH   7   8
HETATM    8  C2  UNL     1     -16.958 -27.173 -23.648  1.00  0.00     0.041 C 
HETATM    9  C1  UNL     1     -17.958 -27.680 -22.648  1.00  0.00     0.021 C 
HETATM   10  C3  UNL     1     -17.477 -25.913 -24.283  1.00  0.00     0.021 C 
ENDBRANCH   7   8
ENDBRANCH   1   7
BRANCH   6  11
HETATM   11  O5  UNL     1     -14.153 -25.774 -25.552  1.00  0.00    -0.389 OA
ATOM     12  H5  UNL     1     -14.483 -25.518 -26.405  1.00  0.00     0.210 HD
ENDBRANCH   6  11
BRANCH   3  13
HETATM   13  C6  UNL     1     -14.152 -28.812 -29.302  1.00  0.00     0.198 C 
BRANCH  13  14
HETATM   14  O2  UNL     1     -12.886 -29.300 -29.611  1.00  0.00    -0.398 OA
ATOM     15  H2  UNL     1     -12.940 -30.242 -29.720  1.00  0.00     0.209 HD
ENDBRANCH  13  14
ENDBRANCH   3  13
BRANCH   5  16
HETATM   16  O4  UNL     1     -11.981 -28.230 -25.030  1.00  0.00    -0.390 OA
ATOM     17  H4  UNL     1     -11.974 -27.630 -24.293  1.00  0.00     0.210 HD
ENDBRANCH   5  16
BRANCH   4  18
HETATM   18  O3  UNL     1     -13.017 -29.938 -26.725  1.00  0.00    -0.390 OA
ATOM     19  H3  UNL     1     -12.937 -30.494 -27.491  1.00  0.00     0.210 HD
ENDBRANCH   4  18
TORSDOF 7
ENDMDL
