MODEL 4
REMARK VINA RESULT: -5.956588948      2.188      3.688
REMARK  7 active torsions:
REMARK  status: ('A' for Active; 'I' for Inactive)
REMARK    1  A    between atoms: C2_2  and  S1_4 
REMARK    2  A    between atoms: S1_4  and  C4_5 
REMARK    3  A    between atoms: C5_7  and  C6_8 
REMARK    4  A    between atoms: C6_8  and  O2_9 
REMARK    5  A    between atoms: C7_11  and  O3_12 
REMARK    6  A    between atoms: C8_14  and  O4_15 
REMARK    7  A    between atoms: C9_17  and  O5_18 
ROOT
HETATM    1  C4  UNL     1     -15.299 -27.688 -26.133  1.00  0.00     0.215 C 
HETATM    2  O1  UNL     1     -15.131 -28.643 -27.113  1.00  0.00    -0.363 OA
HETATM    3  C5  UNL     1     -14.090 -28.246 -27.931  1.00  0.00     0.178 C 
HETATM    4  C7  UNL     1     -12.835 -28.630 -27.154  1.00  0.00     0.180 C 
HETATM    5  C8  UNL     1     -12.761 -27.644 -26.026  1.00  0.00     0.181 C 
HETATM    6  C9  UNL     1     -14.065 -27.155 -25.514  1.00  0.00     0.188 C 
ENDROOT
BRANCH   1   7
HETATM    7  S1  UNL     1     -16.405 -28.363 -24.847  1.00  0.00    -0.131 SA
BRANCH   7   8
HETATM    8  C2  UNL     1     -18.115 -27.881 -25.108  1.00  0.00     0.041 C 
HETATM    9  C1  UNL     1     -18.566 -28.008 -26.535  1.00  0.00     0.021 C 
HETATM   10  C3  UNL     1     -18.443 -26.504 -24.600  1.00  0.00     0.021 C 
ENDBRANCH   7   8
ENDBRANCH   1   7
BRANCH   6  11
HETATM   11  O5  UNL     1     -14.100 -25.751 -25.584  1.00  0.00    -0.389 OA
ATOM     12  H5  UNL     1     -14.292 -25.497 -26.478  1.00  0.00     0.210 HD
ENDBRANCH   6  11
BRANCH   3  13
HETATM   13  C6  UNL     1     -14.119 -28.822 -29.307  1.00  0.00     0.198 C 
BRANCH  13  14
HETATM   14  O2  UNL     1     -12.849 -29.297 -29.620  1.00  0.00    -0.398 OA
ATOM     15  H2  UNL     1     -12.938 -30.098 -30.122  1.00  0.00     0.209 HD
ENDBRANCH  13  14
ENDBRANCH   3  13
BRANCH   5  16
HETATM   16  O4  UNL     1     -11.956 -28.225 -25.033  1.00  0.00    -0.390 OA
ATOM     17  H4  UNL     1     -11.839 -27.568 -24.357  1.00  0.00     0.210 HD
ENDBRANCH   5  16
BRANCH   4  18
HETATM   18  O3  UNL     1     -13.004 -29.937 -26.716  1.00  0.00    -0.390 OA
ATOM     19  H3  UNL     1     -13.866 -29.992 -26.320  1.00  0.00     0.210 HD
ENDBRANCH   4  18
TORSDOF 7
ENDMDL
