MODEL 8
REMARK VINA RESULT: -5.403754434      3.014      5.629
REMARK  7 active torsions:
REMARK  status: ('A' for Active; 'I' for Inactive)
REMARK    1  A    between atoms: C2_2  and  S1_4 
REMARK    2  A    between atoms: S1_4  and  C4_5 
REMARK    3  A    between atoms: C5_7  and  C6_8 
REMARK    4  A    between atoms: C6_8  and  O2_9 
REMARK    5  A    between atoms: C7_11  and  O3_12 
REMARK    6  A    between atoms: C8_14  and  O4_15 
REMARK    7  A    between atoms: C9_17  and  O5_18 
ROOT
HETATM    1  C4  UNL     1     -14.974 -26.925 -25.481  1.00  0.00     0.215 C 
HETATM    2  O1  UNL     1     -14.502 -25.935 -24.646  1.00  0.00    -0.363 OA
HETATM    3  C5  UNL     1     -15.557 -25.104 -24.319  1.00  0.00     0.178 C 
HETATM    4  C7  UNL     1     -16.302 -25.858 -23.223  1.00  0.00     0.180 C 
HETATM    5  C8  UNL     1     -16.985 -26.992 -23.930  1.00  0.00     0.181 C 
HETATM    6  C9  UNL     1     -16.276 -27.528 -25.117  1.00  0.00     0.188 C 
ENDROOT
BRANCH   1   7
HETATM    7  S1  UNL     1     -13.699 -28.223 -25.624  1.00  0.00    -0.131 SA
BRANCH   7   8
HETATM    8  C2  UNL     1     -13.236 -28.528 -27.333  1.00  0.00     0.041 C 
HETATM    9  C1  UNL     1     -12.143 -27.627 -27.831  1.00  0.00     0.021 C 
HETATM   10  C3  UNL     1     -14.394 -28.489 -28.291  1.00  0.00     0.021 C 
ENDBRANCH   7   8
ENDBRANCH   1   7
BRANCH   6  11
HETATM   11  O5  UNL     1     -17.124 -27.470 -26.236  1.00  0.00    -0.389 OA
ATOM     12  H5  UNL     1     -17.977 -27.161 -25.954  1.00  0.00     0.210 HD
ENDBRANCH   6  11
BRANCH   3  13
HETATM   13  C6  UNL     1     -15.164 -23.724 -23.909  1.00  0.00     0.198 C 
BRANCH  13  14
HETATM   14  O2  UNL     1     -15.435 -23.566 -22.553  1.00  0.00    -0.398 OA
ATOM     15  H2  UNL     1     -15.564 -22.642 -22.374  1.00  0.00     0.209 HD
ENDBRANCH  13  14
ENDBRANCH   3  13
BRANCH   5  16
HETATM   16  O4  UNL     1     -17.258 -27.968 -22.957  1.00  0.00    -0.390 OA
ATOM     17  H4  UNL     1     -18.069 -28.390 -23.214  1.00  0.00     0.210 HD
ENDBRANCH   5  16
BRANCH   4  18
HETATM   18  O3  UNL     1     -15.358 -26.288 -22.301  1.00  0.00    -0.390 OA
ATOM     19  H3  UNL     1     -15.819 -26.785 -21.636  1.00  0.00     0.210 HD
ENDBRANCH   4  18
TORSDOF 7
ENDMDL
