MODEL 10
REMARK VINA RESULT: -5.260819871      4.352      6.910
REMARK  7 active torsions:
REMARK  status: ('A' for Active; 'I' for Inactive)
REMARK    1  A    between atoms: C2_2  and  S1_4 
REMARK    2  A    between atoms: S1_4  and  C4_5 
REMARK    3  A    between atoms: C5_7  and  C6_8 
REMARK    4  A    between atoms: C6_8  and  O2_9 
REMARK    5  A    between atoms: C7_11  and  O3_12 
REMARK    6  A    between atoms: C8_14  and  O4_15 
REMARK    7  A    between atoms: C9_17  and  O5_18 
ROOT
HETATM    1  C4  UNL     1     -17.316 -26.137 -23.969  1.00  0.00     0.215 C 
HETATM    2  O1  UNL     1     -17.423 -24.798 -24.282  1.00  0.00    -0.363 OA
HETATM    3  C5  UNL     1     -17.736 -24.107 -23.127  1.00  0.00     0.178 C 
HETATM    4  C7  UNL     1     -16.402 -23.969 -22.399  1.00  0.00     0.180 C 
HETATM    5  C8  UNL     1     -16.098 -25.345 -21.886  1.00  0.00     0.181 C 
HETATM    6  C9  UNL     1     -16.597 -26.466 -22.719  1.00  0.00     0.188 C 
ENDROOT
BRANCH   1   7
HETATM    7  S1  UNL     1     -16.553 -27.006 -25.381  1.00  0.00    -0.131 SA
BRANCH   7   8
HETATM    8  C2  UNL     1     -14.814 -27.357 -25.097  1.00  0.00     0.041 C 
HETATM    9  C1  UNL     1     -13.916 -26.174 -25.320  1.00  0.00     0.021 C 
HETATM   10  C3  UNL     1     -14.297 -28.533 -25.877  1.00  0.00     0.021 C 
ENDBRANCH   7   8
ENDBRANCH   1   7
BRANCH   6  11
HETATM   11  O5  UNL     1     -17.414 -27.304 -21.940  1.00  0.00    -0.389 OA
ATOM     12  H5  UNL     1     -17.477 -28.149 -22.368  1.00  0.00     0.210 HD
ENDBRANCH   6  11
BRANCH   3  13
HETATM   13  C6  UNL     1     -18.415 -22.797 -23.345  1.00  0.00     0.198 C 
BRANCH  13  14
HETATM   14  O2  UNL     1     -18.034 -22.297 -24.587  1.00  0.00    -0.398 OA
ATOM     15  H2  UNL     1     -18.344 -21.401 -24.663  1.00  0.00     0.209 HD
ENDBRANCH  13  14
ENDBRANCH   3  13
BRANCH   5  16
HETATM   16  O4  UNL     1     -14.713 -25.395 -21.658  1.00  0.00    -0.390 OA
ATOM     17  H4  UNL     1     -14.474 -26.313 -21.627  1.00  0.00     0.210 HD
ENDBRANCH   5  16
BRANCH   4  18
HETATM   18  O3  UNL     1     -15.471 -23.521 -23.326  1.00  0.00    -0.390 OA
ATOM     19  H3  UNL     1     -14.615 -23.583 -22.918  1.00  0.00     0.210 HD
ENDBRANCH   4  18
TORSDOF 7
ENDMDL
