MODEL 7
REMARK VINA RESULT: -5.473293723      2.471      3.376
REMARK  7 active torsions:
REMARK  status: ('A' for Active; 'I' for Inactive)
REMARK    1  A    between atoms: C2_2  and  S1_4 
REMARK    2  A    between atoms: S1_4  and  C4_5 
REMARK    3  A    between atoms: C5_7  and  C6_8 
REMARK    4  A    between atoms: C6_8  and  O2_9 
REMARK    5  A    between atoms: C7_11  and  O3_12 
REMARK    6  A    between atoms: C8_14  and  O4_15 
REMARK    7  A    between atoms: C9_17  and  O5_18 
ROOT
HETATM    1  C4  UNL     1     -14.900 -27.539 -26.648  1.00  0.00     0.215 C 
HETATM    2  O1  UNL     1     -14.058 -27.883 -27.684  1.00  0.00    -0.363 OA
HETATM    3  C5  UNL     1     -12.755 -27.679 -27.270  1.00  0.00     0.178 C 
HETATM    4  C7  UNL     1     -12.434 -28.906 -26.423  1.00  0.00     0.180 C 
HETATM    5  C8  UNL     1     -13.215 -28.717 -25.156  1.00  0.00     0.181 C 
HETATM    6  C9  UNL     1     -14.499 -27.988 -25.296  1.00  0.00     0.188 C 
ENDROOT
BRANCH   1   7
HETATM    7  S1  UNL     1     -16.578 -28.142 -27.038  1.00  0.00    -0.131 SA
BRANCH   7   8
HETATM    8  C2  UNL     1     -17.602 -28.285 -25.568  1.00  0.00     0.041 C 
HETATM    9  C1  UNL     1     -18.687 -29.316 -25.688  1.00  0.00     0.021 C 
HETATM   10  C3  UNL     1     -18.196 -26.981 -25.113  1.00  0.00     0.021 C 
ENDBRANCH   7   8
ENDBRANCH   1   7
BRANCH   6  11
HETATM   11  O5  UNL     1     -14.504 -26.876 -24.436  1.00  0.00    -0.389 OA
ATOM     12  H5  UNL     1     -14.595 -27.185 -23.543  1.00  0.00     0.210 HD
ENDBRANCH   6  11
BRANCH   3  13
HETATM   13  C6  UNL     1     -11.773 -27.461 -28.372  1.00  0.00     0.198 C 
BRANCH  13  14
HETATM   14  O2  UNL     1     -11.720 -28.610 -29.156  1.00  0.00    -0.398 OA
ATOM     15  H2  UNL     1     -11.970 -28.384 -30.045  1.00  0.00     0.209 HD
ENDBRANCH  13  14
ENDBRANCH   3  13
BRANCH   5  16
HETATM   16  O4  UNL     1     -13.357 -29.988 -24.576  1.00  0.00    -0.390 OA
ATOM     17  H4  UNL     1     -12.499 -30.395 -24.596  1.00  0.00     0.210 HD
ENDBRANCH   5  16
BRANCH   4  18
HETATM   18  O3  UNL     1     -12.838 -30.022 -27.144  1.00  0.00    -0.390 OA
ATOM     19  H3  UNL     1     -12.396 -29.989 -27.984  1.00  0.00     0.210 HD
ENDBRANCH   4  18
TORSDOF 7
ENDMDL
