MODEL 6
REMARK VINA RESULT: -5.414918156      2.163      3.598
REMARK  7 active torsions:
REMARK  status: ('A' for Active; 'I' for Inactive)
REMARK    1  A    between atoms: C2_2  and  S1_4 
REMARK    2  A    between atoms: S1_4  and  C4_5 
REMARK    3  A    between atoms: C5_7  and  C6_8 
REMARK    4  A    between atoms: C6_8  and  O2_9 
REMARK    5  A    between atoms: C7_11  and  O3_12 
REMARK    6  A    between atoms: C8_14  and  O4_15 
REMARK    7  A    between atoms: C9_17  and  O5_18 
ROOT
HETATM    1  C4  UNL     1     -14.886 -27.504 -26.475  1.00  0.00     0.215 C 
HETATM    2  O1  UNL     1     -14.070 -27.849 -27.532  1.00  0.00    -0.363 OA
HETATM    3  C5  UNL     1     -12.756 -27.685 -27.137  1.00  0.00     0.178 C 
HETATM    4  C7  UNL     1     -12.452 -28.936 -26.318  1.00  0.00     0.180 C 
HETATM    5  C8  UNL     1     -13.206 -28.751 -25.035  1.00  0.00     0.181 C 
HETATM    6  C9  UNL     1     -14.473 -27.988 -25.139  1.00  0.00     0.188 C 
ENDROOT
BRANCH   1   7
HETATM    7  S1  UNL     1     -16.585 -28.058 -26.847  1.00  0.00    -0.131 SA
BRANCH   7   8
HETATM    8  C2  UNL     1     -17.591 -28.189 -25.364  1.00  0.00     0.041 C 
HETATM    9  C1  UNL     1     -18.599 -29.301 -25.417  1.00  0.00     0.021 C 
HETATM   10  C3  UNL     1     -18.277 -26.908 -24.980  1.00  0.00     0.021 C 
ENDBRANCH   7   8
ENDBRANCH   1   7
BRANCH   6  11
HETATM   11  O5  UNL     1     -14.435 -26.893 -24.258  1.00  0.00    -0.389 OA
ATOM     12  H5  UNL     1     -14.044 -27.176 -23.441  1.00  0.00     0.210 HD
ENDBRANCH   6  11
BRANCH   3  13
HETATM   13  C6  UNL     1     -11.788 -27.472 -28.252  1.00  0.00     0.198 C 
BRANCH  13  14
HETATM   14  O2  UNL     1     -11.769 -28.610 -29.052  1.00  0.00    -0.398 OA
ATOM     15  H2  UNL     1     -12.356 -28.476 -29.787  1.00  0.00     0.209 HD
ENDBRANCH  13  14
ENDBRANCH   3  13
BRANCH   5  16
HETATM   16  O4  UNL     1     -13.370 -30.030 -24.476  1.00  0.00    -0.390 OA
ATOM     17  H4  UNL     1     -12.500 -30.391 -24.360  1.00  0.00     0.210 HD
ENDBRANCH   5  16
BRANCH   4  18
HETATM   18  O3  UNL     1     -12.895 -30.027 -27.052  1.00  0.00    -0.390 OA
ATOM     19  H3  UNL     1     -12.371 -30.775 -26.791  1.00  0.00     0.210 HD
ENDBRANCH   4  18
TORSDOF 7
ENDMDL
