MODEL 4
REMARK VINA RESULT: -5.859736039      1.879      3.678
REMARK  7 active torsions:
REMARK  status: ('A' for Active; 'I' for Inactive)
REMARK    1  A    between atoms: C2_2  and  S1_4 
REMARK    2  A    between atoms: S1_4  and  C4_5 
REMARK    3  A    between atoms: C5_7  and  C6_8 
REMARK    4  A    between atoms: C6_8  and  O2_9 
REMARK    5  A    between atoms: C7_11  and  O3_12 
REMARK    6  A    between atoms: C8_14  and  O4_15 
REMARK    7  A    between atoms: C9_17  and  O5_18 
ROOT
HETATM    1  C4  UNL     1     -15.220 -27.653 -26.043  1.00  0.00     0.215 C 
HETATM    2  O1  UNL     1     -15.088 -28.620 -27.017  1.00  0.00    -0.363 OA
HETATM    3  C5  UNL     1     -14.053 -28.252 -27.856  1.00  0.00     0.178 C 
HETATM    4  C7  UNL     1     -12.793 -28.653 -27.096  1.00  0.00     0.180 C 
HETATM    5  C8  UNL     1     -12.681 -27.657 -25.980  1.00  0.00     0.181 C 
HETATM    6  C9  UNL     1     -13.965 -27.138 -25.451  1.00  0.00     0.188 C 
ENDROOT
BRANCH   1   7
HETATM    7  S1  UNL     1     -16.317 -28.293 -24.732  1.00  0.00    -0.131 SA
BRANCH   7   8
HETATM    8  C2  UNL     1     -18.023 -27.784 -24.972  1.00  0.00     0.041 C 
HETATM    9  C1  UNL     1     -18.502 -27.931 -26.387  1.00  0.00     0.021 C 
HETATM   10  C3  UNL     1     -18.315 -26.391 -24.486  1.00  0.00     0.021 C 
ENDBRANCH   7   8
ENDBRANCH   1   7
BRANCH   6  11
HETATM   11  O5  UNL     1     -13.974 -25.735 -25.534  1.00  0.00    -0.389 OA
ATOM     12  H5  UNL     1     -13.342 -25.391 -24.916  1.00  0.00     0.210 HD
ENDBRANCH   6  11
BRANCH   3  13
HETATM   13  C6  UNL     1     -14.117 -28.841 -29.225  1.00  0.00     0.198 C 
BRANCH  13  14
HETATM   14  O2  UNL     1     -12.852 -29.305 -29.572  1.00  0.00    -0.398 OA
ATOM     15  H2  UNL     1     -12.926 -30.209 -29.857  1.00  0.00     0.209 HD
ENDBRANCH  13  14
ENDBRANCH   3  13
BRANCH   5  16
HETATM   16  O4  UNL     1     -11.870 -28.245 -24.995  1.00  0.00    -0.390 OA
ATOM     17  H4  UNL     1     -12.237 -27.995 -24.155  1.00  0.00     0.210 HD
ENDBRANCH   5  16
BRANCH   4  18
HETATM   18  O3  UNL     1     -12.981 -29.952 -26.643  1.00  0.00    -0.390 OA
ATOM     19  H3  UNL     1     -12.518 -30.032 -25.817  1.00  0.00     0.210 HD
ENDBRANCH   4  18
TORSDOF 7
ENDMDL
