MODEL 11
REMARK VINA RESULT: -5.045832370      2.719      5.048
REMARK  7 active torsions:
REMARK  status: ('A' for Active; 'I' for Inactive)
REMARK    1  A    between atoms: C2_2  and  S1_4 
REMARK    2  A    between atoms: S1_4  and  C4_5 
REMARK    3  A    between atoms: C5_7  and  C6_8 
REMARK    4  A    between atoms: C6_8  and  O2_9 
REMARK    5  A    between atoms: C7_11  and  O3_12 
REMARK    6  A    between atoms: C8_14  and  O4_15 
REMARK    7  A    between atoms: C9_17  and  O5_18 
ROOT
HETATM    1  C4  UNL     1     -13.924 -27.866 -25.958  1.00  0.00     0.215 C 
HETATM    2  O1  UNL     1     -14.283 -27.158 -24.830  1.00  0.00    -0.363 OA
HETATM    3  C5  UNL     1     -15.415 -26.422 -25.123  1.00  0.00     0.178 C 
HETATM    4  C7  UNL     1     -16.555 -27.429 -25.018  1.00  0.00     0.180 C 
HETATM    5  C8  UNL     1     -16.411 -28.304 -26.228  1.00  0.00     0.181 C 
HETATM    6  C9  UNL     1     -15.023 -28.510 -26.710  1.00  0.00     0.188 C 
ENDROOT
BRANCH   1   7
HETATM    7  S1  UNL     1     -12.670 -29.108 -25.491  1.00  0.00    -0.131 SA
BRANCH   7   8
HETATM    8  C2  UNL     1     -11.179 -28.966 -26.482  1.00  0.00     0.041 C 
HETATM    9  C1  UNL     1      -9.951 -28.641 -25.681  1.00  0.00     0.021 C 
HETATM   10  C3  UNL     1     -11.300 -28.001 -27.628  1.00  0.00     0.021 C 
ENDBRANCH   7   8
ENDBRANCH   1   7
BRANCH   6  11
HETATM   11  O5  UNL     1     -14.932 -28.121 -28.058  1.00  0.00    -0.389 OA
ATOM     12  H5  UNL     1     -14.316 -27.402 -28.124  1.00  0.00     0.210 HD
ENDBRANCH   6  11
BRANCH   3  13
HETATM   13  C6  UNL     1     -15.621 -25.221 -24.262  1.00  0.00     0.198 C 
BRANCH  13  14
HETATM   14  O2  UNL     1     -16.985 -24.960 -24.179  1.00  0.00    -0.398 OA
ATOM     15  H2  UNL     1     -17.335 -24.882 -25.059  1.00  0.00     0.209 HD
ENDBRANCH  13  14
ENDBRANCH   3  13
BRANCH   5  16
HETATM   16  O4  UNL     1     -17.084 -29.504 -25.942  1.00  0.00    -0.390 OA
ATOM     17  H4  UNL     1     -17.662 -29.324 -25.210  1.00  0.00     0.210 HD
ENDBRANCH   5  16
BRANCH   4  18
HETATM   18  O3  UNL     1     -16.385 -28.123 -23.828  1.00  0.00    -0.390 OA
ATOM     19  H3  UNL     1     -16.150 -29.016 -24.053  1.00  0.00     0.210 HD
ENDBRANCH   4  18
TORSDOF 7
ENDMDL
