MODEL 9
REMARK VINA RESULT: -5.062979007      3.329      5.666
REMARK  7 active torsions:
REMARK  status: ('A' for Active; 'I' for Inactive)
REMARK    1  A    between atoms: C2_2  and  S1_4 
REMARK    2  A    between atoms: S1_4  and  C4_5 
REMARK    3  A    between atoms: C5_7  and  C6_8 
REMARK    4  A    between atoms: C6_8  and  O2_9 
REMARK    5  A    between atoms: C7_11  and  O3_12 
REMARK    6  A    between atoms: C8_14  and  O4_15 
REMARK    7  A    between atoms: C9_17  and  O5_18 
ROOT
HETATM    1  C4  UNL     1     -15.023 -26.707 -25.491  1.00  0.00     0.215 C 
HETATM    2  O1  UNL     1     -14.576 -25.750 -24.605  1.00  0.00    -0.363 OA
HETATM    3  C5  UNL     1     -15.669 -25.041 -24.144  1.00  0.00     0.178 C 
HETATM    4  C7  UNL     1     -16.278 -25.942 -23.075  1.00  0.00     0.180 C 
HETATM    5  C8  UNL     1     -16.914 -27.068 -23.835  1.00  0.00     0.181 C 
HETATM    6  C9  UNL     1     -16.245 -27.445 -25.104  1.00  0.00     0.188 C 
ENDROOT
BRANCH   1   7
HETATM    7  S1  UNL     1     -13.661 -27.876 -25.822  1.00  0.00    -0.131 SA
BRANCH   7   8
HETATM    8  C2  UNL     1     -13.041 -27.732 -27.502  1.00  0.00     0.041 C 
HETATM    9  C1  UNL     1     -13.751 -28.619 -28.484  1.00  0.00     0.021 C 
HETATM   10  C3  UNL     1     -11.557 -27.939 -27.621  1.00  0.00     0.021 C 
ENDBRANCH   7   8
ENDBRANCH   1   7
BRANCH   6  11
HETATM   11  O5  UNL     1     -17.168 -27.368 -26.162  1.00  0.00    -0.389 OA
ATOM     12  H5  UNL     1     -18.002 -27.708 -25.861  1.00  0.00     0.210 HD
ENDBRANCH   6  11
BRANCH   3  13
HETATM   13  C6  UNL     1     -15.361 -23.670 -23.642  1.00  0.00     0.198 C 
BRANCH  13  14
HETATM   14  O2  UNL     1     -15.745 -23.587 -22.307  1.00  0.00    -0.398 OA
ATOM     15  H2  UNL     1     -16.161 -22.745 -22.162  1.00  0.00     0.209 HD
ENDBRANCH  13  14
ENDBRANCH   3  13
BRANCH   5  16
HETATM   16  O4  UNL     1     -17.044 -28.139 -22.935  1.00  0.00    -0.390 OA
ATOM     17  H4  UNL     1     -16.792 -28.924 -23.407  1.00  0.00     0.210 HD
ENDBRANCH   5  16
BRANCH   4  18
HETATM   18  O3  UNL     1     -15.243 -26.363 -22.252  1.00  0.00    -0.390 OA
ATOM     19  H3  UNL     1     -15.555 -27.122 -21.773  1.00  0.00     0.210 HD
ENDBRANCH   4  18
TORSDOF 7
ENDMDL
