MODEL 10
REMARK VINA RESULT: -5.046832856      4.005      6.225
REMARK  7 active torsions:
REMARK  status: ('A' for Active; 'I' for Inactive)
REMARK    1  A    between atoms: C2_2  and  S1_4 
REMARK    2  A    between atoms: S1_4  and  C4_5 
REMARK    3  A    between atoms: C5_7  and  C6_8 
REMARK    4  A    between atoms: C6_8  and  O2_9 
REMARK    5  A    between atoms: C7_11  and  O3_12 
REMARK    6  A    between atoms: C8_14  and  O4_15 
REMARK    7  A    between atoms: C9_17  and  O5_18 
ROOT
HETATM    1  C4  UNL     1     -15.609 -25.802 -24.586  1.00  0.00     0.215 C 
HETATM    2  O1  UNL     1     -15.364 -25.052 -23.455  1.00  0.00    -0.363 OA
HETATM    3  C5  UNL     1     -16.578 -24.713 -22.888  1.00  0.00     0.178 C 
HETATM    4  C7  UNL     1     -17.001 -25.967 -22.130  1.00  0.00     0.180 C 
HETATM    5  C8  UNL     1     -17.398 -26.947 -23.194  1.00  0.00     0.181 C 
HETATM    6  C9  UNL     1     -16.662 -26.835 -24.477  1.00  0.00     0.188 C 
ENDROOT
BRANCH   1   7
HETATM    7  S1  UNL     1     -14.041 -26.559 -25.133  1.00  0.00    -0.131 SA
BRANCH   7   8
HETATM    8  C2  UNL     1     -14.287 -28.203 -25.813  1.00  0.00     0.041 C 
HETATM    9  C1  UNL     1     -13.168 -29.156 -25.508  1.00  0.00     0.021 C 
HETATM   10  C3  UNL     1     -14.565 -28.214 -27.291  1.00  0.00     0.021 C 
ENDBRANCH   7   8
ENDBRANCH   1   7
BRANCH   6  11
HETATM   11  O5  UNL     1     -17.578 -26.653 -25.528  1.00  0.00    -0.389 OA
ATOM     12  H5  UNL     1     -17.461 -25.781 -25.884  1.00  0.00     0.210 HD
ENDBRANCH   6  11
BRANCH   3  13
HETATM   13  C6  UNL     1     -16.549 -23.495 -22.027  1.00  0.00     0.198 C 
BRANCH  13  14
HETATM   14  O2  UNL     1     -15.335 -23.457 -21.348  1.00  0.00    -0.398 OA
ATOM     15  H2  UNL     1     -14.649 -23.760 -21.932  1.00  0.00     0.209 HD
ENDBRANCH  13  14
ENDBRANCH   3  13
BRANCH   5  16
HETATM   16  O4  UNL     1     -17.316 -28.225 -22.616  1.00  0.00    -0.390 OA
ATOM     17  H4  UNL     1     -18.010 -28.745 -23.004  1.00  0.00     0.210 HD
ENDBRANCH   5  16
BRANCH   4  18
HETATM   18  O3  UNL     1     -15.906 -26.389 -21.388  1.00  0.00    -0.390 OA
ATOM     19  H3  UNL     1     -16.219 -27.037 -20.768  1.00  0.00     0.210 HD
ENDBRANCH   4  18
TORSDOF 7
ENDMDL
