MODEL 5
REMARK VINA RESULT: -5.831421726      1.860      3.625
REMARK  7 active torsions:
REMARK  status: ('A' for Active; 'I' for Inactive)
REMARK    1  A    between atoms: C2_2  and  S1_4 
REMARK    2  A    between atoms: S1_4  and  C4_5 
REMARK    3  A    between atoms: C5_7  and  C6_8 
REMARK    4  A    between atoms: C6_8  and  O2_9 
REMARK    5  A    between atoms: C7_11  and  O3_12 
REMARK    6  A    between atoms: C8_14  and  O4_15 
REMARK    7  A    between atoms: C9_17  and  O5_18 
ROOT
HETATM    1  C4  UNL     1     -15.212 -27.638 -26.013  1.00  0.00     0.215 C 
HETATM    2  O1  UNL     1     -15.103 -28.612 -26.982  1.00  0.00    -0.363 OA
HETATM    3  C5  UNL     1     -14.083 -28.254 -27.844  1.00  0.00     0.178 C 
HETATM    4  C7  UNL     1     -12.811 -28.656 -27.106  1.00  0.00     0.180 C 
HETATM    5  C8  UNL     1     -12.672 -27.654 -25.999  1.00  0.00     0.181 C 
HETATM    6  C9  UNL     1     -13.944 -27.125 -25.448  1.00  0.00     0.188 C 
ENDROOT
BRANCH   1   7
HETATM    7  S1  UNL     1     -16.286 -28.264 -24.676  1.00  0.00    -0.131 SA
BRANCH   7   8
HETATM    8  C2  UNL     1     -16.750 -26.969 -23.521  1.00  0.00     0.041 C 
HETATM    9  C1  UNL     1     -17.742 -27.413 -22.484  1.00  0.00     0.021 C 
HETATM   10  C3  UNL     1     -17.244 -25.713 -24.183  1.00  0.00     0.021 C 
ENDBRANCH   7   8
ENDBRANCH   1   7
BRANCH   6  11
HETATM   11  O5  UNL     1     -13.948 -25.722 -25.541  1.00  0.00    -0.389 OA
ATOM     12  H5  UNL     1     -13.067 -25.406 -25.382  1.00  0.00     0.210 HD
ENDBRANCH   6  11
BRANCH   3  13
HETATM   13  C6  UNL     1     -14.177 -28.851 -29.208  1.00  0.00     0.198 C 
BRANCH  13  14
HETATM   14  O2  UNL     1     -12.916 -29.307 -29.583  1.00  0.00    -0.398 OA
ATOM     15  H2  UNL     1     -12.684 -28.910 -30.415  1.00  0.00     0.209 HD
ENDBRANCH  13  14
ENDBRANCH   3  13
BRANCH   5  16
HETATM   16  O4  UNL     1     -11.845 -28.239 -25.025  1.00  0.00    -0.390 OA
ATOM     17  H4  UNL     1     -11.469 -29.017 -25.418  1.00  0.00     0.210 HD
ENDBRANCH   5  16
BRANCH   4  18
HETATM   18  O3  UNL     1     -12.995 -29.951 -26.640  1.00  0.00    -0.390 OA
ATOM     19  H3  UNL     1     -13.538 -29.897 -25.863  1.00  0.00     0.210 HD
ENDBRANCH   4  18
TORSDOF 7
ENDMDL
