MODEL 18
REMARK VINA RESULT: -5.114527532      2.841      3.812
REMARK  5 active torsions:
REMARK  status: ('A' for Active; 'I' for Inactive)
REMARK    1  A    between atoms: C2_4  and  C3_5 
REMARK    2  A    between atoms: C3_5  and  O3_6 
REMARK    3  A    between atoms: C4_8  and  O4_9 
REMARK    4  A    between atoms: C5_11  and  O5_12 
REMARK    5  A    between atoms: C6_14  and  O6_15 
ROOT
HETATM    1  O1  UNL     1     -17.169 -29.098 -25.761  1.00  0.00    -0.262 OA
HETATM    2  C1  UNL     1     -16.033 -28.584 -25.485  1.00  0.00     0.291 C 
HETATM    3  O2  UNL     1     -14.850 -29.257 -25.715  1.00  0.00    -0.309 OA
HETATM    4  C2  UNL     1     -13.677 -28.583 -26.101  1.00  0.00     0.186 C 
HETATM    5  C4  UNL     1     -13.518 -27.308 -25.335  1.00  0.00     0.181 C 
HETATM    6  C5  UNL     1     -14.801 -26.503 -25.537  1.00  0.00     0.188 C 
HETATM    7  C6  UNL     1     -15.957 -27.222 -24.896  1.00  0.00     0.248 C 
ENDROOT
BRANCH   4   8
HETATM    8  C3  UNL     1     -12.483 -29.496 -25.982  1.00  0.00     0.199 C 
BRANCH   8   9
HETATM    9  O3  UNL     1     -12.573 -30.355 -24.904  1.00  0.00    -0.398 OA
ATOM     10  H3  UNL     1     -11.725 -30.672 -24.615  1.00  0.00     0.209 HD
ENDBRANCH   8   9
ENDBRANCH   4   8
BRANCH   5  11
HETATM   11  O4  UNL     1     -13.268 -27.517 -23.982  1.00  0.00    -0.390 OA
ATOM     12  H4  UNL     1     -12.998 -28.407 -23.789  1.00  0.00     0.210 HD
ENDBRANCH   5  11
BRANCH   6  13
HETATM   13  O5  UNL     1     -14.649 -25.210 -25.091  1.00  0.00    -0.390 OA
ATOM     14  H5  UNL     1     -14.100 -25.177 -24.316  1.00  0.00     0.210 HD
ENDBRANCH   6  13
BRANCH   7  15
HETATM   15  O6  UNL     1     -17.119 -26.513 -25.191  1.00  0.00    -0.383 OA
ATOM     16  H6  UNL     1     -17.464 -26.113 -24.400  1.00  0.00     0.210 HD
ENDBRANCH   7  15
TORSDOF 5
ENDMDL
