MODEL 19
REMARK VINA RESULT: -5.052410290      2.150      3.855
REMARK  5 active torsions:
REMARK  status: ('A' for Active; 'I' for Inactive)
REMARK    1  A    between atoms: C2_4  and  C3_5 
REMARK    2  A    between atoms: C3_5  and  O3_6 
REMARK    3  A    between atoms: C4_8  and  O4_9 
REMARK    4  A    between atoms: C5_11  and  O5_12 
REMARK    5  A    between atoms: C6_14  and  O6_15 
ROOT
HETATM    1  O1  UNL     1     -15.663 -28.766 -26.902  1.00  0.00    -0.262 OA
HETATM    2  C1  UNL     1     -14.640 -28.110 -26.509  1.00  0.00     0.291 C 
HETATM    3  O2  UNL     1     -14.752 -26.870 -25.912  1.00  0.00    -0.309 OA
HETATM    4  C2  UNL     1     -13.872 -26.453 -24.897  1.00  0.00     0.186 C 
HETATM    5  C4  UNL     1     -12.467 -26.859 -25.209  1.00  0.00     0.181 C 
HETATM    6  C5  UNL     1     -12.481 -28.368 -25.450  1.00  0.00     0.188 C 
HETATM    7  C6  UNL     1     -13.279 -28.677 -26.688  1.00  0.00     0.248 C 
ENDROOT
BRANCH   4   8
HETATM    8  C3  UNL     1     -14.018 -24.973 -24.649  1.00  0.00     0.199 C 
BRANCH   8   9
HETATM    9  O3  UNL     1     -15.302 -24.617 -24.287  1.00  0.00    -0.398 OA
ATOM     10  H3  UNL     1     -15.328 -23.832 -23.753  1.00  0.00     0.209 HD
ENDBRANCH   8   9
ENDBRANCH   4   8
BRANCH   5  11
HETATM   11  O4  UNL     1     -11.940 -26.184 -26.306  1.00  0.00    -0.390 OA
ATOM     12  H4  UNL     1     -11.842 -25.251 -26.154  1.00  0.00     0.210 HD
ENDBRANCH   5  11
BRANCH   6  13
HETATM   13  O5  UNL     1     -11.202 -28.875 -25.487  1.00  0.00    -0.390 OA
ATOM     14  H5  UNL     1     -10.557 -28.177 -25.505  1.00  0.00     0.210 HD
ENDBRANCH   6  13
BRANCH   7  15
HETATM   15  O6  UNL     1     -13.355 -30.062 -26.814  1.00  0.00    -0.383 OA
ATOM     16  H6  UNL     1     -12.985 -30.478 -26.044  1.00  0.00     0.210 HD
ENDBRANCH   7  15
TORSDOF 5
ENDMDL
