MODEL 20
REMARK VINA RESULT: -4.890812189      2.022      3.258
REMARK  5 active torsions:
REMARK  status: ('A' for Active; 'I' for Inactive)
REMARK    1  A    between atoms: C2_4  and  C3_5 
REMARK    2  A    between atoms: C3_5  and  O3_6 
REMARK    3  A    between atoms: C4_8  and  O4_9 
REMARK    4  A    between atoms: C5_11  and  O5_12 
REMARK    5  A    between atoms: C6_14  and  O6_15 
ROOT
HETATM    1  O1  UNL     1     -15.687 -28.943 -26.779  1.00  0.00    -0.262 OA
HETATM    2  C1  UNL     1     -14.799 -28.290 -26.134  1.00  0.00     0.291 C 
HETATM    3  O2  UNL     1     -13.455 -28.587 -26.235  1.00  0.00    -0.309 OA
HETATM    4  C2  UNL     1     -12.467 -27.587 -26.170  1.00  0.00     0.186 C 
HETATM    5  C4  UNL     1     -12.795 -26.582 -25.112  1.00  0.00     0.181 C 
HETATM    6  C5  UNL     1     -14.199 -26.060 -25.411  1.00  0.00     0.188 C 
HETATM    7  C6  UNL     1     -15.201 -27.172 -25.242  1.00  0.00     0.248 C 
ENDROOT
BRANCH   4   8
HETATM    8  C3  UNL     1     -11.103 -28.207 -25.994  1.00  0.00     0.199 C 
BRANCH   8   9
HETATM    9  O3  UNL     1     -10.333 -27.545 -25.059  1.00  0.00    -0.398 OA
ATOM     10  H3  UNL     1     -10.618 -26.650 -24.915  1.00  0.00     0.209 HD
ENDBRANCH   8   9
ENDBRANCH   4   8
BRANCH   5  11
HETATM   11  O4  UNL     1     -12.722 -27.108 -23.825  1.00  0.00    -0.390 OA
ATOM     12  H4  UNL     1     -13.452 -26.845 -23.277  1.00  0.00     0.210 HD
ENDBRANCH   5  11
BRANCH   6  13
HETATM   13  O5  UNL     1     -14.487 -24.949 -24.652  1.00  0.00    -0.390 OA
ATOM     14  H5  UNL     1     -14.998 -24.319 -25.147  1.00  0.00     0.210 HD
ENDBRANCH   6  13
BRANCH   7  15
HETATM   15  O6  UNL     1     -16.449 -26.685 -25.624  1.00  0.00    -0.383 OA
ATOM     16  H6  UNL     1     -16.356 -26.104 -26.370  1.00  0.00     0.210 HD
ENDBRANCH   7  15
TORSDOF 5
ENDMDL
