MODEL 3
REMARK VINA RESULT: -7.263679336      4.097      6.587
REMARK  5 active torsions:
REMARK  status: ('A' for Active; 'I' for Inactive)
REMARK    1  A    between atoms: C3_3  and  O1_4 
REMARK    2  A    between atoms: C3_3  and  C11_16 
REMARK    3  A    between atoms: O1_4  and  C4_5 
REMARK    4  A    between atoms: C8_9  and  C9_10 
REMARK    5  A    between atoms: C10_13  and  O4_14 
ROOT
HETATM    1  C4  UNL     1      -2.125  -2.062  35.418  1.00  0.00     0.079 C 
HETATM    2  C5  UNL     1      -1.066  -1.442  35.913  1.00  0.00     0.009 C 
HETATM    3  C6  UNL     1      -0.714  -0.045  35.582  1.00  0.00     0.030 C 
HETATM    4  C7  UNL     1      -1.854   0.829  35.196  1.00  0.00     0.022 C 
HETATM    5  C8  UNL     1      -3.167   0.082  35.270  1.00  0.00     0.122 C 
HETATM    6  C10 UNL     1      -2.951  -1.216  34.480  1.00  0.00     0.189 C 
ENDROOT
BRANCH   1   7
HETATM    7  O1  UNL     1      -2.453  -3.361  35.725  1.00  0.00    -0.306 OA
BRANCH   7   8
HETATM    8  C3  UNL     1      -3.210  -3.725  36.836  1.00  0.00     0.147 C 
HETATM    9  C2  UNL     1      -2.614  -4.286  37.871  1.00  0.00     0.013 C 
HETATM   10  C1  UNL     1      -1.146  -4.504  37.798  1.00  0.00     0.039 C 
BRANCH   8  11
HETATM   11  C11 UNL     1      -4.639  -3.505  36.888  1.00  0.00     0.234 C 
HETATM   12  O5  UNL     1      -5.077  -2.344  37.058  1.00  0.00    -0.642 OA
HETATM   13  O6  UNL     1      -5.561  -4.533  36.756  1.00  0.00    -0.642 OA
ENDBRANCH   8  11
ENDBRANCH   7   8
ENDBRANCH   1   7
BRANCH   6  14
HETATM   14  O4  UNL     1      -4.130  -1.820  34.139  1.00  0.00    -0.388 OA
ATOM     15  H4  UNL     1      -4.605  -1.335  33.474  1.00  0.00     0.210 HD
ENDBRANCH   6  14
BRANCH   5  16
HETATM   16  C9  UNL     1      -4.286   0.862  34.702  1.00  0.00     0.179 C 
HETATM   17  O2  UNL     1      -5.202   1.315  35.423  1.00  0.00    -0.648 OA
HETATM   18  O3  UNL     1      -4.332   1.102  33.343  1.00  0.00    -0.648 OA
ENDBRANCH   5  16
TORSDOF 5
ENDMDL
