MODEL 14
REMARK VINA RESULT: -6.493050530      1.617      5.451
REMARK  5 active torsions:
REMARK  status: ('A' for Active; 'I' for Inactive)
REMARK    1  A    between atoms: C3_3  and  O1_4 
REMARK    2  A    between atoms: C3_3  and  C11_16 
REMARK    3  A    between atoms: O1_4  and  C4_5 
REMARK    4  A    between atoms: C8_9  and  C9_10 
REMARK    5  A    between atoms: C10_13  and  O4_14 
ROOT
HETATM    1  C4  UNL     1      -3.099   1.060  30.536  1.00  0.00     0.079 C 
HETATM    2  C5  UNL     1      -1.820   0.724  30.575  1.00  0.00     0.009 C 
HETATM    3  C6  UNL     1      -1.250  -0.394  29.796  1.00  0.00     0.030 C 
HETATM    4  C7  UNL     1      -1.968  -0.732  28.538  1.00  0.00     0.022 C 
HETATM    5  C8  UNL     1      -3.136   0.201  28.307  1.00  0.00     0.122 C 
HETATM    6  C10 UNL     1      -3.934   0.199  29.619  1.00  0.00     0.189 C 
ENDROOT
BRANCH   1   7
HETATM    7  O1  UNL     1      -3.631   2.101  31.260  1.00  0.00    -0.306 OA
BRANCH   7   8
HETATM    8  C3  UNL     1      -4.135   1.966  32.551  1.00  0.00     0.147 C 
HETATM    9  C2  UNL     1      -4.782   2.975  33.103  1.00  0.00     0.013 C 
HETATM   10  C1  UNL     1      -4.940   4.220  32.308  1.00  0.00     0.039 C 
BRANCH   8  11
HETATM   11  C11 UNL     1      -3.969   0.745  33.310  1.00  0.00     0.234 C 
HETATM   12  O5  UNL     1      -2.985   0.623  34.074  1.00  0.00    -0.642 OA
HETATM   13  O6  UNL     1      -4.863  -0.313  33.229  1.00  0.00    -0.642 OA
ENDBRANCH   8  11
ENDBRANCH   7   8
ENDBRANCH   1   7
BRANCH   6  14
HETATM   14  O4  UNL     1      -5.201   0.689  29.458  1.00  0.00    -0.388 OA
ATOM     15  H4  UNL     1      -5.550   1.058  30.260  1.00  0.00     0.210 HD
ENDBRANCH   6  14
BRANCH   5  16
HETATM   16  C9  UNL     1      -3.983  -0.234  27.177  1.00  0.00     0.179 C 
HETATM   17  O2  UNL     1      -4.740   0.562  26.580  1.00  0.00    -0.648 OA
HETATM   18  O3  UNL     1      -3.947  -1.551  26.763  1.00  0.00    -0.648 OA
ENDBRANCH   5  16
TORSDOF 5
ENDMDL
