MODEL 2
REMARK VINA RESULT: -7.296775751      4.336      7.052
REMARK  5 active torsions:
REMARK  status: ('A' for Active; 'I' for Inactive)
REMARK    1  A    between atoms: C3_3  and  O1_4 
REMARK    2  A    between atoms: C3_3  and  C11_16 
REMARK    3  A    between atoms: O1_4  and  C4_5 
REMARK    4  A    between atoms: C8_9  and  C9_10 
REMARK    5  A    between atoms: C10_13  and  O4_14 
ROOT
HETATM    1  C4  UNL     1      -2.061  -2.246  35.856  1.00  0.00     0.079 C 
HETATM    2  C5  UNL     1      -0.965  -1.541  36.091  1.00  0.00     0.009 C 
HETATM    3  C6  UNL     1      -0.674  -0.250  35.435  1.00  0.00     0.030 C 
HETATM    4  C7  UNL     1      -1.863   0.530  34.998  1.00  0.00     0.022 C 
HETATM    5  C8  UNL     1      -3.148  -0.175  35.370  1.00  0.00     0.122 C 
HETATM    6  C10 UNL     1      -2.997  -1.613  34.855  1.00  0.00     0.189 C 
ENDROOT
BRANCH   1   7
HETATM    7  O1  UNL     1      -2.333  -3.447  36.467  1.00  0.00    -0.306 OA
BRANCH   7   8
HETATM    8  C3  UNL     1      -2.774  -3.564  37.783  1.00  0.00     0.147 C 
HETATM    9  C2  UNL     1      -2.107  -4.330  38.625  1.00  0.00     0.013 C 
HETATM   10  C1  UNL     1      -0.903  -5.039  38.119  1.00  0.00     0.039 C 
BRANCH   8  11
HETATM   11  C11 UNL     1      -3.950  -2.865  38.256  1.00  0.00     0.234 C 
HETATM   12  O5  UNL     1      -3.892  -2.218  39.326  1.00  0.00    -0.642 OA
HETATM   13  O6  UNL     1      -5.155  -2.878  37.569  1.00  0.00    -0.642 OA
ENDBRANCH   8  11
ENDBRANCH   7   8
ENDBRANCH   1   7
BRANCH   6  14
HETATM   14  O4  UNL     1      -4.196  -2.268  34.780  1.00  0.00    -0.388 OA
ATOM     15  H4  UNL     1      -4.789  -1.864  34.158  1.00  0.00     0.210 HD
ENDBRANCH   6  14
BRANCH   5  16
HETATM   16  C9  UNL     1      -4.335   0.474  34.774  1.00  0.00     0.179 C 
HETATM   17  O2  UNL     1      -5.108   1.181  35.456  1.00  0.00    -0.648 OA
HETATM   18  O3  UNL     1      -4.606   0.300  33.431  1.00  0.00    -0.648 OA
ENDBRANCH   5  16
TORSDOF 5
ENDMDL
