MODEL 1
REMARK VINA RESULT: -7.532092790      0.000      0.000
REMARK  5 active torsions:
REMARK  status: ('A' for Active; 'I' for Inactive)
REMARK    1  A    between atoms: C3_3  and  O1_4 
REMARK    2  A    between atoms: C3_3  and  C11_16 
REMARK    3  A    between atoms: O1_4  and  C4_5 
REMARK    4  A    between atoms: C8_9  and  C9_10 
REMARK    5  A    between atoms: C10_13  and  O4_14 
ROOT
HETATM    1  C4  UNL     1      -4.691   1.246  31.089  1.00  0.00     0.079 C 
HETATM    2  C5  UNL     1      -4.694   2.547  30.845  1.00  0.00     0.009 C 
HETATM    3  C6  UNL     1      -4.975   3.566  31.877  1.00  0.00     0.030 C 
HETATM    4  C7  UNL     1      -4.651   3.171  33.274  1.00  0.00     0.022 C 
HETATM    5  C8  UNL     1      -4.048   1.784  33.326  1.00  0.00     0.122 C 
HETATM    6  C10 UNL     1      -5.000   0.888  32.522  1.00  0.00     0.189 C 
ENDROOT
BRANCH   1   7
HETATM    7  O1  UNL     1      -4.429   0.297  30.129  1.00  0.00    -0.306 OA
BRANCH   7   8
HETATM    8  C3  UNL     1      -3.162   0.059  29.602  1.00  0.00     0.147 C 
HETATM    9  C2  UNL     1      -3.018  -0.077  28.298  1.00  0.00     0.013 C 
HETATM   10  C1  UNL     1      -4.231   0.031  27.447  1.00  0.00     0.039 C 
BRANCH   8  11
HETATM   11  C11 UNL     1      -1.992  -0.043  30.449  1.00  0.00     0.234 C 
HETATM   12  O5  UNL     1      -0.949   0.572  30.133  1.00  0.00    -0.642 OA
HETATM   13  O6  UNL     1      -1.973  -0.801  31.610  1.00  0.00    -0.642 OA
ENDBRANCH   8  11
ENDBRANCH   7   8
ENDBRANCH   1   7
BRANCH   6  14
HETATM   14  O4  UNL     1      -4.804  -0.442  32.779  1.00  0.00    -0.388 OA
ATOM     15  H4  UNL     1      -5.266  -1.000  32.164  1.00  0.00     0.210 HD
ENDBRANCH   6  14
BRANCH   5  16
HETATM   16  C9  UNL     1      -3.904   1.289  34.711  1.00  0.00     0.179 C 
HETATM   17  O2  UNL     1      -2.781   1.079  35.218  1.00  0.00    -0.648 OA
HETATM   18  O3  UNL     1      -5.031   1.048  35.471  1.00  0.00    -0.648 OA
ENDBRANCH   5  16
TORSDOF 5
ENDMDL
