MODEL 6
REMARK VINA RESULT: -8.973142014      1.989      8.439
REMARK  14 active torsions:
REMARK  status: ('A' for Active; 'I' for Inactive)
REMARK    1  A    between atoms: O1_2  and  C2_3 
REMARK    2  A    between atoms: C5_6  and  S1_7 
REMARK    3  A    between atoms: S1_7  and  N1_10 
REMARK    4  A    between atoms: N1_10  and  C6_11 
REMARK    5  A    between atoms: N1_10  and  C11_19 
REMARK    6  A    between atoms: C6_11  and  C7_12 
REMARK    7  A    between atoms: C11_19  and  C12_20 
REMARK    8  A    between atoms: C12_20  and  O5_21 
REMARK    9  A    between atoms: C12_20  and  C13_23 
REMARK   10  A    between atoms: C13_23  and  C14_24 
REMARK   11  A    between atoms: C13_23  and  N3_31 
REMARK   12  A    between atoms: C14_24  and  C15_25 
REMARK       I    between atoms: N3_31  and  C21_33 
REMARK   13  A    between atoms: C21_33  and  O7_35 
REMARK   14  A    between atoms: O7_35  and  C22_36 
ROOT
HETATM    1  C12 UNL     1     -12.478 -18.456  17.949  1.00  0.00     0.155 C 
ENDROOT
BRANCH   1   2
HETATM    2  C11 UNL     1     -11.516 -17.506  17.341  1.00  0.00     0.141 C 
BRANCH   2   3
HETATM    3  N1  UNL     1     -10.179 -17.948  17.330  1.00  0.00    -0.202 NA
BRANCH   3   4
HETATM    4  S1  UNL     1      -9.426 -17.651  15.840  1.00  0.00     0.243 S 
HETATM    5  O2  UNL     1      -8.847 -18.948  15.316  1.00  0.00    -0.206 OA
HETATM    6  O3  UNL     1     -10.468 -17.248  14.781  1.00  0.00    -0.206 OA
BRANCH   4   7
HETATM    7  C5  UNL     1      -8.193 -16.459  15.801  1.00  0.00     0.074 A 
HETATM    8  C4  UNL     1      -7.947 -15.700  14.681  1.00  0.00     0.027 A 
HETATM    9  C3  UNL     1      -6.962 -14.714  14.656  1.00  0.00     0.038 A 
HETATM   10  C2  UNL     1      -6.192 -14.466  15.765  1.00  0.00     0.068 A 
HETATM   11  C30 UNL     1      -6.426 -15.220  16.897  1.00  0.00     0.038 A 
HETATM   12  C29 UNL     1      -7.392 -16.186  16.919  1.00  0.00     0.027 A 
BRANCH  10  13
HETATM   13  O1  UNL     1      -5.205 -13.517  15.825  1.00  0.00    -0.356 OA
HETATM   14  C1  UNL     1      -3.850 -13.730  15.507  1.00  0.00     0.210 C 
ENDBRANCH  10  13
ENDBRANCH   4   7
ENDBRANCH   3   4
BRANCH   3  15
HETATM   15  C6  UNL     1      -9.874 -19.202  17.852  1.00  0.00     0.133 C 
BRANCH  15  16
HETATM   16  C7  UNL     1      -9.107 -19.334  19.100  1.00  0.00     0.099 C 
HETATM   17  C8  UNL     1      -9.279 -18.303  20.160  1.00  0.00     0.035 C 
HETATM   18  C9  UNL     1      -8.682 -18.979  21.429  1.00  0.00     0.105 C 
HETATM   19  C10 UNL     1      -9.205 -20.366  21.199  1.00  0.00     0.217 C 
HETATM   20  O4  UNL     1      -9.237 -21.225  22.114  1.00  0.00    -0.274 OA
HETATM   21  N2  UNL     1      -9.632 -20.508  19.826  1.00  0.00    -0.355 N 
ATOM     22  H2  UNL     1     -10.186 -21.269  19.435  1.00  0.00     0.162 HD
ENDBRANCH  15  16
ENDBRANCH   3  15
ENDBRANCH   2   3
ENDBRANCH   1   2
BRANCH   1  23
HETATM   23  O5  UNL     1     -13.555 -17.777  18.508  1.00  0.00    -0.392 OA
ATOM     24  H5  UNL     1     -14.147 -17.468  17.832  1.00  0.00     0.210 HD
ENDBRANCH   1  23
BRANCH   1  25
HETATM   25  C13 UNL     1     -12.978 -19.568  17.106  1.00  0.00     0.120 C 
BRANCH  25  26
HETATM   26  C14 UNL     1     -13.756 -19.200  15.891  1.00  0.00     0.066 C 
BRANCH  26  27
HETATM   27  C15 UNL     1     -14.464 -20.269  15.210  1.00  0.00    -0.056 A 
HETATM   28  C16 UNL     1     -13.777 -21.252  14.529  1.00  0.00     0.007 A 
HETATM   29  C17 UNL     1     -14.405 -22.279  13.860  1.00  0.00     0.001 A 
HETATM   30  C18 UNL     1     -15.794 -22.333  13.867  1.00  0.00     0.000 A 
HETATM   31  C19 UNL     1     -16.508 -21.369  14.536  1.00  0.00     0.001 A 
HETATM   32  C20 UNL     1     -15.833 -20.335  15.208  1.00  0.00     0.007 A 
ENDBRANCH  26  27
ENDBRANCH  25  26
BRANCH  25  33
HETATM   33  N3  UNL     1     -13.786 -20.426  18.000  1.00  0.00    -0.329 N 
HETATM   34  C21 UNL     1     -13.247 -21.614  18.557  1.00  0.00     0.361 C 
HETATM   35  O6  UNL     1     -12.046 -21.967  18.297  1.00  0.00    -0.238 OA
ATOM     36  H3  UNL     1     -14.746 -20.160  18.219  1.00  0.00     0.165 HD
BRANCH  34  37
HETATM   37  O7  UNL     1     -13.944 -22.465  19.401  1.00  0.00    -0.299 OA
BRANCH  37  38
HETATM   38  C22 UNL     1     -14.677 -23.566  18.906  1.00  0.00     0.136 C 
HETATM   39  C23 UNL     1     -15.222 -23.378  17.529  1.00  0.00     0.040 C 
HETATM   40  C24 UNL     1     -16.238 -24.528  17.464  1.00  0.00     0.019 C 
HETATM   41  C25 UNL     1     -17.397 -24.208  16.570  1.00  0.00     0.033 C 
HETATM   42  C27 UNL     1     -16.823 -24.525  18.850  1.00  0.00     0.128 C 
HETATM   43  C26 UNL     1     -18.335 -23.503  17.543  1.00  0.00     0.168 C 
HETATM   44  O8  UNL     1     -18.120 -24.090  18.775  1.00  0.00    -0.385 OA
HETATM   45  C28 UNL     1     -15.947 -23.698  19.732  1.00  0.00     0.065 C 
ENDBRANCH  37  38
ENDBRANCH  34  37
ENDBRANCH  25  33
ENDBRANCH   1  25
TORSDOF 14
ENDMDL
