MODEL 1
REMARK VINA RESULT: -9.375683704      0.000      0.000
REMARK  14 active torsions:
REMARK  status: ('A' for Active; 'I' for Inactive)
REMARK    1  A    between atoms: O1_2  and  C2_3 
REMARK    2  A    between atoms: C5_6  and  S1_7 
REMARK    3  A    between atoms: S1_7  and  N1_10 
REMARK    4  A    between atoms: N1_10  and  C6_11 
REMARK    5  A    between atoms: N1_10  and  C11_19 
REMARK    6  A    between atoms: C6_11  and  C7_12 
REMARK    7  A    between atoms: C11_19  and  C12_20 
REMARK    8  A    between atoms: C12_20  and  O5_21 
REMARK    9  A    between atoms: C12_20  and  C13_23 
REMARK   10  A    between atoms: C13_23  and  C14_24 
REMARK   11  A    between atoms: C13_23  and  N3_31 
REMARK   12  A    between atoms: C14_24  and  C15_25 
REMARK       I    between atoms: N3_31  and  C21_33 
REMARK   13  A    between atoms: C21_33  and  O7_35 
REMARK   14  A    between atoms: O7_35  and  C22_36 
ROOT
HETATM    1  C12 UNL     1     -11.946 -18.249  17.389  1.00  0.00     0.155 C 
ENDROOT
BRANCH   1   2
HETATM    2  C11 UNL     1     -10.723 -18.185  18.225  1.00  0.00     0.141 C 
BRANCH   2   3
HETATM    3  N1  UNL     1     -10.023 -19.402  18.338  1.00  0.00    -0.202 NA
BRANCH   3   4
HETATM    4  S1  UNL     1     -10.806 -20.489  19.377  1.00  0.00     0.243 S 
HETATM    5  O2  UNL     1      -9.823 -21.559  19.799  1.00  0.00    -0.206 OA
HETATM    6  O3  UNL     1     -11.195 -19.792  20.693  1.00  0.00    -0.206 OA
BRANCH   4   7
HETATM    7  C5  UNL     1     -12.221 -21.263  18.791  1.00  0.00     0.074 A 
HETATM    8  C4  UNL     1     -12.165 -22.408  18.031  1.00  0.00     0.027 A 
HETATM    9  C3  UNL     1     -13.315 -23.051  17.575  1.00  0.00     0.038 A 
HETATM   10  C2  UNL     1     -14.559 -22.555  17.874  1.00  0.00     0.068 A 
HETATM   11  C30 UNL     1     -14.632 -21.406  18.636  1.00  0.00     0.038 A 
HETATM   12  C29 UNL     1     -13.504 -20.777  19.081  1.00  0.00     0.027 A 
BRANCH  10  13
HETATM   13  O1  UNL     1     -15.737 -23.125  17.467  1.00  0.00    -0.356 OA
HETATM   14  C1  UNL     1     -16.839 -23.404  18.299  1.00  0.00     0.210 C 
ENDBRANCH  10  13
ENDBRANCH   4   7
ENDBRANCH   3   4
BRANCH   3  15
HETATM   15  C6  UNL     1      -8.643 -19.377  18.518  1.00  0.00     0.133 C 
BRANCH  15  16
HETATM   16  C7  UNL     1      -8.021 -18.426  19.451  1.00  0.00     0.099 C 
HETATM   17  C8  UNL     1      -7.720 -18.875  20.838  1.00  0.00     0.035 C 
HETATM   18  C9  UNL     1      -6.720 -17.802  21.361  1.00  0.00     0.105 C 
HETATM   19  C10 UNL     1      -5.921 -17.623  20.104  1.00  0.00     0.217 C 
HETATM   20  O4  UNL     1      -4.795 -17.066  20.105  1.00  0.00    -0.274 OA
HETATM   21  N2  UNL     1      -6.644 -18.174  18.981  1.00  0.00    -0.355 N 
ATOM     22  H2  UNL     1      -6.275 -18.354  18.048  1.00  0.00     0.162 HD
ENDBRANCH  15  16
ENDBRANCH   3  15
ENDBRANCH   2   3
ENDBRANCH   1   2
BRANCH   1  23
HETATM   23  O5  UNL     1     -12.761 -17.146  17.622  1.00  0.00    -0.392 OA
ATOM     24  H5  UNL     1     -13.493 -17.380  18.181  1.00  0.00     0.210 HD
ENDBRANCH   1  23
BRANCH   1  25
HETATM   25  C13 UNL     1     -11.777 -18.440  15.928  1.00  0.00     0.120 C 
BRANCH  25  26
HETATM   26  C14 UNL     1     -11.976 -19.817  15.399  1.00  0.00     0.066 C 
BRANCH  26  27
HETATM   27  C15 UNL     1     -13.341 -20.228  15.123  1.00  0.00    -0.056 A 
HETATM   28  C16 UNL     1     -13.605 -21.373  14.402  1.00  0.00     0.007 A 
HETATM   29  C17 UNL     1     -14.881 -21.796  14.108  1.00  0.00     0.001 A 
HETATM   30  C18 UNL     1     -15.958 -21.040  14.554  1.00  0.00     0.000 A 
HETATM   31  C19 UNL     1     -15.730 -19.893  15.276  1.00  0.00     0.001 A 
HETATM   32  C20 UNL     1     -14.413 -19.492  15.557  1.00  0.00     0.007 A 
ENDBRANCH  26  27
ENDBRANCH  25  26
BRANCH  25  33
HETATM   33  N3  UNL     1     -10.419 -17.951  15.607  1.00  0.00    -0.329 N 
HETATM   34  C21 UNL     1     -10.221 -16.911  14.663  1.00  0.00     0.361 C 
HETATM   35  O6  UNL     1     -11.217 -16.373  14.070  1.00  0.00    -0.238 OA
ATOM     36  H3  UNL     1      -9.612 -18.368  16.072  1.00  0.00     0.165 HD
BRANCH  34  37
HETATM   37  O7  UNL     1      -8.978 -16.403  14.313  1.00  0.00    -0.299 OA
BRANCH  37  38
HETATM   38  C22 UNL     1      -8.348 -15.395  15.074  1.00  0.00     0.136 C 
HETATM   39  C23 UNL     1      -7.099 -14.848  14.466  1.00  0.00     0.040 C 
HETATM   40  C24 UNL     1      -6.494 -14.110  15.669  1.00  0.00     0.019 C 
HETATM   41  C25 UNL     1      -4.997 -14.072  15.614  1.00  0.00     0.033 C 
HETATM   42  C27 UNL     1      -6.803 -15.039  16.811  1.00  0.00     0.128 C 
HETATM   43  C26 UNL     1      -4.642 -15.383  16.306  1.00  0.00     0.168 C 
HETATM   44  O8  UNL     1      -5.631 -15.597  17.248  1.00  0.00    -0.385 OA
HETATM   45  C28 UNL     1      -7.823 -16.028  16.354  1.00  0.00     0.065 C 
ENDBRANCH  37  38
ENDBRANCH  34  37
ENDBRANCH  25  33
ENDBRANCH   1  25
TORSDOF 14
ENDMDL
