MODEL 2
REMARK VINA RESULT: -9.366857531      2.815      6.620
REMARK  14 active torsions:
REMARK  status: ('A' for Active; 'I' for Inactive)
REMARK    1  A    between atoms: O1_2  and  C2_3 
REMARK    2  A    between atoms: C5_6  and  S1_7 
REMARK    3  A    between atoms: S1_7  and  N1_10 
REMARK    4  A    between atoms: N1_10  and  C6_11 
REMARK    5  A    between atoms: N1_10  and  C11_19 
REMARK    6  A    between atoms: C6_11  and  C7_12 
REMARK    7  A    between atoms: C11_19  and  C12_20 
REMARK    8  A    between atoms: C12_20  and  O5_21 
REMARK    9  A    between atoms: C12_20  and  C13_23 
REMARK   10  A    between atoms: C13_23  and  C14_24 
REMARK   11  A    between atoms: C13_23  and  N3_31 
REMARK   12  A    between atoms: C14_24  and  C15_25 
REMARK       I    between atoms: N3_31  and  C21_33 
REMARK   13  A    between atoms: C21_33  and  O7_35 
REMARK   14  A    between atoms: O7_35  and  C22_36 
ROOT
HETATM    1  C12 UNL     1     -13.290 -18.942  17.765  1.00  0.00     0.155 C 
ENDROOT
BRANCH   1   2
HETATM    2  C11 UNL     1     -14.379 -19.893  17.438  1.00  0.00     0.141 C 
BRANCH   2   3
HETATM    3  N1  UNL     1     -13.983 -20.993  16.651  1.00  0.00    -0.202 NA
BRANCH   3   4
HETATM    4  S1  UNL     1     -14.413 -20.794  15.024  1.00  0.00     0.243 S 
HETATM    5  O2  UNL     1     -14.703 -19.330  14.768  1.00  0.00    -0.206 OA
HETATM    6  O3  UNL     1     -13.217 -21.107  14.107  1.00  0.00    -0.206 OA
BRANCH   4   7
HETATM    7  C5  UNL     1     -15.738 -21.713  14.438  1.00  0.00     0.074 A 
HETATM    8  C4  UNL     1     -17.042 -21.379  14.722  1.00  0.00     0.027 A 
HETATM    9  C3  UNL     1     -18.119 -22.110  14.226  1.00  0.00     0.038 A 
HETATM   10  C2  UNL     1     -17.913 -23.205  13.425  1.00  0.00     0.068 A 
HETATM   11  C30 UNL     1     -16.610 -23.554  13.130  1.00  0.00     0.038 A 
HETATM   12  C29 UNL     1     -15.555 -22.836  13.618  1.00  0.00     0.027 A 
BRANCH  10  13
HETATM   13  O1  UNL     1     -18.914 -23.977  12.896  1.00  0.00    -0.356 OA
HETATM   14  C1  UNL     1     -18.900 -24.566  11.617  1.00  0.00     0.210 C 
ENDBRANCH  10  13
ENDBRANCH   4   7
ENDBRANCH   3   4
BRANCH   3  15
HETATM   15  C6  UNL     1     -14.216 -22.282  17.121  1.00  0.00     0.133 C 
BRANCH  15  16
HETATM   16  C7  UNL     1     -15.397 -22.584  17.944  1.00  0.00     0.099 C 
HETATM   17  C8  UNL     1     -16.305 -23.685  17.519  1.00  0.00     0.035 C 
HETATM   18  C9  UNL     1     -17.141 -23.982  18.798  1.00  0.00     0.105 C 
HETATM   19  C10 UNL     1     -16.045 -23.839  19.811  1.00  0.00     0.217 C 
HETATM   20  O4  UNL     1     -16.159 -24.278  20.982  1.00  0.00    -0.274 OA
HETATM   21  N2  UNL     1     -14.920 -23.152  19.220  1.00  0.00    -0.355 N 
ATOM     22  H2  UNL     1     -13.980 -23.074  19.609  1.00  0.00     0.162 HD
ENDBRANCH  15  16
ENDBRANCH   3  15
ENDBRANCH   2   3
ENDBRANCH   1   2
BRANCH   1  23
HETATM   23  O5  UNL     1     -13.783 -17.853  18.476  1.00  0.00    -0.392 OA
ATOM     24  H5  UNL     1     -13.796 -17.074  17.932  1.00  0.00     0.210 HD
ENDBRANCH   1  23
BRANCH   1  25
HETATM   25  C13 UNL     1     -12.087 -19.476  18.449  1.00  0.00     0.120 C 
BRANCH  25  26
HETATM   26  C14 UNL     1     -12.032 -19.332  19.930  1.00  0.00     0.066 C 
BRANCH  26  27
HETATM   27  C15 UNL     1     -10.754 -19.584  20.571  1.00  0.00    -0.056 A 
HETATM   28  C16 UNL     1     -10.314 -20.871  20.795  1.00  0.00     0.007 A 
HETATM   29  C17 UNL     1      -9.116 -21.158  21.409  1.00  0.00     0.001 A 
HETATM   30  C18 UNL     1      -8.306 -20.108  21.822  1.00  0.00     0.000 A 
HETATM   31  C19 UNL     1      -8.714 -18.812  21.613  1.00  0.00     0.001 A 
HETATM   32  C20 UNL     1      -9.945 -18.557  20.985  1.00  0.00     0.007 A 
ENDBRANCH  26  27
ENDBRANCH  25  26
BRANCH  25  33
HETATM   33  N3  UNL     1     -10.929 -18.806  17.819  1.00  0.00    -0.329 N 
HETATM   34  C21 UNL     1     -10.212 -19.426  16.764  1.00  0.00     0.361 C 
HETATM   35  O6  UNL     1     -10.555 -20.581  16.335  1.00  0.00    -0.238 OA
ATOM     36  H3  UNL     1     -10.641 -17.884  18.147  1.00  0.00     0.165 HD
BRANCH  34  37
HETATM   37  O7  UNL     1      -9.118 -18.860  16.126  1.00  0.00    -0.299 OA
BRANCH  37  38
HETATM   38  C22 UNL     1      -9.263 -17.799  15.205  1.00  0.00     0.136 C 
HETATM   39  C23 UNL     1      -7.989 -17.353  14.567  1.00  0.00     0.040 C 
HETATM   40  C24 UNL     1      -8.425 -16.009  13.967  1.00  0.00     0.019 C 
HETATM   41  C25 UNL     1      -7.293 -15.029  13.897  1.00  0.00     0.033 C 
HETATM   42  C27 UNL     1      -9.333 -15.455  15.031  1.00  0.00     0.128 C 
HETATM   43  C26 UNL     1      -7.376 -14.382  15.274  1.00  0.00     0.168 C 
HETATM   44  O8  UNL     1      -8.715 -14.382  15.617  1.00  0.00    -0.385 OA
HETATM   45  C28 UNL     1      -9.680 -16.557  15.977  1.00  0.00     0.065 C 
ENDBRANCH  37  38
ENDBRANCH  34  37
ENDBRANCH  25  33
ENDBRANCH   1  25
TORSDOF 14
ENDMDL
