MODEL 5
REMARK VINA RESULT: -8.974895350      1.906      8.316
REMARK  14 active torsions:
REMARK  status: ('A' for Active; 'I' for Inactive)
REMARK    1  A    between atoms: O1_2  and  C2_3 
REMARK    2  A    between atoms: C5_6  and  S1_7 
REMARK    3  A    between atoms: S1_7  and  N1_10 
REMARK    4  A    between atoms: N1_10  and  C6_11 
REMARK    5  A    between atoms: N1_10  and  C11_19 
REMARK    6  A    between atoms: C6_11  and  C7_12 
REMARK    7  A    between atoms: C11_19  and  C12_20 
REMARK    8  A    between atoms: C12_20  and  O5_21 
REMARK    9  A    between atoms: C12_20  and  C13_23 
REMARK   10  A    between atoms: C13_23  and  C14_24 
REMARK   11  A    between atoms: C13_23  and  N3_31 
REMARK   12  A    between atoms: C14_24  and  C15_25 
REMARK       I    between atoms: N3_31  and  C21_33 
REMARK   13  A    between atoms: C21_33  and  O7_35 
REMARK   14  A    between atoms: O7_35  and  C22_36 
ROOT
HETATM    1  C12 UNL     1     -13.206 -18.789  17.914  1.00  0.00     0.155 C 
ENDROOT
BRANCH   1   2
HETATM    2  C11 UNL     1     -12.354 -17.786  17.232  1.00  0.00     0.141 C 
BRANCH   2   3
HETATM    3  N1  UNL     1     -10.974 -17.916  17.487  1.00  0.00    -0.202 NA
BRANCH   3   4
HETATM    4  S1  UNL     1     -10.067 -17.950  16.055  1.00  0.00     0.243 S 
HETATM    5  O2  UNL     1      -9.389 -19.299  15.936  1.00  0.00    -0.206 OA
HETATM    6  O3  UNL     1     -10.993 -17.884  14.827  1.00  0.00    -0.206 OA
BRANCH   4   7
HETATM    7  C5  UNL     1      -8.877 -16.733  15.843  1.00  0.00     0.074 A 
HETATM    8  C4  UNL     1      -8.499 -16.289  14.597  1.00  0.00     0.027 A 
HETATM    9  C3  UNL     1      -7.551 -15.283  14.425  1.00  0.00     0.038 A 
HETATM   10  C2  UNL     1      -6.953 -14.691  15.510  1.00  0.00     0.068 A 
HETATM   11  C30 UNL     1      -7.321 -15.126  16.768  1.00  0.00     0.038 A 
HETATM   12  C29 UNL     1      -8.250 -16.113  16.934  1.00  0.00     0.027 A 
BRANCH  10  13
HETATM   13  O1  UNL     1      -6.013 -13.697  15.429  1.00  0.00    -0.356 OA
HETATM   14  C1  UNL     1      -4.715 -13.756  15.972  1.00  0.00     0.210 C 
ENDBRANCH  10  13
ENDBRANCH   4   7
ENDBRANCH   3   4
BRANCH   3  15
HETATM   15  C6  UNL     1     -10.541 -18.846  18.427  1.00  0.00     0.133 C 
BRANCH  15  16
HETATM   16  C7  UNL     1      -9.483 -18.509  19.390  1.00  0.00     0.099 C 
HETATM   17  C8  UNL     1      -9.523 -19.124  20.746  1.00  0.00     0.035 C 
HETATM   18  C9  UNL     1      -8.085 -18.893  21.295  1.00  0.00     0.105 C 
HETATM   19  C10 UNL     1      -7.326 -19.158  20.029  1.00  0.00     0.217 C 
HETATM   20  O4  UNL     1      -6.091 -19.385  20.029  1.00  0.00    -0.274 OA
HETATM   21  N2  UNL     1      -8.224 -19.105  18.899  1.00  0.00    -0.355 N 
ATOM     22  H2  UNL     1      -8.027 -19.418  17.949  1.00  0.00     0.162 HD
ENDBRANCH  15  16
ENDBRANCH   3  15
ENDBRANCH   2   3
ENDBRANCH   1   2
BRANCH   1  23
HETATM   23  O5  UNL     1     -14.285 -18.174  18.540  1.00  0.00    -0.392 OA
ATOM     24  H5  UNL     1     -14.941 -17.914  17.904  1.00  0.00     0.210 HD
ENDBRANCH   1  23
BRANCH   1  25
HETATM   25  C13 UNL     1     -13.688 -19.944  17.119  1.00  0.00     0.120 C 
BRANCH  25  26
HETATM   26  C14 UNL     1     -14.744 -19.674  16.105  1.00  0.00     0.066 C 
BRANCH  26  27
HETATM   27  C15 UNL     1     -15.043 -20.738  15.164  1.00  0.00    -0.056 A 
HETATM   28  C16 UNL     1     -14.062 -21.258  14.346  1.00  0.00     0.007 A 
HETATM   29  C17 UNL     1     -14.301 -22.258  13.431  1.00  0.00     0.001 A 
HETATM   30  C18 UNL     1     -15.587 -22.773  13.321  1.00  0.00     0.000 A 
HETATM   31  C19 UNL     1     -16.588 -22.278  14.122  1.00  0.00     0.001 A 
HETATM   32  C20 UNL     1     -16.307 -21.255  15.044  1.00  0.00     0.007 A 
ENDBRANCH  26  27
ENDBRANCH  25  26
BRANCH  25  33
HETATM   33  N3  UNL     1     -14.154 -20.948  18.100  1.00  0.00    -0.329 N 
HETATM   34  C21 UNL     1     -13.442 -22.158  18.301  1.00  0.00     0.361 C 
HETATM   35  O6  UNL     1     -12.379 -22.406  17.636  1.00  0.00    -0.238 OA
ATOM     36  H3  UNL     1     -15.000 -20.768  18.641  1.00  0.00     0.165 HD
BRANCH  34  37
HETATM   37  O7  UNL     1     -13.819 -23.144  19.202  1.00  0.00    -0.299 OA
BRANCH  37  38
HETATM   38  C22 UNL     1     -14.787 -24.118  18.874  1.00  0.00     0.136 C 
HETATM   39  C23 UNL     1     -15.296 -24.039  17.473  1.00  0.00     0.040 C 
HETATM   40  C24 UNL     1     -16.544 -24.928  17.572  1.00  0.00     0.019 C 
HETATM   41  C25 UNL     1     -17.615 -24.506  16.611  1.00  0.00     0.033 C 
HETATM   42  C27 UNL     1     -17.094 -24.569  18.925  1.00  0.00     0.128 C 
HETATM   43  C26 UNL     1     -18.357 -23.461  17.436  1.00  0.00     0.168 C 
HETATM   44  O8  UNL     1     -18.261 -23.873  18.752  1.00  0.00    -0.385 OA
HETATM   45  C28 UNL     1     -16.043 -23.827  19.681  1.00  0.00     0.065 C 
ENDBRANCH  37  38
ENDBRANCH  34  37
ENDBRANCH  25  33
ENDBRANCH   1  25
TORSDOF 14
ENDMDL
