MODEL 3
REMARK VINA RESULT: -9.115049697      2.208      6.725
REMARK  14 active torsions:
REMARK  status: ('A' for Active; 'I' for Inactive)
REMARK    1  A    between atoms: O1_2  and  C2_3 
REMARK    2  A    between atoms: C5_6  and  S1_7 
REMARK    3  A    between atoms: S1_7  and  N1_10 
REMARK    4  A    between atoms: N1_10  and  C6_11 
REMARK    5  A    between atoms: N1_10  and  C11_19 
REMARK    6  A    between atoms: C6_11  and  C7_12 
REMARK    7  A    between atoms: C11_19  and  C12_20 
REMARK    8  A    between atoms: C12_20  and  O5_21 
REMARK    9  A    between atoms: C12_20  and  C13_23 
REMARK   10  A    between atoms: C13_23  and  C14_24 
REMARK   11  A    between atoms: C13_23  and  N3_31 
REMARK   12  A    between atoms: C14_24  and  C15_25 
REMARK       I    between atoms: N3_31  and  C21_33 
REMARK   13  A    between atoms: C21_33  and  O7_35 
REMARK   14  A    between atoms: O7_35  and  C22_36 
ROOT
HETATM    1  C12 UNL     1     -12.691 -18.594  18.098  1.00  0.00     0.155 C 
ENDROOT
BRANCH   1   2
HETATM    2  C11 UNL     1     -11.499 -18.341  18.942  1.00  0.00     0.141 C 
BRANCH   2   3
HETATM    3  N1  UNL     1     -10.482 -19.310  18.829  1.00  0.00    -0.202 NA
BRANCH   3   4
HETATM    4  S1  UNL     1     -10.920 -20.777  19.556  1.00  0.00     0.243 S 
HETATM    5  O2  UNL     1      -9.718 -21.696  19.571  1.00  0.00    -0.206 OA
HETATM    6  O3  UNL     1     -11.251 -20.563  21.045  1.00  0.00    -0.206 OA
BRANCH   4   7
HETATM    7  C5  UNL     1     -12.241 -21.634  18.875  1.00  0.00     0.074 A 
HETATM    8  C4  UNL     1     -12.162 -22.237  17.641  1.00  0.00     0.027 A 
HETATM    9  C3  UNL     1     -13.226 -22.954  17.098  1.00  0.00     0.038 A 
HETATM   10  C2  UNL     1     -14.406 -23.084  17.785  1.00  0.00     0.068 A 
HETATM   11  C30 UNL     1     -14.502 -22.484  19.025  1.00  0.00     0.038 A 
HETATM   12  C29 UNL     1     -13.458 -21.781  19.556  1.00  0.00     0.027 A 
BRANCH  10  13
HETATM   13  O1  UNL     1     -15.499 -23.771  17.324  1.00  0.00    -0.356 OA
HETATM   14  C1  UNL     1     -16.807 -23.661  17.836  1.00  0.00     0.210 C 
ENDBRANCH  10  13
ENDBRANCH   4   7
ENDBRANCH   3   4
BRANCH   3  15
HETATM   15  C6  UNL     1      -9.164 -18.945  19.093  1.00  0.00     0.133 C 
BRANCH  15  16
HETATM   16  C7  UNL     1      -8.830 -18.117  20.261  1.00  0.00     0.099 C 
HETATM   17  C8  UNL     1      -7.707 -18.538  21.142  1.00  0.00     0.035 C 
HETATM   18  C9  UNL     1      -7.386 -17.256  21.964  1.00  0.00     0.105 C 
HETATM   19  C10 UNL     1      -7.555 -16.248  20.865  1.00  0.00     0.217 C 
HETATM   20  O4  UNL     1      -7.111 -15.078  20.961  1.00  0.00    -0.274 OA
HETATM   21  N2  UNL     1      -8.273 -16.844  19.762  1.00  0.00    -0.355 N 
ATOM     22  H2  UNL     1      -8.374 -16.460  18.823  1.00  0.00     0.162 HD
ENDBRANCH  15  16
ENDBRANCH   3  15
ENDBRANCH   2   3
ENDBRANCH   1   2
BRANCH   1  23
HETATM   23  O5  UNL     1     -13.724 -17.724  18.431  1.00  0.00    -0.392 OA
ATOM     24  H5  UNL     1     -13.706 -17.520  19.359  1.00  0.00     0.210 HD
ENDBRANCH   1  23
BRANCH   1  25
HETATM   25  C13 UNL     1     -12.508 -18.604  16.627  1.00  0.00     0.120 C 
BRANCH  25  26
HETATM   26  C14 UNL     1     -11.978 -17.360  16.002  1.00  0.00     0.066 C 
BRANCH  26  27
HETATM   27  C15 UNL     1     -10.633 -17.415  15.459  1.00  0.00    -0.056 A 
HETATM   28  C16 UNL     1     -10.079 -16.322  14.827  1.00  0.00     0.007 A 
HETATM   29  C17 UNL     1      -8.812 -16.331  14.288  1.00  0.00     0.001 A 
HETATM   30  C18 UNL     1      -8.051 -17.489  14.381  1.00  0.00     0.000 A 
HETATM   31  C19 UNL     1      -8.573 -18.596  15.006  1.00  0.00     0.001 A 
HETATM   32  C20 UNL     1      -9.871 -18.551  15.544  1.00  0.00     0.007 A 
ENDBRANCH  26  27
ENDBRANCH  25  26
BRANCH  25  33
HETATM   33  N3  UNL     1     -13.826 -18.952  16.054  1.00  0.00    -0.329 N 
HETATM   34  C21 UNL     1     -13.941 -19.905  15.010  1.00  0.00     0.361 C 
HETATM   35  O6  UNL     1     -12.902 -20.485  14.542  1.00  0.00    -0.238 OA
ATOM     36  H3  UNL     1     -14.666 -18.499  16.415  1.00  0.00     0.165 HD
BRANCH  34  37
HETATM   37  O7  UNL     1     -15.141 -20.280  14.425  1.00  0.00    -0.299 OA
BRANCH  37  38
HETATM   38  C22 UNL     1     -15.676 -21.576  14.594  1.00  0.00     0.136 C 
HETATM   39  C23 UNL     1     -15.464 -22.490  13.433  1.00  0.00     0.040 C 
HETATM   40  C24 UNL     1     -16.457 -23.613  13.768  1.00  0.00     0.019 C 
HETATM   41  C25 UNL     1     -16.995 -24.277  12.537  1.00  0.00     0.033 C 
HETATM   42  C27 UNL     1     -17.631 -22.854  14.325  1.00  0.00     0.128 C 
HETATM   43  C26 UNL     1     -18.189 -23.387  12.217  1.00  0.00     0.168 C 
HETATM   44  O8  UNL     1     -18.667 -22.936  13.433  1.00  0.00    -0.385 OA
HETATM   45  C28 UNL     1     -17.192 -21.461  14.632  1.00  0.00     0.065 C 
ENDBRANCH  37  38
ENDBRANCH  34  37
ENDBRANCH  25  33
ENDBRANCH   1  25
TORSDOF 14
ENDMDL
