MODEL 11
REMARK VINA RESULT: -8.946638439      2.262      8.693
REMARK  14 active torsions:
REMARK  status: ('A' for Active; 'I' for Inactive)
REMARK    1  A    between atoms: O1_2  and  C2_3 
REMARK    2  A    between atoms: C5_6  and  S1_7 
REMARK    3  A    between atoms: S1_7  and  N1_10 
REMARK    4  A    between atoms: N1_10  and  C6_11 
REMARK    5  A    between atoms: N1_10  and  C11_19 
REMARK    6  A    between atoms: C6_11  and  C7_12 
REMARK    7  A    between atoms: C11_19  and  C12_20 
REMARK    8  A    between atoms: C12_20  and  O5_21 
REMARK    9  A    between atoms: C12_20  and  C13_23 
REMARK   10  A    between atoms: C13_23  and  C14_24 
REMARK   11  A    between atoms: C13_23  and  N3_31 
REMARK   12  A    between atoms: C14_24  and  C15_25 
REMARK       I    between atoms: N3_31  and  C21_33 
REMARK   13  A    between atoms: C21_33  and  O7_35 
REMARK   14  A    between atoms: O7_35  and  C22_36 
ROOT
HETATM    1  C12 UNL     1      13.788  19.337  18.004  1.00  0.00     0.155 C 
ENDROOT
BRANCH   1   2
HETATM    2  C11 UNL     1      12.792  18.327  17.574  1.00  0.00     0.141 C 
BRANCH   2   3
HETATM    3  N1  UNL     1      11.448  18.711  17.753  1.00  0.00    -0.202 NA
BRANCH   3   4
HETATM    4  S1  UNL     1      10.596  18.737  16.288  1.00  0.00     0.243 S 
HETATM    5  O2  UNL     1       9.747  19.990  16.238  1.00  0.00    -0.206 OA
HETATM    6  O3  UNL     1      11.566  18.891  15.103  1.00  0.00    -0.206 OA
BRANCH   4   7
HETATM    7  C5  UNL     1       9.591  17.394  15.933  1.00  0.00     0.074 A 
HETATM    8  C4  UNL     1       9.568  16.806  14.690  1.00  0.00     0.027 A 
HETATM    9  C3  UNL     1       8.770  15.699  14.408  1.00  0.00     0.038 A 
HETATM   10  C2  UNL     1       7.967  15.150  15.377  1.00  0.00     0.068 A 
HETATM   11  C30 UNL     1       7.978  15.729  16.630  1.00  0.00     0.038 A 
HETATM   12  C29 UNL     1       8.761  16.814  16.904  1.00  0.00     0.027 A 
BRANCH  10  13
HETATM   13  O1  UNL     1       7.153  14.064  15.184  1.00  0.00    -0.356 OA
HETATM   14  C1  UNL     1       5.790  13.995  15.530  1.00  0.00     0.210 C 
ENDBRANCH  10  13
ENDBRANCH   4   7
ENDBRANCH   3   4
BRANCH   3  15
HETATM   15  C6  UNL     1      11.156  19.798  18.572  1.00  0.00     0.133 C 
BRANCH  15  16
HETATM   16  C7  UNL     1      10.525  19.605  19.886  1.00  0.00     0.099 C 
HETATM   17  C8  UNL     1       9.358  20.453  20.253  1.00  0.00     0.035 C 
HETATM   18  C9  UNL     1       8.723  19.699  21.458  1.00  0.00     0.105 C 
HETATM   19  C10 UNL     1       8.902  18.298  20.953  1.00  0.00     0.217 C 
HETATM   20  O4  UNL     1       8.275  17.328  21.446  1.00  0.00    -0.274 OA
HETATM   21  N2  UNL     1       9.862  18.285  19.874  1.00  0.00    -0.355 N 
ATOM     22  H2  UNL     1      10.046  17.516  19.231  1.00  0.00     0.162 HD
ENDBRANCH  15  16
ENDBRANCH   3  15
ENDBRANCH   2   3
ENDBRANCH   1   2
BRANCH   1  23
HETATM   23  O5  UNL     1      14.949  18.722  18.461  1.00  0.00    -0.392 OA
ATOM     24  H5  UNL     1      15.089  18.910  19.382  1.00  0.00     0.210 HD
ENDBRANCH   1  23
BRANCH   1  25
HETATM   25  C13 UNL     1      14.141  20.413  17.046  1.00  0.00     0.120 C 
BRANCH  25  26
HETATM   26  C14 UNL     1      14.911  20.014  15.835  1.00  0.00     0.066 C 
BRANCH  26  27
HETATM   27  C15 UNL     1      15.423  21.082  14.996  1.00  0.00    -0.056 A 
HETATM   28  C16 UNL     1      14.567  21.944  14.344  1.00  0.00     0.007 A 
HETATM   29  C17 UNL     1      15.007  22.964  13.531  1.00  0.00     0.001 A 
HETATM   30  C18 UNL     1      16.374  23.139  13.354  1.00  0.00     0.000 A 
HETATM   31  C19 UNL     1      17.255  22.298  13.990  1.00  0.00     0.001 A 
HETATM   32  C20 UNL     1      16.769  21.266  14.813  1.00  0.00     0.007 A 
ENDBRANCH  26  27
ENDBRANCH  25  26
BRANCH  25  33
HETATM   33  N3  UNL     1      14.888  21.424  17.825  1.00  0.00    -0.329 N 
HETATM   34  C21 UNL     1      14.294  22.665  18.170  1.00  0.00     0.361 C 
HETATM   35  O6  UNL     1      13.096  22.934  17.813  1.00  0.00    -0.238 OA
ATOM     36  H3  UNL     1      15.844  21.226  18.120  1.00  0.00     0.165 HD
BRANCH  34  37
HETATM   37  O7  UNL     1      14.931  23.659  18.898  1.00  0.00    -0.299 OA
BRANCH  37  38
HETATM   38  C22 UNL     1      16.327  23.858  18.818  1.00  0.00     0.136 C 
HETATM   39  C23 UNL     1      16.772  25.253  19.107  1.00  0.00     0.040 C 
HETATM   40  C24 UNL     1      18.211  25.210  18.571  1.00  0.00     0.019 C 
HETATM   41  C25 UNL     1      18.666  26.548  18.070  1.00  0.00     0.033 C 
HETATM   42  C27 UNL     1      18.072  24.373  17.329  1.00  0.00     0.128 C 
HETATM   43  C26 UNL     1      18.182  26.502  16.626  1.00  0.00     0.168 C 
HETATM   44  O8  UNL     1      18.260  25.178  16.237  1.00  0.00    -0.385 OA
HETATM   45  C28 UNL     1      16.747  23.687  17.366  1.00  0.00     0.065 C 
ENDBRANCH  37  38
ENDBRANCH  34  37
ENDBRANCH  25  33
ENDBRANCH   1  25
TORSDOF 14
ENDMDL
