MODEL 2
REMARK VINA RESULT: -9.327848087      2.167      6.676
REMARK  14 active torsions:
REMARK  status: ('A' for Active; 'I' for Inactive)
REMARK    1  A    between atoms: O1_2  and  C2_3 
REMARK    2  A    between atoms: C5_6  and  S1_7 
REMARK    3  A    between atoms: S1_7  and  N1_10 
REMARK    4  A    between atoms: N1_10  and  C6_11 
REMARK    5  A    between atoms: N1_10  and  C11_19 
REMARK    6  A    between atoms: C6_11  and  C7_12 
REMARK    7  A    between atoms: C11_19  and  C12_20 
REMARK    8  A    between atoms: C12_20  and  O5_21 
REMARK    9  A    between atoms: C12_20  and  C13_23 
REMARK   10  A    between atoms: C13_23  and  C14_24 
REMARK   11  A    between atoms: C13_23  and  N3_31 
REMARK   12  A    between atoms: C14_24  and  C15_25 
REMARK       I    between atoms: N3_31  and  C21_33 
REMARK   13  A    between atoms: C21_33  and  O7_35 
REMARK   14  A    between atoms: O7_35  and  C22_36 
ROOT
HETATM    1  C12 UNL     1      12.564  18.504  18.186  1.00  0.00     0.155 C 
ENDROOT
BRANCH   1   2
HETATM    2  C11 UNL     1      11.367  18.315  19.039  1.00  0.00     0.141 C 
BRANCH   2   3
HETATM    3  N1  UNL     1      10.373  19.302  18.886  1.00  0.00    -0.202 NA
BRANCH   3   4
HETATM    4  S1  UNL     1      10.811  20.761  19.630  1.00  0.00     0.243 S 
HETATM    5  O2  UNL     1       9.613  21.687  19.635  1.00  0.00    -0.206 OA
HETATM    6  O3  UNL     1      11.120  20.535  21.121  1.00  0.00    -0.206 OA
BRANCH   4   7
HETATM    7  C5  UNL     1      12.145  21.615  18.972  1.00  0.00     0.074 A 
HETATM    8  C4  UNL     1      12.052  22.322  17.796  1.00  0.00     0.027 A 
HETATM    9  C3  UNL     1      13.128  23.036  17.274  1.00  0.00     0.038 A 
HETATM   10  C2  UNL     1      14.336  23.057  17.925  1.00  0.00     0.068 A 
HETATM   11  C30 UNL     1      14.447  22.352  19.107  1.00  0.00     0.038 A 
HETATM   12  C29 UNL     1      13.390  21.652  19.616  1.00  0.00     0.027 A 
BRANCH  10  13
HETATM   13  O1  UNL     1      15.443  23.733  17.481  1.00  0.00    -0.356 OA
HETATM   14  C1  UNL     1      16.761  23.526  17.934  1.00  0.00     0.210 C 
ENDBRANCH  10  13
ENDBRANCH   4   7
ENDBRANCH   3   4
BRANCH   3  15
HETATM   15  C6  UNL     1       9.040  18.962  19.099  1.00  0.00     0.133 C 
BRANCH  15  16
HETATM   16  C7  UNL     1       8.643  18.155  20.263  1.00  0.00     0.099 C 
HETATM   17  C8  UNL     1       7.417  18.537  21.016  1.00  0.00     0.035 C 
HETATM   18  C9  UNL     1       7.093  17.266  21.855  1.00  0.00     0.105 C 
HETATM   19  C10 UNL     1       7.428  16.233  20.819  1.00  0.00     0.217 C 
HETATM   20  O4  UNL     1       7.046  15.041  20.921  1.00  0.00    -0.274 OA
HETATM   21  N2  UNL     1       8.213  16.833  19.765  1.00  0.00    -0.355 N 
ATOM     22  H2  UNL     1       8.427  16.424  18.857  1.00  0.00     0.162 HD
ENDBRANCH  15  16
ENDBRANCH   3  15
ENDBRANCH   2   3
ENDBRANCH   1   2
BRANCH   1  23
HETATM   23  O5  UNL     1      13.530  17.545  18.472  1.00  0.00    -0.392 OA
ATOM     24  H5  UNL     1      13.874  17.164  17.673  1.00  0.00     0.210 HD
ENDBRANCH   1  23
BRANCH   1  25
HETATM   25  C13 UNL     1      12.364  18.582  16.719  1.00  0.00     0.120 C 
BRANCH  25  26
HETATM   26  C14 UNL     1      11.824  17.369  16.044  1.00  0.00     0.066 C 
BRANCH  26  27
HETATM   27  C15 UNL     1      10.478  17.455  15.508  1.00  0.00    -0.056 A 
HETATM   28  C16 UNL     1       9.787  18.648  15.515  1.00  0.00     0.007 A 
HETATM   29  C17 UNL     1       8.506  18.775  15.028  1.00  0.00     0.001 A 
HETATM   30  C18 UNL     1       7.874  17.655  14.503  1.00  0.00     0.000 A 
HETATM   31  C19 UNL     1       8.534  16.450  14.481  1.00  0.00     0.001 A 
HETATM   32  C20 UNL     1       9.842  16.358  14.988  1.00  0.00     0.007 A 
ENDBRANCH  26  27
ENDBRANCH  25  26
BRANCH  25  33
HETATM   33  N3  UNL     1      13.676  18.954  16.147  1.00  0.00    -0.329 N 
HETATM   34  C21 UNL     1      13.777  19.926  15.120  1.00  0.00     0.361 C 
HETATM   35  O6  UNL     1      12.730  20.504  14.666  1.00  0.00    -0.238 OA
ATOM     36  H3  UNL     1      14.523  18.504  16.497  1.00  0.00     0.165 HD
BRANCH  34  37
HETATM   37  O7  UNL     1      14.971  20.325  14.537  1.00  0.00    -0.299 OA
BRANCH  37  38
HETATM   38  C22 UNL     1      15.447  21.649  14.651  1.00  0.00     0.136 C 
HETATM   39  C23 UNL     1      15.167  22.513  13.466  1.00  0.00     0.040 C 
HETATM   40  C24 UNL     1      16.113  23.691  13.741  1.00  0.00     0.019 C 
HETATM   41  C25 UNL     1      16.591  24.338  12.476  1.00  0.00     0.033 C 
HETATM   42  C27 UNL     1      17.333  23.007  14.295  1.00  0.00     0.128 C 
HETATM   43  C26 UNL     1      17.819  23.494  12.158  1.00  0.00     0.168 C 
HETATM   44  O8  UNL     1      18.344  23.108  13.376  1.00  0.00    -0.385 OA
HETATM   45  C28 UNL     1      16.967  21.606  14.657  1.00  0.00     0.065 C 
ENDBRANCH  37  38
ENDBRANCH  34  37
ENDBRANCH  25  33
ENDBRANCH   1  25
TORSDOF 14
ENDMDL
