MODEL 3
REMARK VINA RESULT: -9.200789368      2.786      6.970
REMARK  14 active torsions:
REMARK  status: ('A' for Active; 'I' for Inactive)
REMARK    1  A    between atoms: O1_2  and  C2_3 
REMARK    2  A    between atoms: C5_6  and  S1_7 
REMARK    3  A    between atoms: S1_7  and  N1_10 
REMARK    4  A    between atoms: N1_10  and  C6_11 
REMARK    5  A    between atoms: N1_10  and  C11_19 
REMARK    6  A    between atoms: C6_11  and  C7_12 
REMARK    7  A    between atoms: C11_19  and  C12_20 
REMARK    8  A    between atoms: C12_20  and  O5_21 
REMARK    9  A    between atoms: C12_20  and  C13_23 
REMARK   10  A    between atoms: C13_23  and  C14_24 
REMARK   11  A    between atoms: C13_23  and  N3_31 
REMARK   12  A    between atoms: C14_24  and  C15_25 
REMARK       I    between atoms: N3_31  and  C21_33 
REMARK   13  A    between atoms: C21_33  and  O7_35 
REMARK   14  A    between atoms: O7_35  and  C22_36 
ROOT
HETATM    1  C12 UNL     1      11.388  21.318  18.030  1.00  0.00     0.155 C 
ENDROOT
BRANCH   1   2
HETATM    2  C11 UNL     1      11.794  22.298  16.995  1.00  0.00     0.141 C 
BRANCH   2   3
HETATM    3  N1  UNL     1      13.186  22.492  16.880  1.00  0.00    -0.202 NA
BRANCH   3   4
HETATM    4  S1  UNL     1      13.867  21.497  15.688  1.00  0.00     0.243 S 
HETATM    5  O2  UNL     1      14.255  20.175  16.316  1.00  0.00    -0.206 OA
HETATM    6  O3  UNL     1      12.811  21.118  14.634  1.00  0.00    -0.206 OA
BRANCH   4   7
HETATM    7  C5  UNL     1      15.225  22.104  14.833  1.00  0.00     0.074 A 
HETATM    8  C4  UNL     1      16.515  21.798  15.199  1.00  0.00     0.027 A 
HETATM    9  C3  UNL     1      17.618  22.270  14.490  1.00  0.00     0.038 A 
HETATM   10  C2  UNL     1      17.451  23.068  13.387  1.00  0.00     0.068 A 
HETATM   11  C30 UNL     1      16.162  23.385  13.006  1.00  0.00     0.038 A 
HETATM   12  C29 UNL     1      15.082  22.921  13.703  1.00  0.00     0.027 A 
BRANCH  10  13
HETATM   13  O1  UNL     1      18.479  23.574  12.634  1.00  0.00    -0.356 OA
HETATM   14  C1  UNL     1      18.442  23.789  11.243  1.00  0.00     0.210 C 
ENDBRANCH  10  13
ENDBRANCH   4   7
ENDBRANCH   3   4
BRANCH   3  15
HETATM   15  C6  UNL     1      13.959  22.564  18.035  1.00  0.00     0.133 C 
BRANCH  15  16
HETATM   16  C7  UNL     1      15.004  23.588  18.181  1.00  0.00     0.099 C 
HETATM   17  C8  UNL     1      14.614  24.951  18.634  1.00  0.00     0.035 C 
HETATM   18  C9  UNL     1      15.964  25.590  19.073  1.00  0.00     0.105 C 
HETATM   19  C10 UNL     1      16.571  24.385  19.728  1.00  0.00     0.217 C 
HETATM   20  O4  UNL     1      17.553  24.473  20.505  1.00  0.00    -0.274 OA
HETATM   21  N2  UNL     1      15.858  23.196  19.321  1.00  0.00    -0.355 N 
ATOM     22  H2  UNL     1      15.930  22.269  19.738  1.00  0.00     0.162 HD
ENDBRANCH  15  16
ENDBRANCH   3  15
ENDBRANCH   2   3
ENDBRANCH   1   2
BRANCH   1  23
HETATM   23  O5  UNL     1      10.574  21.919  18.984  1.00  0.00    -0.392 OA
ATOM     24  H5  UNL     1       9.866  21.337  19.237  1.00  0.00     0.210 HD
ENDBRANCH   1  23
BRANCH   1  25
HETATM   25  C13 UNL     1      10.768  20.050  17.577  1.00  0.00     0.120 C 
BRANCH  25  26
HETATM   26  C14 UNL     1       9.981  20.095  16.314  1.00  0.00     0.066 C 
BRANCH  26  27
HETATM   27  C15 UNL     1       9.814  18.845  15.595  1.00  0.00    -0.056 A 
HETATM   28  C16 UNL     1       8.575  18.451  15.136  1.00  0.00     0.007 A 
HETATM   29  C17 UNL     1       8.366  17.271  14.459  1.00  0.00     0.001 A 
HETATM   30  C18 UNL     1       9.449  16.432  14.224  1.00  0.00     0.000 A 
HETATM   31  C19 UNL     1      10.698  16.795  14.668  1.00  0.00     0.001 A 
HETATM   32  C20 UNL     1      10.873  18.008  15.357  1.00  0.00     0.007 A 
ENDBRANCH  26  27
ENDBRANCH  25  26
BRANCH  25  33
HETATM   33  N3  UNL     1       9.924  19.585  18.699  1.00  0.00    -0.329 N 
HETATM   34  C21 UNL     1      10.399  18.614  19.617  1.00  0.00     0.361 C 
HETATM   35  O6  UNL     1      11.572  18.120  19.493  1.00  0.00    -0.238 OA
ATOM     36  H3  UNL     1       8.986  19.969  18.815  1.00  0.00     0.165 HD
BRANCH  34  37
HETATM   37  O7  UNL     1       9.666  18.132  20.691  1.00  0.00    -0.299 OA
BRANCH  37  38
HETATM   38  C22 UNL     1       8.295  17.815  20.571  1.00  0.00     0.136 C 
HETATM   39  C23 UNL     1       7.412  18.495  21.565  1.00  0.00     0.040 C 
HETATM   40  C24 UNL     1       6.127  17.668  21.418  1.00  0.00     0.019 C 
HETATM   41  C25 UNL     1       5.342  17.613  22.694  1.00  0.00     0.033 C 
HETATM   42  C27 UNL     1       6.656  16.270  21.245  1.00  0.00     0.128 C 
HETATM   43  C26 UNL     1       5.976  16.410  23.380  1.00  0.00     0.168 C 
HETATM   44  O8  UNL     1       6.353  15.547  22.369  1.00  0.00    -0.385 OA
HETATM   45  C28 UNL     1       8.114  16.351  20.940  1.00  0.00     0.065 C 
ENDBRANCH  37  38
ENDBRANCH  34  37
ENDBRANCH  25  33
ENDBRANCH   1  25
TORSDOF 14
ENDMDL
