MODEL 8
REMARK VINA RESULT: -9.041865942      1.944      8.480
REMARK  14 active torsions:
REMARK  status: ('A' for Active; 'I' for Inactive)
REMARK    1  A    between atoms: O1_2  and  C2_3 
REMARK    2  A    between atoms: C5_6  and  S1_7 
REMARK    3  A    between atoms: S1_7  and  N1_10 
REMARK    4  A    between atoms: N1_10  and  C6_11 
REMARK    5  A    between atoms: N1_10  and  C11_19 
REMARK    6  A    between atoms: C6_11  and  C7_12 
REMARK    7  A    between atoms: C11_19  and  C12_20 
REMARK    8  A    between atoms: C12_20  and  O5_21 
REMARK    9  A    between atoms: C12_20  and  C13_23 
REMARK   10  A    between atoms: C13_23  and  C14_24 
REMARK   11  A    between atoms: C13_23  and  N3_31 
REMARK   12  A    between atoms: C14_24  and  C15_25 
REMARK       I    between atoms: N3_31  and  C21_33 
REMARK   13  A    between atoms: C21_33  and  O7_35 
REMARK   14  A    between atoms: O7_35  and  C22_36 
ROOT
HETATM    1  C12 UNL     1      12.335  18.395  17.875  1.00  0.00     0.155 C 
ENDROOT
BRANCH   1   2
HETATM    2  C11 UNL     1      11.383  17.436  17.268  1.00  0.00     0.141 C 
BRANCH   2   3
HETATM    3  N1  UNL     1      10.046  17.880  17.224  1.00  0.00    -0.202 NA
BRANCH   3   4
HETATM    4  S1  UNL     1       9.335  17.602  15.711  1.00  0.00     0.243 S 
HETATM    5  O2  UNL     1       8.793  18.910  15.176  1.00  0.00    -0.206 OA
HETATM    6  O3  UNL     1      10.402  17.187  14.682  1.00  0.00    -0.206 OA
BRANCH   4   7
HETATM    7  C5  UNL     1       8.086  16.429  15.628  1.00  0.00     0.074 A 
HETATM    8  C4  UNL     1       7.856  15.685  14.494  1.00  0.00     0.027 A 
HETATM    9  C3  UNL     1       6.857  14.715  14.434  1.00  0.00     0.038 A 
HETATM   10  C2  UNL     1       6.057  14.467  15.520  1.00  0.00     0.068 A 
HETATM   11  C30 UNL     1       6.274  15.206  16.666  1.00  0.00     0.038 A 
HETATM   12  C29 UNL     1       7.253  16.156  16.723  1.00  0.00     0.027 A 
BRANCH  10  13
HETATM   13  O1  UNL     1       5.054  13.533  15.546  1.00  0.00    -0.356 OA
HETATM   14  C1  UNL     1       3.676  13.818  15.602  1.00  0.00     0.210 C 
ENDBRANCH  10  13
ENDBRANCH   4   7
ENDBRANCH   3   4
BRANCH   3  15
HETATM   15  C6  UNL     1       9.728  19.128  17.753  1.00  0.00     0.133 C 
BRANCH  15  16
HETATM   16  C7  UNL     1       8.941  19.245  18.990  1.00  0.00     0.099 C 
HETATM   17  C8  UNL     1       8.971  18.123  19.968  1.00  0.00     0.035 C 
HETATM   18  C9  UNL     1       8.409  18.760  21.272  1.00  0.00     0.105 C 
HETATM   19  C10 UNL     1       9.082  20.097  21.166  1.00  0.00     0.217 C 
HETATM   20  O4  UNL     1       9.176  20.875  22.147  1.00  0.00    -0.274 OA
HETATM   21  N2  UNL     1       9.563  20.296  19.818  1.00  0.00    -0.355 N 
ATOM     22  H2  UNL     1      10.207  21.021  19.502  1.00  0.00     0.162 HD
ENDBRANCH  15  16
ENDBRANCH   3  15
ENDBRANCH   2   3
ENDBRANCH   1   2
BRANCH   1  23
HETATM   23  O5  UNL     1      13.422  17.727  18.429  1.00  0.00    -0.392 OA
ATOM     24  H5  UNL     1      13.768  18.206  19.173  1.00  0.00     0.210 HD
ENDBRANCH   1  23
BRANCH   1  25
HETATM   25  C13 UNL     1      12.819  19.517  17.035  1.00  0.00     0.120 C 
BRANCH  25  26
HETATM   26  C14 UNL     1      13.730  19.174  15.908  1.00  0.00     0.066 C 
BRANCH  26  27
HETATM   27  C15 UNL     1      14.372  20.277  15.218  1.00  0.00    -0.056 A 
HETATM   28  C16 UNL     1      15.731  20.485  15.321  1.00  0.00     0.007 A 
HETATM   29  C17 UNL     1      16.381  21.523  14.694  1.00  0.00     0.001 A 
HETATM   30  C18 UNL     1      15.641  22.407  13.918  1.00  0.00     0.000 A 
HETATM   31  C19 UNL     1      14.284  22.229  13.794  1.00  0.00     0.001 A 
HETATM   32  C20 UNL     1      13.654  21.157  14.450  1.00  0.00     0.007 A 
ENDBRANCH  26  27
ENDBRANCH  25  26
BRANCH  25  33
HETATM   33  N3  UNL     1      13.472  20.468  17.960  1.00  0.00    -0.329 N 
HETATM   34  C21 UNL     1      12.818  21.659  18.365  1.00  0.00     0.361 C 
HETATM   35  O6  UNL     1      11.645  21.934  17.938  1.00  0.00    -0.238 OA
ATOM     36  H3  UNL     1      14.408  20.264  18.312  1.00  0.00     0.165 HD
BRANCH  34  37
HETATM   37  O7  UNL     1      13.368  22.595  19.229  1.00  0.00    -0.299 OA
BRANCH  37  38
HETATM   38  C22 UNL     1      14.763  22.788  19.323  1.00  0.00     0.136 C 
HETATM   39  C23 UNL     1      15.171  23.984  20.118  1.00  0.00     0.040 C 
HETATM   40  C24 UNL     1      16.644  24.114  19.704  1.00  0.00     0.019 C 
HETATM   41  C25 UNL     1      17.119  25.535  19.742  1.00  0.00     0.033 C 
HETATM   42  C27 UNL     1      16.603  23.774  18.239  1.00  0.00     0.128 C 
HETATM   43  C26 UNL     1      16.738  26.012  18.346  1.00  0.00     0.168 C 
HETATM   44  O8  UNL     1      16.859  24.911  17.520  1.00  0.00    -0.385 OA
HETATM   45  C28 UNL     1      15.286  23.138  17.938  1.00  0.00     0.065 C 
ENDBRANCH  37  38
ENDBRANCH  34  37
ENDBRANCH  25  33
ENDBRANCH   1  25
TORSDOF 14
ENDMDL
