MODEL 1
REMARK VINA RESULT: -9.509335833      0.000      0.000
REMARK  14 active torsions:
REMARK  status: ('A' for Active; 'I' for Inactive)
REMARK    1  A    between atoms: O1_2  and  C2_3 
REMARK    2  A    between atoms: C5_6  and  S1_7 
REMARK    3  A    between atoms: S1_7  and  N1_10 
REMARK    4  A    between atoms: N1_10  and  C6_11 
REMARK    5  A    between atoms: N1_10  and  C11_19 
REMARK    6  A    between atoms: C6_11  and  C7_12 
REMARK    7  A    between atoms: C11_19  and  C12_20 
REMARK    8  A    between atoms: C12_20  and  O5_21 
REMARK    9  A    between atoms: C12_20  and  C13_23 
REMARK   10  A    between atoms: C13_23  and  C14_24 
REMARK   11  A    between atoms: C13_23  and  N3_31 
REMARK   12  A    between atoms: C14_24  and  C15_25 
REMARK       I    between atoms: N3_31  and  C21_33 
REMARK   13  A    between atoms: C21_33  and  O7_35 
REMARK   14  A    between atoms: O7_35  and  C22_36 
ROOT
HETATM    1  C12 UNL     1      11.810  18.242  17.414  1.00  0.00     0.155 C 
ENDROOT
BRANCH   1   2
HETATM    2  C11 UNL     1      10.576  18.140  18.228  1.00  0.00     0.141 C 
BRANCH   2   3
HETATM    3  N1  UNL     1       9.868  19.349  18.379  1.00  0.00    -0.202 NA
BRANCH   3   4
HETATM    4  S1  UNL     1      10.652  20.414  19.440  1.00  0.00     0.243 S 
HETATM    5  O2  UNL     1       9.660  21.455  19.911  1.00  0.00    -0.206 OA
HETATM    6  O3  UNL     1      11.071  19.681  20.728  1.00  0.00    -0.206 OA
BRANCH   4   7
HETATM    7  C5  UNL     1      12.046  21.226  18.857  1.00  0.00     0.074 A 
HETATM    8  C4  UNL     1      11.962  22.375  18.105  1.00  0.00     0.027 A 
HETATM    9  C3  UNL     1      13.094  23.049  17.653  1.00  0.00     0.038 A 
HETATM   10  C2  UNL     1      14.351  22.582  17.946  1.00  0.00     0.068 A 
HETATM   11  C30 UNL     1      14.453  21.430  18.700  1.00  0.00     0.038 A 
HETATM   12  C29 UNL     1      13.342  20.770  19.142  1.00  0.00     0.027 A 
BRANCH  10  13
HETATM   13  O1  UNL     1      15.514  23.183  17.542  1.00  0.00    -0.356 OA
HETATM   14  C1  UNL     1      16.672  23.332  18.330  1.00  0.00     0.210 C 
ENDBRANCH  10  13
ENDBRANCH   4   7
ENDBRANCH   3   4
BRANCH   3  15
HETATM   15  C6  UNL     1       8.490  19.309  18.569  1.00  0.00     0.133 C 
BRANCH  15  16
HETATM   16  C7  UNL     1       7.878  18.301  19.447  1.00  0.00     0.099 C 
HETATM   17  C8  UNL     1       7.635  18.644  20.875  1.00  0.00     0.035 C 
HETATM   18  C9  UNL     1       6.628  17.555  21.347  1.00  0.00     0.105 C 
HETATM   19  C10 UNL     1       5.783  17.492  20.109  1.00  0.00     0.217 C 
HETATM   20  O4  UNL     1       4.645  16.960  20.107  1.00  0.00    -0.274 OA
HETATM   21  N2  UNL     1       6.480  18.115  19.008  1.00  0.00    -0.355 N 
ATOM     22  H2  UNL     1       6.084  18.376  18.106  1.00  0.00     0.162 HD
ENDBRANCH  15  16
ENDBRANCH   3  15
ENDBRANCH   2   3
ENDBRANCH   1   2
BRANCH   1  23
HETATM   23  O5  UNL     1      12.629  17.136  17.618  1.00  0.00    -0.392 OA
ATOM     24  H5  UNL     1      13.429  17.210  17.110  1.00  0.00     0.210 HD
ENDBRANCH   1  23
BRANCH   1  25
HETATM   25  C13 UNL     1      11.661  18.485  15.959  1.00  0.00     0.120 C 
BRANCH  25  26
HETATM   26  C14 UNL     1      11.873  19.879  15.481  1.00  0.00     0.066 C 
BRANCH  26  27
HETATM   27  C15 UNL     1      13.238  20.280  15.194  1.00  0.00    -0.056 A 
HETATM   28  C16 UNL     1      14.306  19.532  15.645  1.00  0.00     0.007 A 
HETATM   29  C17 UNL     1      15.617  19.878  15.407  1.00  0.00     0.001 A 
HETATM   30  C18 UNL     1      15.885  21.031  14.680  1.00  0.00     0.000 A 
HETATM   31  C19 UNL     1      14.844  21.799  14.215  1.00  0.00     0.001 A 
HETATM   32  C20 UNL     1      13.517  21.415  14.478  1.00  0.00     0.007 A 
ENDBRANCH  26  27
ENDBRANCH  25  26
BRANCH  25  33
HETATM   33  N3  UNL     1      10.305  18.014  15.603  1.00  0.00    -0.329 N 
HETATM   34  C21 UNL     1      10.119  16.960  14.673  1.00  0.00     0.361 C 
HETATM   35  O6  UNL     1      11.123  16.392  14.123  1.00  0.00    -0.238 OA
ATOM     36  H3  UNL     1       9.492  18.454  16.033  1.00  0.00     0.165 HD
BRANCH  34  37
HETATM   37  O7  UNL     1       8.879  16.466  14.292  1.00  0.00    -0.299 OA
BRANCH  37  38
HETATM   38  C22 UNL     1       8.210  15.478  15.047  1.00  0.00     0.136 C 
HETATM   39  C23 UNL     1       7.001  14.906  14.385  1.00  0.00     0.040 C 
HETATM   40  C24 UNL     1       6.332  14.200  15.573  1.00  0.00     0.019 C 
HETATM   41  C25 UNL     1       4.840  14.152  15.434  1.00  0.00     0.033 C 
HETATM   42  C27 UNL     1       6.571  15.164  16.703  1.00  0.00     0.128 C 
HETATM   43  C26 UNL     1       4.441  15.480  16.066  1.00  0.00     0.168 C 
HETATM   44  O8  UNL     1       5.373  15.729  17.056  1.00  0.00    -0.385 OA
HETATM   45  C28 UNL     1       7.611  16.146  16.275  1.00  0.00     0.065 C 
ENDBRANCH  37  38
ENDBRANCH  34  37
ENDBRANCH  25  33
ENDBRANCH   1  25
TORSDOF 14
ENDMDL
