MODEL 10
REMARK VINA RESULT: -8.826446260      2.011      8.816
REMARK  14 active torsions:
REMARK  status: ('A' for Active; 'I' for Inactive)
REMARK    1  A    between atoms: O1_2  and  C2_3 
REMARK    2  A    between atoms: C5_6  and  S1_7 
REMARK    3  A    between atoms: S1_7  and  N1_10 
REMARK    4  A    between atoms: N1_10  and  C6_11 
REMARK    5  A    between atoms: N1_10  and  C11_19 
REMARK    6  A    between atoms: C6_11  and  C7_12 
REMARK    7  A    between atoms: C11_19  and  C12_20 
REMARK    8  A    between atoms: C12_20  and  O5_21 
REMARK    9  A    between atoms: C12_20  and  C13_23 
REMARK   10  A    between atoms: C13_23  and  C14_24 
REMARK   11  A    between atoms: C13_23  and  N3_31 
REMARK   12  A    between atoms: C14_24  and  C15_25 
REMARK       I    between atoms: N3_31  and  C21_33 
REMARK   13  A    between atoms: C21_33  and  O7_35 
REMARK   14  A    between atoms: O7_35  and  C22_36 
ROOT
HETATM    1  C12 UNL     1      16.474  22.929  18.358  1.00  0.00     0.155 C 
ENDROOT
BRANCH   1   2
HETATM    2  C11 UNL     1      16.828  24.336  18.057  1.00  0.00     0.141 C 
BRANCH   2   3
HETATM    3  N1  UNL     1      18.184  24.546  17.734  1.00  0.00    -0.202 NA
BRANCH   3   4
HETATM    4  S1  UNL     1      18.367  25.268  16.212  1.00  0.00     0.243 S 
HETATM    5  O2  UNL     1      18.560  24.182  15.174  1.00  0.00    -0.206 OA
HETATM    6  O3  UNL     1      17.064  25.969  15.786  1.00  0.00    -0.206 OA
BRANCH   4   7
HETATM    7  C5  UNL     1      19.629  26.415  16.027  1.00  0.00     0.074 A 
HETATM    8  C4  UNL     1      20.422  26.804  17.081  1.00  0.00     0.027 A 
HETATM    9  C3  UNL     1      21.464  27.717  16.927  1.00  0.00     0.038 A 
HETATM   10  C2  UNL     1      21.736  28.268  15.699  1.00  0.00     0.068 A 
HETATM   11  C30 UNL     1      20.949  27.887  14.631  1.00  0.00     0.038 A 
HETATM   12  C29 UNL     1      19.928  26.993  14.785  1.00  0.00     0.027 A 
BRANCH  10  13
HETATM   13  O1  UNL     1      22.740  29.170  15.461  1.00  0.00    -0.356 OA
HETATM   14  C1  UNL     1      24.090  29.005  15.828  1.00  0.00     0.210 C 
ENDBRANCH  10  13
ENDBRANCH   4   7
ENDBRANCH   3   4
BRANCH   3  15
HETATM   15  C6  UNL     1      19.103  23.527  17.967  1.00  0.00     0.133 C 
BRANCH  15  16
HETATM   16  C7  UNL     1      19.897  23.495  19.204  1.00  0.00     0.099 C 
HETATM   17  C8  UNL     1      19.666  24.547  20.232  1.00  0.00     0.035 C 
HETATM   18  C9  UNL     1      20.332  23.960  21.511  1.00  0.00     0.105 C 
HETATM   19  C10 UNL     1      19.910  22.531  21.337  1.00  0.00     0.217 C 
HETATM   20  O4  UNL     1      19.956  21.704  22.281  1.00  0.00    -0.274 OA
HETATM   21  N2  UNL     1      19.473  22.312  19.978  1.00  0.00    -0.355 N 
ATOM     22  H2  UNL     1      18.970  21.499  19.623  1.00  0.00     0.162 HD
ENDBRANCH  15  16
ENDBRANCH   3  15
ENDBRANCH   2   3
ENDBRANCH   1   2
BRANCH   1  23
HETATM   23  O5  UNL     1      16.258  22.755  19.721  1.00  0.00    -0.392 OA
ATOM     24  H5  UNL     1      16.877  22.131  20.083  1.00  0.00     0.210 HD
ENDBRANCH   1  23
BRANCH   1  25
HETATM   25  C13 UNL     1      15.356  22.319  17.599  1.00  0.00     0.120 C 
BRANCH  25  26
HETATM   26  C14 UNL     1      14.555  23.224  16.729  1.00  0.00     0.066 C 
BRANCH  26  27
HETATM   27  C15 UNL     1      14.423  22.851  15.332  1.00  0.00    -0.056 A 
HETATM   28  C16 UNL     1      13.206  22.934  14.688  1.00  0.00     0.007 A 
HETATM   29  C17 UNL     1      13.031  22.582  13.369  1.00  0.00     0.001 A 
HETATM   30  C18 UNL     1      14.124  22.121  12.647  1.00  0.00     0.000 A 
HETATM   31  C19 UNL     1      15.352  22.027  13.258  1.00  0.00     0.001 A 
HETATM   32  C20 UNL     1      15.493  22.395  14.607  1.00  0.00     0.007 A 
ENDBRANCH  26  27
ENDBRANCH  25  26
BRANCH  25  33
HETATM   33  N3  UNL     1      14.490  21.664  18.603  1.00  0.00    -0.329 N 
HETATM   34  C21 UNL     1      14.319  20.256  18.614  1.00  0.00     0.361 C 
HETATM   35  O6  UNL     1      14.914  19.522  17.752  1.00  0.00    -0.238 OA
ATOM     36  H3  UNL     1      14.008  22.233  19.299  1.00  0.00     0.165 HD
BRANCH  34  37
HETATM   37  O7  UNL     1      13.525  19.573  19.523  1.00  0.00    -0.299 OA
BRANCH  37  38
HETATM   38  C22 UNL     1      12.199  19.200  19.216  1.00  0.00     0.136 C 
HETATM   39  C23 UNL     1      12.006  17.739  18.976  1.00  0.00     0.040 C 
HETATM   40  C24 UNL     1      10.620  17.739  18.315  1.00  0.00     0.019 C 
HETATM   41  C25 UNL     1      10.454  16.602  17.352  1.00  0.00     0.033 C 
HETATM   42  C27 UNL     1      10.674  18.962  17.442  1.00  0.00     0.128 C 
HETATM   43  C26 UNL     1      11.008  17.215  16.072  1.00  0.00     0.168 C 
HETATM   44  O8  UNL     1      10.706  18.563  16.132  1.00  0.00    -0.385 OA
HETATM   45  C28 UNL     1      11.843  19.791  17.861  1.00  0.00     0.065 C 
ENDBRANCH  37  38
ENDBRANCH  34  37
ENDBRANCH  25  33
ENDBRANCH   1  25
TORSDOF 14
ENDMDL
