MODEL 18
REMARK VINA RESULT: -8.673485872      1.953      8.468
REMARK  14 active torsions:
REMARK  status: ('A' for Active; 'I' for Inactive)
REMARK    1  A    between atoms: O1_2  and  C2_3 
REMARK    2  A    between atoms: C5_6  and  S1_7 
REMARK    3  A    between atoms: S1_7  and  N1_10 
REMARK    4  A    between atoms: N1_10  and  C6_11 
REMARK    5  A    between atoms: N1_10  and  C11_19 
REMARK    6  A    between atoms: C6_11  and  C7_12 
REMARK    7  A    between atoms: C11_19  and  C12_20 
REMARK    8  A    between atoms: C12_20  and  O5_21 
REMARK    9  A    between atoms: C12_20  and  C13_23 
REMARK   10  A    between atoms: C13_23  and  C14_24 
REMARK   11  A    between atoms: C13_23  and  N3_31 
REMARK   12  A    between atoms: C14_24  and  C15_25 
REMARK       I    between atoms: N3_31  and  C21_33 
REMARK   13  A    between atoms: C21_33  and  O7_35 
REMARK   14  A    between atoms: O7_35  and  C22_36 
ROOT
HETATM    1  C12 UNL     1      16.391  24.699  17.873  1.00  0.00     0.155 C 
ENDROOT
BRANCH   1   2
HETATM    2  C11 UNL     1      17.398  25.535  17.179  1.00  0.00     0.141 C 
BRANCH   2   3
HETATM    3  N1  UNL     1      18.727  25.084  17.307  1.00  0.00    -0.202 NA
BRANCH   3   4
HETATM    4  S1  UNL     1      19.597  25.258  15.863  1.00  0.00     0.243 S 
HETATM    5  O2  UNL     1      20.181  23.916  15.478  1.00  0.00    -0.206 OA
HETATM    6  O3  UNL     1      18.649  25.605  14.701  1.00  0.00    -0.206 OA
BRANCH   4   7
HETATM    7  C5  UNL     1      20.859  26.420  15.835  1.00  0.00     0.074 A 
HETATM    8  C4  UNL     1      21.177  27.127  14.699  1.00  0.00     0.027 A 
HETATM    9  C3  UNL     1      22.185  28.089  14.683  1.00  0.00     0.038 A 
HETATM   10  C2  UNL     1      22.907  28.366  15.816  1.00  0.00     0.068 A 
HETATM   11  C30 UNL     1      22.601  27.664  16.966  1.00  0.00     0.038 A 
HETATM   12  C29 UNL     1      21.613  26.721  16.979  1.00  0.00     0.027 A 
BRANCH  10  13
HETATM   13  O1  UNL     1      23.913  29.294  15.886  1.00  0.00    -0.356 OA
HETATM   14  C1  UNL     1      25.268  29.052  15.584  1.00  0.00     0.210 C 
ENDBRANCH  10  13
ENDBRANCH   4   7
ENDBRANCH   3   4
BRANCH   3  15
HETATM   15  C6  UNL     1      18.974  23.873  17.948  1.00  0.00     0.133 C 
BRANCH  15  16
HETATM   16  C7  UNL     1      19.808  23.816  19.158  1.00  0.00     0.099 C 
HETATM   17  C8  UNL     1      19.544  24.785  20.258  1.00  0.00     0.035 C 
HETATM   18  C9  UNL     1      20.285  24.164  21.478  1.00  0.00     0.105 C 
HETATM   19  C10 UNL     1      19.949  22.724  21.224  1.00  0.00     0.217 C 
HETATM   20  O4  UNL     1      20.078  21.845  22.111  1.00  0.00    -0.274 OA
HETATM   21  N2  UNL     1      19.484  22.562  19.866  1.00  0.00    -0.355 N 
ATOM     22  H2  UNL     1      19.023  21.742  19.474  1.00  0.00     0.162 HD
ENDBRANCH  15  16
ENDBRANCH   3  15
ENDBRANCH   2   3
ENDBRANCH   1   2
BRANCH   1  23
HETATM   23  O5  UNL     1      15.428  25.494  18.486  1.00  0.00    -0.392 OA
ATOM     24  H5  UNL     1      14.577  25.070  18.466  1.00  0.00     0.210 HD
ENDBRANCH   1  23
BRANCH   1  25
HETATM   25  C13 UNL     1      15.725  23.627  17.094  1.00  0.00     0.120 C 
BRANCH  25  26
HETATM   26  C14 UNL     1      14.633  24.040  16.171  1.00  0.00     0.066 C 
BRANCH  26  27
HETATM   27  C15 UNL     1      14.366  23.178  15.035  1.00  0.00    -0.056 A 
HETATM   28  C16 UNL     1      13.077  22.955  14.600  1.00  0.00     0.007 A 
HETATM   29  C17 UNL     1      12.775  22.137  13.535  1.00  0.00     0.001 A 
HETATM   30  C18 UNL     1      13.812  21.503  12.861  1.00  0.00     0.000 A 
HETATM   31  C19 UNL     1      15.109  21.704  13.268  1.00  0.00     0.001 A 
HETATM   32  C20 UNL     1      15.379  22.546  14.361  1.00  0.00     0.007 A 
ENDBRANCH  26  27
ENDBRANCH  25  26
BRANCH  25  33
HETATM   33  N3  UNL     1      15.225  22.652  18.087  1.00  0.00    -0.329 N 
HETATM   34  C21 UNL     1      15.716  21.322  18.117  1.00  0.00     0.361 C 
HETATM   35  O6  UNL     1      16.605  20.938  17.283  1.00  0.00    -0.238 OA
ATOM     36  H3  UNL     1      14.515  22.940  18.762  1.00  0.00     0.165 HD
BRANCH  34  37
HETATM   37  O7  UNL     1      15.294  20.355  19.018  1.00  0.00    -0.299 OA
BRANCH  37  38
HETATM   38  C22 UNL     1      13.925  20.075  19.219  1.00  0.00     0.136 C 
HETATM   39  C23 UNL     1      13.635  18.676  19.653  1.00  0.00     0.040 C 
HETATM   40  C24 UNL     1      12.122  18.607  19.404  1.00  0.00     0.019 C 
HETATM   41  C25 UNL     1      11.668  17.220  19.062  1.00  0.00     0.033 C 
HETATM   42  C27 UNL     1      11.966  19.377  18.121  1.00  0.00     0.128 C 
HETATM   43  C26 UNL     1      11.865  17.207  17.551  1.00  0.00     0.168 C 
HETATM   44  O8  UNL     1      11.627  18.500  17.124  1.00  0.00    -0.385 OA
HETATM   45  C28 UNL     1      13.226  20.136  17.869  1.00  0.00     0.065 C 
ENDBRANCH  37  38
ENDBRANCH  34  37
ENDBRANCH  25  33
ENDBRANCH   1  25
TORSDOF 14
ENDMDL
