MODEL 2
REMARK VINA RESULT: -9.130703294      2.974      6.929
REMARK  14 active torsions:
REMARK  status: ('A' for Active; 'I' for Inactive)
REMARK    1  A    between atoms: O1_2  and  C2_3 
REMARK    2  A    between atoms: C5_6  and  S1_7 
REMARK    3  A    between atoms: S1_7  and  N1_10 
REMARK    4  A    between atoms: N1_10  and  C6_11 
REMARK    5  A    between atoms: N1_10  and  C11_19 
REMARK    6  A    between atoms: C6_11  and  C7_12 
REMARK    7  A    between atoms: C11_19  and  C12_20 
REMARK    8  A    between atoms: C12_20  and  O5_21 
REMARK    9  A    between atoms: C12_20  and  C13_23 
REMARK   10  A    between atoms: C13_23  and  C14_24 
REMARK   11  A    between atoms: C13_23  and  N3_31 
REMARK   12  A    between atoms: C14_24  and  C15_25 
REMARK       I    between atoms: N3_31  and  C21_33 
REMARK   13  A    between atoms: C21_33  and  O7_35 
REMARK   14  A    between atoms: O7_35  and  C22_36 
ROOT
HETATM    1  C12 UNL     1      15.366  23.692  17.381  1.00  0.00     0.155 C 
ENDROOT
BRANCH   1   2
HETATM    2  C11 UNL     1      14.216  22.813  17.063  1.00  0.00     0.141 C 
BRANCH   2   3
HETATM    3  N1  UNL     1      14.532  21.694  16.267  1.00  0.00    -0.202 NA
BRANCH   3   4
HETATM    4  S1  UNL     1      14.199  21.968  14.628  1.00  0.00     0.243 S 
HETATM    5  O2  UNL     1      14.136  23.461  14.383  1.00  0.00    -0.206 OA
HETATM    6  O3  UNL     1      15.371  21.492  13.751  1.00  0.00    -0.206 OA
BRANCH   4   7
HETATM    7  C5  UNL     1      12.777  21.259  13.980  1.00  0.00     0.074 A 
HETATM    8  C4  UNL     1      11.524  21.757  14.251  1.00  0.00     0.027 A 
HETATM    9  C3  UNL     1      10.371  21.196  13.705  1.00  0.00     0.038 A 
HETATM   10  C2  UNL     1      10.448  20.112  12.867  1.00  0.00     0.068 A 
HETATM   11  C30 UNL     1      11.699  19.600  12.586  1.00  0.00     0.038 A 
HETATM   12  C29 UNL     1      12.828  20.151  13.122  1.00  0.00     0.027 A 
BRANCH  10  13
HETATM   13  O1  UNL     1       9.366  19.502  12.290  1.00  0.00    -0.356 OA
HETATM   14  C1  UNL     1       9.025  19.568  10.925  1.00  0.00     0.210 C 
ENDBRANCH  10  13
ENDBRANCH   4   7
ENDBRANCH   3   4
BRANCH   3  15
HETATM   15  C6  UNL     1      14.149  20.426  16.695  1.00  0.00     0.133 C 
BRANCH  15  16
HETATM   16  C7  UNL     1      12.819  20.197  17.280  1.00  0.00     0.099 C 
HETATM   17  C8  UNL     1      12.018  19.035  16.807  1.00  0.00     0.035 C 
HETATM   18  C9  UNL     1      10.928  18.871  17.907  1.00  0.00     0.105 C 
HETATM   19  C10 UNL     1      11.786  19.156  19.104  1.00  0.00     0.217 C 
HETATM   20  O4  UNL     1      11.424  18.855  20.268  1.00  0.00    -0.274 OA
HETATM   21  N2  UNL     1      13.013  19.794  18.687  1.00  0.00    -0.355 N 
ATOM     22  H2  UNL     1      13.849  19.937  19.253  1.00  0.00     0.162 HD
ENDBRANCH  15  16
ENDBRANCH   3  15
ENDBRANCH   2   3
ENDBRANCH   1   2
BRANCH   1  23
HETATM   23  O5  UNL     1      14.956  24.787  18.135  1.00  0.00    -0.392 OA
ATOM     24  H5  UNL     1      15.378  25.583  17.831  1.00  0.00     0.210 HD
ENDBRANCH   1  23
BRANCH   1  25
HETATM   25  C13 UNL     1      16.556  23.074  18.013  1.00  0.00     0.120 C 
BRANCH  25  26
HETATM   26  C14 UNL     1      16.515  22.881  19.489  1.00  0.00     0.066 C 
BRANCH  26  27
HETATM   27  C15 UNL     1      17.782  22.925  20.196  1.00  0.00    -0.056 A 
HETATM   28  C16 UNL     1      18.539  21.785  20.365  1.00  0.00     0.007 A 
HETATM   29  C17 UNL     1      19.740  21.776  21.037  1.00  0.00     0.001 A 
HETATM   30  C18 UNL     1      20.218  22.966  21.573  1.00  0.00     0.000 A 
HETATM   31  C19 UNL     1      19.489  24.120  21.422  1.00  0.00     0.001 A 
HETATM   32  C20 UNL     1      18.265  24.091  20.729  1.00  0.00     0.007 A 
ENDBRANCH  26  27
ENDBRANCH  25  26
BRANCH  25  33
HETATM   33  N3  UNL     1      17.707  23.921  17.631  1.00  0.00    -0.329 N 
HETATM   34  C21 UNL     1      18.705  23.441  16.745  1.00  0.00     0.361 C 
HETATM   35  O6  UNL     1      18.628  22.263  16.256  1.00  0.00    -0.238 OA
ATOM     36  H3  UNL     1      17.784  24.865  18.011  1.00  0.00     0.165 HD
BRANCH  34  37
HETATM   37  O7  UNL     1      19.810  24.178  16.343  1.00  0.00    -0.299 OA
BRANCH  37  38
HETATM   38  C22 UNL     1      19.710  25.194  15.368  1.00  0.00     0.136 C 
HETATM   39  C23 UNL     1      21.010  25.591  14.751  1.00  0.00     0.040 C 
HETATM   40  C24 UNL     1      20.613  26.911  14.073  1.00  0.00     0.019 C 
HETATM   41  C25 UNL     1      21.761  27.872  13.992  1.00  0.00     0.033 C 
HETATM   42  C27 UNL     1      19.680  27.527  15.079  1.00  0.00     0.128 C 
HETATM   43  C26 UNL     1      21.644  28.586  15.333  1.00  0.00     0.168 C 
HETATM   44  O8  UNL     1      20.295  28.620  15.633  1.00  0.00    -0.385 OA
HETATM   45  C28 UNL     1      19.287  26.478  16.065  1.00  0.00     0.065 C 
ENDBRANCH  37  38
ENDBRANCH  34  37
ENDBRANCH  25  33
ENDBRANCH   1  25
TORSDOF 14
ENDMDL
