MODEL 1
REMARK VINA RESULT: -9.378426318      0.000      0.000
REMARK  14 active torsions:
REMARK  status: ('A' for Active; 'I' for Inactive)
REMARK    1  A    between atoms: O1_2  and  C2_3 
REMARK    2  A    between atoms: C5_6  and  S1_7 
REMARK    3  A    between atoms: S1_7  and  N1_10 
REMARK    4  A    between atoms: N1_10  and  C6_11 
REMARK    5  A    between atoms: N1_10  and  C11_19 
REMARK    6  A    between atoms: C6_11  and  C7_12 
REMARK    7  A    between atoms: C11_19  and  C12_20 
REMARK    8  A    between atoms: C12_20  and  O5_21 
REMARK    9  A    between atoms: C12_20  and  C13_23 
REMARK   10  A    between atoms: C13_23  and  C14_24 
REMARK   11  A    between atoms: C13_23  and  N3_31 
REMARK   12  A    between atoms: C14_24  and  C15_25 
REMARK       I    between atoms: N3_31  and  C21_33 
REMARK   13  A    between atoms: C21_33  and  O7_35 
REMARK   14  A    between atoms: O7_35  and  C22_36 
ROOT
HETATM    1  C12 UNL     1      17.005  24.781  17.151  1.00  0.00     0.155 C 
ENDROOT
BRANCH   1   2
HETATM    2  C11 UNL     1      18.228  24.845  17.985  1.00  0.00     0.141 C 
BRANCH   2   3
HETATM    3  N1  UNL     1      18.904  23.617  18.133  1.00  0.00    -0.202 NA
BRANCH   3   4
HETATM    4  S1  UNL     1      18.059  22.546  19.138  1.00  0.00     0.243 S 
HETATM    5  O2  UNL     1      19.001  21.451  19.591  1.00  0.00    -0.206 OA
HETATM    6  O3  UNL     1      17.640  23.247  20.443  1.00  0.00    -0.206 OA
BRANCH   4   7
HETATM    7  C5  UNL     1      16.648  21.808  18.499  1.00  0.00     0.074 A 
HETATM    8  C4  UNL     1      16.705  20.675  17.721  1.00  0.00     0.027 A 
HETATM    9  C3  UNL     1      15.558  20.061  17.222  1.00  0.00     0.038 A 
HETATM   10  C2  UNL     1      14.314  20.574  17.493  1.00  0.00     0.068 A 
HETATM   11  C30 UNL     1      14.240  21.712  18.273  1.00  0.00     0.038 A 
HETATM   12  C29 UNL     1      15.366  22.312  18.761  1.00  0.00     0.027 A 
BRANCH  10  13
HETATM   13  O1  UNL     1      13.138  20.034  17.043  1.00  0.00    -0.356 OA
HETATM   14  C1  UNL     1      11.959  19.901  17.801  1.00  0.00     0.210 C 
ENDBRANCH  10  13
ENDBRANCH   4   7
ENDBRANCH   3   4
BRANCH   3  15
HETATM   15  C6  UNL     1      20.275  23.622  18.375  1.00  0.00     0.133 C 
BRANCH  15  16
HETATM   16  C7  UNL     1      20.863  24.531  19.370  1.00  0.00     0.099 C 
HETATM   17  C8  UNL     1      21.146  24.013  20.737  1.00  0.00     0.035 C 
HETATM   18  C9  UNL     1      22.117  25.072  21.335  1.00  0.00     0.105 C 
HETATM   19  C10 UNL     1      22.935  25.333  20.106  1.00  0.00     0.217 C 
HETATM   20  O4  UNL     1      24.050  25.908  20.159  1.00  0.00    -0.274 OA
HETATM   21  N2  UNL     1      22.243  24.832  18.941  1.00  0.00    -0.355 N 
ATOM     22  H2  UNL     1      22.632  24.709  18.007  1.00  0.00     0.162 HD
ENDBRANCH  15  16
ENDBRANCH   3  15
ENDBRANCH   2   3
ENDBRANCH   1   2
BRANCH   1  23
HETATM   23  O5  UNL     1      16.193  25.887  17.381  1.00  0.00    -0.392 OA
ATOM     24  H5  UNL     1      15.309  25.726  17.073  1.00  0.00     0.210 HD
ENDBRANCH   1  23
BRANCH   1  25
HETATM   25  C13 UNL     1      17.172  24.585  15.691  1.00  0.00     0.120 C 
BRANCH  25  26
HETATM   26  C14 UNL     1      16.927  23.216  15.159  1.00  0.00     0.066 C 
BRANCH  26  27
HETATM   27  C15 UNL     1      15.565  22.892  14.773  1.00  0.00    -0.056 A 
HETATM   28  C16 UNL     1      15.299  21.817  13.951  1.00  0.00     0.007 A 
HETATM   29  C17 UNL     1      14.026  21.477  13.551  1.00  0.00     0.001 A 
HETATM   30  C18 UNL     1      12.957  22.248  13.990  1.00  0.00     0.000 A 
HETATM   31  C19 UNL     1      13.188  23.326  14.810  1.00  0.00     0.001 A 
HETATM   32  C20 UNL     1      14.501  23.643  15.198  1.00  0.00     0.007 A 
ENDBRANCH  26  27
ENDBRANCH  25  26
BRANCH  25  33
HETATM   33  N3  UNL     1      18.548  25.027  15.374  1.00  0.00    -0.329 N 
HETATM   34  C21 UNL     1      18.782  26.120  14.502  1.00  0.00     0.361 C 
HETATM   35  O6  UNL     1      17.804  26.748  13.970  1.00  0.00    -0.238 OA
ATOM     36  H3  UNL     1      19.340  24.537  15.791  1.00  0.00     0.165 HD
BRANCH  34  37
HETATM   37  O7  UNL     1      20.042  26.588  14.160  1.00  0.00    -0.299 OA
BRANCH  37  38
HETATM   38  C22 UNL     1      20.700  27.575  14.927  1.00  0.00     0.136 C 
HETATM   39  C23 UNL     1      21.999  28.040  14.357  1.00  0.00     0.040 C 
HETATM   40  C24 UNL     1      22.599  28.767  15.569  1.00  0.00     0.019 C 
HETATM   41  C25 UNL     1      24.097  28.721  15.570  1.00  0.00     0.033 C 
HETATM   42  C27 UNL     1      22.197  27.880  16.715  1.00  0.00     0.128 C 
HETATM   43  C26 UNL     1      24.352  27.407  16.298  1.00  0.00     0.168 C 
HETATM   44  O8  UNL     1      23.319  27.266  17.206  1.00  0.00    -0.385 OA
HETATM   45  C28 UNL     1      21.141  26.939  16.237  1.00  0.00     0.065 C 
ENDBRANCH  37  38
ENDBRANCH  34  37
ENDBRANCH  25  33
ENDBRANCH   1  25
TORSDOF 14
ENDMDL
