MODEL 3
REMARK VINA RESULT: -9.096896054      2.499      7.478
REMARK  14 active torsions:
REMARK  status: ('A' for Active; 'I' for Inactive)
REMARK    1  A    between atoms: O1_2  and  C2_3 
REMARK    2  A    between atoms: C5_6  and  S1_7 
REMARK    3  A    between atoms: S1_7  and  N1_10 
REMARK    4  A    between atoms: N1_10  and  C6_11 
REMARK    5  A    between atoms: N1_10  and  C11_19 
REMARK    6  A    between atoms: C6_11  and  C7_12 
REMARK    7  A    between atoms: C11_19  and  C12_20 
REMARK    8  A    between atoms: C12_20  and  O5_21 
REMARK    9  A    between atoms: C12_20  and  C13_23 
REMARK   10  A    between atoms: C13_23  and  C14_24 
REMARK   11  A    between atoms: C13_23  and  N3_31 
REMARK   12  A    between atoms: C14_24  and  C15_25 
REMARK       I    between atoms: N3_31  and  C21_33 
REMARK   13  A    between atoms: C21_33  and  O7_35 
REMARK   14  A    between atoms: O7_35  and  C22_36 
ROOT
HETATM    1  C12 UNL     1      15.523  23.636  17.645  1.00  0.00     0.155 C 
ENDROOT
BRANCH   1   2
HETATM    2  C11 UNL     1      14.524  23.801  16.563  1.00  0.00     0.141 C 
BRANCH   2   3
HETATM    3  N1  UNL     1      14.558  22.800  15.571  1.00  0.00    -0.202 NA
BRANCH   3   4
HETATM    4  S1  UNL     1      16.116  22.592  14.936  1.00  0.00     0.243 S 
HETATM    5  O2  UNL     1      16.711  21.320  15.503  1.00  0.00    -0.206 OA
HETATM    6  O3  UNL     1      16.051  22.335  13.420  1.00  0.00    -0.206 OA
BRANCH   4   7
HETATM    7  C5  UNL     1      17.244  23.863  15.175  1.00  0.00     0.074 A 
HETATM    8  C4  UNL     1      18.408  23.683  15.885  1.00  0.00     0.027 A 
HETATM    9  C3  UNL     1      19.336  24.708  16.058  1.00  0.00     0.038 A 
HETATM   10  C2  UNL     1      19.116  25.950  15.518  1.00  0.00     0.068 A 
HETATM   11  C30 UNL     1      17.951  26.148  14.803  1.00  0.00     0.038 A 
HETATM   12  C29 UNL     1      17.043  25.142  14.635  1.00  0.00     0.027 A 
BRANCH  10  13
HETATM   13  O1  UNL     1      19.975  27.011  15.640  1.00  0.00    -0.356 OA
HETATM   14  C1  UNL     1      20.041  28.112  14.765  1.00  0.00     0.210 C 
ENDBRANCH  10  13
ENDBRANCH   4   7
ENDBRANCH   3   4
BRANCH   3  15
HETATM   15  C6  UNL     1      13.566  22.777  14.595  1.00  0.00     0.133 C 
BRANCH  15  16
HETATM   16  C7  UNL     1      12.670  21.619  14.458  1.00  0.00     0.099 C 
HETATM   17  C8  UNL     1      12.855  20.457  15.370  1.00  0.00     0.035 C 
HETATM   18  C9  UNL     1      11.521  19.666  15.229  1.00  0.00     0.105 C 
HETATM   19  C10 UNL     1      10.583  20.835  15.173  1.00  0.00     0.217 C 
HETATM   20  O4  UNL     1       9.348  20.706  15.358  1.00  0.00    -0.274 OA
HETATM   21  N2  UNL     1      11.322  22.043  14.887  1.00  0.00    -0.355 N 
ATOM     22  H2  UNL     1      10.980  23.000  14.966  1.00  0.00     0.162 HD
ENDBRANCH  15  16
ENDBRANCH   3  15
ENDBRANCH   2   3
ENDBRANCH   1   2
BRANCH   1  23
HETATM   23  O5  UNL     1      15.436  24.680  18.559  1.00  0.00    -0.392 OA
ATOM     24  H5  UNL     1      16.201  24.699  19.123  1.00  0.00     0.210 HD
ENDBRANCH   1  23
BRANCH   1  25
HETATM   25  C13 UNL     1      15.551  22.343  18.370  1.00  0.00     0.120 C 
BRANCH  25  26
HETATM   26  C14 UNL     1      14.244  21.796  18.827  1.00  0.00     0.066 C 
BRANCH  26  27
HETATM   27  C15 UNL     1      14.036  20.367  18.674  1.00  0.00    -0.056 A 
HETATM   28  C16 UNL     1      14.995  19.570  18.085  1.00  0.00     0.007 A 
HETATM   29  C17 UNL     1      14.838  18.214  17.908  1.00  0.00     0.001 A 
HETATM   30  C18 UNL     1      13.662  17.613  18.341  1.00  0.00     0.000 A 
HETATM   31  C19 UNL     1      12.686  18.379  18.933  1.00  0.00     0.001 A 
HETATM   32  C20 UNL     1      12.881  19.761  19.096  1.00  0.00     0.007 A 
ENDBRANCH  26  27
ENDBRANCH  25  26
BRANCH  25  33
HETATM   33  N3  UNL     1      16.462  22.540  19.518  1.00  0.00    -0.329 N 
HETATM   34  C21 UNL     1      17.762  21.973  19.525  1.00  0.00     0.361 C 
HETATM   35  O6  UNL     1      18.174  21.279  18.533  1.00  0.00    -0.238 OA
ATOM     36  H3  UNL     1      16.151  23.091  20.318  1.00  0.00     0.165 HD
BRANCH  34  37
HETATM   37  O7  UNL     1      18.670  22.115  20.564  1.00  0.00    -0.299 OA
BRANCH  37  38
HETATM   38  C22 UNL     1      19.173  23.379  20.943  1.00  0.00     0.136 C 
HETATM   39  C23 UNL     1      19.394  24.323  19.808  1.00  0.00     0.040 C 
HETATM   40  C24 UNL     1      20.268  25.387  20.488  1.00  0.00     0.019 C 
HETATM   41  C25 UNL     1      21.209  26.045  19.524  1.00  0.00     0.033 C 
HETATM   42  C27 UNL     1      21.160  24.560  21.374  1.00  0.00     0.128 C 
HETATM   43  C26 UNL     1      22.403  25.101  19.584  1.00  0.00     0.168 C 
HETATM   44  O8  UNL     1      22.435  24.605  20.874  1.00  0.00    -0.385 OA
HETATM   45  C28 UNL     1      20.586  23.186  21.472  1.00  0.00     0.065 C 
ENDBRANCH  37  38
ENDBRANCH  34  37
ENDBRANCH  25  33
ENDBRANCH   1  25
TORSDOF 14
ENDMDL
