MODEL 4
REMARK VINA RESULT: -10.555840721      2.909      6.817
REMARK  14 active torsions:
REMARK  status: ('A' for Active; 'I' for Inactive)
REMARK    1  A    between atoms: O1_2  and  C2_3 
REMARK    2  A    between atoms: C5_6  and  S1_7 
REMARK    3  A    between atoms: S1_7  and  N1_10 
REMARK    4  A    between atoms: N1_10  and  C6_11 
REMARK    5  A    between atoms: N1_10  and  C11_19 
REMARK    6  A    between atoms: C6_11  and  C7_12 
REMARK    7  A    between atoms: C11_19  and  C12_20 
REMARK    8  A    between atoms: C12_20  and  O5_21 
REMARK    9  A    between atoms: C12_20  and  C13_23 
REMARK   10  A    between atoms: C13_23  and  C14_24 
REMARK   11  A    between atoms: C13_23  and  N3_31 
REMARK   12  A    between atoms: C14_24  and  C15_25 
REMARK       I    between atoms: N3_31  and  C21_33 
REMARK   13  A    between atoms: C21_33  and  O7_35 
REMARK   14  A    between atoms: O7_35  and  C22_36 
ROOT
HETATM    1  C12 UNL     1      11.893  18.281  17.233  1.00  0.00     0.155 C 
ENDROOT
BRANCH   1   2
HETATM    2  C11 UNL     1      10.622  17.938  17.913  1.00  0.00     0.141 C 
BRANCH   2   3
HETATM    3  N1  UNL     1       9.862  19.046  18.337  1.00  0.00    -0.202 NA
BRANCH   3   4
HETATM    4  S1  UNL     1      10.685  19.971  19.496  1.00  0.00     0.243 S 
HETATM    5  O2  UNL     1       9.686  20.841  20.228  1.00  0.00    -0.206 OA
HETATM    6  O3  UNL     1      11.271  19.064  20.593  1.00  0.00    -0.206 OA
BRANCH   4   7
HETATM    7  C5  UNL     1      11.965  20.971  18.945  1.00  0.00     0.074 A 
HETATM    8  C4  UNL     1      11.735  22.138  18.255  1.00  0.00     0.027 A 
HETATM    9  C3  UNL     1      12.773  22.965  17.829  1.00  0.00     0.038 A 
HETATM   10  C2  UNL     1      14.080  22.636  18.088  1.00  0.00     0.068 A 
HETATM   11  C30 UNL     1      14.328  21.467  18.780  1.00  0.00     0.038 A 
HETATM   12  C29 UNL     1      13.309  20.659  19.196  1.00  0.00     0.027 A 
BRANCH  10  13
HETATM   13  O1  UNL     1      15.158  23.391  17.706  1.00  0.00    -0.356 OA
HETATM   14  C1  UNL     1      16.500  23.125  18.042  1.00  0.00     0.210 C 
ENDBRANCH  10  13
ENDBRANCH   4   7
ENDBRANCH   3   4
BRANCH   3  15
HETATM   15  C6  UNL     1       8.515  18.871  18.639  1.00  0.00     0.133 C 
BRANCH  15  16
HETATM   16  C7  UNL     1       8.028  17.607  19.211  1.00  0.00     0.099 C 
HETATM   17  C8  UNL     1       7.945  17.475  20.692  1.00  0.00     0.035 C 
HETATM   18  C9  UNL     1       7.021  16.239  20.898  1.00  0.00     0.105 C 
HETATM   19  C10 UNL     1       6.040  16.519  19.798  1.00  0.00     0.217 C 
HETATM   20  O4  UNL     1       4.920  15.952  19.747  1.00  0.00    -0.274 OA
HETATM   21  N2  UNL     1       6.593  17.491  18.884  1.00  0.00    -0.355 N 
ATOM     22  H2  UNL     1       6.090  17.997  18.156  1.00  0.00     0.162 HD
ENDBRANCH  15  16
ENDBRANCH   3  15
ENDBRANCH   2   3
ENDBRANCH   1   2
BRANCH   1  23
HETATM   23  O5  UNL     1      12.866  17.321  17.492  1.00  0.00    -0.392 OA
ATOM     24  H5  UNL     1      13.729  17.717  17.531  1.00  0.00     0.210 HD
ENDBRANCH   1  23
BRANCH   1  25
HETATM   25  C13 UNL     1      11.848  18.560  15.778  1.00  0.00     0.120 C 
BRANCH  25  26
HETATM   26  C14 UNL     1      12.057  19.972  15.353  1.00  0.00     0.066 C 
BRANCH  26  27
HETATM   27  C15 UNL     1      13.428  20.405  15.153  1.00  0.00    -0.056 A 
HETATM   28  C16 UNL     1      14.486  19.637  15.593  1.00  0.00     0.007 A 
HETATM   29  C17 UNL     1      15.801  20.012  15.435  1.00  0.00     0.001 A 
HETATM   30  C18 UNL     1      16.084  21.218  14.804  1.00  0.00     0.000 A 
HETATM   31  C19 UNL     1      15.053  22.006  14.353  1.00  0.00     0.001 A 
HETATM   32  C20 UNL     1      13.722  21.592  14.533  1.00  0.00     0.007 A 
ENDBRANCH  26  27
ENDBRANCH  25  26
BRANCH  25  33
HETATM   33  N3  UNL     1      10.535  18.066  15.309  1.00  0.00    -0.329 N 
HETATM   34  C21 UNL     1      10.444  16.954  14.434  1.00  0.00     0.361 C 
HETATM   35  O6  UNL     1      11.499  16.353  14.033  1.00  0.00    -0.238 OA
ATOM     36  H3  UNL     1       9.683  18.532  15.619  1.00  0.00     0.165 HD
BRANCH  34  37
HETATM   37  O7  UNL     1       9.250  16.436  13.954  1.00  0.00    -0.299 OA
BRANCH  37  38
HETATM   38  C22 UNL     1       8.583  15.378  14.610  1.00  0.00     0.136 C 
HETATM   39  C23 UNL     1       7.415  14.823  13.862  1.00  0.00     0.040 C 
HETATM   40  C24 UNL     1       6.724  14.017  14.971  1.00  0.00     0.019 C 
HETATM   41  C25 UNL     1       5.240  13.939  14.771  1.00  0.00     0.033 C 
HETATM   42  C27 UNL     1       6.892  14.904  16.174  1.00  0.00     0.128 C 
HETATM   43  C26 UNL     1       4.780  15.208  15.478  1.00  0.00     0.168 C 
HETATM   44  O8  UNL     1       5.667  15.409  16.519  1.00  0.00    -0.385 OA
HETATM   45  C28 UNL     1       7.918  15.940  15.857  1.00  0.00     0.065 C 
ENDBRANCH  37  38
ENDBRANCH  34  37
ENDBRANCH  25  33
ENDBRANCH   1  25
TORSDOF 14
ENDMDL
