MODEL 8
REMARK VINA RESULT: -10.445383597      2.248      9.675
REMARK  14 active torsions:
REMARK  status: ('A' for Active; 'I' for Inactive)
REMARK    1  A    between atoms: O1_2  and  C2_3 
REMARK    2  A    between atoms: C5_6  and  S1_7 
REMARK    3  A    between atoms: S1_7  and  N1_10 
REMARK    4  A    between atoms: N1_10  and  C6_11 
REMARK    5  A    between atoms: N1_10  and  C11_19 
REMARK    6  A    between atoms: C6_11  and  C7_12 
REMARK    7  A    between atoms: C11_19  and  C12_20 
REMARK    8  A    between atoms: C12_20  and  O5_21 
REMARK    9  A    between atoms: C12_20  and  C13_23 
REMARK   10  A    between atoms: C13_23  and  C14_24 
REMARK   11  A    between atoms: C13_23  and  N3_31 
REMARK   12  A    between atoms: C14_24  and  C15_25 
REMARK       I    between atoms: N3_31  and  C21_33 
REMARK   13  A    between atoms: C21_33  and  O7_35 
REMARK   14  A    between atoms: O7_35  and  C22_36 
ROOT
HETATM    1  C12 UNL     1      12.505  20.575  18.645  1.00  0.00     0.155 C 
ENDROOT
BRANCH   1   2
HETATM    2  C11 UNL     1      12.345  19.138  18.316  1.00  0.00     0.141 C 
BRANCH   2   3
HETATM    3  N1  UNL     1      11.051  18.771  17.897  1.00  0.00    -0.202 NA
BRANCH   3   4
HETATM    4  S1  UNL     1      11.040  18.203  16.300  1.00  0.00     0.243 S 
HETATM    5  O2  UNL     1      10.744  19.361  15.370  1.00  0.00    -0.206 OA
HETATM    6  O3  UNL     1      12.446  17.735  15.884  1.00  0.00    -0.206 OA
BRANCH   4   7
HETATM    7  C5  UNL     1       9.960  16.924  15.922  1.00  0.00     0.074 A 
HETATM    8  C4  UNL     1       9.020  16.473  16.819  1.00  0.00     0.027 A 
HETATM    9  C3  UNL     1       8.126  15.451  16.504  1.00  0.00     0.038 A 
HETATM   10  C2  UNL     1       8.156  14.851  15.270  1.00  0.00     0.068 A 
HETATM   11  C30 UNL     1       9.094  15.293  14.359  1.00  0.00     0.038 A 
HETATM   12  C29 UNL     1       9.969  16.294  14.670  1.00  0.00     0.027 A 
BRANCH  10  13
HETATM   13  O1  UNL     1       7.315  13.842  14.880  1.00  0.00    -0.356 OA
HETATM   14  C1  UNL     1       5.908  13.892  14.918  1.00  0.00     0.210 C 
ENDBRANCH  10  13
ENDBRANCH   4   7
ENDBRANCH   3   4
BRANCH   3  15
HETATM   15  C6  UNL     1       9.980  19.613  18.182  1.00  0.00     0.133 C 
BRANCH  15  16
HETATM   16  C7  UNL     1       9.222  19.472  19.434  1.00  0.00     0.099 C 
HETATM   17  C8  UNL     1       9.601  18.391  20.385  1.00  0.00     0.035 C 
HETATM   18  C9  UNL     1       8.908  18.812  21.714  1.00  0.00     0.105 C 
HETATM   19  C10 UNL     1       9.156  20.289  21.627  1.00  0.00     0.217 C 
HETATM   20  O4  UNL     1       9.040  21.043  22.625  1.00  0.00    -0.274 OA
HETATM   21  N2  UNL     1       9.527  20.645  20.277  1.00  0.00    -0.355 N 
ATOM     22  H2  UNL     1       9.922  21.532  19.967  1.00  0.00     0.162 HD
ENDBRANCH  15  16
ENDBRANCH   3  15
ENDBRANCH   2   3
ENDBRANCH   1   2
BRANCH   1  23
HETATM   23  O5  UNL     1      12.682  20.750  20.013  1.00  0.00    -0.392 OA
ATOM     24  H5  UNL     1      13.508  21.185  20.193  1.00  0.00     0.210 HD
ENDBRANCH   1  23
BRANCH   1  25
HETATM   25  C13 UNL     1      13.538  21.343  17.909  1.00  0.00     0.120 C 
BRANCH  25  26
HETATM   26  C14 UNL     1      14.313  20.611  16.869  1.00  0.00     0.066 C 
BRANCH  26  27
HETATM   27  C15 UNL     1      14.508  21.282  15.597  1.00  0.00    -0.056 A 
HETATM   28  C16 UNL     1      13.782  20.915  14.483  1.00  0.00     0.007 A 
HETATM   29  C17 UNL     1      13.941  21.515  13.254  1.00  0.00     0.001 A 
HETATM   30  C18 UNL     1      14.872  22.538  13.122  1.00  0.00     0.000 A 
HETATM   31  C19 UNL     1      15.611  22.928  14.213  1.00  0.00     0.001 A 
HETATM   32  C20 UNL     1      15.423  22.292  15.452  1.00  0.00     0.007 A 
ENDBRANCH  26  27
ENDBRANCH  25  26
BRANCH  25  33
HETATM   33  N3  UNL     1      14.445  21.896  18.939  1.00  0.00    -0.329 N 
HETATM   34  C21 UNL     1      14.708  23.288  19.009  1.00  0.00     0.361 C 
HETATM   35  O6  UNL     1      14.163  24.095  18.181  1.00  0.00    -0.238 OA
ATOM     36  H3  UNL     1      14.888  21.267  19.608  1.00  0.00     0.165 HD
BRANCH  34  37
HETATM   37  O7  UNL     1      15.545  23.877  19.945  1.00  0.00    -0.299 OA
BRANCH  37  38
HETATM   38  C22 UNL     1      16.904  24.138  19.665  1.00  0.00     0.136 C 
HETATM   39  C23 UNL     1      17.230  25.581  19.464  1.00  0.00     0.040 C 
HETATM   40  C24 UNL     1      18.620  25.474  18.821  1.00  0.00     0.019 C 
HETATM   41  C25 UNL     1      18.901  26.614  17.890  1.00  0.00     0.033 C 
HETATM   42  C27 UNL     1      18.471  24.281  17.917  1.00  0.00     0.128 C 
HETATM   43  C26 UNL     1      18.315  26.083  16.587  1.00  0.00     0.168 C 
HETATM   44  O8  UNL     1      18.494  24.713  16.617  1.00  0.00    -0.385 OA
HETATM   45  C28 UNL     1      17.227  23.550  18.299  1.00  0.00     0.065 C 
ENDBRANCH  37  38
ENDBRANCH  34  37
ENDBRANCH  25  33
ENDBRANCH   1  25
TORSDOF 14
ENDMDL
