MODEL 2
REMARK VINA RESULT: -10.638963701      0.275      1.067
REMARK  14 active torsions:
REMARK  status: ('A' for Active; 'I' for Inactive)
REMARK    1  A    between atoms: O1_2  and  C2_3 
REMARK    2  A    between atoms: C5_6  and  S1_7 
REMARK    3  A    between atoms: S1_7  and  N1_10 
REMARK    4  A    between atoms: N1_10  and  C6_11 
REMARK    5  A    between atoms: N1_10  and  C11_19 
REMARK    6  A    between atoms: C6_11  and  C7_12 
REMARK    7  A    between atoms: C11_19  and  C12_20 
REMARK    8  A    between atoms: C12_20  and  O5_21 
REMARK    9  A    between atoms: C12_20  and  C13_23 
REMARK   10  A    between atoms: C13_23  and  C14_24 
REMARK   11  A    between atoms: C13_23  and  N3_31 
REMARK   12  A    between atoms: C14_24  and  C15_25 
REMARK       I    between atoms: N3_31  and  C21_33 
REMARK   13  A    between atoms: C21_33  and  O7_35 
REMARK   14  A    between atoms: O7_35  and  C22_36 
ROOT
HETATM    1  C12 UNL     1      13.530  19.365  17.712  1.00  0.00     0.155 C 
ENDROOT
BRANCH   1   2
HETATM    2  C11 UNL     1      14.529  20.457  17.791  1.00  0.00     0.141 C 
BRANCH   2   3
HETATM    3  N1  UNL     1      14.254  21.568  16.968  1.00  0.00    -0.202 NA
BRANCH   3   4
HETATM    4  S1  UNL     1      14.598  21.249  15.339  1.00  0.00     0.243 S 
HETATM    5  O2  UNL     1      14.882  19.771  15.178  1.00  0.00    -0.206 OA
HETATM    6  O3  UNL     1      13.353  21.492  14.467  1.00  0.00    -0.206 OA
BRANCH   4   7
HETATM    7  C5  UNL     1      15.886  22.124  14.618  1.00  0.00     0.074 A 
HETATM    8  C4  UNL     1      17.203  21.786  14.822  1.00  0.00     0.027 A 
HETATM    9  C3  UNL     1      18.249  22.480  14.216  1.00  0.00     0.038 A 
HETATM   10  C2  UNL     1      17.995  23.541  13.384  1.00  0.00     0.068 A 
HETATM   11  C30 UNL     1      16.677  23.894  13.169  1.00  0.00     0.038 A 
HETATM   12  C29 UNL     1      15.654  23.212  13.764  1.00  0.00     0.027 A 
BRANCH  10  13
HETATM   13  O1  UNL     1      18.962  24.276  12.750  1.00  0.00    -0.356 OA
HETATM   14  C1  UNL     1      18.729  25.403  11.938  1.00  0.00     0.210 C 
ENDBRANCH  10  13
ENDBRANCH   4   7
ENDBRANCH   3   4
BRANCH   3  15
HETATM   15  C6  UNL     1      14.668  22.833  17.374  1.00  0.00     0.133 C 
BRANCH  15  16
HETATM   16  C7  UNL     1      16.024  23.051  17.897  1.00  0.00     0.099 C 
HETATM   17  C8  UNL     1      16.816  24.202  17.383  1.00  0.00     0.035 C 
HETATM   18  C9  UNL     1      17.956  24.360  18.431  1.00  0.00     0.105 C 
HETATM   19  C10 UNL     1      17.149  24.092  19.667  1.00  0.00     0.217 C 
HETATM   20  O4  UNL     1      17.566  24.396  20.812  1.00  0.00    -0.274 OA
HETATM   21  N2  UNL     1      15.898  23.465  19.309  1.00  0.00    -0.355 N 
ATOM     22  H2  UNL     1      15.087  23.334  19.913  1.00  0.00     0.162 HD
ENDBRANCH  15  16
ENDBRANCH   3  15
ENDBRANCH   2   3
ENDBRANCH   1   2
BRANCH   1  23
HETATM   23  O5  UNL     1      13.874  18.320  18.564  1.00  0.00    -0.392 OA
ATOM     24  H5  UNL     1      13.177  17.676  18.605  1.00  0.00     0.210 HD
ENDBRANCH   1  23
BRANCH   1  25
HETATM   25  C13 UNL     1      12.103  19.716  17.910  1.00  0.00     0.120 C 
BRANCH  25  26
HETATM   26  C14 UNL     1      11.314  18.847  18.826  1.00  0.00     0.066 C 
BRANCH  26  27
HETATM   27  C15 UNL     1      10.654  19.494  19.946  1.00  0.00    -0.056 A 
HETATM   28  C16 UNL     1       9.851  18.777  20.807  1.00  0.00     0.007 A 
HETATM   29  C17 UNL     1       9.197  19.349  21.875  1.00  0.00     0.001 A 
HETATM   30  C18 UNL     1       9.349  20.712  22.102  1.00  0.00     0.000 A 
HETATM   31  C19 UNL     1      10.143  21.456  21.263  1.00  0.00     0.001 A 
HETATM   32  C20 UNL     1      10.794  20.837  20.182  1.00  0.00     0.007 A 
ENDBRANCH  26  27
ENDBRANCH  25  26
BRANCH  25  33
HETATM   33  N3  UNL     1      11.497  19.736  16.562  1.00  0.00    -0.329 N 
HETATM   34  C21 UNL     1      11.655  18.642  15.673  1.00  0.00     0.361 C 
HETATM   35  O6  UNL     1      12.328  17.613  16.022  1.00  0.00    -0.238 OA
ATOM     36  H3  UNL     1      10.956  20.549  16.266  1.00  0.00     0.165 HD
BRANCH  34  37
HETATM   37  O7  UNL     1      11.116  18.591  14.396  1.00  0.00    -0.299 OA
BRANCH  37  38
HETATM   38  C22 UNL     1       9.928  17.880  14.120  1.00  0.00     0.136 C 
HETATM   39  C23 UNL     1       8.807  18.156  15.067  1.00  0.00     0.040 C 
HETATM   40  C24 UNL     1       7.862  16.991  14.738  1.00  0.00     0.019 C 
HETATM   41  C25 UNL     1       7.044  16.575  15.923  1.00  0.00     0.033 C 
HETATM   42  C27 UNL     1       8.815  15.848  14.522  1.00  0.00     0.128 C 
HETATM   43  C26 UNL     1       7.974  15.566  16.584  1.00  0.00     0.168 C 
HETATM   44  O8  UNL     1       8.676  14.962  15.557  1.00  0.00    -0.385 OA
HETATM   45  C28 UNL     1      10.192  16.403  14.368  1.00  0.00     0.065 C 
ENDBRANCH  37  38
ENDBRANCH  34  37
ENDBRANCH  25  33
ENDBRANCH   1  25
TORSDOF 14
ENDMDL
