MODEL 3
REMARK VINA RESULT: -10.572372393      2.267      9.802
REMARK  14 active torsions:
REMARK  status: ('A' for Active; 'I' for Inactive)
REMARK    1  A    between atoms: O1_2  and  C2_3 
REMARK    2  A    between atoms: C5_6  and  S1_7 
REMARK    3  A    between atoms: S1_7  and  N1_10 
REMARK    4  A    between atoms: N1_10  and  C6_11 
REMARK    5  A    between atoms: N1_10  and  C11_19 
REMARK    6  A    between atoms: C6_11  and  C7_12 
REMARK    7  A    between atoms: C11_19  and  C12_20 
REMARK    8  A    between atoms: C12_20  and  O5_21 
REMARK    9  A    between atoms: C12_20  and  C13_23 
REMARK   10  A    between atoms: C13_23  and  C14_24 
REMARK   11  A    between atoms: C13_23  and  N3_31 
REMARK   12  A    between atoms: C14_24  and  C15_25 
REMARK       I    between atoms: N3_31  and  C21_33 
REMARK   13  A    between atoms: C21_33  and  O7_35 
REMARK   14  A    between atoms: O7_35  and  C22_36 
ROOT
HETATM    1  C12 UNL     1      13.090  18.805  17.631  1.00  0.00     0.155 C 
ENDROOT
BRANCH   1   2
HETATM    2  C11 UNL     1      12.269  17.718  17.046  1.00  0.00     0.141 C 
BRANCH   2   3
HETATM    3  N1  UNL     1      10.881  17.857  17.245  1.00  0.00    -0.202 NA
BRANCH   3   4
HETATM    4  S1  UNL     1      10.053  18.097  15.786  1.00  0.00     0.243 S 
HETATM    5  O2  UNL     1       9.310  19.415  15.855  1.00  0.00    -0.206 OA
HETATM    6  O3  UNL     1      11.047  18.285  14.626  1.00  0.00    -0.206 OA
BRANCH   4   7
HETATM    7  C5  UNL     1       8.944  16.883  15.296  1.00  0.00     0.074 A 
HETATM    8  C4  UNL     1       9.334  15.797  14.548  1.00  0.00     0.027 A 
HETATM    9  C3  UNL     1       8.439  14.797  14.170  1.00  0.00     0.038 A 
HETATM   10  C2  UNL     1       7.119  14.865  14.538  1.00  0.00     0.068 A 
HETATM   11  C30 UNL     1       6.711  15.949  15.289  1.00  0.00     0.038 A 
HETATM   12  C29 UNL     1       7.590  16.928  15.657  1.00  0.00     0.027 A 
BRANCH  10  13
HETATM   13  O1  UNL     1       6.175  13.927  14.210  1.00  0.00    -0.356 OA
HETATM   14  C1  UNL     1       4.934  13.758  14.855  1.00  0.00     0.210 C 
ENDBRANCH  10  13
ENDBRANCH   4   7
ENDBRANCH   3   4
BRANCH   3  15
HETATM   15  C6  UNL     1      10.420  18.675  18.273  1.00  0.00     0.133 C 
BRANCH  15  16
HETATM   16  C7  UNL     1       9.333  18.234  19.159  1.00  0.00     0.099 C 
HETATM   17  C8  UNL     1       9.434  18.523  20.616  1.00  0.00     0.035 C 
HETATM   18  C9  UNL     1       7.980  18.314  21.131  1.00  0.00     0.105 C 
HETATM   19  C10 UNL     1       7.250  18.927  19.973  1.00  0.00     0.217 C 
HETATM   20  O4  UNL     1       6.044  19.266  20.050  1.00  0.00    -0.274 OA
HETATM   21  N2  UNL     1       8.140  19.042  18.840  1.00  0.00    -0.355 N 
ATOM     22  H2  UNL     1       7.975  19.577  17.988  1.00  0.00     0.162 HD
ENDBRANCH  15  16
ENDBRANCH   3  15
ENDBRANCH   2   3
ENDBRANCH   1   2
BRANCH   1  23
HETATM   23  O5  UNL     1      14.223  18.287  18.251  1.00  0.00    -0.392 OA
ATOM     24  H5  UNL     1      14.219  18.486  19.180  1.00  0.00     0.210 HD
ENDBRANCH   1  23
BRANCH   1  25
HETATM   25  C13 UNL     1      13.479  19.931  16.749  1.00  0.00     0.120 C 
BRANCH  25  26
HETATM   26  C14 UNL     1      14.492  19.646  15.696  1.00  0.00     0.066 C 
BRANCH  26  27
HETATM   27  C15 UNL     1      14.969  20.773  14.915  1.00  0.00    -0.056 A 
HETATM   28  C16 UNL     1      16.257  21.243  15.062  1.00  0.00     0.007 A 
HETATM   29  C17 UNL     1      16.749  22.315  14.352  1.00  0.00     0.001 A 
HETATM   30  C18 UNL     1      15.916  22.958  13.444  1.00  0.00     0.000 A 
HETATM   31  C19 UNL     1      14.627  22.514  13.273  1.00  0.00     0.001 A 
HETATM   32  C20 UNL     1      14.159  21.417  14.016  1.00  0.00     0.007 A 
ENDBRANCH  26  27
ENDBRANCH  25  26
BRANCH  25  33
HETATM   33  N3  UNL     1      13.951  21.008  17.646  1.00  0.00    -0.329 N 
HETATM   34  C21 UNL     1      13.316  22.276  17.661  1.00  0.00     0.361 C 
HETATM   35  O6  UNL     1      12.319  22.514  16.898  1.00  0.00    -0.238 OA
ATOM     36  H3  UNL     1      14.745  20.836  18.263  1.00  0.00     0.165 HD
BRANCH  34  37
HETATM   37  O7  UNL     1      13.703  23.331  18.475  1.00  0.00    -0.299 OA
BRANCH  37  38
HETATM   38  C22 UNL     1      14.941  23.330  19.154  1.00  0.00     0.136 C 
HETATM   39  C23 UNL     1      15.150  24.495  20.063  1.00  0.00     0.040 C 
HETATM   40  C24 UNL     1      16.662  24.394  20.314  1.00  0.00     0.019 C 
HETATM   41  C25 UNL     1      17.282  25.734  20.570  1.00  0.00     0.033 C 
HETATM   42  C27 UNL     1      17.190  23.989  18.965  1.00  0.00     0.128 C 
HETATM   43  C26 UNL     1      17.601  26.188  19.151  1.00  0.00     0.168 C 
HETATM   44  O8  UNL     1      17.892  25.041  18.438  1.00  0.00    -0.385 OA
HETATM   45  C28 UNL     1      16.044  23.532  18.126  1.00  0.00     0.065 C 
ENDBRANCH  37  38
ENDBRANCH  34  37
ENDBRANCH  25  33
ENDBRANCH   1  25
TORSDOF 14
ENDMDL
