MODEL 10
REMARK VINA RESULT: -10.370958701      2.168      9.629
REMARK  14 active torsions:
REMARK  status: ('A' for Active; 'I' for Inactive)
REMARK    1  A    between atoms: O1_2  and  C2_3 
REMARK    2  A    between atoms: C5_6  and  S1_7 
REMARK    3  A    between atoms: S1_7  and  N1_10 
REMARK    4  A    between atoms: N1_10  and  C6_11 
REMARK    5  A    between atoms: N1_10  and  C11_19 
REMARK    6  A    between atoms: C6_11  and  C7_12 
REMARK    7  A    between atoms: C11_19  and  C12_20 
REMARK    8  A    between atoms: C12_20  and  O5_21 
REMARK    9  A    between atoms: C12_20  and  C13_23 
REMARK   10  A    between atoms: C13_23  and  C14_24 
REMARK   11  A    between atoms: C13_23  and  N3_31 
REMARK   12  A    between atoms: C14_24  and  C15_25 
REMARK       I    between atoms: N3_31  and  C21_33 
REMARK   13  A    between atoms: C21_33  and  O7_35 
REMARK   14  A    between atoms: O7_35  and  C22_36 
ROOT
HETATM    1  C12 UNL     1      14.258  19.709  17.959  1.00  0.00     0.155 C 
ENDROOT
BRANCH   1   2
HETATM    2  C11 UNL     1      13.213  18.766  17.497  1.00  0.00     0.141 C 
BRANCH   2   3
HETATM    3  N1  UNL     1      11.890  19.189  17.738  1.00  0.00    -0.202 NA
BRANCH   3   4
HETATM    4  S1  UNL     1      10.961  19.198  16.320  1.00  0.00     0.243 S 
HETATM    5  O2  UNL     1       9.907  20.279  16.431  1.00  0.00    -0.206 OA
HETATM    6  O3  UNL     1      11.819  19.629  15.116  1.00  0.00    -0.206 OA
BRANCH   4   7
HETATM    7  C5  UNL     1      10.183  17.735  15.874  1.00  0.00     0.074 A 
HETATM    8  C4  UNL     1      10.517  17.049  14.730  1.00  0.00     0.027 A 
HETATM    9  C3  UNL     1       9.903  15.848  14.380  1.00  0.00     0.038 A 
HETATM   10  C2  UNL     1       8.929  15.302  15.178  1.00  0.00     0.068 A 
HETATM   11  C30 UNL     1       8.581  15.979  16.330  1.00  0.00     0.038 A 
HETATM   12  C29 UNL     1       9.185  17.156  16.670  1.00  0.00     0.027 A 
BRANCH  10  13
HETATM   13  O1  UNL     1       8.276  14.128  14.908  1.00  0.00    -0.356 OA
HETATM   14  C1  UNL     1       6.883  13.985  14.758  1.00  0.00     0.210 C 
ENDBRANCH  10  13
ENDBRANCH   4   7
ENDBRANCH   3   4
BRANCH   3  15
HETATM   15  C6  UNL     1      11.669  20.305  18.540  1.00  0.00     0.133 C 
BRANCH  15  16
HETATM   16  C7  UNL     1      11.003  20.176  19.844  1.00  0.00     0.099 C 
HETATM   17  C8  UNL     1      10.634  21.412  20.587  1.00  0.00     0.035 C 
HETATM   18  C9  UNL     1       9.610  20.911  21.647  1.00  0.00     0.105 C 
HETATM   19  C10 UNL     1       8.874  19.927  20.787  1.00  0.00     0.217 C 
HETATM   20  O4  UNL     1       7.750  19.470  21.111  1.00  0.00    -0.274 OA
HETATM   21  N2  UNL     1       9.651  19.633  19.604  1.00  0.00    -0.355 N 
ATOM     22  H2  UNL     1       9.328  19.146  18.769  1.00  0.00     0.162 HD
ENDBRANCH  15  16
ENDBRANCH   3  15
ENDBRANCH   2   3
ENDBRANCH   1   2
BRANCH   1  23
HETATM   23  O5  UNL     1      15.383  19.021  18.402  1.00  0.00    -0.392 OA
ATOM     24  H5  UNL     1      15.492  19.123  19.341  1.00  0.00     0.210 HD
ENDBRANCH   1  23
BRANCH   1  25
HETATM   25  C13 UNL     1      14.673  20.791  17.034  1.00  0.00     0.120 C 
BRANCH  25  26
HETATM   26  C14 UNL     1      15.415  20.385  15.809  1.00  0.00     0.066 C 
BRANCH  26  27
HETATM   27  C15 UNL     1      15.907  21.449  14.951  1.00  0.00    -0.056 A 
HETATM   28  C16 UNL     1      17.258  21.687  14.821  1.00  0.00     0.007 A 
HETATM   29  C17 UNL     1      17.770  22.690  14.029  1.00  0.00     0.001 A 
HETATM   30  C18 UNL     1      16.890  23.504  13.325  1.00  0.00     0.000 A 
HETATM   31  C19 UNL     1      15.536  23.293  13.432  1.00  0.00     0.001 A 
HETATM   32  C20 UNL     1      15.050  22.259  14.252  1.00  0.00     0.007 A 
ENDBRANCH  26  27
ENDBRANCH  25  26
BRANCH  25  33
HETATM   33  N3  UNL     1      15.478  21.733  17.841  1.00  0.00    -0.329 N 
HETATM   34  C21 UNL     1      14.928  22.957  18.301  1.00  0.00     0.361 C 
HETATM   35  O6  UNL     1      13.719  23.271  18.025  1.00  0.00    -0.238 OA
ATOM     36  H3  UNL     1      16.443  21.499  18.072  1.00  0.00     0.165 HD
BRANCH  34  37
HETATM   37  O7  UNL     1      15.621  23.887  19.061  1.00  0.00    -0.299 OA
BRANCH  37  38
HETATM   38  C22 UNL     1      16.971  24.204  18.795  1.00  0.00     0.136 C 
HETATM   39  C23 UNL     1      17.390  25.562  19.252  1.00  0.00     0.040 C 
HETATM   40  C24 UNL     1      18.715  25.723  18.493  1.00  0.00     0.019 C 
HETATM   41  C25 UNL     1      19.011  27.157  18.171  1.00  0.00     0.033 C 
HETATM   42  C27 UNL     1      18.406  25.098  17.160  1.00  0.00     0.128 C 
HETATM   43  C26 UNL     1      18.288  27.316  16.839  1.00  0.00     0.168 C 
HETATM   44  O8  UNL     1      18.364  26.086  16.213  1.00  0.00    -0.385 OA
HETATM   45  C28 UNL     1      17.142  24.313  17.287  1.00  0.00     0.065 C 
ENDBRANCH  37  38
ENDBRANCH  34  37
ENDBRANCH  25  33
ENDBRANCH   1  25
TORSDOF 14
ENDMDL
