MODEL 6
REMARK VINA RESULT: -10.470131281      2.298      9.856
REMARK  14 active torsions:
REMARK  status: ('A' for Active; 'I' for Inactive)
REMARK    1  A    between atoms: O1_2  and  C2_3 
REMARK    2  A    between atoms: C5_6  and  S1_7 
REMARK    3  A    between atoms: S1_7  and  N1_10 
REMARK    4  A    between atoms: N1_10  and  C6_11 
REMARK    5  A    between atoms: N1_10  and  C11_19 
REMARK    6  A    between atoms: C6_11  and  C7_12 
REMARK    7  A    between atoms: C11_19  and  C12_20 
REMARK    8  A    between atoms: C12_20  and  O5_21 
REMARK    9  A    between atoms: C12_20  and  C13_23 
REMARK   10  A    between atoms: C13_23  and  C14_24 
REMARK   11  A    between atoms: C13_23  and  N3_31 
REMARK   12  A    between atoms: C14_24  and  C15_25 
REMARK       I    between atoms: N3_31  and  C21_33 
REMARK   13  A    between atoms: C21_33  and  O7_35 
REMARK   14  A    between atoms: O7_35  and  C22_36 
ROOT
HETATM    1  C12 UNL     1      13.175  18.802  17.761  1.00  0.00     0.155 C 
ENDROOT
BRANCH   1   2
HETATM    2  C11 UNL     1      12.317  17.865  16.997  1.00  0.00     0.141 C 
BRANCH   2   3
HETATM    3  N1  UNL     1      10.934  18.029  17.208  1.00  0.00    -0.202 NA
BRANCH   3   4
HETATM    4  S1  UNL     1      10.095  18.260  15.753  1.00  0.00     0.243 S 
HETATM    5  O2  UNL     1       9.305  19.548  15.841  1.00  0.00    -0.206 OA
HETATM    6  O3  UNL     1      11.080  18.500  14.594  1.00  0.00    -0.206 OA
BRANCH   4   7
HETATM    7  C5  UNL     1       9.031  17.013  15.247  1.00  0.00     0.074 A 
HETATM    8  C4  UNL     1       9.473  15.915  14.547  1.00  0.00     0.027 A 
HETATM    9  C3  UNL     1       8.614  14.889  14.157  1.00  0.00     0.038 A 
HETATM   10  C2  UNL     1       7.277  14.942  14.463  1.00  0.00     0.068 A 
HETATM   11  C30 UNL     1       6.817  16.038  15.166  1.00  0.00     0.038 A 
HETATM   12  C29 UNL     1       7.661  17.042  15.546  1.00  0.00     0.027 A 
BRANCH  10  13
HETATM   13  O1  UNL     1       6.365  13.978  14.119  1.00  0.00    -0.356 OA
HETATM   14  C1  UNL     1       5.145  13.736  14.781  1.00  0.00     0.210 C 
ENDBRANCH  10  13
ENDBRANCH   4   7
ENDBRANCH   3   4
BRANCH   3  15
HETATM   15  C6  UNL     1      10.497  18.871  18.226  1.00  0.00     0.133 C 
BRANCH  15  16
HETATM   16  C7  UNL     1       9.483  18.423  19.193  1.00  0.00     0.099 C 
HETATM   17  C8  UNL     1       9.583  18.887  20.604  1.00  0.00     0.035 C 
HETATM   18  C9  UNL     1       8.171  18.587  21.188  1.00  0.00     0.105 C 
HETATM   19  C10 UNL     1       7.356  18.983  19.993  1.00  0.00     0.217 C 
HETATM   20  O4  UNL     1       6.121  19.201  20.073  1.00  0.00    -0.274 OA
HETATM   21  N2  UNL     1       8.203  19.060  18.826  1.00  0.00    -0.355 N 
ATOM     22  H2  UNL     1       7.963  19.474  17.925  1.00  0.00     0.162 HD
ENDBRANCH  15  16
ENDBRANCH   3  15
ENDBRANCH   2   3
ENDBRANCH   1   2
BRANCH   1  23
HETATM   23  O5  UNL     1      14.201  18.116  18.405  1.00  0.00    -0.392 OA
ATOM     24  H5  UNL     1      14.550  18.631  19.124  1.00  0.00     0.210 HD
ENDBRANCH   1  23
BRANCH   1  25
HETATM   25  C13 UNL     1      13.737  19.971  17.042  1.00  0.00     0.120 C 
BRANCH  25  26
HETATM   26  C14 UNL     1      14.494  19.695  15.790  1.00  0.00     0.066 C 
BRANCH  26  27
HETATM   27  C15 UNL     1      14.819  20.834  14.951  1.00  0.00    -0.056 A 
HETATM   28  C16 UNL     1      14.026  21.170  13.874  1.00  0.00     0.007 A 
HETATM   29  C17 UNL     1      14.301  22.234  13.044  1.00  0.00     0.001 A 
HETATM   30  C18 UNL     1      15.426  23.009  13.297  1.00  0.00     0.000 A 
HETATM   31  C19 UNL     1      16.237  22.702  14.363  1.00  0.00     0.001 A 
HETATM   32  C20 UNL     1      15.926  21.607  15.188  1.00  0.00     0.007 A 
ENDBRANCH  26  27
ENDBRANCH  25  26
BRANCH  25  33
HETATM   33  N3  UNL     1      14.590  20.680  18.020  1.00  0.00    -0.329 N 
HETATM   34  C21 UNL     1      14.123  21.839  18.692  1.00  0.00     0.361 C 
HETATM   35  O6  UNL     1      12.951  22.294  18.465  1.00  0.00    -0.238 OA
ATOM     36  H3  UNL     1      15.528  20.330  18.215  1.00  0.00     0.165 HD
BRANCH  34  37
HETATM   37  O7  UNL     1      14.866  22.554  19.620  1.00  0.00    -0.299 OA
BRANCH  37  38
HETATM   38  C22 UNL     1      15.136  23.930  19.452  1.00  0.00     0.136 C 
HETATM   39  C23 UNL     1      15.774  24.282  18.149  1.00  0.00     0.040 C 
HETATM   40  C24 UNL     1      16.266  25.706  18.448  1.00  0.00     0.019 C 
HETATM   41  C25 UNL     1      17.498  26.053  17.668  1.00  0.00     0.033 C 
HETATM   42  C27 UNL     1      16.742  25.596  19.870  1.00  0.00     0.128 C 
HETATM   43  C26 UNL     1      18.590  25.537  18.597  1.00  0.00     0.168 C 
HETATM   44  O8  UNL     1      18.108  25.699  19.882  1.00  0.00    -0.385 OA
HETATM   45  C28 UNL     1      16.217  24.324  20.448  1.00  0.00     0.065 C 
ENDBRANCH  37  38
ENDBRANCH  34  37
ENDBRANCH  25  33
ENDBRANCH   1  25
TORSDOF 14
ENDMDL
