MODEL 1
REMARK VINA RESULT: -10.672527049      0.000      0.000
REMARK  14 active torsions:
REMARK  status: ('A' for Active; 'I' for Inactive)
REMARK    1  A    between atoms: O1_2  and  C2_3 
REMARK    2  A    between atoms: C5_6  and  S1_7 
REMARK    3  A    between atoms: S1_7  and  N1_10 
REMARK    4  A    between atoms: N1_10  and  C6_11 
REMARK    5  A    between atoms: N1_10  and  C11_19 
REMARK    6  A    between atoms: C6_11  and  C7_12 
REMARK    7  A    between atoms: C11_19  and  C12_20 
REMARK    8  A    between atoms: C12_20  and  O5_21 
REMARK    9  A    between atoms: C12_20  and  C13_23 
REMARK   10  A    between atoms: C13_23  and  C14_24 
REMARK   11  A    between atoms: C13_23  and  N3_31 
REMARK   12  A    between atoms: C14_24  and  C15_25 
REMARK       I    between atoms: N3_31  and  C21_33 
REMARK   13  A    between atoms: C21_33  and  O7_35 
REMARK   14  A    between atoms: O7_35  and  C22_36 
ROOT
HETATM    1  C12 UNL     1      13.463  19.280  17.663  1.00  0.00     0.155 C 
ENDROOT
BRANCH   1   2
HETATM    2  C11 UNL     1      14.470  20.368  17.689  1.00  0.00     0.141 C 
BRANCH   2   3
HETATM    3  N1  UNL     1      14.171  21.466  16.858  1.00  0.00    -0.202 NA
BRANCH   3   4
HETATM    4  S1  UNL     1      14.548  21.153  15.235  1.00  0.00     0.243 S 
HETATM    5  O2  UNL     1      14.891  19.686  15.086  1.00  0.00    -0.206 OA
HETATM    6  O3  UNL     1      13.305  21.342  14.347  1.00  0.00    -0.206 OA
BRANCH   4   7
HETATM    7  C5  UNL     1      15.809  22.072  14.524  1.00  0.00     0.074 A 
HETATM    8  C4  UNL     1      15.557  23.124  13.674  1.00  0.00     0.027 A 
HETATM    9  C3  UNL     1      16.580  23.887  13.116  1.00  0.00     0.038 A 
HETATM   10  C2  UNL     1      17.895  23.611  13.399  1.00  0.00     0.068 A 
HETATM   11  C30 UNL     1      18.165  22.557  14.250  1.00  0.00     0.038 A 
HETATM   12  C29 UNL     1      17.160  21.810  14.796  1.00  0.00     0.027 A 
BRANCH  10  13
HETATM   13  O1  UNL     1      18.959  24.310  12.894  1.00  0.00    -0.356 OA
HETATM   14  C1  UNL     1      18.880  25.323  11.919  1.00  0.00     0.210 C 
ENDBRANCH  10  13
ENDBRANCH   4   7
ENDBRANCH   3   4
BRANCH   3  15
HETATM   15  C6  UNL     1      14.540  22.746  17.264  1.00  0.00     0.133 C 
BRANCH  15  16
HETATM   16  C7  UNL     1      15.739  22.959  18.089  1.00  0.00     0.099 C 
HETATM   17  C8  UNL     1      16.709  24.013  17.686  1.00  0.00     0.035 C 
HETATM   18  C9  UNL     1      17.565  24.232  18.968  1.00  0.00     0.105 C 
HETATM   19  C10 UNL     1      16.464  24.131  19.981  1.00  0.00     0.217 C 
HETATM   20  O4  UNL     1      16.607  24.537  21.161  1.00  0.00    -0.274 OA
HETATM   21  N2  UNL     1      15.299  23.525  19.380  1.00  0.00    -0.355 N 
ATOM     22  H2  UNL     1      14.358  23.494  19.770  1.00  0.00     0.162 HD
ENDBRANCH  15  16
ENDBRANCH   3  15
ENDBRANCH   2   3
ENDBRANCH   1   2
BRANCH   1  23
HETATM   23  O5  UNL     1      13.814  18.263  18.545  1.00  0.00    -0.392 OA
ATOM     24  H5  UNL     1      13.132  17.603  18.587  1.00  0.00     0.210 HD
ENDBRANCH   1  23
BRANCH   1  25
HETATM   25  C13 UNL     1      12.042  19.646  17.870  1.00  0.00     0.120 C 
BRANCH  25  26
HETATM   26  C14 UNL     1      11.252  18.793  18.800  1.00  0.00     0.066 C 
BRANCH  26  27
HETATM   27  C15 UNL     1      10.601  19.458  19.914  1.00  0.00    -0.056 A 
HETATM   28  C16 UNL     1      10.794  20.803  20.149  1.00  0.00     0.007 A 
HETATM   29  C17 UNL     1      10.206  21.473  21.198  1.00  0.00     0.001 A 
HETATM   30  C18 UNL     1       9.379  20.769  22.064  1.00  0.00     0.000 A 
HETATM   31  C19 UNL     1       9.165  19.427  21.859  1.00  0.00     0.001 A 
HETATM   32  C20 UNL     1       9.783  18.776  20.777  1.00  0.00     0.007 A 
ENDBRANCH  26  27
ENDBRANCH  25  26
BRANCH  25  33
HETATM   33  N3  UNL     1      11.424  19.660  16.526  1.00  0.00    -0.329 N 
HETATM   34  C21 UNL     1      11.611  18.581  15.625  1.00  0.00     0.361 C 
HETATM   35  O6  UNL     1      12.320  17.570  15.959  1.00  0.00    -0.238 OA
ATOM     36  H3  UNL     1      10.854  20.457  16.243  1.00  0.00     0.165 HD
BRANCH  34  37
HETATM   37  O7  UNL     1      11.063  18.524  14.352  1.00  0.00    -0.299 OA
BRANCH  37  38
HETATM   38  C22 UNL     1       9.874  17.811  14.087  1.00  0.00     0.136 C 
HETATM   39  C23 UNL     1       8.755  18.098  15.032  1.00  0.00     0.040 C 
HETATM   40  C24 UNL     1       7.809  16.929  14.718  1.00  0.00     0.019 C 
HETATM   41  C25 UNL     1       6.993  16.527  15.909  1.00  0.00     0.033 C 
HETATM   42  C27 UNL     1       8.762  15.783  14.514  1.00  0.00     0.128 C 
HETATM   43  C26 UNL     1       7.925  15.525  16.581  1.00  0.00     0.168 C 
HETATM   44  O8  UNL     1       8.625  14.910  15.560  1.00  0.00    -0.385 OA
HETATM   45  C28 UNL     1      10.139  16.336  14.351  1.00  0.00     0.065 C 
ENDBRANCH  37  38
ENDBRANCH  34  37
ENDBRANCH  25  33
ENDBRANCH   1  25
TORSDOF 14
ENDMDL
