MODEL 5
REMARK VINA RESULT: -10.484098900      2.287      9.828
REMARK  14 active torsions:
REMARK  status: ('A' for Active; 'I' for Inactive)
REMARK    1  A    between atoms: O1_2  and  C2_3 
REMARK    2  A    between atoms: C5_6  and  S1_7 
REMARK    3  A    between atoms: S1_7  and  N1_10 
REMARK    4  A    between atoms: N1_10  and  C6_11 
REMARK    5  A    between atoms: N1_10  and  C11_19 
REMARK    6  A    between atoms: C6_11  and  C7_12 
REMARK    7  A    between atoms: C11_19  and  C12_20 
REMARK    8  A    between atoms: C12_20  and  O5_21 
REMARK    9  A    between atoms: C12_20  and  C13_23 
REMARK   10  A    between atoms: C13_23  and  C14_24 
REMARK   11  A    between atoms: C13_23  and  N3_31 
REMARK   12  A    between atoms: C14_24  and  C15_25 
REMARK       I    between atoms: N3_31  and  C21_33 
REMARK   13  A    between atoms: C21_33  and  O7_35 
REMARK   14  A    between atoms: O7_35  and  C22_36 
ROOT
HETATM    1  C12 UNL     1      13.066  18.783  17.645  1.00  0.00     0.155 C 
ENDROOT
BRANCH   1   2
HETATM    2  C11 UNL     1      12.261  17.685  17.062  1.00  0.00     0.141 C 
BRANCH   2   3
HETATM    3  N1  UNL     1      10.871  17.800  17.267  1.00  0.00    -0.202 NA
BRANCH   3   4
HETATM    4  S1  UNL     1      10.031  18.000  15.809  1.00  0.00     0.243 S 
HETATM    5  O2  UNL     1       9.351  19.353  15.816  1.00  0.00    -0.206 OA
HETATM    6  O3  UNL     1      11.013  18.078  14.626  1.00  0.00    -0.206 OA
BRANCH   4   7
HETATM    7  C5  UNL     1       8.860  16.814  15.402  1.00  0.00     0.074 A 
HETATM    8  C4  UNL     1       7.578  16.853  15.897  1.00  0.00     0.027 A 
HETATM    9  C3  UNL     1       6.619  15.905  15.548  1.00  0.00     0.038 A 
HETATM   10  C2  UNL     1       6.927  14.883  14.684  1.00  0.00     0.068 A 
HETATM   11  C30 UNL     1       8.211  14.829  14.178  1.00  0.00     0.038 A 
HETATM   12  C29 UNL     1       9.149  15.760  14.523  1.00  0.00     0.027 A 
BRANCH  10  13
HETATM   13  O1  UNL     1       6.046  13.911  14.289  1.00  0.00    -0.356 OA
HETATM   14  C1  UNL     1       4.740  13.741  14.790  1.00  0.00     0.210 C 
ENDBRANCH  10  13
ENDBRANCH   4   7
ENDBRANCH   3   4
BRANCH   3  15
HETATM   15  C6  UNL     1      10.401  18.627  18.283  1.00  0.00     0.133 C 
BRANCH  15  16
HETATM   16  C7  UNL     1       9.299  18.198  19.156  1.00  0.00     0.099 C 
HETATM   17  C8  UNL     1       9.384  18.485  20.614  1.00  0.00     0.035 C 
HETATM   18  C9  UNL     1       7.921  18.292  21.111  1.00  0.00     0.105 C 
HETATM   19  C10 UNL     1       7.214  18.914  19.944  1.00  0.00     0.217 C 
HETATM   20  O4  UNL     1       6.010  19.267  20.007  1.00  0.00    -0.274 OA
HETATM   21  N2  UNL     1       8.118  19.020  18.823  1.00  0.00    -0.355 N 
ATOM     22  H2  UNL     1       7.970  19.557  17.969  1.00  0.00     0.162 HD
ENDBRANCH  15  16
ENDBRANCH   3  15
ENDBRANCH   2   3
ENDBRANCH   1   2
BRANCH   1  23
HETATM   23  O5  UNL     1      14.205  18.283  18.269  1.00  0.00    -0.392 OA
ATOM     24  H5  UNL     1      14.560  18.917  18.881  1.00  0.00     0.210 HD
ENDBRANCH   1  23
BRANCH   1  25
HETATM   25  C13 UNL     1      13.443  19.912  16.760  1.00  0.00     0.120 C 
BRANCH  25  26
HETATM   26  C14 UNL     1      14.447  19.632  15.697  1.00  0.00     0.066 C 
BRANCH  26  27
HETATM   27  C15 UNL     1      14.940  20.767  14.938  1.00  0.00    -0.056 A 
HETATM   28  C16 UNL     1      14.139  21.402  14.012  1.00  0.00     0.007 A 
HETATM   29  C17 UNL     1      14.566  22.475  13.262  1.00  0.00     0.001 A 
HETATM   30  C18 UNL     1      15.862  22.944  13.441  1.00  0.00     0.000 A 
HETATM   31  C19 UNL     1      16.686  22.334  14.356  1.00  0.00     0.001 A 
HETATM   32  C20 UNL     1      16.215  21.240  15.103  1.00  0.00     0.007 A 
ENDBRANCH  26  27
ENDBRANCH  25  26
BRANCH  25  33
HETATM   33  N3  UNL     1      13.919  20.990  17.653  1.00  0.00    -0.329 N 
HETATM   34  C21 UNL     1      13.306  22.269  17.646  1.00  0.00     0.361 C 
HETATM   35  O6  UNL     1      12.325  22.515  16.865  1.00  0.00    -0.238 OA
ATOM     36  H3  UNL     1      14.700  20.811  18.285  1.00  0.00     0.165 HD
BRANCH  34  37
HETATM   37  O7  UNL     1      13.699  23.326  18.455  1.00  0.00    -0.299 OA
BRANCH  37  38
HETATM   38  C22 UNL     1      14.938  23.323  19.131  1.00  0.00     0.136 C 
HETATM   39  C23 UNL     1      15.155  24.492  20.033  1.00  0.00     0.040 C 
HETATM   40  C24 UNL     1      16.667  24.385  20.281  1.00  0.00     0.019 C 
HETATM   41  C25 UNL     1      17.295  25.724  20.527  1.00  0.00     0.033 C 
HETATM   42  C27 UNL     1      17.190  23.969  18.933  1.00  0.00     0.128 C 
HETATM   43  C26 UNL     1      17.612  26.168  19.104  1.00  0.00     0.168 C 
HETATM   44  O8  UNL     1      17.896  25.014  18.398  1.00  0.00    -0.385 OA
HETATM   45  C28 UNL     1      16.040  23.513  18.099  1.00  0.00     0.065 C 
ENDBRANCH  37  38
ENDBRANCH  34  37
ENDBRANCH  25  33
ENDBRANCH   1  25
TORSDOF 14
ENDMDL
