MODEL 1
REMARK VINA RESULT: -8.557170903      0.000      0.000
REMARK  0 active torsions:
REMARK  status: ('A' for Active; 'I' for Inactive)
ROOT
HETATM    1  C1  UNL     1      12.973   5.537  13.740  1.00  0.00     0.049 C 
HETATM    2  C2  UNL     1      11.787   4.643  13.457  1.00  0.00    -0.049 A 
HETATM    3  C3  UNL     1      11.383   4.587  12.145  1.00  0.00     0.010 A 
HETATM    4  C4  UNL     1      10.305   3.777  11.873  1.00  0.00     0.037 A 
HETATM    5  C5  UNL     1       9.647   3.048  12.875  1.00  0.00     0.069 A 
HETATM    6  C6  UNL     1      10.075   3.134  14.179  1.00  0.00     0.051 A 
HETATM    7  C7  UNL     1      11.160   3.931  14.493  1.00  0.00    -0.001 A 
HETATM    8  C8  UNL     1      11.903   4.013  15.814  1.00  0.00     0.048 A 
HETATM    9  C9  UNL     1      11.455   3.882  17.106  1.00  0.00     0.067 A 
HETATM   10  C10 UNL     1      12.419   3.641  18.052  1.00  0.00     0.079 A 
HETATM   11  N1  UNL     1      13.723   3.557  17.843  1.00  0.00    -0.325 N 
ATOM     12  H1  UNL     1      14.367   3.385  18.615  1.00  0.00     0.169 HD
HETATM   13  C11 UNL     1      14.192   3.707  16.549  1.00  0.00     0.193 A 
HETATM   14  N2  UNL     1      15.573   3.628  16.308  1.00  0.00    -0.063 NA
HETATM   15  N3  UNL     1      13.276   3.917  15.644  1.00  0.00    -0.330 N 
ATOM     16  H3  UNL     1      13.613   4.024  14.688  1.00  0.00     0.168 HD
HETATM   17  S1  UNL     1      11.926   2.774  19.657  1.00  0.00    -0.072 SA
HETATM   18  C12 UNL     1      11.536   1.033  19.088  1.00  0.00     0.009 A 
HETATM   19  C13 UNL     1      12.418   0.154  19.665  1.00  0.00     0.019 A 
HETATM   20  C14 UNL     1      12.466  -1.174  19.280  1.00  0.00     0.004 A 
HETATM   21  C15 UNL     1      11.565  -1.519  18.280  1.00  0.00     0.037 A 
HETATM   22  C16 UNL     1      10.669  -0.628  17.690  1.00  0.00     0.070 A 
HETATM   23  C17 UNL     1      10.643   0.714  18.121  1.00  0.00     0.055 A 
HETATM   24  O1  UNL     1       9.852  -1.168  16.672  1.00  0.00    -0.351 OA
HETATM   25  C18 UNL     1       9.925  -1.035  15.273  1.00  0.00     0.175 C 
HETATM   26  C19 UNL     1       8.792  -0.365  14.588  1.00  0.00     0.029 C 
HETATM   27  C20 UNL     1       9.353   0.146  13.248  1.00  0.00     0.029 C 
HETATM   28  C21 UNL     1       8.280   0.908  12.523  1.00  0.00     0.175 C 
HETATM   29  O2  UNL     1       8.596   2.300  12.352  1.00  0.00    -0.351 OA
ENDROOT
TORSDOF 0
ENDMDL
