MODEL 2
REMARK VINA RESULT: -8.135129907      3.020      5.177
REMARK  0 active torsions:
REMARK  status: ('A' for Active; 'I' for Inactive)
ROOT
HETATM    1  C1  UNL     1       9.219  -1.408  15.037  1.00  0.00     0.049 C 
HETATM    2  C2  UNL     1       9.913  -0.136  14.607  1.00  0.00    -0.049 A 
HETATM    3  C3  UNL     1       9.402   0.473  13.487  1.00  0.00     0.010 A 
HETATM    4  C4  UNL     1      10.024   1.632  13.085  1.00  0.00     0.037 A 
HETATM    5  C5  UNL     1      11.123   2.167  13.775  1.00  0.00     0.069 A 
HETATM    6  C6  UNL     1      11.612   1.527  14.888  1.00  0.00     0.051 A 
HETATM    7  C7  UNL     1      11.010   0.363  15.330  1.00  0.00    -0.001 A 
HETATM    8  C8  UNL     1      11.265  -0.382  16.627  1.00  0.00     0.048 A 
HETATM    9  C9  UNL     1      12.415  -0.541  17.361  1.00  0.00     0.067 A 
HETATM   10  C10 UNL     1      12.246  -0.950  18.659  1.00  0.00     0.079 A 
HETATM   11  N1  UNL     1      11.096  -1.232  19.251  1.00  0.00    -0.325 N 
ATOM     12  H1  UNL     1      11.070  -1.542  20.223  1.00  0.00     0.169 HD
HETATM   13  C11 UNL     1       9.929  -1.097  18.518  1.00  0.00     0.193 A 
HETATM   14  N2  UNL     1       8.700  -1.400  19.127  1.00  0.00    -0.063 NA
HETATM   15  N3  UNL     1      10.086  -0.690  17.289  1.00  0.00    -0.330 N 
ATOM     16  H3  UNL     1       9.231  -0.584  16.744  1.00  0.00     0.168 HD
HETATM   17  S1  UNL     1      13.586  -0.542  19.927  1.00  0.00    -0.072 SA
HETATM   18  C12 UNL     1      13.436   1.315  20.111  1.00  0.00     0.009 A 
HETATM   19  C13 UNL     1      13.062   1.619  21.397  1.00  0.00     0.019 A 
HETATM   20  C14 UNL     1      12.710   2.907  21.757  1.00  0.00     0.004 A 
HETATM   21  C15 UNL     1      12.764   3.833  20.723  1.00  0.00     0.037 A 
HETATM   22  C16 UNL     1      13.140   3.528  19.416  1.00  0.00     0.070 A 
HETATM   23  C17 UNL     1      13.505   2.205  19.093  1.00  0.00     0.055 A 
HETATM   24  O1  UNL     1      13.108   4.605  18.503  1.00  0.00    -0.351 OA
HETATM   25  C18 UNL     1      12.181   4.918  17.490  1.00  0.00     0.175 C 
HETATM   26  C19 UNL     1      12.670   4.917  16.090  1.00  0.00     0.029 C 
HETATM   27  C20 UNL     1      11.423   4.717  15.209  1.00  0.00     0.029 C 
HETATM   28  C21 UNL     1      11.845   4.627  13.770  1.00  0.00     0.175 C 
HETATM   29  O2  UNL     1      11.570   3.345  13.181  1.00  0.00    -0.351 OA
ENDROOT
TORSDOF 0
ENDMDL
