MODEL 3
REMARK VINA RESULT: -8.001019893      3.147      5.105
REMARK  0 active torsions:
REMARK  status: ('A' for Active; 'I' for Inactive)
ROOT
HETATM    1  C1  UNL     1      10.744   3.790  12.046  1.00  0.00     0.049 C 
HETATM    2  C2  UNL     1      11.955   3.763  12.950  1.00  0.00    -0.049 A 
HETATM    3  C3  UNL     1      12.717   4.907  12.961  1.00  0.00     0.010 A 
HETATM    4  C4  UNL     1      13.822   4.896  13.780  1.00  0.00     0.037 A 
HETATM    5  C5  UNL     1      14.161   3.781  14.562  1.00  0.00     0.069 A 
HETATM    6  C6  UNL     1      13.379   2.651  14.521  1.00  0.00     0.051 A 
HETATM    7  C7  UNL     1      12.254   2.624  13.716  1.00  0.00    -0.001 A 
HETATM    8  C8  UNL     1      11.165   1.568  13.674  1.00  0.00     0.048 A 
HETATM    9  C9  UNL     1      11.224   0.209  13.866  1.00  0.00     0.067 A 
HETATM   10  C10 UNL     1      10.029  -0.411  14.127  1.00  0.00     0.079 A 
HETATM   11  N1  UNL     1       8.838   0.166  14.177  1.00  0.00    -0.325 N 
ATOM     12  H1  UNL     1       7.999  -0.383  14.368  1.00  0.00     0.169 HD
HETATM   13  C11 UNL     1       8.760   1.532  13.965  1.00  0.00     0.193 A 
HETATM   14  N2  UNL     1       7.505   2.160  14.007  1.00  0.00    -0.063 NA
HETATM   15  N3  UNL     1       9.898   2.127  13.737  1.00  0.00    -0.330 N 
ATOM     16  H3  UNL     1       9.849   3.133  13.583  1.00  0.00     0.168 HD
HETATM   17  S1  UNL     1      10.036  -2.049  15.069  1.00  0.00    -0.072 SA
HETATM   18  C12 UNL     1      10.560  -1.538  16.792  1.00  0.00     0.009 A 
HETATM   19  C13 UNL     1       9.543  -1.800  17.677  1.00  0.00     0.019 A 
HETATM   20  C14 UNL     1       9.599  -1.357  18.986  1.00  0.00     0.004 A 
HETATM   21  C15 UNL     1      10.745  -0.642  19.308  1.00  0.00     0.037 A 
HETATM   22  C16 UNL     1      11.779  -0.372  18.411  1.00  0.00     0.070 A 
HETATM   23  C17 UNL     1      11.690  -0.852  17.089  1.00  0.00     0.055 A 
HETATM   24  O1  UNL     1      12.849   0.393  18.926  1.00  0.00    -0.351 OA
HETATM   25  C18 UNL     1      13.180   1.748  18.733  1.00  0.00     0.175 C 
HETATM   26  C19 UNL     1      14.466   2.050  18.059  1.00  0.00     0.029 C 
HETATM   27  C20 UNL     1      14.315   3.470  17.482  1.00  0.00     0.029 C 
HETATM   28  C21 UNL     1      15.556   3.823  16.713  1.00  0.00     0.175 C 
HETATM   29  O2  UNL     1      15.312   4.016  15.309  1.00  0.00    -0.351 OA
ENDROOT
TORSDOF 0
ENDMDL
