MODEL 2
REMARK VINA RESULT: -7.789339159      2.163      5.725
REMARK  0 active torsions:
REMARK  status: ('A' for Active; 'I' for Inactive)
ROOT
HETATM    1  C1  UNL     1      13.168   6.435  14.750  1.00  0.00     0.049 C 
HETATM    2  C2  UNL     1      13.038   5.149  15.515  1.00  0.00    -0.046 A 
HETATM    3  C3  UNL     1      13.311   5.248  16.871  1.00  0.00     0.015 A 
HETATM    4  C4  UNL     1      13.206   4.086  17.598  1.00  0.00    -0.049 A 
HETATM    5  C5  UNL     1      13.543   4.109  19.071  1.00  0.00     0.049 C 
HETATM    6  C6  UNL     1      12.848   2.889  16.992  1.00  0.00    -0.002 A 
HETATM    7  C7  UNL     1      12.594   2.798  15.622  1.00  0.00     0.031 A 
HETATM    8  C8  UNL     1      12.679   3.940  14.885  1.00  0.00     0.038 A 
HETATM    9  C9  UNL     1      12.246   4.174  13.475  1.00  0.00     0.252 C 
HETATM   10  O1  UNL     1      12.818   4.995  12.724  1.00  0.00    -0.268 OA
HETATM   11  N1  UNL     1      11.137   3.498  12.821  1.00  0.00    -0.357 N 
ATOM     12  H1  UNL     1      10.700   3.891  11.987  1.00  0.00     0.162 HD
HETATM   13  C10 UNL     1      10.667   2.238  13.397  1.00  0.00     0.125 C 
HETATM   14  C11 UNL     1       9.467   1.644  12.719  1.00  0.00     0.046 C 
HETATM   15  C12 UNL     1       9.624   0.163  12.460  1.00  0.00     0.177 C 
HETATM   16  O2  UNL     1       9.372  -0.769  13.384  1.00  0.00    -0.351 OA
HETATM   17  C13 UNL     1       9.722  -1.461  14.509  1.00  0.00     0.070 A 
HETATM   18  C14 UNL     1      10.271  -2.726  14.321  1.00  0.00     0.037 A 
HETATM   19  C15 UNL     1      10.699  -3.582  15.323  1.00  0.00     0.004 A 
HETATM   20  C16 UNL     1      10.543  -3.081  16.599  1.00  0.00     0.019 A 
HETATM   21  C17 UNL     1      10.007  -1.846  16.828  1.00  0.00     0.009 A 
HETATM   22  C18 UNL     1       9.585  -1.013  15.847  1.00  0.00     0.055 A 
HETATM   23  S1  UNL     1      10.104  -1.421  18.639  1.00  0.00    -0.072 SA
HETATM   24  C19 UNL     1      11.382  -0.074  18.805  1.00  0.00     0.079 A 
HETATM   25  C20 UNL     1      11.326   1.052  18.026  1.00  0.00     0.067 A 
HETATM   26  C21 UNL     1      12.507   1.797  18.009  1.00  0.00     0.048 A 
HETATM   27  N2  UNL     1      13.563   1.397  18.750  1.00  0.00    -0.330 N 
ATOM     28  H2  UNL     1      14.405   1.973  18.724  1.00  0.00     0.168 HD
HETATM   29  C22 UNL     1      13.585   0.298  19.519  1.00  0.00     0.193 A 
HETATM   30  N3  UNL     1      14.686  -0.104  20.289  1.00  0.00    -0.063 NA
HETATM   31  N4  UNL     1      12.433  -0.453  19.524  1.00  0.00    -0.325 N 
ATOM     32  H4  UNL     1      12.386  -1.306  20.082  1.00  0.00     0.169 HD
ENDROOT
TORSDOF 0
ENDMDL
