MODEL 1
REMARK VINA RESULT: -8.148929714      0.000      0.000
REMARK  0 active torsions:
REMARK  status: ('A' for Active; 'I' for Inactive)
ROOT
HETATM    1  C1  UNL     1       8.543   2.176  11.346  1.00  0.00     0.049 C 
HETATM    2  C2  UNL     1       9.125   1.652  12.627  1.00  0.00    -0.046 A 
HETATM    3  C3  UNL     1       9.093   0.272  12.759  1.00  0.00     0.015 A 
HETATM    4  C4  UNL     1       9.615  -0.240  13.923  1.00  0.00    -0.049 A 
HETATM    5  C5  UNL     1       9.562  -1.731  14.158  1.00  0.00     0.049 C 
HETATM    6  C6  UNL     1      10.137   0.593  14.903  1.00  0.00    -0.002 A 
HETATM    7  C7  UNL     1      10.146   1.983  14.768  1.00  0.00     0.031 A 
HETATM    8  C8  UNL     1       9.647   2.510  13.616  1.00  0.00     0.038 A 
HETATM    9  C9  UNL     1       9.739   3.915  13.116  1.00  0.00     0.252 C 
HETATM   10  O1  UNL     1       8.853   4.433  12.401  1.00  0.00    -0.268 OA
HETATM   11  N1  UNL     1      10.838   4.827  13.390  1.00  0.00    -0.357 N 
ATOM     12  H1  UNL     1      11.002   5.645  12.803  1.00  0.00     0.162 HD
HETATM   13  C10 UNL     1      11.702   4.533  14.535  1.00  0.00     0.125 C 
HETATM   14  C11 UNL     1      12.863   5.468  14.703  1.00  0.00     0.046 C 
HETATM   15  C12 UNL     1      13.031   5.930  16.133  1.00  0.00     0.177 C 
HETATM   16  O2  UNL     1      13.672   5.213  17.060  1.00  0.00    -0.351 OA
HETATM   17  C13 UNL     1      13.718   4.171  17.943  1.00  0.00     0.070 A 
HETATM   18  C14 UNL     1      13.472   4.471  19.279  1.00  0.00     0.037 A 
HETATM   19  C15 UNL     1      13.462   3.563  20.326  1.00  0.00     0.004 A 
HETATM   20  C16 UNL     1      13.725   2.263  19.949  1.00  0.00     0.019 A 
HETATM   21  C17 UNL     1      13.973   1.925  18.649  1.00  0.00     0.009 A 
HETATM   22  C18 UNL     1      13.988   2.816  17.628  1.00  0.00     0.055 A 
HETATM   23  S1  UNL     1      14.113   0.076  18.472  1.00  0.00    -0.072 SA
HETATM   24  C19 UNL     1      12.598  -0.490  17.547  1.00  0.00     0.079 A 
HETATM   25  C20 UNL     1      12.229   0.102  16.367  1.00  0.00     0.067 A 
HETATM   26  C21 UNL     1      10.919  -0.176  15.971  1.00  0.00     0.048 A 
HETATM   27  N2  UNL     1      10.151  -0.995  16.721  1.00  0.00    -0.330 N 
ATOM     28  H2  UNL     1       9.203  -1.186  16.394  1.00  0.00     0.168 HD
HETATM   29  C22 UNL     1      10.543  -1.576  17.864  1.00  0.00     0.193 A 
HETATM   30  N3  UNL     1       9.738  -2.430  18.633  1.00  0.00    -0.063 NA
HETATM   31  N4  UNL     1      11.824  -1.290  18.274  1.00  0.00    -0.325 N 
ATOM     32  H4  UNL     1      12.183  -1.694  19.139  1.00  0.00     0.169 HD
ENDROOT
TORSDOF 0
ENDMDL
