MODEL 3
REMARK VINA RESULT: -7.363353885      2.889      7.740
REMARK  0 active torsions:
REMARK  status: ('A' for Active; 'I' for Inactive)
ROOT
HETATM    1  C1  UNL     1      12.514   2.220  22.904  1.00  0.00     0.049 C 
HETATM    2  C2  UNL     1      12.579   2.532  21.437  1.00  0.00    -0.046 A 
HETATM    3  C3  UNL     1      13.531   3.477  21.084  1.00  0.00     0.015 A 
HETATM    4  C4  UNL     1      13.612   3.789  19.747  1.00  0.00    -0.049 A 
HETATM    5  C5  UNL     1      14.589   4.850  19.300  1.00  0.00     0.049 C 
HETATM    6  C6  UNL     1      12.777   3.184  18.817  1.00  0.00    -0.002 A 
HETATM    7  C7  UNL     1      11.809   2.248  19.186  1.00  0.00     0.031 A 
HETATM    8  C8  UNL     1      11.721   1.914  20.504  1.00  0.00     0.038 A 
HETATM    9  C9  UNL     1      10.952   0.801  21.135  1.00  0.00     0.252 C 
HETATM   10  O1  UNL     1      10.483   0.878  22.292  1.00  0.00    -0.268 OA
HETATM   11  N1  UNL     1      10.663  -0.477  20.500  1.00  0.00    -0.357 N 
ATOM     12  H1  UNL     1      10.407  -1.293  21.055  1.00  0.00     0.162 HD
HETATM   13  C10 UNL     1      10.753  -0.552  19.042  1.00  0.00     0.125 C 
HETATM   14  C11 UNL     1      10.526  -1.920  18.467  1.00  0.00     0.046 C 
HETATM   15  C12 UNL     1       9.589  -1.900  17.281  1.00  0.00     0.177 C 
HETATM   16  O2  UNL     1       9.992  -1.613  16.040  1.00  0.00    -0.351 OA
HETATM   17  C13 UNL     1      10.376  -0.712  15.087  1.00  0.00     0.070 A 
HETATM   18  C14 UNL     1       9.408  -0.325  14.164  1.00  0.00     0.037 A 
HETATM   19  C15 UNL     1       9.589   0.580  13.131  1.00  0.00     0.004 A 
HETATM   20  C16 UNL     1      10.859   1.111  13.060  1.00  0.00     0.019 A 
HETATM   21  C17 UNL     1      11.839   0.758  13.944  1.00  0.00     0.009 A 
HETATM   22  C18 UNL     1      11.661  -0.132  14.950  1.00  0.00     0.055 A 
HETATM   23  S1  UNL     1      13.367   1.787  13.668  1.00  0.00    -0.072 SA
HETATM   24  C19 UNL     1      13.506   2.939  15.126  1.00  0.00     0.079 A 
HETATM   25  C20 UNL     1      13.445   2.464  16.410  1.00  0.00     0.067 A 
HETATM   26  C21 UNL     1      13.219   3.447  17.375  1.00  0.00     0.048 A 
HETATM   27  N2  UNL     1      13.114   4.741  17.003  1.00  0.00    -0.330 N 
ATOM     28  H2  UNL     1      12.962   5.433  17.737  1.00  0.00     0.168 HD
HETATM   29  C22 UNL     1      13.196   5.182  15.739  1.00  0.00     0.193 A 
HETATM   30  N3  UNL     1      13.091   6.530  15.365  1.00  0.00    -0.063 NA
HETATM   31  N4  UNL     1      13.396   4.217  14.779  1.00  0.00    -0.325 N 
ATOM     32  H4  UNL     1      13.460   4.485  13.797  1.00  0.00     0.169 HD
ENDROOT
TORSDOF 0
ENDMDL
