MODEL 1
REMARK VINA RESULT: -8.803039992      0.000      0.000
REMARK  0 active torsions:
REMARK  status: ('A' for Active; 'I' for Inactive)
ROOT
HETATM    1  C1  UNL     1     -14.238  -5.581 -12.425  1.00  0.00     0.049 C 
HETATM    2  C2  UNL     1     -13.293  -4.937 -11.441  1.00  0.00    -0.046 A 
HETATM    3  C3  UNL     1     -12.142  -5.632 -11.180  1.00  0.00     0.015 A 
HETATM    4  C4  UNL     1     -11.276  -5.047 -10.296  1.00  0.00    -0.049 A 
HETATM    5  C5  UNL     1     -10.017  -5.835 -10.028  1.00  0.00     0.049 C 
HETATM    6  C6  UNL     1     -11.519  -3.810  -9.677  1.00  0.00    -0.002 A 
HETATM    7  C7  UNL     1     -12.693  -3.144  -9.982  1.00  0.00     0.031 A 
HETATM    8  C8  UNL     1     -13.593  -3.686 -10.849  1.00  0.00     0.038 A 
HETATM    9  C9  UNL     1     -14.972  -3.225 -11.208  1.00  0.00     0.252 C 
HETATM   10  O1  UNL     1     -15.345  -3.377 -12.414  1.00  0.00    -0.268 OA
HETATM   11  N1  UNL     1     -15.930  -2.630 -10.340  1.00  0.00    -0.357 N 
ATOM     12  H1  UNL     1     -16.798  -2.287 -10.750  1.00  0.00     0.162 HD
HETATM   13  C10 UNL     1     -15.750  -2.478  -8.903  1.00  0.00     0.124 C 
HETATM   14  C11 UNL     1     -15.230  -1.212  -8.391  1.00  0.00     0.039 C 
HETATM   15  C12 UNL     1     -14.323  -1.484  -7.181  1.00  0.00     0.124 C 
HETATM   16  N2  UNL     1     -13.521  -0.376  -6.800  1.00  0.00    -0.361 N 
ATOM     17  H2  UNL     1     -13.993   0.528  -6.756  1.00  0.00     0.162 HD
HETATM   18  C13 UNL     1     -12.167  -0.378  -6.479  1.00  0.00     0.218 C 
HETATM   19  O2  UNL     1     -11.453   0.488  -7.135  1.00  0.00    -0.274 OA
HETATM   20  C14 UNL     1     -11.411  -1.184  -5.530  1.00  0.00     0.113 C 
HETATM   21  C15 UNL     1     -10.196  -0.471  -4.931  1.00  0.00     0.090 C 
HETATM   22  S1  UNL     1      -8.747  -0.946  -5.967  1.00  0.00    -0.112 SA
HETATM   23  C16 UNL     1      -9.281  -2.376  -6.982  1.00  0.00     0.074 A 
HETATM   24  C17 UNL     1     -10.004  -2.313  -8.134  1.00  0.00     0.067 A 
HETATM   25  C18 UNL     1     -10.507  -3.496  -8.607  1.00  0.00     0.048 A 
HETATM   26  N3  UNL     1     -10.205  -4.626  -7.866  1.00  0.00    -0.330 N 
ATOM     27  H3  UNL     1     -10.576  -5.507  -8.222  1.00  0.00     0.168 HD
HETATM   28  C19 UNL     1      -9.494  -4.704  -6.751  1.00  0.00     0.193 A 
HETATM   29  N4  UNL     1      -9.238  -5.911  -6.072  1.00  0.00    -0.063 NA
HETATM   30  N5  UNL     1      -9.025  -3.514  -6.311  1.00  0.00    -0.325 N 
ATOM     31  H5  UNL     1      -8.469  -3.479  -5.456  1.00  0.00     0.169 HD
ENDROOT
TORSDOF 0
ENDMDL
