MODEL 3
REMARK VINA RESULT: -8.541109833      2.166      4.682
REMARK  0 active torsions:
REMARK  status: ('A' for Active; 'I' for Inactive)
ROOT
HETATM    1  C1  UNL     1     -15.779  -5.537 -12.069  1.00  0.00     0.049 C 
HETATM    2  C2  UNL     1     -15.024  -4.665 -11.095  1.00  0.00    -0.046 A 
HETATM    3  C3  UNL     1     -15.570  -3.432 -10.855  1.00  0.00     0.015 A 
HETATM    4  C4  UNL     1     -14.896  -2.640  -9.965  1.00  0.00    -0.049 A 
HETATM    5  C5  UNL     1     -15.521  -1.288  -9.720  1.00  0.00     0.049 C 
HETATM    6  C6  UNL     1     -13.716  -3.037  -9.315  1.00  0.00    -0.002 A 
HETATM    7  C7  UNL     1     -13.211  -4.297  -9.585  1.00  0.00     0.031 A 
HETATM    8  C8  UNL     1     -13.838  -5.120 -10.470  1.00  0.00     0.038 A 
HETATM    9  C9  UNL     1     -13.402  -6.444 -11.019  1.00  0.00     0.252 C 
HETATM   10  O1  UNL     1     -14.301  -7.320 -11.220  1.00  0.00    -0.268 OA
HETATM   11  N1  UNL     1     -12.075  -6.838 -11.352  1.00  0.00    -0.357 N 
ATOM     12  H1  UNL     1     -11.921  -7.805 -11.636  1.00  0.00     0.162 HD
HETATM   13  C10 UNL     1     -10.923  -5.949 -11.313  1.00  0.00     0.124 C 
HETATM   14  C11 UNL     1     -10.090  -5.933 -10.112  1.00  0.00     0.039 C 
HETATM   15  C12 UNL     1      -9.586  -4.504  -9.859  1.00  0.00     0.124 C 
HETATM   16  N2  UNL     1      -9.035  -4.307  -8.565  1.00  0.00    -0.361 N 
ATOM     17  H2  UNL     1      -8.392  -5.027  -8.235  1.00  0.00     0.162 HD
HETATM   18  C13 UNL     1      -9.271  -3.247  -7.693  1.00  0.00     0.218 C 
HETATM   19  O2  UNL     1      -9.633  -3.600  -6.496  1.00  0.00    -0.274 OA
HETATM   20  C14 UNL     1      -9.180  -1.808  -7.894  1.00  0.00     0.113 C 
HETATM   21  C15 UNL     1      -8.798  -1.023  -6.636  1.00  0.00     0.090 C 
HETATM   22  S1  UNL     1     -10.377  -0.471  -5.863  1.00  0.00    -0.112 SA
HETATM   23  C16 UNL     1     -11.685  -0.713  -7.124  1.00  0.00     0.074 A 
HETATM   24  C17 UNL     1     -12.310  -1.887  -7.413  1.00  0.00     0.067 A 
HETATM   25  C18 UNL     1     -13.078  -1.910  -8.547  1.00  0.00     0.048 A 
HETATM   26  N3  UNL     1     -13.145  -0.726  -9.261  1.00  0.00    -0.330 N 
ATOM     27  H3  UNL     1     -13.721  -0.743 -10.102  1.00  0.00     0.168 HD
HETATM   28  C19 UNL     1     -12.552   0.427  -8.987  1.00  0.00     0.193 A 
HETATM   29  N4  UNL     1     -12.689   1.583  -9.779  1.00  0.00    -0.063 NA
HETATM   30  N5  UNL     1     -11.794   0.405  -7.866  1.00  0.00    -0.325 N 
ATOM     31  H5  UNL     1     -11.298   1.249  -7.579  1.00  0.00     0.169 HD
ENDROOT
TORSDOF 0
ENDMDL
