MODEL 2
REMARK VINA RESULT: -8.640846472      1.577      1.648
REMARK  0 active torsions:
REMARK  status: ('A' for Active; 'I' for Inactive)
ROOT
HETATM    1  C1  UNL     1     -13.546  -6.595 -11.283  1.00  0.00     0.049 C 
HETATM    2  C2  UNL     1     -12.585  -5.663 -10.586  1.00  0.00    -0.046 A 
HETATM    3  C3  UNL     1     -11.255  -5.930 -10.775  1.00  0.00     0.015 A 
HETATM    4  C4  UNL     1     -10.379  -5.082 -10.153  1.00  0.00    -0.049 A 
HETATM    5  C5  UNL     1      -8.921  -5.400 -10.380  1.00  0.00     0.049 C 
HETATM    6  C6  UNL     1     -10.784  -3.992  -9.365  1.00  0.00    -0.002 A 
HETATM    7  C7  UNL     1     -12.139  -3.760  -9.214  1.00  0.00     0.031 A 
HETATM    8  C8  UNL     1     -13.053  -4.580  -9.803  1.00  0.00     0.038 A 
HETATM    9  C9  UNL     1     -14.544  -4.609  -9.660  1.00  0.00     0.252 C 
HETATM   10  O1  UNL     1     -15.227  -4.888 -10.695  1.00  0.00    -0.268 OA
HETATM   11  N1  UNL     1     -15.296  -4.362  -8.477  1.00  0.00    -0.357 N 
ATOM     12  H1  UNL     1     -16.312  -4.334  -8.554  1.00  0.00     0.162 HD
HETATM   13  C10 UNL     1     -14.708  -4.146  -7.163  1.00  0.00     0.124 C 
HETATM   14  C11 UNL     1     -14.479  -2.775  -6.713  1.00  0.00     0.039 C 
HETATM   15  C12 UNL     1     -13.186  -2.718  -5.885  1.00  0.00     0.124 C 
HETATM   16  N2  UNL     1     -12.701  -1.402  -5.664  1.00  0.00    -0.361 N 
ATOM     17  H2  UNL     1     -13.393  -0.708  -5.380  1.00  0.00     0.162 HD
HETATM   18  C13 UNL     1     -11.391  -0.947  -5.788  1.00  0.00     0.218 C 
HETATM   19  O2  UNL     1     -11.250   0.101  -6.543  1.00  0.00    -0.274 OA
HETATM   20  C14 UNL     1     -10.148  -1.446  -5.216  1.00  0.00     0.113 C 
HETATM   21  C15 UNL     1      -9.097  -0.362  -4.960  1.00  0.00     0.090 C 
HETATM   22  S1  UNL     1      -8.003  -0.334  -6.443  1.00  0.00    -0.112 SA
HETATM   23  C16 UNL     1      -8.359  -1.869  -7.380  1.00  0.00     0.074 A 
HETATM   24  C17 UNL     1      -9.402  -2.061  -8.232  1.00  0.00     0.067 A 
HETATM   25  C18 UNL     1      -9.630  -3.348  -8.642  1.00  0.00     0.048 A 
HETATM   26  N3  UNL     1      -8.756  -4.306  -8.155  1.00  0.00    -0.330 N 
ATOM     27  H3  UNL     1      -8.923  -5.263  -8.466  1.00  0.00     0.168 HD
HETATM   28  C19 UNL     1      -7.730  -4.132  -7.336  1.00  0.00     0.193 A 
HETATM   29  N4  UNL     1      -6.893  -5.178  -6.901  1.00  0.00    -0.063 NA
HETATM   30  N5  UNL     1      -7.547  -2.850  -6.945  1.00  0.00    -0.325 N 
ATOM     31  H5  UNL     1      -6.780  -2.623  -6.310  1.00  0.00     0.169 HD
ENDROOT
TORSDOF 0
ENDMDL
