MODEL 8
REMARK VINA RESULT: -11.627068108      3.449     10.727
REMARK  5 active torsions:
REMARK  status: ('A' for Active; 'I' for Inactive)
REMARK    1  A    between atoms: C6_11  and  O1_12 
REMARK    2  A    between atoms: O1_12  and  C7_13 
REMARK    3  A    between atoms: C10_16  and  N4_17 
REMARK       I    between atoms: N4_17  and  C11_19 
REMARK       I    between atoms: C11_19  and  N5_21 
REMARK    4  A    between atoms: N5_21  and  C12_23 
REMARK    5  A    between atoms: C16_27  and  C17_28 
ROOT
HETATM    1  C7  UNL     1     -27.709  -2.303  -9.465  1.00  0.00     0.081 A 
HETATM    2  C8  UNL     1     -28.197  -1.846 -10.702  1.00  0.00     0.040 A 
HETATM    3  C9  UNL     1     -27.350  -1.623 -11.759  1.00  0.00     0.035 A 
HETATM    4  C10 UNL     1     -26.006  -1.820 -11.708  1.00  0.00     0.075 A 
HETATM    5  C19 UNL     1     -25.526  -2.277 -10.476  1.00  0.00     0.145 A 
HETATM    6  F4  UNL     1     -24.211  -2.512 -10.305  1.00  0.00    -0.204 F 
HETATM    7  C20 UNL     1     -26.368  -2.507  -9.391  1.00  0.00     0.082 A 
ENDROOT
BRANCH   4   8
HETATM    8  N4  UNL     1     -25.062  -1.601 -12.726  1.00  0.00    -0.306 N 
HETATM    9  C11 UNL     1     -24.008  -0.646 -12.682  1.00  0.00     0.325 C 
HETATM   10  O2  UNL     1     -23.871   0.085 -11.680  1.00  0.00    -0.247 OA
HETATM   11  N5  UNL     1     -23.088  -0.501 -13.761  1.00  0.00    -0.309 N 
ATOM     12  H5  UNL     1     -23.229  -1.113 -14.565  1.00  0.00     0.170 HD
ATOM     13  H4  UNL     1     -25.138  -2.174 -13.566  1.00  0.00     0.171 HD
BRANCH  11  14
HETATM   14  C12 UNL     1     -22.014   0.391 -13.836  1.00  0.00     0.037 A 
HETATM   15  C13 UNL     1     -22.315   1.761 -13.881  1.00  0.00     0.029 A 
HETATM   16  C14 UNL     1     -21.332   2.712 -13.951  1.00  0.00     0.003 A 
HETATM   17  C15 UNL     1     -20.015   2.346 -13.980  1.00  0.00     0.016 A 
HETATM   18  C16 UNL     1     -19.684   1.019 -13.938  1.00  0.00     0.050 A 
HETATM   19  C18 UNL     1     -20.697   0.079 -13.867  1.00  0.00     0.045 A 
BRANCH  18  20
HETATM   20  C17 UNL     1     -18.239   0.590 -13.968  1.00  0.00     0.417 C 
HETATM   21  F1  UNL     1     -18.185  -0.686 -14.509  1.00  0.00    -0.166 F 
HETATM   22  F2  UNL     1     -17.692   0.570 -12.709  1.00  0.00    -0.166 F 
HETATM   23  F3  UNL     1     -17.503   1.410 -14.791  1.00  0.00    -0.166 F 
ENDBRANCH  18  20
ENDBRANCH  11  14
ENDBRANCH   4   8
BRANCH   1  24
HETATM   24  O1  UNL     1     -28.621  -2.494  -8.443  1.00  0.00    -0.291 OA
BRANCH  24  25
HETATM   25  C6  UNL     1     -28.683  -3.632  -7.694  1.00  0.00     0.178 A 
HETATM   26  N3  UNL     1     -28.550  -4.844  -8.333  1.00  0.00    -0.331 N 
HETATM   27  C5  UNL     1     -28.600  -6.009  -7.697  1.00  0.00     0.183 A 
ATOM     28  H3  UNL     1     -28.407  -4.848  -9.343  1.00  0.00     0.168 HD
HETATM   29  N2  UNL     1     -28.783  -6.058  -6.380  1.00  0.00    -0.350 N 
HETATM   30  C4  UNL     1     -28.921  -4.924  -5.695  1.00  0.00     0.066 A 
ATOM     31  H2  UNL     1     -28.817  -6.957  -5.898  1.00  0.00     0.166 HD
HETATM   32  C3  UNL     1     -29.152  -4.678  -4.364  1.00  0.00     0.049 A 
HETATM   33  C21 UNL     1     -28.874  -3.686  -6.344  1.00  0.00     0.113 A 
HETATM   34  C2  UNL     1     -29.247  -3.324  -4.202  1.00  0.00     0.093 A 
HETATM   35  N1  UNL     1     -29.076  -2.747  -5.410  1.00  0.00    -0.356 N 
HETATM   36  C1  UNL     1     -29.161  -1.325  -5.586  1.00  0.00     0.156 C 
ENDBRANCH  24  25
ENDBRANCH   1  24
TORSDOF 5
ENDMDL
