MODEL 1
REMARK VINA RESULT: -12.567184089      0.000      0.000
REMARK  5 active torsions:
REMARK  status: ('A' for Active; 'I' for Inactive)
REMARK    1  A    between atoms: C6_11  and  O1_12 
REMARK    2  A    between atoms: O1_12  and  C7_13 
REMARK    3  A    between atoms: C10_16  and  N4_17 
REMARK       I    between atoms: N4_17  and  C11_19 
REMARK       I    between atoms: C11_19  and  N5_21 
REMARK    4  A    between atoms: N5_21  and  C12_23 
REMARK    5  A    between atoms: C16_27  and  C17_28 
ROOT
HETATM    1  C7  UNL     1     -23.380  -1.408 -13.047  1.00  0.00     0.081 A 
HETATM    2  C8  UNL     1     -23.149  -2.181 -11.895  1.00  0.00     0.040 A 
HETATM    3  C9  UNL     1     -24.190  -2.758 -11.210  1.00  0.00     0.035 A 
HETATM    4  C10 UNL     1     -25.495  -2.641 -11.573  1.00  0.00     0.075 A 
HETATM    5  C19 UNL     1     -25.718  -1.873 -12.721  1.00  0.00     0.145 A 
HETATM    6  F4  UNL     1     -26.970  -1.689 -13.180  1.00  0.00    -0.204 F 
HETATM    7  C20 UNL     1     -24.677  -1.277 -13.429  1.00  0.00     0.082 A 
ENDROOT
BRANCH   4   8
HETATM    8  N4  UNL     1     -26.622  -3.175 -10.926  1.00  0.00    -0.306 N 
HETATM    9  C11 UNL     1     -27.026  -2.881  -9.594  1.00  0.00     0.325 C 
HETATM   10  O2  UNL     1     -26.354  -2.092  -8.899  1.00  0.00    -0.247 OA
HETATM   11  N5  UNL     1     -28.194  -3.465  -9.023  1.00  0.00    -0.309 N 
ATOM     12  H5  UNL     1     -28.720  -4.106  -9.618  1.00  0.00     0.170 HD
ATOM     13  H4  UNL     1     -27.199  -3.830 -11.456  1.00  0.00     0.171 HD
BRANCH  11  14
HETATM   14  C12 UNL     1     -28.697  -3.253  -7.736  1.00  0.00     0.037 A 
HETATM   15  C13 UNL     1     -29.788  -4.037  -7.332  1.00  0.00     0.029 A 
HETATM   16  C14 UNL     1     -30.349  -3.908  -6.089  1.00  0.00     0.003 A 
HETATM   17  C15 UNL     1     -29.853  -2.997  -5.198  1.00  0.00     0.016 A 
HETATM   18  C16 UNL     1     -28.789  -2.214  -5.557  1.00  0.00     0.050 A 
HETATM   19  C18 UNL     1     -28.242  -2.367  -6.819  1.00  0.00     0.045 A 
BRANCH  18  20
HETATM   20  C17 UNL     1     -28.224  -1.203  -4.592  1.00  0.00     0.417 C 
HETATM   21  F1  UNL     1     -26.999  -1.679  -4.146  1.00  0.00    -0.166 F 
HETATM   22  F2  UNL     1     -29.054  -1.015  -3.515  1.00  0.00    -0.166 F 
HETATM   23  F3  UNL     1     -27.987  -0.004  -5.222  1.00  0.00    -0.166 F 
ENDBRANCH  18  20
ENDBRANCH  11  14
ENDBRANCH   4   8
BRANCH   1  24
HETATM   24  O1  UNL     1     -22.284  -0.849 -13.678  1.00  0.00    -0.291 OA
BRANCH  24  25
HETATM   25  C6  UNL     1     -22.042   0.493 -13.714  1.00  0.00     0.178 A 
HETATM   26  N3  UNL     1     -23.096   1.354 -13.507  1.00  0.00    -0.331 N 
HETATM   27  C5  UNL     1     -22.967   2.675 -13.526  1.00  0.00     0.183 A 
ATOM     28  H3  UNL     1     -24.019   0.958 -13.330  1.00  0.00     0.168 HD
HETATM   29  N2  UNL     1     -21.784   3.242 -13.751  1.00  0.00    -0.350 N 
HETATM   30  C4  UNL     1     -20.718   2.471 -13.962  1.00  0.00     0.066 A 
ATOM     31  H2  UNL     1     -21.694   4.258 -13.762  1.00  0.00     0.166 HD
HETATM   32  C3  UNL     1     -19.410   2.771 -14.248  1.00  0.00     0.049 A 
HETATM   33  C21 UNL     1     -20.831   1.076 -13.948  1.00  0.00     0.113 A 
HETATM   34  C2  UNL     1     -18.737   1.592 -14.408  1.00  0.00     0.093 A 
HETATM   35  N1  UNL     1     -19.615   0.584 -14.223  1.00  0.00    -0.356 N 
HETATM   36  C1  UNL     1     -19.227  -0.790 -14.365  1.00  0.00     0.156 C 
ENDBRANCH  24  25
ENDBRANCH   1  24
TORSDOF 5
ENDMDL
