MODEL 13
REMARK VINA RESULT: -11.087845405      3.450     10.482
REMARK  5 active torsions:
REMARK  status: ('A' for Active; 'I' for Inactive)
REMARK    1  A    between atoms: C6_11  and  O1_12 
REMARK    2  A    between atoms: O1_12  and  C7_13 
REMARK    3  A    between atoms: C10_16  and  N4_17 
REMARK       I    between atoms: N4_17  and  C11_19 
REMARK       I    between atoms: C11_19  and  N5_21 
REMARK    4  A    between atoms: N5_21  and  C12_23 
REMARK    5  A    between atoms: C16_27  and  C17_28 
ROOT
HETATM    1  C7  UNL     1     -27.861  -2.483  -9.520  1.00  0.00     0.081 A 
HETATM    2  C8  UNL     1     -28.363  -1.887 -10.691  1.00  0.00     0.040 A 
HETATM    3  C9  UNL     1     -27.533  -1.588 -11.743  1.00  0.00     0.035 A 
HETATM    4  C10 UNL     1     -26.196  -1.834 -11.749  1.00  0.00     0.075 A 
HETATM    5  C19 UNL     1     -25.704  -2.429 -10.582  1.00  0.00     0.145 A 
HETATM    6  F4  UNL     1     -24.395  -2.725 -10.472  1.00  0.00    -0.204 F 
HETATM    7  C20 UNL     1     -26.527  -2.739  -9.503  1.00  0.00     0.082 A 
ENDROOT
BRANCH   4   8
HETATM    8  N4  UNL     1     -25.269  -1.546 -12.765  1.00  0.00    -0.306 N 
HETATM    9  C11 UNL     1     -24.227  -0.581 -12.682  1.00  0.00     0.325 C 
HETATM   10  O2  UNL     1     -24.086   0.095 -11.642  1.00  0.00    -0.247 OA
HETATM   11  N5  UNL     1     -23.325  -0.363 -13.763  1.00  0.00    -0.309 N 
ATOM     12  H5  UNL     1     -23.469  -0.931 -14.598  1.00  0.00     0.170 HD
ATOM     13  H4  UNL     1     -25.351  -2.072 -13.635  1.00  0.00     0.171 HD
BRANCH  11  14
HETATM   14  C12 UNL     1     -22.263   0.546 -13.802  1.00  0.00     0.037 A 
HETATM   15  C13 UNL     1     -22.580   1.911 -13.726  1.00  0.00     0.029 A 
HETATM   16  C14 UNL     1     -21.610   2.878 -13.751  1.00  0.00     0.003 A 
HETATM   17  C15 UNL     1     -20.292   2.533 -13.855  1.00  0.00     0.016 A 
HETATM   18  C16 UNL     1     -19.945   1.211 -13.932  1.00  0.00     0.050 A 
HETATM   19  C18 UNL     1     -20.945   0.256 -13.903  1.00  0.00     0.045 A 
BRANCH  18  20
HETATM   20  C17 UNL     1     -18.498   0.806 -14.047  1.00  0.00     0.417 C 
HETATM   21  F1  UNL     1     -18.455  -0.473 -14.584  1.00  0.00    -0.166 F 
HETATM   22  F2  UNL     1     -17.876   0.801 -12.823  1.00  0.00    -0.166 F 
HETATM   23  F3  UNL     1     -17.825   1.633 -14.917  1.00  0.00    -0.166 F 
ENDBRANCH  18  20
ENDBRANCH  11  14
ENDBRANCH   4   8
BRANCH   1  24
HETATM   24  O1  UNL     1     -28.755  -2.745  -8.497  1.00  0.00    -0.291 OA
BRANCH  24  25
HETATM   25  C6  UNL     1     -28.439  -2.630  -7.175  1.00  0.00     0.178 A 
HETATM   26  N3  UNL     1     -27.924  -1.435  -6.727  1.00  0.00    -0.331 N 
HETATM   27  C5  UNL     1     -27.581  -1.222  -5.462  1.00  0.00     0.183 A 
ATOM     28  H3  UNL     1     -27.801  -0.676  -7.398  1.00  0.00     0.168 HD
HETATM   29  N2  UNL     1     -27.723  -2.178  -4.547  1.00  0.00    -0.350 N 
HETATM   30  C4  UNL     1     -28.214  -3.362  -4.908  1.00  0.00     0.066 A 
ATOM     31  H2  UNL     1     -27.459  -2.005  -3.577  1.00  0.00     0.166 HD
HETATM   32  C3  UNL     1     -28.433  -4.520  -4.203  1.00  0.00     0.049 A 
HETATM   33  C21 UNL     1     -28.580  -3.610  -6.236  1.00  0.00     0.113 A 
HETATM   34  C2  UNL     1     -28.919  -5.453  -5.075  1.00  0.00     0.093 A 
HETATM   35  N1  UNL     1     -28.999  -4.881  -6.295  1.00  0.00    -0.356 N 
HETATM   36  C1  UNL     1     -29.437  -5.617  -7.446  1.00  0.00     0.156 C 
ENDBRANCH  24  25
ENDBRANCH   1  24
TORSDOF 5
ENDMDL
