MODEL 11
REMARK VINA RESULT: -11.160764953      1.296      1.536
REMARK  5 active torsions:
REMARK  status: ('A' for Active; 'I' for Inactive)
REMARK    1  A    between atoms: C6_11  and  O1_12 
REMARK    2  A    between atoms: O1_12  and  C7_13 
REMARK    3  A    between atoms: C10_16  and  N4_17 
REMARK       I    between atoms: N4_17  and  C11_19 
REMARK       I    between atoms: C11_19  and  N5_21 
REMARK    4  A    between atoms: N5_21  and  C12_23 
REMARK    5  A    between atoms: C16_27  and  C17_28 
ROOT
HETATM    1  C7  UNL     1     -23.438  -0.770 -13.219  1.00  0.00     0.081 A 
HETATM    2  C8  UNL     1     -24.467  -1.464 -13.881  1.00  0.00     0.040 A 
HETATM    3  C9  UNL     1     -25.649  -1.749 -13.245  1.00  0.00     0.035 A 
HETATM    4  C10 UNL     1     -25.925  -1.398 -11.961  1.00  0.00     0.075 A 
HETATM    5  C19 UNL     1     -24.898  -0.706 -11.309  1.00  0.00     0.145 A 
HETATM    6  F4  UNL     1     -25.056  -0.302 -10.035  1.00  0.00    -0.204 F 
HETATM    7  C20 UNL     1     -23.690  -0.408 -11.935  1.00  0.00     0.082 A 
ENDROOT
BRANCH   4   8
HETATM    8  N4  UNL     1     -27.091  -1.663 -11.224  1.00  0.00    -0.306 N 
HETATM    9  C11 UNL     1     -27.138  -2.309  -9.957  1.00  0.00     0.325 C 
HETATM   10  O2  UNL     1     -26.082  -2.694  -9.415  1.00  0.00    -0.247 OA
HETATM   11  N5  UNL     1     -28.371  -2.527  -9.276  1.00  0.00    -0.309 N 
ATOM     12  H5  UNL     1     -29.215  -2.201  -9.747  1.00  0.00     0.170 HD
ATOM     13  H4  UNL     1     -27.979  -1.369 -11.631  1.00  0.00     0.171 HD
BRANCH  11  14
HETATM   14  C12 UNL     1     -28.548  -3.141  -8.032  1.00  0.00     0.037 A 
HETATM   15  C13 UNL     1     -29.044  -4.453  -8.025  1.00  0.00     0.029 A 
HETATM   16  C14 UNL     1     -29.248  -5.140  -6.858  1.00  0.00     0.003 A 
HETATM   17  C15 UNL     1     -28.970  -4.556  -5.654  1.00  0.00     0.016 A 
HETATM   18  C16 UNL     1     -28.484  -3.277  -5.622  1.00  0.00     0.050 A 
HETATM   19  C18 UNL     1     -28.288  -2.607  -6.816  1.00  0.00     0.045 A 
BRANCH  18  20
HETATM   20  C17 UNL     1     -28.169  -2.612  -4.306  1.00  0.00     0.417 C 
HETATM   21  F1  UNL     1     -28.032  -3.607  -3.348  1.00  0.00    -0.166 F 
HETATM   22  F2  UNL     1     -29.169  -1.753  -3.923  1.00  0.00    -0.166 F 
HETATM   23  F3  UNL     1     -26.969  -1.943  -4.370  1.00  0.00    -0.166 F 
ENDBRANCH  18  20
ENDBRANCH  11  14
ENDBRANCH   4   8
BRANCH   1  24
HETATM   24  O1  UNL     1     -22.270  -0.528 -13.921  1.00  0.00    -0.291 OA
BRANCH  24  25
HETATM   25  C6  UNL     1     -21.650   0.686 -13.951  1.00  0.00     0.178 A 
HETATM   26  N3  UNL     1     -22.418   1.817 -13.789  1.00  0.00    -0.331 N 
HETATM   27  C5  UNL     1     -21.913   3.045 -13.806  1.00  0.00     0.183 A 
ATOM     28  H3  UNL     1     -23.422   1.707 -13.649  1.00  0.00     0.168 HD
HETATM   29  N2  UNL     1     -20.609   3.244 -13.985  1.00  0.00    -0.350 N 
HETATM   30  C4  UNL     1     -19.804   2.195 -14.150  1.00  0.00     0.066 A 
ATOM     31  H2  UNL     1     -20.229   4.190 -13.995  1.00  0.00     0.166 HD
HETATM   32  C3  UNL     1     -18.454   2.101 -14.384  1.00  0.00     0.049 A 
HETATM   33  C21 UNL     1     -20.314   0.892 -14.137  1.00  0.00     0.113 A 
HETATM   34  C2  UNL     1     -18.145   0.776 -14.513  1.00  0.00     0.093 A 
HETATM   35  N1  UNL     1     -19.283   0.067 -14.361  1.00  0.00    -0.356 N 
HETATM   36  C1  UNL     1     -19.302  -1.363 -14.483  1.00  0.00     0.156 C 
ENDBRANCH  24  25
ENDBRANCH   1  24
TORSDOF 5
ENDMDL
