MODEL 4
REMARK VINA RESULT: -11.919164418      0.941      1.872
REMARK  5 active torsions:
REMARK  status: ('A' for Active; 'I' for Inactive)
REMARK    1  A    between atoms: C6_11  and  O1_12 
REMARK    2  A    between atoms: O1_12  and  C7_13 
REMARK    3  A    between atoms: C10_16  and  N4_17 
REMARK       I    between atoms: N4_17  and  C11_19 
REMARK       I    between atoms: C11_19  and  N5_21 
REMARK    4  A    between atoms: N5_21  and  C12_23 
REMARK    5  A    between atoms: C16_27  and  C17_28 
ROOT
HETATM    1  C7  UNL     1     -24.011  -0.511 -12.842  1.00  0.00     0.081 A 
HETATM    2  C8  UNL     1     -23.552  -0.984 -11.599  1.00  0.00     0.040 A 
HETATM    3  C9  UNL     1     -24.301  -1.862 -10.856  1.00  0.00     0.035 A 
HETATM    4  C10 UNL     1     -25.514  -2.340 -11.242  1.00  0.00     0.075 A 
HETATM    5  C19 UNL     1     -25.964  -1.868 -12.480  1.00  0.00     0.145 A 
HETATM    6  F4  UNL     1     -27.150  -2.274 -12.969  1.00  0.00    -0.204 F 
HETATM    7  C20 UNL     1     -25.221  -0.975 -13.248  1.00  0.00     0.082 A 
ENDROOT
BRANCH   4   8
HETATM    8  N4  UNL     1     -26.357  -3.220 -10.543  1.00  0.00    -0.306 N 
HETATM    9  C11 UNL     1     -27.002  -2.938  -9.307  1.00  0.00     0.325 C 
HETATM   10  O2  UNL     1     -26.833  -1.832  -8.754  1.00  0.00    -0.247 OA
HETATM   11  N5  UNL     1     -27.851  -3.891  -8.674  1.00  0.00    -0.309 N 
ATOM     12  H5  UNL     1     -27.967  -4.785  -9.151  1.00  0.00     0.170 HD
ATOM     13  H4  UNL     1     -26.521  -4.139 -10.956  1.00  0.00     0.171 HD
BRANCH  11  14
HETATM   14  C12 UNL     1     -28.543  -3.733  -7.469  1.00  0.00     0.037 A 
HETATM   15  C13 UNL     1     -29.716  -4.483  -7.295  1.00  0.00     0.029 A 
HETATM   16  C14 UNL     1     -30.460  -4.401  -6.148  1.00  0.00     0.003 A 
HETATM   17  C15 UNL     1     -30.074  -3.573  -5.130  1.00  0.00     0.016 A 
HETATM   18  C16 UNL     1     -28.935  -2.826  -5.265  1.00  0.00     0.050 A 
HETATM   19  C18 UNL     1     -28.203  -2.930  -6.434  1.00  0.00     0.045 A 
BRANCH  18  20
HETATM   20  C17 UNL     1     -28.489  -1.907  -4.157  1.00  0.00     0.417 C 
HETATM   21  F1  UNL     1     -27.209  -1.464  -4.460  1.00  0.00    -0.166 F 
HETATM   22  F2  UNL     1     -28.467  -2.551  -2.944  1.00  0.00    -0.166 F 
HETATM   23  F3  UNL     1     -29.296  -0.795  -4.088  1.00  0.00    -0.166 F 
ENDBRANCH  18  20
ENDBRANCH  11  14
ENDBRANCH   4   8
BRANCH   1  24
HETATM   24  O1  UNL     1     -23.207   0.381 -13.528  1.00  0.00    -0.291 OA
BRANCH  24  25
HETATM   25  C6  UNL     1     -21.871   0.189 -13.726  1.00  0.00     0.178 A 
HETATM   26  N3  UNL     1     -21.372  -1.091 -13.631  1.00  0.00    -0.331 N 
HETATM   27  C5  UNL     1     -20.089  -1.384 -13.802  1.00  0.00     0.183 A 
ATOM     28  H3  UNL     1     -22.020  -1.851 -13.420  1.00  0.00     0.168 HD
HETATM   29  N2  UNL     1     -19.203  -0.430 -14.080  1.00  0.00    -0.350 N 
HETATM   30  C4  UNL     1     -19.613   0.833 -14.185  1.00  0.00     0.066 A 
ATOM     31  H2  UNL     1     -18.219  -0.664 -14.212  1.00  0.00     0.166 HD
HETATM   32  C3  UNL     1     -18.933   2.002 -14.423  1.00  0.00     0.049 A 
HETATM   33  C21 UNL     1     -20.960   1.165 -14.008  1.00  0.00     0.113 A 
HETATM   34  C2  UNL     1     -19.840   3.024 -14.390  1.00  0.00     0.093 A 
HETATM   35  N1  UNL     1     -21.055   2.495 -14.138  1.00  0.00    -0.356 N 
HETATM   36  C1  UNL     1     -22.222   3.318 -13.998  1.00  0.00     0.156 C 
ENDBRANCH  24  25
ENDBRANCH   1  24
TORSDOF 5
ENDMDL
