MODEL 12
REMARK VINA RESULT: -11.104686320      3.269     10.696
REMARK  5 active torsions:
REMARK  status: ('A' for Active; 'I' for Inactive)
REMARK    1  A    between atoms: C6_11  and  O1_12 
REMARK    2  A    between atoms: O1_12  and  C7_13 
REMARK    3  A    between atoms: C10_16  and  N4_17 
REMARK       I    between atoms: N4_17  and  C11_19 
REMARK       I    between atoms: C11_19  and  N5_21 
REMARK    4  A    between atoms: N5_21  and  C12_23 
REMARK    5  A    between atoms: C16_27  and  C17_28 
ROOT
HETATM    1  C7  UNL     1     -28.057  -2.546  -9.142  1.00  0.00     0.081 A 
HETATM    2  C8  UNL     1     -26.679  -2.351  -8.935  1.00  0.00     0.040 A 
HETATM    3  C9  UNL     1     -25.842  -2.053  -9.981  1.00  0.00     0.035 A 
HETATM    4  C10 UNL     1     -26.255  -1.920 -11.269  1.00  0.00     0.075 A 
HETATM    5  C19 UNL     1     -27.626  -2.113 -11.469  1.00  0.00     0.145 A 
HETATM    6  F4  UNL     1     -28.153  -2.004 -12.703  1.00  0.00    -0.204 F 
HETATM    7  C20 UNL     1     -28.493  -2.418 -10.422  1.00  0.00     0.082 A 
ENDROOT
BRANCH   4   8
HETATM    8  N4  UNL     1     -25.472  -1.639 -12.402  1.00  0.00    -0.306 N 
HETATM    9  C11 UNL     1     -24.158  -1.093 -12.382  1.00  0.00     0.325 C 
HETATM   10  O2  UNL     1     -23.613  -0.820 -11.293  1.00  0.00    -0.247 OA
HETATM   11  N5  UNL     1     -23.434  -0.849 -13.585  1.00  0.00    -0.309 N 
ATOM     12  H5  UNL     1     -23.909  -1.082 -14.458  1.00  0.00     0.170 HD
ATOM     13  H4  UNL     1     -25.880  -1.842 -13.314  1.00  0.00     0.171 HD
BRANCH  11  14
HETATM   14  C12 UNL     1     -22.143  -0.325 -13.698  1.00  0.00     0.037 A 
HETATM   15  C13 UNL     1     -21.070  -1.201 -13.476  1.00  0.00     0.029 A 
HETATM   16  C14 UNL     1     -19.768  -0.785 -13.567  1.00  0.00     0.003 A 
HETATM   17  C15 UNL     1     -19.478   0.514 -13.880  1.00  0.00     0.016 A 
HETATM   18  C16 UNL     1     -20.499   1.397 -14.104  1.00  0.00     0.050 A 
HETATM   19  C18 UNL     1     -21.804   0.949 -14.005  1.00  0.00     0.045 A 
BRANCH  18  20
HETATM   20  C17 UNL     1     -20.205   2.835 -14.451  1.00  0.00     0.417 C 
HETATM   21  F1  UNL     1     -19.933   3.510 -13.269  1.00  0.00    -0.166 F 
HETATM   22  F2  UNL     1     -21.271   3.432 -15.076  1.00  0.00    -0.166 F 
HETATM   23  F3  UNL     1     -19.081   2.928 -15.238  1.00  0.00    -0.166 F 
ENDBRANCH  18  20
ENDBRANCH  11  14
ENDBRANCH   4   8
BRANCH   1  24
HETATM   24  O1  UNL     1     -28.837  -2.855  -8.042  1.00  0.00    -0.291 OA
BRANCH  24  25
HETATM   25  C6  UNL     1     -28.810  -4.068  -7.419  1.00  0.00     0.178 A 
HETATM   26  N3  UNL     1     -28.646  -5.196  -8.191  1.00  0.00    -0.331 N 
HETATM   27  C5  UNL     1     -28.611  -6.423  -7.684  1.00  0.00     0.183 A 
ATOM     28  H3  UNL     1     -28.546  -5.084  -9.201  1.00  0.00     0.168 HD
HETATM   29  N2  UNL     1     -28.735  -6.623  -6.374  1.00  0.00    -0.350 N 
HETATM   30  C4  UNL     1     -28.899  -5.577  -5.565  1.00  0.00     0.066 A 
ATOM     31  H2  UNL     1     -28.705  -7.568  -5.993  1.00  0.00     0.166 HD
HETATM   32  C3  UNL     1     -29.085  -5.487  -4.208  1.00  0.00     0.049 A 
HETATM   33  C21 UNL     1     -28.941  -4.276  -6.077  1.00  0.00     0.113 A 
HETATM   34  C2  UNL     1     -29.239  -4.165  -3.896  1.00  0.00     0.093 A 
HETATM   35  N1  UNL     1     -29.149  -3.455  -5.040  1.00  0.00    -0.356 N 
HETATM   36  C1  UNL     1     -29.311  -2.029  -5.057  1.00  0.00     0.156 C 
ENDBRANCH  24  25
ENDBRANCH   1  24
TORSDOF 5
ENDMDL
