MODEL 6
REMARK VINA RESULT: -11.776409508      1.218      1.506
REMARK  5 active torsions:
REMARK  status: ('A' for Active; 'I' for Inactive)
REMARK    1  A    between atoms: C6_11  and  O1_12 
REMARK    2  A    between atoms: O1_12  and  C7_13 
REMARK    3  A    between atoms: C10_16  and  N4_17 
REMARK       I    between atoms: N4_17  and  C11_19 
REMARK       I    between atoms: C11_19  and  N5_21 
REMARK    4  A    between atoms: N5_21  and  C12_23 
REMARK    5  A    between atoms: C16_27  and  C17_28 
ROOT
HETATM    1  C7  UNL     1     -22.309  -1.057 -12.965  1.00  0.00     0.081 A 
HETATM    2  C8  UNL     1     -23.371  -0.135 -12.968  1.00  0.00     0.040 A 
HETATM    3  C9  UNL     1     -24.618  -0.492 -12.520  1.00  0.00     0.035 A 
HETATM    4  C10 UNL     1     -24.930  -1.728 -12.047  1.00  0.00     0.075 A 
HETATM    5  C19 UNL     1     -23.869  -2.640 -12.045  1.00  0.00     0.145 A 
HETATM    6  F4  UNL     1     -24.055  -3.895 -11.595  1.00  0.00    -0.204 F 
HETATM    7  C20 UNL     1     -22.596  -2.299 -12.496  1.00  0.00     0.082 A 
ENDROOT
BRANCH   4   8
HETATM    8  N4  UNL     1     -26.176  -2.188 -11.589  1.00  0.00    -0.306 N 
HETATM    9  C11 UNL     1     -26.547  -2.346 -10.225  1.00  0.00     0.325 C 
HETATM   10  O2  UNL     1     -25.732  -2.070  -9.321  1.00  0.00    -0.247 OA
HETATM   11  N5  UNL     1     -27.841  -2.812  -9.853  1.00  0.00    -0.309 N 
ATOM     12  H5  UNL     1     -28.483  -3.030 -10.616  1.00  0.00     0.170 HD
ATOM     13  H4  UNL     1     -26.873  -2.431 -12.294  1.00  0.00     0.171 HD
BRANCH  11  14
HETATM   14  C12 UNL     1     -28.326  -3.002  -8.556  1.00  0.00     0.037 A 
HETATM   15  C13 UNL     1     -29.251  -4.039  -8.358  1.00  0.00     0.029 A 
HETATM   16  C14 UNL     1     -29.780  -4.308  -7.124  1.00  0.00     0.003 A 
HETATM   17  C15 UNL     1     -29.416  -3.561  -6.038  1.00  0.00     0.016 A 
HETATM   18  C16 UNL     1     -28.517  -2.542  -6.192  1.00  0.00     0.050 A 
HETATM   19  C18 UNL     1     -27.998  -2.293  -7.451  1.00  0.00     0.045 A 
BRANCH  18  20
HETATM   20  C17 UNL     1     -28.100  -1.705  -5.010  1.00  0.00     0.417 C 
HETATM   21  F1  UNL     1     -26.992  -2.308  -4.431  1.00  0.00    -0.166 F 
HETATM   22  F2  UNL     1     -29.102  -1.615  -4.076  1.00  0.00    -0.166 F 
HETATM   23  F3  UNL     1     -27.713  -0.448  -5.412  1.00  0.00    -0.166 F 
ENDBRANCH  18  20
ENDBRANCH  11  14
ENDBRANCH   4   8
BRANCH   1  24
HETATM   24  O1  UNL     1     -21.083  -0.628 -13.442  1.00  0.00    -0.291 OA
BRANCH  24  25
HETATM   25  C6  UNL     1     -20.828   0.661 -13.808  1.00  0.00     0.178 A 
HETATM   26  N3  UNL     1     -21.869   1.562 -13.799  1.00  0.00    -0.331 N 
HETATM   27  C5  UNL     1     -21.728   2.837 -14.142  1.00  0.00     0.183 A 
ATOM     28  H3  UNL     1     -22.793   1.234 -13.514  1.00  0.00     0.168 HD
HETATM   29  N2  UNL     1     -20.544   3.314 -14.519  1.00  0.00    -0.350 N 
HETATM   30  C4  UNL     1     -19.491   2.499 -14.554  1.00  0.00     0.066 A 
ATOM     31  H2  UNL     1     -20.444   4.295 -14.778  1.00  0.00     0.166 HD
HETATM   32  C3  UNL     1     -18.186   2.702 -14.928  1.00  0.00     0.049 A 
HETATM   33  C21 UNL     1     -19.616   1.152 -14.199  1.00  0.00     0.113 A 
HETATM   34  C2  UNL     1     -17.528   1.509 -14.807  1.00  0.00     0.093 A 
HETATM   35  N1  UNL     1     -18.412   0.590 -14.366  1.00  0.00    -0.356 N 
HETATM   36  C1  UNL     1     -18.040  -0.784 -14.176  1.00  0.00     0.156 C 
ENDBRANCH  24  25
ENDBRANCH   1  24
TORSDOF 5
ENDMDL
