MODEL 13
REMARK VINA RESULT: -4.505368217      2.242      6.611
REMARK  5 active torsions:
REMARK  status: ('A' for Active; 'I' for Inactive)
REMARK    1  A    between atoms: C6_10  and  C7_11 
REMARK    2  A    between atoms: C7_11  and  C8_12 
REMARK    3  A    between atoms: C8_12  and  C9_13 
REMARK    4  A    between atoms: C9_13  and  C10_14 
REMARK    5  A    between atoms: C10_14  and  C11_15 
ROOT
HETATM    1  C1  UNL     1       5.241  12.657   7.324  1.00  0.00     0.155 C 
HETATM    2  N1  UNL     1       5.124  11.371   7.942  1.00  0.00    -0.331 N 
HETATM    3  C2  UNL     1       3.858  10.721   8.224  1.00  0.00     0.320 C 
HETATM    4  O1  UNL     1       2.715  11.257   8.284  1.00  0.00    -0.247 OA
HETATM    5  N2  UNL     1       4.096   9.333   8.435  1.00  0.00    -0.331 N 
HETATM    6  C3  UNL     1       3.274   8.316   9.006  1.00  0.00     0.155 C 
HETATM    7  C4  UNL     1       5.454   9.132   7.911  1.00  0.00     0.121 C 
HETATM    8  C5  UNL     1       5.372   9.248   6.404  1.00  0.00     0.102 C 
HETATM    9  S1  UNL     1       6.979  10.076   6.050  1.00  0.00    -0.160 SA
HETATM   10  C6  UNL     1       7.420  10.426   7.782  1.00  0.00     0.072 C 
HETATM   11  C12 UNL     1       6.089  10.437   8.416  1.00  0.00     0.126 C 
ENDROOT
BRANCH  10  12
HETATM   12  C7  UNL     1       8.279  11.614   7.955  1.00  0.00     0.017 C 
BRANCH  12  13
HETATM   13  C8  UNL     1       8.883  11.982   6.622  1.00  0.00     0.002 C 
BRANCH  13  14
HETATM   14  C9  UNL     1      10.341  12.330   6.699  1.00  0.00     0.010 C 
BRANCH  14  15
HETATM   15  C10 UNL     1      10.963  11.644   7.882  1.00  0.00     0.113 C 
BRANCH  15  16
HETATM   16  C11 UNL     1      11.653  10.398   7.408  1.00  0.00     0.172 C 
HETATM   17  O2  UNL     1      12.845  10.436   7.084  1.00  0.00    -0.648 OA
HETATM   18  O3  UNL     1      10.941   9.234   7.343  1.00  0.00    -0.648 OA
ENDBRANCH  15  16
ENDBRANCH  14  15
ENDBRANCH  13  14
ENDBRANCH  12  13
ENDBRANCH  10  12
TORSDOF 5
ENDMDL
