MODEL 3
REMARK VINA RESULT: -6.483467353      1.691      2.272
REMARK  5 active torsions:
REMARK  status: ('A' for Active; 'I' for Inactive)
REMARK    1  A    between atoms: C6_10  and  C7_11 
REMARK    2  A    between atoms: C7_11  and  C8_12 
REMARK    3  A    between atoms: C8_12  and  C9_13 
REMARK    4  A    between atoms: C9_13  and  C10_14 
REMARK    5  A    between atoms: C10_14  and  C11_15 
ROOT
HETATM    1  C1  UNL     1       8.003  12.647   6.777  1.00  0.00     0.155 C 
HETATM    2  N1  UNL     1       9.032  11.653   6.716  1.00  0.00    -0.331 N 
HETATM    3  C2  UNL     1      10.435  11.954   6.499  1.00  0.00     0.320 C 
HETATM    4  O1  UNL     1      10.930  13.017   6.029  1.00  0.00    -0.247 OA
HETATM    5  N2  UNL     1      11.209  10.830   6.909  1.00  0.00    -0.331 N 
HETATM    6  C3  UNL     1      12.571  10.489   6.658  1.00  0.00     0.155 C 
HETATM    7  C4  UNL     1      10.265  10.030   7.700  1.00  0.00     0.121 C 
HETATM    8  C5  UNL     1      10.022  10.778   8.994  1.00  0.00     0.102 C 
HETATM    9  S1  UNL     1       8.240  10.396   9.264  1.00  0.00    -0.160 SA
HETATM   10  C6  UNL     1       7.945   9.617   7.645  1.00  0.00     0.072 C 
HETATM   11  C12 UNL     1       9.012  10.234   6.835  1.00  0.00     0.126 C 
ENDROOT
BRANCH  10  12
HETATM   12  C7  UNL     1       6.554   9.737   7.165  1.00  0.00     0.017 C 
BRANCH  12  13
HETATM   13  C8  UNL     1       5.680  10.205   8.302  1.00  0.00     0.002 C 
BRANCH  13  14
HETATM   14  C9  UNL     1       4.618  11.178   7.881  1.00  0.00     0.010 C 
BRANCH  14  15
HETATM   15  C10 UNL     1       3.365  10.933   8.672  1.00  0.00     0.113 C 
BRANCH  15  16
HETATM   16  C11 UNL     1       2.792   9.605   8.267  1.00  0.00     0.172 C 
HETATM   17  O2  UNL     1       2.475   9.401   7.091  1.00  0.00    -0.648 OA
HETATM   18  O3  UNL     1       2.630   8.639   9.219  1.00  0.00    -0.648 OA
ENDBRANCH  15  16
ENDBRANCH  14  15
ENDBRANCH  13  14
ENDBRANCH  12  13
ENDBRANCH  10  12
TORSDOF 5
ENDMDL
