MODEL 10
REMARK VINA RESULT: -4.813905001      2.185      6.376
REMARK  5 active torsions:
REMARK  status: ('A' for Active; 'I' for Inactive)
REMARK    1  A    between atoms: C6_10  and  C7_11 
REMARK    2  A    between atoms: C7_11  and  C8_12 
REMARK    3  A    between atoms: C8_12  and  C9_13 
REMARK    4  A    between atoms: C9_13  and  C10_14 
REMARK    5  A    between atoms: C10_14  and  C11_15 
ROOT
HETATM    1  C1  UNL     1       7.548  10.263   9.036  1.00  0.00     0.155 C 
HETATM    2  N1  UNL     1       6.392  10.139   8.202  1.00  0.00    -0.331 N 
HETATM    3  C2  UNL     1       5.044   9.961   8.710  1.00  0.00     0.320 C 
HETATM    4  O1  UNL     1       4.701   9.577   9.863  1.00  0.00    -0.247 OA
HETATM    5  N2  UNL     1       4.121  10.294   7.677  1.00  0.00    -0.331 N 
HETATM    6  C3  UNL     1       2.725  10.033   7.547  1.00  0.00     0.155 C 
HETATM    7  C4  UNL     1       4.945  11.013   6.696  1.00  0.00     0.121 C 
HETATM    8  C5  UNL     1       5.291  12.356   7.303  1.00  0.00     0.102 C 
HETATM    9  S1  UNL     1       7.002  12.577   6.658  1.00  0.00    -0.160 SA
HETATM   10  C6  UNL     1       7.186  10.902   5.971  1.00  0.00     0.072 C 
HETATM   11  C12 UNL     1       6.215  10.152   6.789  1.00  0.00     0.126 C 
ENDROOT
BRANCH  10  12
HETATM   12  C7  UNL     1       8.579  10.416   5.933  1.00  0.00     0.017 C 
BRANCH  12  13
HETATM   13  C8  UNL     1       9.424  11.406   5.168  1.00  0.00     0.002 C 
BRANCH  13  14
HETATM   14  C9  UNL     1      10.750  11.687   5.811  1.00  0.00     0.010 C 
BRANCH  14  15
HETATM   15  C10 UNL     1      10.597  11.697   7.305  1.00  0.00     0.113 C 
BRANCH  15  16
HETATM   16  C11 UNL     1      11.579  10.728   7.898  1.00  0.00     0.172 C 
HETATM   17  O2  UNL     1      11.261  10.048   8.879  1.00  0.00    -0.648 OA
HETATM   18  O3  UNL     1      12.817  10.617   7.334  1.00  0.00    -0.648 OA
ENDBRANCH  15  16
ENDBRANCH  14  15
ENDBRANCH  13  14
ENDBRANCH  12  13
ENDBRANCH  10  12
TORSDOF 5
ENDMDL
