MODEL 9
REMARK VINA RESULT: -4.846852122      2.277      3.248
REMARK  5 active torsions:
REMARK  status: ('A' for Active; 'I' for Inactive)
REMARK    1  A    between atoms: C6_10  and  C7_11 
REMARK    2  A    between atoms: C7_11  and  C8_12 
REMARK    3  A    between atoms: C8_12  and  C9_13 
REMARK    4  A    between atoms: C9_13  and  C10_14 
REMARK    5  A    between atoms: C10_14  and  C11_15 
ROOT
HETATM    1  C1  UNL     1       8.691  11.760   5.870  1.00  0.00     0.155 C 
HETATM    2  N1  UNL     1       9.966  11.346   6.371  1.00  0.00    -0.331 N 
HETATM    3  C2  UNL     1      11.211  12.032   6.080  1.00  0.00     0.320 C 
HETATM    4  O1  UNL     1      11.439  12.850   5.144  1.00  0.00    -0.247 OA
HETATM    5  N2  UNL     1      12.185  11.635   7.041  1.00  0.00    -0.331 N 
HETATM    6  C3  UNL     1      13.604  11.780   7.054  1.00  0.00     0.155 C 
HETATM    7  C4  UNL     1      11.387  11.000   8.099  1.00  0.00     0.121 C 
HETATM    8  C5  UNL     1      10.626  12.102   8.806  1.00  0.00     0.102 C 
HETATM    9  S1  UNL     1       9.046  11.227   9.170  1.00  0.00    -0.160 SA
HETATM   10  C6  UNL     1       9.397   9.739   8.183  1.00  0.00     0.072 C 
HETATM   11  C12 UNL     1      10.370  10.268   7.209  1.00  0.00     0.126 C 
ENDROOT
BRANCH  10  12
HETATM   12  C7  UNL     1       8.191   9.066   7.660  1.00  0.00     0.017 C 
BRANCH  12  13
HETATM   13  C8  UNL     1       6.966   9.757   8.208  1.00  0.00     0.002 C 
BRANCH  13  14
HETATM   14  C9  UNL     1       5.700   9.393   7.490  1.00  0.00     0.010 C 
BRANCH  14  15
HETATM   15  C10 UNL     1       5.309  10.503   6.558  1.00  0.00     0.113 C 
BRANCH  15  16
HETATM   16  C11 UNL     1       5.029  11.736   7.368  1.00  0.00     0.172 C 
HETATM   17  O2  UNL     1       4.235  11.687   8.314  1.00  0.00    -0.648 OA
HETATM   18  O3  UNL     1       5.662  12.900   7.038  1.00  0.00    -0.648 OA
ENDBRANCH  15  16
ENDBRANCH  14  15
ENDBRANCH  13  14
ENDBRANCH  12  13
ENDBRANCH  10  12
TORSDOF 5
ENDMDL
