MODEL 11
REMARK VINA RESULT: -4.721368162      2.588      6.749
REMARK  5 active torsions:
REMARK  status: ('A' for Active; 'I' for Inactive)
REMARK    1  A    between atoms: C6_10  and  C7_11 
REMARK    2  A    between atoms: C7_11  and  C8_12 
REMARK    3  A    between atoms: C8_12  and  C9_13 
REMARK    4  A    between atoms: C9_13  and  C10_14 
REMARK    5  A    between atoms: C10_14  and  C11_15 
ROOT
HETATM    1  C1  UNL     1       7.871  11.827   6.374  1.00  0.00     0.155 C 
HETATM    2  N1  UNL     1       6.875  11.551   7.365  1.00  0.00    -0.331 N 
HETATM    3  C2  UNL     1       5.492  11.978   7.262  1.00  0.00     0.320 C 
HETATM    4  O1  UNL     1       5.019  12.880   6.515  1.00  0.00    -0.247 OA
HETATM    5  N2  UNL     1       4.709  11.203   8.165  1.00  0.00    -0.331 N 
HETATM    6  C3  UNL     1       3.384  11.393   8.659  1.00  0.00     0.155 C 
HETATM    7  C4  UNL     1       5.593  10.083   8.515  1.00  0.00     0.121 C 
HETATM    8  C5  UNL     1       5.697   9.197   7.292  1.00  0.00     0.102 C 
HETATM    9  S1  UNL     1       7.455   8.660   7.425  1.00  0.00    -0.160 SA
HETATM   10  C6  UNL     1       7.917   9.788   8.777  1.00  0.00     0.072 C 
HETATM   11  C12 UNL     1       6.917  10.858   8.608  1.00  0.00     0.126 C 
ENDROOT
BRANCH  10  12
HETATM   12  C7  UNL     1       9.343  10.168   8.782  1.00  0.00     0.017 C 
BRANCH  12  13
HETATM   13  C8  UNL     1      10.121   9.169   7.962  1.00  0.00     0.002 C 
BRANCH  13  14
HETATM   14  C9  UNL     1      11.138   9.798   7.054  1.00  0.00     0.010 C 
BRANCH  14  15
HETATM   15  C10 UNL     1      12.147  10.553   7.871  1.00  0.00     0.113 C 
BRANCH  15  16
HETATM   16  C11 UNL     1      12.618  11.738   7.079  1.00  0.00     0.172 C 
HETATM   17  O2  UNL     1      13.785  12.130   7.189  1.00  0.00    -0.648 OA
HETATM   18  O3  UNL     1      11.738  12.367   6.247  1.00  0.00    -0.648 OA
ENDBRANCH  15  16
ENDBRANCH  14  15
ENDBRANCH  13  14
ENDBRANCH  12  13
ENDBRANCH  10  12
TORSDOF 5
ENDMDL
