MODEL 4
REMARK VINA RESULT: -6.010381611      1.468      2.202
REMARK  5 active torsions:
REMARK  status: ('A' for Active; 'I' for Inactive)
REMARK    1  A    between atoms: C6_10  and  C7_11 
REMARK    2  A    between atoms: C7_11  and  C8_12 
REMARK    3  A    between atoms: C8_12  and  C9_13 
REMARK    4  A    between atoms: C9_13  and  C10_14 
REMARK    5  A    between atoms: C10_14  and  C11_15 
ROOT
HETATM    1  C1  UNL     1       9.065  13.145   7.293  1.00  0.00     0.155 C 
HETATM    2  N1  UNL     1       9.520  11.879   6.803  1.00  0.00    -0.331 N 
HETATM    3  C2  UNL     1      10.919  11.506   6.706  1.00  0.00     0.320 C 
HETATM    4  O1  UNL     1      11.922  12.274   6.713  1.00  0.00    -0.247 OA
HETATM    5  N2  UNL     1      11.005  10.088   6.593  1.00  0.00    -0.331 N 
HETATM    6  C3  UNL     1      12.083   9.242   6.197  1.00  0.00     0.155 C 
HETATM    7  C4  UNL     1       9.669   9.629   6.997  1.00  0.00     0.121 C 
HETATM    8  C5  UNL     1       9.550   9.856   8.489  1.00  0.00     0.102 C 
HETATM    9  S1  UNL     1       7.774  10.332   8.608  1.00  0.00    -0.160 SA
HETATM   10  C6  UNL     1       7.473  10.466   6.818  1.00  0.00     0.072 C 
HETATM   11  C12 UNL     1       8.836  10.728   6.319  1.00  0.00     0.126 C 
ENDROOT
BRANCH  10  12
HETATM   12  C7  UNL     1       6.408  11.424   6.458  1.00  0.00     0.017 C 
BRANCH  12  13
HETATM   13  C8  UNL     1       5.552  11.687   7.673  1.00  0.00     0.002 C 
BRANCH  13  14
HETATM   14  C9  UNL     1       4.176  11.097   7.576  1.00  0.00     0.010 C 
BRANCH  14  15
HETATM   15  C10 UNL     1       3.934  10.183   8.743  1.00  0.00     0.113 C 
BRANCH  15  16
HETATM   16  C11 UNL     1       2.841   9.218   8.382  1.00  0.00     0.172 C 
HETATM   17  O2  UNL     1       2.407   8.430   9.229  1.00  0.00    -0.648 OA
HETATM   18  O3  UNL     1       2.345   9.230   7.110  1.00  0.00    -0.648 OA
ENDBRANCH  15  16
ENDBRANCH  14  15
ENDBRANCH  13  14
ENDBRANCH  12  13
ENDBRANCH  10  12
TORSDOF 5
ENDMDL
