MODEL 1
REMARK VINA RESULT: -9.367519759      0.000      0.000
REMARK  6 active torsions:
REMARK  status: ('A' for Active; 'I' for Inactive)
REMARK    1  A    between atoms: C3_4  and  C4_5 
REMARK    2  A    between atoms: C10_13  and  C11_14 
REMARK    3  A    between atoms: C11_14  and  O2_15 
REMARK    4  A    between atoms: O2_15  and  C12_16 
REMARK    5  A    between atoms: C16_20  and  C17_21 
REMARK    6  A    between atoms: C17_21  and  O3_22 
ROOT
HETATM    1  C1  UNL     1     -31.206  25.554  13.496  1.00  0.00     0.079 C 
HETATM    2  C2  UNL     1     -29.924  26.043  14.031  1.00  0.00     0.076 A 
HETATM    3  O1  UNL     1     -28.909  26.388  13.257  1.00  0.00    -0.296 OA
HETATM    4  C3  UNL     1     -27.891  26.787  13.973  1.00  0.00     0.158 A 
HETATM    5  N1  UNL     1     -28.263  26.697  15.259  1.00  0.00    -0.336 N 
ATOM      6  H1  UNL     1     -27.678  26.941  16.058  1.00  0.00     0.168 HD
HETATM    7  C10 UNL     1     -29.524  26.236  15.335  1.00  0.00     0.065 A 
ENDROOT
BRANCH   7   8
HETATM    8  C11 UNL     1     -30.375  25.967  16.515  1.00  0.00     0.235 C 
BRANCH   8   9
HETATM    9  O2  UNL     1     -29.627  25.909  17.709  1.00  0.00    -0.345 OA
BRANCH   9  10
HETATM   10  C12 UNL     1     -30.136  26.067  18.963  1.00  0.00     0.069 A 
HETATM   11  C13 UNL     1     -30.435  27.338  19.406  1.00  0.00     0.037 A 
HETATM   12  C14 UNL     1     -30.954  27.578  20.661  1.00  0.00     0.003 A 
HETATM   13  C15 UNL     1     -31.180  26.506  21.500  1.00  0.00     0.009 A 
HETATM   14  C16 UNL     1     -30.893  25.220  21.095  1.00  0.00    -0.032 A 
HETATM   15  C18 UNL     1     -30.376  25.029  19.831  1.00  0.00     0.046 A 
BRANCH  14  16
HETATM   16  C17 UNL     1     -31.154  24.101  22.034  1.00  0.00     0.203 C 
BRANCH  16  17
HETATM   17  O3  UNL     1     -30.037  23.243  21.983  1.00  0.00    -0.396 OA
ATOM     18  H3  UNL     1     -29.445  23.509  22.678  1.00  0.00     0.209 HD
ENDBRANCH  16  17
ENDBRANCH  14  16
ENDBRANCH   9  10
ENDBRANCH   8   9
ENDBRANCH   7   8
BRANCH   4  19
HETATM   19  C4  UNL     1     -26.613  27.238  13.454  1.00  0.00     0.015 A 
HETATM   20  C5  UNL     1     -25.452  26.517  13.727  1.00  0.00     0.016 A 
HETATM   21  C6  UNL     1     -24.247  26.949  13.233  1.00  0.00     0.001 A 
HETATM   22  C7  UNL     1     -24.164  28.093  12.466  1.00  0.00     0.000 A 
HETATM   23  C8  UNL     1     -25.290  28.833  12.176  1.00  0.00     0.001 A 
HETATM   24  C9  UNL     1     -26.486  28.375  12.685  1.00  0.00     0.016 A 
ENDBRANCH   4  19
TORSDOF 6
ENDMDL
