MODEL 7
REMARK VINA RESULT: -8.864354320      2.113      8.527
REMARK  6 active torsions:
REMARK  status: ('A' for Active; 'I' for Inactive)
REMARK    1  A    between atoms: C3_4  and  C4_5 
REMARK    2  A    between atoms: C10_13  and  C11_14 
REMARK    3  A    between atoms: C11_14  and  O2_15 
REMARK    4  A    between atoms: O2_15  and  C12_16 
REMARK    5  A    between atoms: C16_20  and  C17_21 
REMARK    6  A    between atoms: C17_21  and  O3_22 
ROOT
HETATM    1  C1  UNL     1     -30.638  25.907  12.674  1.00  0.00     0.079 C 
HETATM    2  C2  UNL     1     -30.027  26.272  13.964  1.00  0.00     0.076 A 
HETATM    3  O1  UNL     1     -30.691  26.244  15.106  1.00  0.00    -0.296 OA
HETATM    4  C3  UNL     1     -29.926  26.610  16.100  1.00  0.00     0.158 A 
HETATM    5  N1  UNL     1     -28.721  26.885  15.580  1.00  0.00    -0.336 N 
ATOM      6  H1  UNL     1     -27.909  27.197  16.112  1.00  0.00     0.168 HD
HETATM    7  C10 UNL     1     -28.744  26.686  14.250  1.00  0.00     0.065 A 
ENDROOT
BRANCH   7   8
HETATM    8  C11 UNL     1     -27.677  26.850  13.239  1.00  0.00     0.235 C 
BRANCH   8   9
HETATM    9  O2  UNL     1     -27.075  28.124  13.301  1.00  0.00    -0.345 OA
BRANCH   9  10
HETATM   10  C12 UNL     1     -25.845  28.436  12.804  1.00  0.00     0.069 A 
HETATM   11  C13 UNL     1     -24.843  27.493  12.862  1.00  0.00     0.037 A 
HETATM   12  C14 UNL     1     -23.574  27.734  12.379  1.00  0.00     0.003 A 
HETATM   13  C15 UNL     1     -23.302  28.966  11.820  1.00  0.00     0.009 A 
HETATM   14  C16 UNL     1     -24.277  29.937  11.744  1.00  0.00    -0.032 A 
HETATM   15  C18 UNL     1     -25.531  29.649  12.239  1.00  0.00     0.046 A 
BRANCH  14  16
HETATM   16  C17 UNL     1     -23.935  31.245  11.132  1.00  0.00     0.203 C 
BRANCH  16  17
HETATM   17  O3  UNL     1     -24.624  32.239  11.858  1.00  0.00    -0.396 OA
ATOM     18  H3  UNL     1     -24.124  33.043  11.779  1.00  0.00     0.209 HD
ENDBRANCH  16  17
ENDBRANCH  14  16
ENDBRANCH   9  10
ENDBRANCH   8   9
ENDBRANCH   7   8
BRANCH   4  19
HETATM   19  C4  UNL     1     -30.326  26.695  17.493  1.00  0.00     0.015 A 
HETATM   20  C5  UNL     1     -30.184  27.892  18.191  1.00  0.00     0.016 A 
HETATM   21  C6  UNL     1     -30.564  27.965  19.507  1.00  0.00     0.001 A 
HETATM   22  C7  UNL     1     -31.090  26.866  20.156  1.00  0.00     0.000 A 
HETATM   23  C8  UNL     1     -31.245  25.665  19.498  1.00  0.00     0.001 A 
HETATM   24  C9  UNL     1     -30.854  25.621  18.178  1.00  0.00     0.016 A 
ENDBRANCH   4  19
TORSDOF 6
ENDMDL
