MODEL 4
REMARK VINA RESULT: -8.991084732      1.082      1.284
REMARK  6 active torsions:
REMARK  status: ('A' for Active; 'I' for Inactive)
REMARK    1  A    between atoms: C3_4  and  C4_5 
REMARK    2  A    between atoms: C10_13  and  C11_14 
REMARK    3  A    between atoms: C11_14  and  O2_15 
REMARK    4  A    between atoms: O2_15  and  C12_16 
REMARK    5  A    between atoms: C16_20  and  C17_21 
REMARK    6  A    between atoms: C17_21  and  O3_22 
ROOT
HETATM    1  C1  UNL     1     -31.273  25.493  13.493  1.00  0.00     0.079 C 
HETATM    2  C2  UNL     1     -30.048  26.099  14.040  1.00  0.00     0.076 A 
HETATM    3  O1  UNL     1     -28.971  26.324  13.307  1.00  0.00    -0.296 OA
HETATM    4  C3  UNL     1     -28.024  26.868  14.025  1.00  0.00     0.158 A 
HETATM    5  N1  UNL     1     -28.507  26.999  15.269  1.00  0.00    -0.336 N 
ATOM      6  H1  UNL     1     -27.997  27.394  16.059  1.00  0.00     0.168 HD
HETATM    7  C10 UNL     1     -29.767  26.530  15.318  1.00  0.00     0.065 A 
ENDROOT
BRANCH   7   8
HETATM    8  C11 UNL     1     -30.716  26.455  16.450  1.00  0.00     0.235 C 
BRANCH   8   9
HETATM    9  O2  UNL     1     -30.221  25.666  17.509  1.00  0.00    -0.345 OA
BRANCH   9  10
HETATM   10  C12 UNL     1     -30.963  25.198  18.553  1.00  0.00     0.069 A 
HETATM   11  C13 UNL     1     -32.337  25.203  18.450  1.00  0.00     0.037 A 
HETATM   12  C14 UNL     1     -33.154  24.746  19.462  1.00  0.00     0.003 A 
HETATM   13  C15 UNL     1     -32.571  24.267  20.617  1.00  0.00     0.009 A 
HETATM   14  C16 UNL     1     -31.200  24.245  20.760  1.00  0.00    -0.032 A 
HETATM   15  C18 UNL     1     -30.424  24.713  19.720  1.00  0.00     0.046 A 
BRANCH  14  16
HETATM   16  C17 UNL     1     -30.622  23.720  22.021  1.00  0.00     0.203 C 
BRANCH  16  17
HETATM   17  O3  UNL     1     -29.549  22.875  21.670  1.00  0.00    -0.396 OA
ATOM     18  H3  UNL     1     -28.781  23.424  21.565  1.00  0.00     0.209 HD
ENDBRANCH  16  17
ENDBRANCH  14  16
ENDBRANCH   9  10
ENDBRANCH   8   9
ENDBRANCH   7   8
BRANCH   4  19
HETATM   19  C4  UNL     1     -26.707  27.249  13.545  1.00  0.00     0.015 A 
HETATM   20  C5  UNL     1     -25.598  26.462  13.844  1.00  0.00     0.016 A 
HETATM   21  C6  UNL     1     -24.357  26.827  13.388  1.00  0.00     0.001 A 
HETATM   22  C7  UNL     1     -24.188  27.970  12.632  1.00  0.00     0.000 A 
HETATM   23  C8  UNL     1     -25.262  28.774  12.317  1.00  0.00     0.001 A 
HETATM   24  C9  UNL     1     -26.495  28.381  12.789  1.00  0.00     0.016 A 
ENDBRANCH   4  19
TORSDOF 6
ENDMDL
