MODEL 3
REMARK VINA RESULT: -9.249984624      2.913      5.607
REMARK  6 active torsions:
REMARK  status: ('A' for Active; 'I' for Inactive)
REMARK    1  A    between atoms: C3_4  and  C4_5 
REMARK    2  A    between atoms: C10_13  and  C11_14 
REMARK    3  A    between atoms: C11_14  and  O2_15 
REMARK    4  A    between atoms: O2_15  and  C12_16 
REMARK    5  A    between atoms: C16_20  and  C17_21 
REMARK    6  A    between atoms: C17_21  and  O3_22 
ROOT
HETATM    1  C1  UNL     1     -24.832  26.280  13.813  1.00  0.00     0.079 C 
HETATM    2  C2  UNL     1     -24.686  27.447  12.927  1.00  0.00     0.076 A 
HETATM    3  O1  UNL     1     -23.513  27.969  12.615  1.00  0.00    -0.296 OA
HETATM    4  C3  UNL     1     -23.656  28.993  11.817  1.00  0.00     0.158 A 
HETATM    5  N1  UNL     1     -24.972  29.139  11.605  1.00  0.00    -0.336 N 
ATOM      6  H1  UNL     1     -25.396  29.858  11.019  1.00  0.00     0.168 HD
HETATM    7  C10 UNL     1     -25.648  28.193  12.281  1.00  0.00     0.065 A 
ENDROOT
BRANCH   7   8
HETATM    8  C11 UNL     1     -27.101  27.935  12.369  1.00  0.00     0.235 C 
BRANCH   8   9
HETATM    9  O2  UNL     1     -27.592  28.091  13.683  1.00  0.00    -0.345 OA
BRANCH   9  10
HETATM   10  C12 UNL     1     -28.623  27.384  14.225  1.00  0.00     0.069 A 
HETATM   11  C13 UNL     1     -29.457  26.674  13.389  1.00  0.00     0.037 A 
HETATM   12  C14 UNL     1     -30.521  25.935  13.863  1.00  0.00     0.003 A 
HETATM   13  C15 UNL     1     -30.754  25.908  15.222  1.00  0.00     0.009 A 
HETATM   14  C16 UNL     1     -29.943  26.605  16.092  1.00  0.00    -0.032 A 
HETATM   15  C18 UNL     1     -28.892  27.329  15.571  1.00  0.00     0.046 A 
BRANCH  14  16
HETATM   16  C17 UNL     1     -30.235  26.544  17.545  1.00  0.00     0.203 C 
BRANCH  16  17
HETATM   17  O3  UNL     1     -30.339  25.182  17.894  1.00  0.00    -0.396 OA
ATOM     18  H3  UNL     1     -30.989  25.116  18.585  1.00  0.00     0.209 HD
ENDBRANCH  16  17
ENDBRANCH  14  16
ENDBRANCH   9  10
ENDBRANCH   8   9
ENDBRANCH   7   8
BRANCH   4  19
HETATM   19  C4  UNL     1     -22.580  29.804  11.275  1.00  0.00     0.015 A 
HETATM   20  C5  UNL     1     -22.837  31.093  10.813  1.00  0.00     0.016 A 
HETATM   21  C6  UNL     1     -21.816  31.853  10.302  1.00  0.00     0.001 A 
HETATM   22  C7  UNL     1     -20.529  31.360  10.238  1.00  0.00     0.000 A 
HETATM   23  C8  UNL     1     -20.236  30.089  10.684  1.00  0.00     0.001 A 
HETATM   24  C9  UNL     1     -21.281  29.349  11.192  1.00  0.00     0.016 A 
ENDBRANCH   4  19
TORSDOF 6
ENDMDL
