MODEL 2
REMARK VINA RESULT: -9.276752133      0.039      1.017
REMARK  6 active torsions:
REMARK  status: ('A' for Active; 'I' for Inactive)
REMARK    1  A    between atoms: C3_4  and  C4_5 
REMARK    2  A    between atoms: C10_13  and  C11_14 
REMARK    3  A    between atoms: C11_14  and  O2_15 
REMARK    4  A    between atoms: O2_15  and  C12_16 
REMARK    5  A    between atoms: C16_20  and  C17_21 
REMARK    6  A    between atoms: C17_21  and  O3_22 
ROOT
HETATM    1  C1  UNL     1     -31.217  25.558  13.516  1.00  0.00     0.079 C 
HETATM    2  C2  UNL     1     -29.936  26.050  14.051  1.00  0.00     0.076 A 
HETATM    3  O1  UNL     1     -28.920  26.394  13.277  1.00  0.00    -0.296 OA
HETATM    4  C3  UNL     1     -27.904  26.796  13.993  1.00  0.00     0.158 A 
HETATM    5  N1  UNL     1     -28.277  26.708  15.279  1.00  0.00    -0.336 N 
ATOM      6  H1  UNL     1     -27.692  26.955  16.078  1.00  0.00     0.168 HD
HETATM    7  C10 UNL     1     -29.537  26.247  15.355  1.00  0.00     0.065 A 
ENDROOT
BRANCH   7   8
HETATM    8  C11 UNL     1     -30.388  25.980  16.535  1.00  0.00     0.235 C 
BRANCH   8   9
HETATM    9  O2  UNL     1     -29.636  25.882  17.724  1.00  0.00    -0.345 OA
BRANCH   9  10
HETATM   10  C12 UNL     1     -30.130  26.054  18.982  1.00  0.00     0.069 A 
HETATM   11  C13 UNL     1     -30.423  27.330  19.415  1.00  0.00     0.037 A 
HETATM   12  C14 UNL     1     -30.927  27.584  20.673  1.00  0.00     0.003 A 
HETATM   13  C15 UNL     1     -31.143  26.521  21.526  1.00  0.00     0.009 A 
HETATM   14  C16 UNL     1     -30.862  25.230  21.132  1.00  0.00    -0.032 A 
HETATM   15  C18 UNL     1     -30.361  25.026  19.864  1.00  0.00     0.046 A 
BRANCH  14  16
HETATM   16  C17 UNL     1     -31.113  24.122  22.086  1.00  0.00     0.203 C 
BRANCH  16  17
HETATM   17  O3  UNL     1     -30.032  23.224  21.977  1.00  0.00    -0.396 OA
ATOM     18  H3  UNL     1     -29.259  23.673  22.297  1.00  0.00     0.209 HD
ENDBRANCH  16  17
ENDBRANCH  14  16
ENDBRANCH   9  10
ENDBRANCH   8   9
ENDBRANCH   7   8
BRANCH   4  19
HETATM   19  C4  UNL     1     -26.625  27.246  13.474  1.00  0.00     0.015 A 
HETATM   20  C5  UNL     1     -26.552  28.398  12.695  1.00  0.00     0.016 A 
HETATM   21  C6  UNL     1     -25.340  28.819  12.208  1.00  0.00     0.001 A 
HETATM   22  C7  UNL     1     -24.184  28.115  12.478  1.00  0.00     0.000 A 
HETATM   23  C8  UNL     1     -24.217  26.970  13.245  1.00  0.00     0.001 A 
HETATM   24  C9  UNL     1     -25.448  26.573  13.721  1.00  0.00     0.016 A 
ENDBRANCH   4  19
TORSDOF 6
ENDMDL
