MODEL 6
REMARK VINA RESULT: -8.887368510      2.101      8.479
REMARK  6 active torsions:
REMARK  status: ('A' for Active; 'I' for Inactive)
REMARK    1  A    between atoms: C3_4  and  C4_5 
REMARK    2  A    between atoms: C10_13  and  C11_14 
REMARK    3  A    between atoms: C11_14  and  O2_15 
REMARK    4  A    between atoms: O2_15  and  C12_16 
REMARK    5  A    between atoms: C16_20  and  C17_21 
REMARK    6  A    between atoms: C17_21  and  O3_22 
ROOT
HETATM    1  C1  UNL     1     -30.728  25.912  12.764  1.00  0.00     0.079 C 
HETATM    2  C2  UNL     1     -30.101  26.296  14.040  1.00  0.00     0.076 A 
HETATM    3  O1  UNL     1     -30.745  26.265  15.194  1.00  0.00    -0.296 OA
HETATM    4  C3  UNL     1     -29.969  26.651  16.171  1.00  0.00     0.158 A 
HETATM    5  N1  UNL     1     -28.778  26.943  15.628  1.00  0.00    -0.336 N 
ATOM      6  H1  UNL     1     -27.962  27.273  16.144  1.00  0.00     0.168 HD
HETATM    7  C10 UNL     1     -28.821  26.734  14.301  1.00  0.00     0.065 A 
ENDROOT
BRANCH   7   8
HETATM    8  C11 UNL     1     -27.774  26.908  13.270  1.00  0.00     0.235 C 
BRANCH   8   9
HETATM    9  O2  UNL     1     -27.128  28.158  13.373  1.00  0.00    -0.345 OA
BRANCH   9  10
HETATM   10  C12 UNL     1     -25.903  28.453  12.854  1.00  0.00     0.069 A 
HETATM   11  C13 UNL     1     -24.913  27.494  12.893  1.00  0.00     0.037 A 
HETATM   12  C14 UNL     1     -23.650  27.718  12.388  1.00  0.00     0.003 A 
HETATM   13  C15 UNL     1     -23.371  28.946  11.825  1.00  0.00     0.009 A 
HETATM   14  C16 UNL     1     -24.332  29.932  11.767  1.00  0.00    -0.032 A 
HETATM   15  C18 UNL     1     -25.581  29.661  12.284  1.00  0.00     0.046 A 
BRANCH  14  16
HETATM   16  C17 UNL     1     -23.982  31.236  11.151  1.00  0.00     0.203 C 
BRANCH  16  17
HETATM   17  O3  UNL     1     -24.609  32.241  11.915  1.00  0.00    -0.396 OA
ATOM     18  H3  UNL     1     -24.502  32.007  12.830  1.00  0.00     0.209 HD
ENDBRANCH  16  17
ENDBRANCH  14  16
ENDBRANCH   9  10
ENDBRANCH   8   9
ENDBRANCH   7   8
BRANCH   4  19
HETATM   19  C4  UNL     1     -30.346  26.740  17.571  1.00  0.00     0.015 A 
HETATM   20  C5  UNL     1     -30.952  25.657  18.203  1.00  0.00     0.016 A 
HETATM   21  C6  UNL     1     -31.306  25.747  19.525  1.00  0.00     0.001 A 
HETATM   22  C7  UNL     1     -31.070  26.901  20.245  1.00  0.00     0.000 A 
HETATM   23  C8  UNL     1     -30.474  27.993  19.654  1.00  0.00     0.001 A 
HETATM   24  C9  UNL     1     -30.129  27.873  18.325  1.00  0.00     0.016 A 
ENDBRANCH   4  19
TORSDOF 6
ENDMDL
