MODEL 16
REMARK VINA RESULT: -8.526605833      1.623      1.856
REMARK  6 active torsions:
REMARK  status: ('A' for Active; 'I' for Inactive)
REMARK    1  A    between atoms: C3_4  and  C4_5 
REMARK    2  A    between atoms: C10_13  and  C11_14 
REMARK    3  A    between atoms: C11_14  and  O2_15 
REMARK    4  A    between atoms: O2_15  and  C12_16 
REMARK    5  A    between atoms: C16_20  and  C17_21 
REMARK    6  A    between atoms: C17_21  and  O3_22 
ROOT
HETATM    1  C1  UNL     1     -30.214  26.268  12.632  1.00  0.00     0.079 C 
HETATM    2  C2  UNL     1     -28.922  26.715  13.178  1.00  0.00     0.076 A 
HETATM    3  O1  UNL     1     -27.982  27.271  12.433  1.00  0.00    -0.296 OA
HETATM    4  C3  UNL     1     -26.936  27.577  13.154  1.00  0.00     0.158 A 
HETATM    5  N1  UNL     1     -27.210  27.205  14.413  1.00  0.00    -0.336 N 
ATOM      6  H1  UNL     1     -26.582  27.316  15.209  1.00  0.00     0.168 HD
HETATM    7  C10 UNL     1     -28.440  26.663  14.468  1.00  0.00     0.065 A 
ENDROOT
BRANCH   7   8
HETATM    8  C11 UNL     1     -29.190  26.108  15.615  1.00  0.00     0.235 C 
BRANCH   8   9
HETATM    9  O2  UNL     1     -29.457  27.082  16.599  1.00  0.00    -0.345 OA
BRANCH   9  10
HETATM   10  C12 UNL     1     -30.252  26.899  17.691  1.00  0.00     0.069 A 
HETATM   11  C13 UNL     1     -30.188  27.809  18.724  1.00  0.00     0.037 A 
HETATM   12  C14 UNL     1     -30.961  27.691  19.860  1.00  0.00     0.003 A 
HETATM   13  C15 UNL     1     -31.828  26.623  19.961  1.00  0.00     0.009 A 
HETATM   14  C16 UNL     1     -31.922  25.690  18.951  1.00  0.00    -0.032 A 
HETATM   15  C18 UNL     1     -31.129  25.850  17.834  1.00  0.00     0.046 A 
BRANCH  14  16
HETATM   16  C17 UNL     1     -32.869  24.559  19.108  1.00  0.00     0.203 C 
BRANCH  16  17
HETATM   17  O3  UNL     1     -32.108  23.373  19.113  1.00  0.00    -0.396 OA
ATOM     18  H3  UNL     1     -32.706  22.654  19.283  1.00  0.00     0.209 HD
ENDBRANCH  16  17
ENDBRANCH  14  16
ENDBRANCH   9  10
ENDBRANCH   8   9
ENDBRANCH   7   8
BRANCH   4  19
HETATM   19  C4  UNL     1     -25.720  28.201  12.664  1.00  0.00     0.015 A 
HETATM   20  C5  UNL     1     -24.531  27.476  12.614  1.00  0.00     0.016 A 
HETATM   21  C6  UNL     1     -23.386  28.071  12.150  1.00  0.00     0.001 A 
HETATM   22  C7  UNL     1     -23.391  29.385  11.728  1.00  0.00     0.000 A 
HETATM   23  C8  UNL     1     -24.547  30.134  11.763  1.00  0.00     0.001 A 
HETATM   24  C9  UNL     1     -25.681  29.510  12.234  1.00  0.00     0.016 A 
ENDBRANCH   4  19
TORSDOF 6
ENDMDL
