MODEL 3
REMARK VINA RESULT: -10.227964421      1.527      9.702
REMARK  11 active torsions:
REMARK  status: ('A' for Active; 'I' for Inactive)
REMARK    1  A    between atoms: C3_3  and  O1_4 
REMARK    2  A    between atoms: C6_8  and  C7_9 
REMARK    3  A    between atoms: C7_9  and  C8_10 
REMARK    4  A    between atoms: C17_19  and  C18_20 
REMARK    5  A    between atoms: C18_20  and  C20_22 
REMARK    6  A    between atoms: C20_22  and  C21_23 
REMARK    7  A    between atoms: C21_23  and  C22_24 
REMARK    8  A    between atoms: C22_24  and  O2_25 
REMARK    9  A    between atoms: C22_24  and  C23_27 
REMARK   10  A    between atoms: C22_24  and  C25_29 
REMARK   11  A    between atoms: C28_32  and  O3_33 
ROOT
HETATM    1  C8  UNL     1     -14.700  25.018  -5.337  1.00  0.00     0.061 C 
HETATM    2  C9  UNL     1     -14.617  25.935  -6.539  1.00  0.00     0.017 C 
HETATM    3  C10 UNL     1     -14.587  27.366  -6.282  1.00  0.00     0.002 C 
HETATM    4  C11 UNL     1     -14.698  27.835  -4.885  1.00  0.00     0.010 C 
HETATM    5  C12 UNL     1     -15.724  26.993  -4.178  1.00  0.00    -0.035 C 
HETATM    6  C13 UNL     1     -17.067  27.019  -4.809  1.00  0.00     0.016 C 
HETATM    7  C14 UNL     1     -15.115  25.608  -4.107  1.00  0.00     0.009 C 
HETATM    8  C15 UNL     1     -16.172  24.932  -3.285  1.00  0.00     0.007 C 
HETATM    9  C16 UNL     1     -16.288  25.955  -2.141  1.00  0.00     0.006 C 
HETATM   10  C17 UNL     1     -15.756  27.275  -2.689  1.00  0.00    -0.002 C 
ENDROOT
BRANCH   1  11
HETATM   11  C7  UNL     1     -14.384  23.812  -5.562  1.00  0.00    -0.150 C 
BRANCH  11  12
HETATM   12  C6  UNL     1     -14.035  22.486  -5.810  1.00  0.00     0.054 C 
HETATM   13  C5  UNL     1     -12.786  22.068  -6.156  1.00  0.00    -0.067 C 
HETATM   14  C4  UNL     1     -11.747  23.086  -6.277  1.00  0.00     0.071 C 
HETATM   15  C27 UNL     1     -12.581  20.620  -6.377  1.00  0.00     0.071 C 
HETATM   16  C3  UNL     1     -10.610  22.698  -7.189  1.00  0.00     0.152 C 
HETATM   17  C2  UNL     1     -10.488  21.239  -7.366  1.00  0.00    -0.032 C 
HETATM   18  C1  UNL     1      -9.782  20.781  -8.391  1.00  0.00     0.019 C 
HETATM   19  C28 UNL     1     -11.130  20.267  -6.445  1.00  0.00     0.152 C 
BRANCH  16  20
HETATM   20  O1  UNL     1      -9.425  23.172  -6.635  1.00  0.00    -0.391 OA
ATOM     21  H1  UNL     1      -9.569  23.322  -5.707  1.00  0.00     0.210 HD
ENDBRANCH  16  20
BRANCH  19  22
HETATM   22  O3  UNL     1     -10.998  18.976  -6.970  1.00  0.00    -0.391 OA
ATOM     23  H3  UNL     1     -10.168  18.907  -7.429  1.00  0.00     0.210 HD
ENDBRANCH  19  22
ENDBRANCH  11  12
ENDBRANCH   1  11
BRANCH  10  24
HETATM   24  C18 UNL     1     -16.678  28.327  -2.234  1.00  0.00    -0.014 C 
HETATM   25  C19 UNL     1     -16.080  29.709  -2.146  1.00  0.00     0.010 C 
BRANCH  24  26
HETATM   26  C20 UNL     1     -17.086  28.009  -0.775  1.00  0.00     0.007 C 
BRANCH  26  27
HETATM   27  C21 UNL     1     -16.199  28.671   0.202  1.00  0.00     0.038 C 
BRANCH  27  28
HETATM   28  C22 UNL     1     -16.821  28.825   1.614  1.00  0.00     0.057 C 
BRANCH  28  29
HETATM   29  O2  UNL     1     -17.572  29.989   1.669  1.00  0.00    -0.390 OA
ATOM     30  H2  UNL     1     -18.235  29.973   0.989  1.00  0.00     0.210 HD
ENDBRANCH  28  29
BRANCH  28  31
HETATM   31  C23 UNL     1     -15.678  29.011   2.576  1.00  0.00     0.033 C 
HETATM   32  C24 UNL     1     -16.001  29.038   4.023  1.00  0.00     0.008 C 
ENDBRANCH  28  31
BRANCH  28  33
HETATM   33  C25 UNL     1     -17.687  27.647   1.886  1.00  0.00     0.033 C 
HETATM   34  C26 UNL     1     -16.950  26.351   1.800  1.00  0.00     0.008 C 
ENDBRANCH  28  33
ENDBRANCH  27  28
ENDBRANCH  26  27
ENDBRANCH  24  26
ENDBRANCH  10  24
TORSDOF 11
ENDMDL
