MODEL 12
REMARK VINA RESULT: -9.180035873      1.201      1.925
REMARK  11 active torsions:
REMARK  status: ('A' for Active; 'I' for Inactive)
REMARK    1  A    between atoms: C3_3  and  O1_4 
REMARK    2  A    between atoms: C6_8  and  C7_9 
REMARK    3  A    between atoms: C7_9  and  C8_10 
REMARK    4  A    between atoms: C17_19  and  C18_20 
REMARK    5  A    between atoms: C18_20  and  C20_22 
REMARK    6  A    between atoms: C20_22  and  C21_23 
REMARK    7  A    between atoms: C21_23  and  C22_24 
REMARK    8  A    between atoms: C22_24  and  O2_25 
REMARK    9  A    between atoms: C22_24  and  C23_27 
REMARK   10  A    between atoms: C22_24  and  C25_29 
REMARK   11  A    between atoms: C28_32  and  O3_33 
ROOT
HETATM    1  C8  UNL     1     -15.442  27.089  -4.681  1.00  0.00     0.061 C 
HETATM    2  C9  UNL     1     -14.605  27.792  -5.727  1.00  0.00     0.017 C 
HETATM    3  C10 UNL     1     -14.298  27.051  -6.940  1.00  0.00     0.002 C 
HETATM    4  C11 UNL     1     -14.765  25.653  -7.051  1.00  0.00     0.010 C 
HETATM    5  C12 UNL     1     -14.573  24.979  -5.721  1.00  0.00    -0.035 C 
HETATM    6  C13 UNL     1     -13.171  24.988  -5.235  1.00  0.00     0.016 C 
HETATM    7  C14 UNL     1     -15.542  25.670  -4.785  1.00  0.00     0.009 C 
HETATM    8  C15 UNL     1     -15.330  24.825  -3.565  1.00  0.00     0.007 C 
HETATM    9  C16 UNL     1     -15.486  23.430  -4.200  1.00  0.00     0.006 C 
HETATM   10  C17 UNL     1     -15.210  23.603  -5.690  1.00  0.00    -0.002 C 
ENDROOT
BRANCH   1  11
HETATM   11  C7  UNL     1     -15.970  27.851  -3.817  1.00  0.00    -0.150 C 
BRANCH  11  12
HETATM   12  C6  UNL     1     -16.550  28.691  -2.868  1.00  0.00     0.054 C 
HETATM   13  C5  UNL     1     -16.562  28.448  -1.528  1.00  0.00    -0.067 C 
HETATM   14  C4  UNL     1     -15.925  27.220  -1.062  1.00  0.00     0.071 C 
HETATM   15  C27 UNL     1     -17.215  29.447  -0.653  1.00  0.00     0.071 C 
HETATM   16  C3  UNL     1     -16.453  26.717   0.258  1.00  0.00     0.152 C 
HETATM   17  C2  UNL     1     -17.101  27.773   1.059  1.00  0.00    -0.032 C 
HETATM   18  C1  UNL     1     -17.903  27.415   2.052  1.00  0.00     0.019 C 
HETATM   19  C28 UNL     1     -16.893  29.219   0.789  1.00  0.00     0.152 C 
BRANCH  16  20
HETATM   20  O1  UNL     1     -15.385  26.208   0.990  1.00  0.00    -0.391 OA
ATOM     21  H1  UNL     1     -15.436  25.259   0.972  1.00  0.00     0.210 HD
ENDBRANCH  16  20
BRANCH  19  22
HETATM   22  O3  UNL     1     -17.774  29.968   1.578  1.00  0.00    -0.391 OA
ATOM     23  H3  UNL     1     -17.602  30.893   1.448  1.00  0.00     0.210 HD
ENDBRANCH  19  22
ENDBRANCH  11  12
ENDBRANCH   1  11
BRANCH  10  24
HETATM   24  C18 UNL     1     -14.363  22.472  -6.099  1.00  0.00    -0.014 C 
HETATM   25  C19 UNL     1     -14.310  21.326  -5.119  1.00  0.00     0.010 C 
BRANCH  24  26
HETATM   26  C20 UNL     1     -12.898  22.968  -6.166  1.00  0.00     0.007 C 
BRANCH  26  27
HETATM   27  C21 UNL     1     -12.199  22.457  -7.361  1.00  0.00     0.038 C 
BRANCH  27  28
HETATM   28  C22 UNL     1     -11.158  21.348  -7.055  1.00  0.00     0.057 C 
BRANCH  28  29
HETATM   29  O2  UNL     1     -11.783  20.112  -7.047  1.00  0.00    -0.390 OA
ATOM     30  H2  UNL     1     -11.186  19.454  -6.712  1.00  0.00     0.210 HD
ENDBRANCH  28  29
BRANCH  28  31
HETATM   31  C23 UNL     1     -10.668  21.587  -5.651  1.00  0.00     0.033 C 
HETATM   32  C24 UNL     1     -10.385  20.394  -4.816  1.00  0.00     0.008 C 
ENDBRANCH  28  31
BRANCH  28  33
HETATM   33  C25 UNL     1     -10.104  21.380  -8.104  1.00  0.00     0.033 C 
HETATM   34  C26 UNL     1      -9.551  20.027  -8.414  1.00  0.00     0.008 C 
ENDBRANCH  28  33
ENDBRANCH  27  28
ENDBRANCH  26  27
ENDBRANCH  24  26
ENDBRANCH  10  24
TORSDOF 11
ENDMDL
