MODEL 8
REMARK VINA RESULT: -10.080886243      1.554      9.515
REMARK  11 active torsions:
REMARK  status: ('A' for Active; 'I' for Inactive)
REMARK    1  A    between atoms: C3_3  and  O1_4 
REMARK    2  A    between atoms: C6_8  and  C7_9 
REMARK    3  A    between atoms: C7_9  and  C8_10 
REMARK    4  A    between atoms: C17_19  and  C18_20 
REMARK    5  A    between atoms: C18_20  and  C20_22 
REMARK    6  A    between atoms: C20_22  and  C21_23 
REMARK    7  A    between atoms: C21_23  and  C22_24 
REMARK    8  A    between atoms: C22_24  and  O2_25 
REMARK    9  A    between atoms: C22_24  and  C23_27 
REMARK   10  A    between atoms: C22_24  and  C25_29 
REMARK   11  A    between atoms: C28_32  and  O3_33 
ROOT
HETATM    1  C8  UNL     1     -14.722  25.030  -5.320  1.00  0.00     0.061 C 
HETATM    2  C9  UNL     1     -14.658  25.932  -6.534  1.00  0.00     0.017 C 
HETATM    3  C10 UNL     1     -14.627  27.365  -6.295  1.00  0.00     0.002 C 
HETATM    4  C11 UNL     1     -14.719  27.852  -4.903  1.00  0.00     0.010 C 
HETATM    5  C12 UNL     1     -15.733  27.018  -4.171  1.00  0.00    -0.035 C 
HETATM    6  C13 UNL     1     -17.084  27.033  -4.783  1.00  0.00     0.016 C 
HETATM    7  C14 UNL     1     -15.120  25.635  -4.092  1.00  0.00     0.009 C 
HETATM    8  C15 UNL     1     -16.163  24.968  -3.246  1.00  0.00     0.007 C 
HETATM    9  C16 UNL     1     -16.265  26.005  -2.113  1.00  0.00     0.006 C 
HETATM   10  C17 UNL     1     -15.743  27.319  -2.685  1.00  0.00    -0.002 C 
ENDROOT
BRANCH   1  11
HETATM   11  C7  UNL     1     -14.407  23.822  -5.534  1.00  0.00    -0.150 C 
BRANCH  11  12
HETATM   12  C6  UNL     1     -14.060  22.493  -5.771  1.00  0.00     0.054 C 
HETATM   13  C5  UNL     1     -12.813  22.071  -6.119  1.00  0.00    -0.067 C 
HETATM   14  C4  UNL     1     -11.774  23.088  -6.255  1.00  0.00     0.071 C 
HETATM   15  C27 UNL     1     -12.610  20.621  -6.327  1.00  0.00     0.071 C 
HETATM   16  C3  UNL     1     -10.642  22.691  -7.168  1.00  0.00     0.152 C 
HETATM   17  C2  UNL     1     -10.521  21.229  -7.332  1.00  0.00    -0.032 C 
HETATM   18  C1  UNL     1      -9.820  20.762  -8.357  1.00  0.00     0.019 C 
HETATM   19  C28 UNL     1     -11.159  20.266  -6.399  1.00  0.00     0.152 C 
BRANCH  16  20
HETATM   20  O1  UNL     1      -9.454  23.169  -6.625  1.00  0.00    -0.391 OA
ATOM     21  H1  UNL     1      -9.565  23.243  -5.684  1.00  0.00     0.210 HD
ENDBRANCH  16  20
BRANCH  19  22
HETATM   22  O3  UNL     1     -11.030  18.971  -6.912  1.00  0.00    -0.391 OA
ATOM     23  H3  UNL     1     -10.823  18.372  -6.204  1.00  0.00     0.210 HD
ENDBRANCH  19  22
ENDBRANCH  11  12
ENDBRANCH   1  11
BRANCH  10  24
HETATM   24  C18 UNL     1     -16.661  28.375  -2.230  1.00  0.00    -0.014 C 
HETATM   25  C19 UNL     1     -16.048  29.748  -2.112  1.00  0.00     0.010 C 
BRANCH  24  26
HETATM   26  C20 UNL     1     -17.098  28.041  -0.783  1.00  0.00     0.007 C 
BRANCH  26  27
HETATM   27  C21 UNL     1     -16.401  28.881   0.210  1.00  0.00     0.038 C 
BRANCH  27  28
HETATM   28  C22 UNL     1     -16.329  28.253   1.627  1.00  0.00     0.057 C 
BRANCH  28  29
HETATM   29  O2  UNL     1     -15.169  27.505   1.746  1.00  0.00    -0.390 OA
ATOM     30  H2  UNL     1     -15.343  26.725   2.259  1.00  0.00     0.210 HD
ENDBRANCH  28  29
BRANCH  28  31
HETATM   31  C23 UNL     1     -17.475  27.281   1.731  1.00  0.00     0.033 C 
HETATM   32  C24 UNL     1     -17.156  25.837   1.626  1.00  0.00     0.008 C 
ENDBRANCH  28  31
BRANCH  28  33
HETATM   33  C25 UNL     1     -16.337  29.346   2.635  1.00  0.00     0.033 C 
HETATM   34  C26 UNL     1     -15.705  28.948   3.929  1.00  0.00     0.008 C 
ENDBRANCH  28  33
ENDBRANCH  27  28
ENDBRANCH  26  27
ENDBRANCH  24  26
ENDBRANCH  10  24
TORSDOF 11
ENDMDL
