MODEL 6
REMARK VINA RESULT: -10.137403403      1.372      1.885
REMARK  11 active torsions:
REMARK  status: ('A' for Active; 'I' for Inactive)
REMARK    1  A    between atoms: C3_3  and  O1_4 
REMARK    2  A    between atoms: C6_8  and  C7_9 
REMARK    3  A    between atoms: C7_9  and  C8_10 
REMARK    4  A    between atoms: C17_19  and  C18_20 
REMARK    5  A    between atoms: C18_20  and  C20_22 
REMARK    6  A    between atoms: C20_22  and  C21_23 
REMARK    7  A    between atoms: C21_23  and  C22_24 
REMARK    8  A    between atoms: C22_24  and  O2_25 
REMARK    9  A    between atoms: C22_24  and  C23_27 
REMARK   10  A    between atoms: C22_24  and  C25_29 
REMARK   11  A    between atoms: C28_32  and  O3_33 
ROOT
HETATM    1  C8  UNL     1     -16.525  26.047  -4.049  1.00  0.00     0.061 C 
HETATM    2  C9  UNL     1     -17.932  25.685  -4.477  1.00  0.00     0.017 C 
HETATM    3  C10 UNL     1     -18.117  24.398  -5.126  1.00  0.00     0.002 C 
HETATM    4  C11 UNL     1     -16.929  23.557  -5.381  1.00  0.00     0.010 C 
HETATM    5  C12 UNL     1     -15.805  24.444  -5.839  1.00  0.00    -0.035 C 
HETATM    6  C13 UNL     1     -16.115  25.232  -7.058  1.00  0.00     0.016 C 
HETATM    7  C14 UNL     1     -15.463  25.298  -4.636  1.00  0.00     0.009 C 
HETATM    8  C15 UNL     1     -14.274  26.021  -5.196  1.00  0.00     0.007 C 
HETATM    9  C16 UNL     1     -13.482  24.815  -5.734  1.00  0.00     0.006 C 
HETATM   10  C17 UNL     1     -14.493  23.690  -5.930  1.00  0.00    -0.002 C 
ENDROOT
BRANCH   1  11
HETATM   11  C7  UNL     1     -16.449  26.987  -3.204  1.00  0.00    -0.150 C 
BRANCH  11  12
HETATM   12  C6  UNL     1     -16.365  28.023  -2.274  1.00  0.00     0.054 C 
HETATM   13  C5  UNL     1     -16.412  27.853  -0.924  1.00  0.00    -0.067 C 
HETATM   14  C4  UNL     1     -16.563  26.490  -0.423  1.00  0.00     0.071 C 
HETATM   15  C27 UNL     1     -16.301  29.059  -0.074  1.00  0.00     0.071 C 
HETATM   16  C3  UNL     1     -17.180  26.405   0.950  1.00  0.00     0.152 C 
HETATM   17  C2  UNL     1     -17.038  27.654   1.723  1.00  0.00    -0.032 C 
HETATM   18  C1  UNL     1     -17.822  27.841   2.776  1.00  0.00     0.019 C 
HETATM   19  C28 UNL     1     -16.059  28.710   1.359  1.00  0.00     0.152 C 
BRANCH  16  20
HETATM   20  O1  UNL     1     -16.546  25.384   1.651  1.00  0.00    -0.391 OA
ATOM     21  H1  UNL     1     -15.731  25.725   2.002  1.00  0.00     0.210 HD
ENDBRANCH  16  20
BRANCH  19  22
HETATM   22  O3  UNL     1     -16.285  29.842   2.150  1.00  0.00    -0.391 OA
ATOM     23  H3  UNL     1     -15.521  30.006   2.690  1.00  0.00     0.210 HD
ENDBRANCH  19  22
ENDBRANCH  11  12
ENDBRANCH   1  11
BRANCH  10  24
HETATM   24  C18 UNL     1     -14.181  23.058  -7.221  1.00  0.00    -0.014 C 
HETATM   25  C19 UNL     1     -15.012  21.845  -7.558  1.00  0.00     0.010 C 
BRANCH  24  26
HETATM   26  C20 UNL     1     -12.736  22.505  -7.148  1.00  0.00     0.007 C 
BRANCH  26  27
HETATM   27  C21 UNL     1     -12.654  21.287  -6.318  1.00  0.00     0.038 C 
BRANCH  27  28
HETATM   28  C22 UNL     1     -11.360  20.461  -6.539  1.00  0.00     0.057 C 
BRANCH  28  29
HETATM   29  O2  UNL     1     -11.640  19.357  -7.329  1.00  0.00    -0.390 OA
ATOM     30  H2  UNL     1     -10.904  18.758  -7.312  1.00  0.00     0.210 HD
ENDBRANCH  28  29
BRANCH  28  31
HETATM   31  C23 UNL     1     -10.949  19.928  -5.193  1.00  0.00     0.033 C 
HETATM   32  C24 UNL     1      -9.620  20.336  -4.674  1.00  0.00     0.008 C 
ENDBRANCH  28  31
BRANCH  28  33
HETATM   33  C25 UNL     1     -10.351  21.324  -7.210  1.00  0.00     0.033 C 
HETATM   34  C26 UNL     1      -9.724  20.670  -8.397  1.00  0.00     0.008 C 
ENDBRANCH  28  33
ENDBRANCH  27  28
ENDBRANCH  26  27
ENDBRANCH  24  26
ENDBRANCH  10  24
TORSDOF 11
ENDMDL
