MODEL 5
REMARK VINA RESULT: -10.141423673      1.858      9.322
REMARK  11 active torsions:
REMARK  status: ('A' for Active; 'I' for Inactive)
REMARK    1  A    between atoms: C3_3  and  O1_4 
REMARK    2  A    between atoms: C6_8  and  C7_9 
REMARK    3  A    between atoms: C7_9  and  C8_10 
REMARK    4  A    between atoms: C17_19  and  C18_20 
REMARK    5  A    between atoms: C18_20  and  C20_22 
REMARK    6  A    between atoms: C20_22  and  C21_23 
REMARK    7  A    between atoms: C21_23  and  C22_24 
REMARK    8  A    between atoms: C22_24  and  O2_25 
REMARK    9  A    between atoms: C22_24  and  C23_27 
REMARK   10  A    between atoms: C22_24  and  C25_29 
REMARK   11  A    between atoms: C28_32  and  O3_33 
ROOT
HETATM    1  C8  UNL     1     -13.924  25.784  -5.944  1.00  0.00     0.061 C 
HETATM    2  C9  UNL     1     -14.554  26.829  -6.841  1.00  0.00     0.017 C 
HETATM    3  C10 UNL     1     -15.134  27.995  -6.195  1.00  0.00     0.002 C 
HETATM    4  C11 UNL     1     -15.127  28.063  -4.719  1.00  0.00     0.010 C 
HETATM    5  C12 UNL     1     -15.452  26.698  -4.177  1.00  0.00    -0.035 C 
HETATM    6  C13 UNL     1     -16.757  26.161  -4.635  1.00  0.00     0.016 C 
HETATM    7  C14 UNL     1     -14.272  25.831  -4.562  1.00  0.00     0.009 C 
HETATM    8  C15 UNL     1     -14.674  24.568  -3.860  1.00  0.00     0.007 C 
HETATM    9  C16 UNL     1     -14.987  25.146  -2.468  1.00  0.00     0.006 C 
HETATM   10  C17 UNL     1     -15.270  26.631  -2.674  1.00  0.00    -0.002 C 
ENDROOT
BRANCH   1  11
HETATM   11  C7  UNL     1     -13.146  24.975  -6.531  1.00  0.00    -0.150 C 
BRANCH  11  12
HETATM   12  C6  UNL     1     -12.288  24.085  -7.175  1.00  0.00     0.054 C 
HETATM   13  C5  UNL     1     -12.163  22.767  -6.857  1.00  0.00    -0.067 C 
HETATM   14  C4  UNL     1     -12.986  22.259  -5.762  1.00  0.00     0.071 C 
HETATM   15  C27 UNL     1     -11.211  21.955  -7.646  1.00  0.00     0.071 C 
HETATM   16  C3  UNL     1     -12.420  21.037  -5.085  1.00  0.00     0.152 C 
HETATM   17  C2  UNL     1     -11.469  20.296  -5.935  1.00  0.00    -0.032 C 
HETATM   18  C1  UNL     1     -10.646  19.429  -5.360  1.00  0.00     0.019 C 
HETATM   19  C28 UNL     1     -11.395  20.491  -7.406  1.00  0.00     0.152 C 
BRANCH  16  20
HETATM   20  O1  UNL     1     -13.474  20.187  -4.766  1.00  0.00    -0.391 OA
ATOM     21  H1  UNL     1     -14.283  20.684  -4.815  1.00  0.00     0.210 HD
ENDBRANCH  16  20
BRANCH  19  22
HETATM   22  O3  UNL     1     -10.285  19.802  -7.908  1.00  0.00    -0.391 OA
ATOM     23  H3  UNL     1      -9.630  20.429  -8.194  1.00  0.00     0.210 HD
ENDBRANCH  19  22
ENDBRANCH  11  12
ENDBRANCH   1  11
BRANCH  10  24
HETATM   24  C18 UNL     1     -16.443  26.958  -1.849  1.00  0.00    -0.014 C 
HETATM   25  C19 UNL     1     -16.762  28.428  -1.744  1.00  0.00     0.010 C 
BRANCH  24  26
HETATM   26  C20 UNL     1     -16.135  26.542  -0.390  1.00  0.00     0.007 C 
BRANCH  26  27
HETATM   27  C21 UNL     1     -15.824  27.708   0.460  1.00  0.00     0.038 C 
BRANCH  27  28
HETATM   28  C22 UNL     1     -16.271  27.549   1.937  1.00  0.00     0.057 C 
BRANCH  28  29
HETATM   29  O2  UNL     1     -16.443  26.205   2.229  1.00  0.00    -0.390 OA
ATOM     30  H2  UNL     1     -16.438  26.079   3.170  1.00  0.00     0.210 HD
ENDBRANCH  28  29
BRANCH  28  31
HETATM   31  C23 UNL     1     -17.630  28.186   2.051  1.00  0.00     0.033 C 
HETATM   32  C24 UNL     1     -17.840  29.476   1.350  1.00  0.00     0.008 C 
ENDBRANCH  28  31
BRANCH  28  33
HETATM   33  C25 UNL     1     -15.225  28.132   2.819  1.00  0.00     0.033 C 
HETATM   34  C26 UNL     1     -15.788  28.758   4.053  1.00  0.00     0.008 C 
ENDBRANCH  28  33
ENDBRANCH  27  28
ENDBRANCH  26  27
ENDBRANCH  24  26
ENDBRANCH  10  24
TORSDOF 11
ENDMDL
