MODEL 4
REMARK VINA RESULT: -10.149280025      1.462      2.132
REMARK  11 active torsions:
REMARK  status: ('A' for Active; 'I' for Inactive)
REMARK    1  A    between atoms: C3_3  and  O1_4 
REMARK    2  A    between atoms: C6_8  and  C7_9 
REMARK    3  A    between atoms: C7_9  and  C8_10 
REMARK    4  A    between atoms: C17_19  and  C18_20 
REMARK    5  A    between atoms: C18_20  and  C20_22 
REMARK    6  A    between atoms: C20_22  and  C21_23 
REMARK    7  A    between atoms: C21_23  and  C22_24 
REMARK    8  A    between atoms: C22_24  and  O2_25 
REMARK    9  A    between atoms: C22_24  and  C23_27 
REMARK   10  A    between atoms: C22_24  and  C25_29 
REMARK   11  A    between atoms: C28_32  and  O3_33 
ROOT
HETATM    1  C8  UNL     1     -15.964  27.573  -4.064  1.00  0.00     0.061 C 
HETATM    2  C9  UNL     1     -15.810  28.376  -5.338  1.00  0.00     0.017 C 
HETATM    3  C10 UNL     1     -16.079  27.690  -6.591  1.00  0.00     0.002 C 
HETATM    4  C11 UNL     1     -16.424  26.254  -6.551  1.00  0.00     0.010 C 
HETATM    5  C12 UNL     1     -15.549  25.581  -5.530  1.00  0.00    -0.035 C 
HETATM    6  C13 UNL     1     -14.095  25.727  -5.790  1.00  0.00     0.016 C 
HETATM    7  C14 UNL     1     -15.986  26.154  -4.199  1.00  0.00     0.009 C 
HETATM    8  C15 UNL     1     -15.134  25.315  -3.294  1.00  0.00     0.007 C 
HETATM    9  C16 UNL     1     -15.466  23.922  -3.861  1.00  0.00     0.006 C 
HETATM   10  C17 UNL     1     -15.973  24.147  -5.282  1.00  0.00    -0.002 C 
ENDROOT
BRANCH   1  11
HETATM   11  C7  UNL     1     -16.060  28.263  -3.006  1.00  0.00    -0.150 C 
BRANCH  11  12
HETATM   12  C6  UNL     1     -16.167  29.021  -1.841  1.00  0.00     0.054 C 
HETATM   13  C5  UNL     1     -16.307  28.500  -0.591  1.00  0.00    -0.067 C 
HETATM   14  C4  UNL     1     -16.350  27.045  -0.471  1.00  0.00     0.071 C 
HETATM   15  C27 UNL     1     -16.399  29.445   0.543  1.00  0.00     0.071 C 
HETATM   16  C3  UNL     1     -17.065  26.551   0.761  1.00  0.00     0.152 C 
HETATM   17  C2  UNL     1     -17.125  27.561   1.835  1.00  0.00    -0.032 C 
HETATM   18  C1  UNL     1     -18.009  27.399   2.811  1.00  0.00     0.019 C 
HETATM   19  C28 UNL     1     -16.240  28.754   1.859  1.00  0.00     0.152 C 
BRANCH  16  20
HETATM   20  O1  UNL     1     -16.385  25.439   1.245  1.00  0.00    -0.391 OA
ATOM     21  H1  UNL     1     -17.024  24.775   1.476  1.00  0.00     0.210 HD
ENDBRANCH  16  20
BRANCH  19  22
HETATM   22  O3  UNL     1     -16.653  29.615   2.881  1.00  0.00    -0.391 OA
ATOM     23  H3  UNL     1     -17.277  29.165   3.439  1.00  0.00     0.210 HD
ENDBRANCH  19  22
ENDBRANCH  11  12
ENDBRANCH   1  11
BRANCH  10  24
HETATM   24  C18 UNL     1     -15.347  23.116  -6.124  1.00  0.00    -0.014 C 
HETATM   25  C19 UNL     1     -16.262  21.996  -6.551  1.00  0.00     0.010 C 
BRANCH  24  26
HETATM   26  C20 UNL     1     -14.260  22.404  -5.282  1.00  0.00     0.007 C 
BRANCH  26  27
HETATM   27  C21 UNL     1     -13.778  21.171  -5.935  1.00  0.00     0.038 C 
BRANCH  27  28
HETATM   28  C22 UNL     1     -12.245  21.140  -6.169  1.00  0.00     0.057 C 
BRANCH  28  29
HETATM   29  O2  UNL     1     -11.966  20.463  -7.345  1.00  0.00    -0.390 OA
ATOM     30  H2  UNL     1     -11.171  20.809  -7.732  1.00  0.00     0.210 HD
ENDBRANCH  28  29
BRANCH  28  31
HETATM   31  C23 UNL     1     -11.651  20.320  -5.055  1.00  0.00     0.033 C 
HETATM   32  C24 UNL     1     -10.768  19.191  -5.435  1.00  0.00     0.008 C 
ENDBRANCH  28  31
BRANCH  28  33
HETATM   33  C25 UNL     1     -11.747  22.539  -6.256  1.00  0.00     0.033 C 
HETATM   34  C26 UNL     1     -10.256  22.624  -6.296  1.00  0.00     0.008 C 
ENDBRANCH  28  33
ENDBRANCH  27  28
ENDBRANCH  26  27
ENDBRANCH  24  26
ENDBRANCH  10  24
TORSDOF 11
ENDMDL
