MODEL 15
REMARK VINA RESULT: -8.867078063      1.609      2.736
REMARK  11 active torsions:
REMARK  status: ('A' for Active; 'I' for Inactive)
REMARK    1  A    between atoms: C3_3  and  O1_4 
REMARK    2  A    between atoms: C6_8  and  C7_9 
REMARK    3  A    between atoms: C7_9  and  C8_10 
REMARK    4  A    between atoms: C17_19  and  C18_20 
REMARK    5  A    between atoms: C18_20  and  C20_22 
REMARK    6  A    between atoms: C20_22  and  C21_23 
REMARK    7  A    between atoms: C21_23  and  C22_24 
REMARK    8  A    between atoms: C22_24  and  O2_25 
REMARK    9  A    between atoms: C22_24  and  C23_27 
REMARK   10  A    between atoms: C22_24  and  C25_29 
REMARK   11  A    between atoms: C28_32  and  O3_33 
ROOT
HETATM    1  C8  UNL     1     -15.057  25.492  -3.477  1.00  0.00     0.061 C 
HETATM    2  C9  UNL     1     -14.553  26.792  -4.068  1.00  0.00     0.017 C 
HETATM    3  C10 UNL     1     -14.652  26.946  -5.511  1.00  0.00     0.002 C 
HETATM    4  C11 UNL     1     -15.176  25.818  -6.308  1.00  0.00     0.010 C 
HETATM    5  C12 UNL     1     -14.612  24.539  -5.754  1.00  0.00    -0.035 C 
HETATM    6  C13 UNL     1     -13.129  24.484  -5.746  1.00  0.00     0.016 C 
HETATM    7  C14 UNL     1     -15.230  24.401  -4.378  1.00  0.00     0.009 C 
HETATM    8  C15 UNL     1     -14.687  23.051  -4.014  1.00  0.00     0.007 C 
HETATM    9  C16 UNL     1     -15.072  22.277  -5.288  1.00  0.00     0.006 C 
HETATM   10  C17 UNL     1     -15.254  23.320  -6.386  1.00  0.00    -0.002 C 
ENDROOT
BRANCH   1  11
HETATM   11  C7  UNL     1     -15.274  25.522  -2.229  1.00  0.00    -0.150 C 
BRANCH  11  12
HETATM   12  C6  UNL     1     -15.513  25.554  -0.856  1.00  0.00     0.054 C 
HETATM   13  C5  UNL     1     -16.091  26.596  -0.198  1.00  0.00    -0.067 C 
HETATM   14  C4  UNL     1     -16.481  27.758  -0.991  1.00  0.00     0.071 C 
HETATM   15  C27 UNL     1     -16.281  26.468   1.263  1.00  0.00     0.071 C 
HETATM   16  C3  UNL     1     -16.552  29.043  -0.206  1.00  0.00     0.152 C 
HETATM   17  C2  UNL     1     -16.726  28.823   1.243  1.00  0.00    -0.032 C 
HETATM   18  C1  UNL     1     -16.452  29.819   2.074  1.00  0.00     0.019 C 
HETATM   19  C28 UNL     1     -17.188  27.527   1.802  1.00  0.00     0.152 C 
BRANCH  16  20
HETATM   20  O1  UNL     1     -17.637  29.779  -0.669  1.00  0.00    -0.391 OA
ATOM     21  H1  UNL     1     -18.431  29.399  -0.310  1.00  0.00     0.210 HD
ENDBRANCH  16  20
BRANCH  19  22
HETATM   22  O3  UNL     1     -17.075  27.559   3.197  1.00  0.00    -0.391 OA
ATOM     23  H3  UNL     1     -17.666  28.217   3.545  1.00  0.00     0.210 HD
ENDBRANCH  19  22
ENDBRANCH  11  12
ENDBRANCH   1  11
BRANCH  10  24
HETATM   24  C18 UNL     1     -14.608  22.782  -7.593  1.00  0.00    -0.014 C 
HETATM   25  C19 UNL     1     -15.548  22.176  -8.606  1.00  0.00     0.010 C 
BRANCH  24  26
HETATM   26  C20 UNL     1     -13.709  21.596  -7.169  1.00  0.00     0.007 C 
BRANCH  26  27
HETATM   27  C21 UNL     1     -12.274  21.934  -7.253  1.00  0.00     0.038 C 
BRANCH  27  28
HETATM   28  C22 UNL     1     -11.328  20.770  -6.860  1.00  0.00     0.057 C 
BRANCH  28  29
HETATM   29  O2  UNL     1     -11.814  19.580  -7.378  1.00  0.00    -0.390 OA
ATOM     30  H2  UNL     1     -11.144  19.165  -7.909  1.00  0.00     0.210 HD
ENDBRANCH  28  29
BRANCH  28  31
HETATM   31  C23 UNL     1     -11.396  20.641  -5.362  1.00  0.00     0.033 C 
HETATM   32  C24 UNL     1     -10.392  19.768  -4.706  1.00  0.00     0.008 C 
ENDBRANCH  28  31
BRANCH  28  33
HETATM   33  C25 UNL     1      -9.974  21.049  -7.408  1.00  0.00     0.033 C 
HETATM   34  C26 UNL     1      -9.493  19.985  -8.340  1.00  0.00     0.008 C 
ENDBRANCH  28  33
ENDBRANCH  27  28
ENDBRANCH  26  27
ENDBRANCH  24  26
ENDBRANCH  10  24
TORSDOF 11
ENDMDL
