MODEL 20
REMARK VINA RESULT: -8.417392068      1.444      2.385
REMARK  11 active torsions:
REMARK  status: ('A' for Active; 'I' for Inactive)
REMARK    1  A    between atoms: C3_3  and  O1_4 
REMARK    2  A    between atoms: C6_8  and  C7_9 
REMARK    3  A    between atoms: C7_9  and  C8_10 
REMARK    4  A    between atoms: C17_19  and  C18_20 
REMARK    5  A    between atoms: C18_20  and  C20_22 
REMARK    6  A    between atoms: C20_22  and  C21_23 
REMARK    7  A    between atoms: C21_23  and  C22_24 
REMARK    8  A    between atoms: C22_24  and  O2_25 
REMARK    9  A    between atoms: C22_24  and  C23_27 
REMARK   10  A    between atoms: C22_24  and  C25_29 
REMARK   11  A    between atoms: C28_32  and  O3_33 
ROOT
HETATM    1  C8  UNL     1     -15.805  25.601  -3.438  1.00  0.00     0.061 C 
HETATM    2  C9  UNL     1     -15.539  26.980  -4.002  1.00  0.00     0.017 C 
HETATM    3  C10 UNL     1     -15.617  27.134  -5.445  1.00  0.00     0.002 C 
HETATM    4  C11 UNL     1     -15.889  25.939  -6.270  1.00  0.00     0.010 C 
HETATM    5  C12 UNL     1     -15.111  24.783  -5.706  1.00  0.00    -0.035 C 
HETATM    6  C13 UNL     1     -13.646  25.011  -5.646  1.00  0.00     0.016 C 
HETATM    7  C14 UNL     1     -15.737  24.509  -4.354  1.00  0.00     0.009 C 
HETATM    8  C15 UNL     1     -14.958  23.283  -3.981  1.00  0.00     0.007 C 
HETATM    9  C16 UNL     1     -15.146  22.468  -5.274  1.00  0.00     0.006 C 
HETATM   10  C17 UNL     1     -15.487  23.472  -6.370  1.00  0.00    -0.002 C 
ENDROOT
BRANCH   1  11
HETATM   11  C7  UNL     1     -16.065  25.570  -2.199  1.00  0.00    -0.150 C 
BRANCH  11  12
HETATM   12  C6  UNL     1     -16.349  25.536  -0.835  1.00  0.00     0.054 C 
HETATM   13  C5  UNL     1     -16.587  26.636  -0.068  1.00  0.00    -0.067 C 
HETATM   14  C4  UNL     1     -16.537  27.938  -0.728  1.00  0.00     0.071 C 
HETATM   15  C27 UNL     1     -16.882  26.426   1.365  1.00  0.00     0.071 C 
HETATM   16  C3  UNL     1     -16.223  29.085   0.199  1.00  0.00     0.152 C 
HETATM   17  C2  UNL     1     -16.532  28.785   1.610  1.00  0.00    -0.032 C 
HETATM   18  C1  UNL     1     -15.990  29.543   2.554  1.00  0.00     0.019 C 
HETATM   19  C28 UNL     1     -17.419  27.663   2.011  1.00  0.00     0.152 C 
BRANCH  16  20
HETATM   20  O1  UNL     1     -16.984  30.182  -0.190  1.00  0.00    -0.391 OA
ATOM     21  H1  UNL     1     -16.580  30.966   0.163  1.00  0.00     0.210 HD
ENDBRANCH  16  20
BRANCH  19  22
HETATM   22  O3  UNL     1     -17.372  27.511   3.401  1.00  0.00    -0.391 OA
ATOM     23  H3  UNL     1     -18.134  27.021   3.690  1.00  0.00     0.210 HD
ENDBRANCH  19  22
ENDBRANCH  11  12
ENDBRANCH   1  11
BRANCH  10  24
HETATM   24  C18 UNL     1     -14.710  23.085  -7.557  1.00  0.00    -0.014 C 
HETATM   25  C19 UNL     1     -15.477  22.306  -8.597  1.00  0.00     0.010 C 
BRANCH  24  26
HETATM   26  C20 UNL     1     -13.600  22.105  -7.106  1.00  0.00     0.007 C 
BRANCH  26  27
HETATM   27  C21 UNL     1     -12.252  22.612  -7.432  1.00  0.00     0.038 C 
BRANCH  27  28
HETATM   28  C22 UNL     1     -11.109  21.900  -6.664  1.00  0.00     0.057 C 
BRANCH  28  29
HETATM   29  O2  UNL     1     -10.618  22.738  -5.676  1.00  0.00    -0.390 OA
ATOM     30  H2  UNL     1     -10.900  22.427  -4.824  1.00  0.00     0.210 HD
ENDBRANCH  28  29
BRANCH  28  31
HETATM   31  C23 UNL     1      -9.986  21.697  -7.646  1.00  0.00     0.033 C 
HETATM   32  C24 UNL     1      -9.891  20.374  -8.311  1.00  0.00     0.008 C 
ENDBRANCH  28  31
BRANCH  28  33
HETATM   33  C25 UNL     1     -11.646  20.654  -6.055  1.00  0.00     0.033 C 
HETATM   34  C26 UNL     1     -10.838  20.180  -4.892  1.00  0.00     0.008 C 
ENDBRANCH  28  33
ENDBRANCH  27  28
ENDBRANCH  26  27
ENDBRANCH  24  26
ENDBRANCH  10  24
TORSDOF 11
ENDMDL
