MODEL 6
REMARK VINA RESULT: -9.071099370      3.092      8.483
REMARK  4 active torsions:
REMARK  status: ('A' for Active; 'I' for Inactive)
REMARK    1  A    between atoms: C5_10  and  C6_11 
REMARK    2  A    between atoms: C9_14  and  O1_15 
REMARK    3  A    between atoms: O1_15  and  C10_16 
REMARK    4  A    between atoms: N4_25  and  C19_26 
ROOT
HETATM    1  N1  UNL     1       6.152 -12.068  11.521  1.00  0.00    -0.082 NA
HETATM    2  C1  UNL     1       5.362 -10.902  11.732  1.00  0.00     0.132 A 
HETATM    3  N2  UNL     1       5.765  -9.683  11.368  1.00  0.00    -0.340 N 
ATOM      4  H2  UNL     1       6.670  -9.585  10.907  1.00  0.00     0.167 HD
HETATM    5  C2  UNL     1       5.033  -8.583  11.582  1.00  0.00     0.183 A 
HETATM    6  N3  UNL     1       3.841  -8.683  12.187  1.00  0.00    -0.338 N 
ATOM      7  H3  UNL     1       3.287  -7.841  12.348  1.00  0.00     0.168 HD
HETATM    8  C3  UNL     1       3.365  -9.877  12.583  1.00  0.00     0.123 A 
HETATM    9  C4  UNL     1       4.135 -11.025  12.356  1.00  0.00     0.062 A 
HETATM   10  C5  UNL     1       3.405 -12.079  12.866  1.00  0.00     0.007 A 
HETATM   11  C18 UNL     1       2.229 -11.586  13.389  1.00  0.00     0.106 A 
HETATM   12  N4  UNL     1       2.225 -10.265  13.209  1.00  0.00    -0.337 N 
ENDROOT
BRANCH  10  13
HETATM   13  C6  UNL     1       3.838 -13.470  12.803  1.00  0.00    -0.023 A 
HETATM   14  C7  UNL     1       3.552 -14.269  11.716  1.00  0.00     0.015 A 
HETATM   15  C8  UNL     1       3.961 -15.584  11.609  1.00  0.00     0.038 A 
HETATM   16  C9  UNL     1       4.690 -16.107  12.651  1.00  0.00     0.076 A 
HETATM   17  C16 UNL     1       5.006 -15.346  13.771  1.00  0.00     0.038 A 
HETATM   18  C17 UNL     1       4.579 -14.036  13.838  1.00  0.00     0.015 A 
BRANCH  16  19
HETATM   19  O1  UNL     1       5.095 -17.435  12.527  1.00  0.00    -0.311 OA
BRANCH  19  20
HETATM   20  C10 UNL     1       4.886 -18.340  13.566  1.00  0.00     0.076 A 
HETATM   21  C11 UNL     1       5.896 -18.891  14.306  1.00  0.00     0.037 A 
HETATM   22  C12 UNL     1       5.648 -19.781  15.323  1.00  0.00     0.003 A 
HETATM   23  C13 UNL     1       4.339 -20.123  15.599  1.00  0.00     0.000 A 
HETATM   24  C14 UNL     1       3.290 -19.594  14.881  1.00  0.00     0.003 A 
HETATM   25  C15 UNL     1       3.576 -18.705  13.869  1.00  0.00     0.037 A 
ENDBRANCH  19  20
ENDBRANCH  16  19
ENDBRANCH  10  13
BRANCH  12  26
HETATM   26  C19 UNL     1       1.206  -9.291  13.587  1.00  0.00     0.091 C 
HETATM   27  C20 UNL     1       0.644  -9.616  14.944  1.00  0.00     0.026 C 
HETATM   28  C21 UNL     1      -0.609  -8.769  14.978  1.00  0.00     0.002 C 
HETATM   29  C22 UNL     1      -1.043  -8.611  13.543  1.00  0.00     0.002 C 
HETATM   30  C23 UNL     1      -0.003  -9.352  12.703  1.00  0.00     0.026 C 
ENDBRANCH  12  26
TORSDOF 4
ENDMDL
