MODEL 9
REMARK VINA RESULT: -8.834896831      6.031      8.848
REMARK  4 active torsions:
REMARK  status: ('A' for Active; 'I' for Inactive)
REMARK    1  A    between atoms: C5_10  and  C6_11 
REMARK    2  A    between atoms: C9_14  and  O1_15 
REMARK    3  A    between atoms: O1_15  and  C10_16 
REMARK    4  A    between atoms: N4_25  and  C19_26 
ROOT
HETATM    1  N1  UNL     1       3.910 -17.633  13.824  1.00  0.00    -0.082 NA
HETATM    2  C1  UNL     1       2.583 -18.102  14.043  1.00  0.00     0.132 A 
HETATM    3  N2  UNL     1       2.320 -19.316  14.532  1.00  0.00    -0.340 N 
ATOM      4  H2  UNL     1       3.101 -19.927  14.771  1.00  0.00     0.167 HD
HETATM    5  C2  UNL     1       1.073 -19.766  14.723  1.00  0.00     0.183 A 
HETATM    6  N3  UNL     1       0.028 -18.985  14.417  1.00  0.00    -0.338 N 
ATOM      7  H3  UNL     1      -0.920 -19.333  14.563  1.00  0.00     0.168 HD
HETATM    8  C3  UNL     1       0.212 -17.749  13.920  1.00  0.00     0.123 A 
HETATM    9  C4  UNL     1       1.518 -17.282  13.723  1.00  0.00     0.062 A 
HETATM   10  C5  UNL     1       1.393 -16.009  13.207  1.00  0.00     0.007 A 
HETATM   11  C18 UNL     1       0.052 -15.711  13.091  1.00  0.00     0.106 A 
HETATM   12  N4  UNL     1      -0.638 -16.767  13.524  1.00  0.00    -0.337 N 
ENDROOT
BRANCH  10  13
HETATM   13  C6  UNL     1       2.527 -15.148  12.889  1.00  0.00    -0.023 A 
HETATM   14  C7  UNL     1       3.153 -14.389  13.854  1.00  0.00     0.015 A 
HETATM   15  C8  UNL     1       4.242 -13.578  13.597  1.00  0.00     0.038 A 
HETATM   16  C9  UNL     1       4.710 -13.538  12.304  1.00  0.00     0.076 A 
HETATM   17  C16 UNL     1       4.115 -14.282  11.292  1.00  0.00     0.038 A 
HETATM   18  C17 UNL     1       3.031 -15.080  11.592  1.00  0.00     0.015 A 
BRANCH  16  19
HETATM   19  O1  UNL     1       5.808 -12.715  12.062  1.00  0.00    -0.311 OA
BRANCH  19  20
HETATM   20  C10 UNL     1       5.630 -11.396  11.652  1.00  0.00     0.076 A 
HETATM   21  C11 UNL     1       4.557 -10.628  12.012  1.00  0.00     0.037 A 
HETATM   22  C12 UNL     1       4.418  -9.329  11.585  1.00  0.00     0.003 A 
HETATM   23  C13 UNL     1       5.395  -8.792  10.770  1.00  0.00     0.000 A 
HETATM   24  C14 UNL     1       6.492  -9.527  10.382  1.00  0.00     0.003 A 
HETATM   25  C15 UNL     1       6.598 -10.825  10.828  1.00  0.00     0.037 A 
ENDBRANCH  19  20
ENDBRANCH  16  19
ENDBRANCH  10  13
BRANCH  12  26
HETATM   26  C19 UNL     1      -2.084 -16.948  13.603  1.00  0.00     0.091 C 
HETATM   27  C20 UNL     1      -2.790 -15.932  12.748  1.00  0.00     0.026 C 
HETATM   28  C21 UNL     1      -4.213 -16.027  13.252  1.00  0.00     0.002 C 
HETATM   29  C22 UNL     1      -4.115 -16.476  14.688  1.00  0.00     0.002 C 
HETATM   30  C23 UNL     1      -2.624 -16.662  14.972  1.00  0.00     0.026 C 
ENDBRANCH  12  26
TORSDOF 4
ENDMDL
