MODEL 8
REMARK VINA RESULT: -8.936061162      5.129      7.013
REMARK  4 active torsions:
REMARK  status: ('A' for Active; 'I' for Inactive)
REMARK    1  A    between atoms: C5_10  and  C6_11 
REMARK    2  A    between atoms: C9_14  and  O1_15 
REMARK    3  A    between atoms: O1_15  and  C10_16 
REMARK    4  A    between atoms: N4_25  and  C19_26 
ROOT
HETATM    1  N1  UNL     1       3.142 -17.440  13.700  1.00  0.00    -0.082 NA
HETATM    2  C1  UNL     1       3.919 -16.298  13.350  1.00  0.00     0.132 A 
HETATM    3  N2  UNL     1       5.195 -16.386  12.965  1.00  0.00    -0.340 N 
ATOM      4  H2  UNL     1       5.625 -17.309  12.906  1.00  0.00     0.167 HD
HETATM    5  C2  UNL     1       5.933 -15.314  12.653  1.00  0.00     0.183 A 
HETATM    6  N3  UNL     1       5.393 -14.089  12.722  1.00  0.00    -0.338 N 
ATOM      7  H3  UNL     1       5.960 -13.275  12.484  1.00  0.00     0.168 HD
HETATM    8  C3  UNL     1       4.114 -13.919  13.101  1.00  0.00     0.123 A 
HETATM    9  C4  UNL     1       3.345 -15.044  13.426  1.00  0.00     0.062 A 
HETATM   10  C5  UNL     1       2.099 -14.565  13.777  1.00  0.00     0.007 A 
HETATM   11  C18 UNL     1       2.111 -13.191  13.671  1.00  0.00     0.106 A 
HETATM   12  N4  UNL     1       3.327 -12.824  13.265  1.00  0.00    -0.337 N 
ENDROOT
BRANCH  10  13
HETATM   13  C6  UNL     1       0.979 -15.420  14.155  1.00  0.00    -0.023 A 
HETATM   14  C7  UNL     1       0.761 -15.791  15.464  1.00  0.00     0.015 A 
HETATM   15  C8  UNL     1      -0.299 -16.582  15.865  1.00  0.00     0.038 A 
HETATM   16  C9  UNL     1      -1.171 -17.012  14.891  1.00  0.00     0.076 A 
HETATM   17  C16 UNL     1      -0.997 -16.668  13.556  1.00  0.00     0.038 A 
HETATM   18  C17 UNL     1       0.074 -15.876  13.199  1.00  0.00     0.015 A 
BRANCH  16  19
HETATM   19  O1  UNL     1      -2.234 -17.808  15.312  1.00  0.00    -0.311 OA
BRANCH  19  20
HETATM   20  C10 UNL     1      -3.286 -17.260  16.042  1.00  0.00     0.076 A 
HETATM   21  C11 UNL     1      -4.160 -16.336  15.538  1.00  0.00     0.037 A 
HETATM   22  C12 UNL     1      -5.185 -15.819  16.293  1.00  0.00     0.003 A 
HETATM   23  C13 UNL     1      -5.331 -16.251  17.596  1.00  0.00     0.000 A 
HETATM   24  C14 UNL     1      -4.476 -17.179  18.147  1.00  0.00     0.003 A 
HETATM   25  C15 UNL     1      -3.460 -17.675  17.361  1.00  0.00     0.037 A 
ENDBRANCH  19  20
ENDBRANCH  16  19
ENDBRANCH  10  13
BRANCH  12  26
HETATM   26  C19 UNL     1       3.842 -11.484  13.005  1.00  0.00     0.091 C 
HETATM   27  C20 UNL     1       2.714 -10.491  12.936  1.00  0.00     0.026 C 
HETATM   28  C21 UNL     1       3.384  -9.295  12.297  1.00  0.00     0.002 C 
HETATM   29  C22 UNL     1       4.503  -9.848  11.452  1.00  0.00     0.002 C 
HETATM   30  C23 UNL     1       4.472 -11.364  11.650  1.00  0.00     0.026 C 
ENDBRANCH  12  26
TORSDOF 4
ENDMDL
