MODEL 2
REMARK VINA RESULT: -11.157970584      0.790      1.193
REMARK  4 active torsions:
REMARK  status: ('A' for Active; 'I' for Inactive)
REMARK    1  A    between atoms: C5_10  and  C6_11 
REMARK    2  A    between atoms: C9_14  and  O1_15 
REMARK    3  A    between atoms: O1_15  and  C10_16 
REMARK    4  A    between atoms: N4_25  and  C19_26 
ROOT
HETATM    1  N1  UNL     1       2.774  -7.935  12.570  1.00  0.00    -0.082 NA
HETATM    2  C1  UNL     1       3.606  -9.069  12.335  1.00  0.00     0.132 A 
HETATM    3  N2  UNL     1       4.778  -8.983  11.702  1.00  0.00    -0.340 N 
ATOM      4  H2  UNL     1       5.097  -8.067  11.386  1.00  0.00     0.167 HD
HETATM    5  C2  UNL     1       5.552 -10.049  11.465  1.00  0.00     0.183 A 
HETATM    6  N3  UNL     1       5.156 -11.265  11.868  1.00  0.00    -0.338 N 
ATOM      7  H3  UNL     1       5.750 -12.074  11.684  1.00  0.00     0.168 HD
HETATM    8  C3  UNL     1       3.988 -11.431  12.513  1.00  0.00     0.123 A 
HETATM    9  C4  UNL     1       3.181 -10.313  12.760  1.00  0.00     0.062 A 
HETATM   10  C5  UNL     1       2.065 -10.787  13.419  1.00  0.00     0.007 A 
HETATM   11  C18 UNL     1       2.189 -12.152  13.565  1.00  0.00     0.106 A 
HETATM   12  N4  UNL     1       3.347 -12.517  13.016  1.00  0.00    -0.337 N 
ENDROOT
BRANCH  10  13
HETATM   13  C6  UNL     1       0.981  -9.934  13.892  1.00  0.00    -0.023 A 
HETATM   14  C7  UNL     1      -0.066  -9.572  13.072  1.00  0.00     0.015 A 
HETATM   15  C8  UNL     1      -1.122  -8.784  13.488  1.00  0.00     0.038 A 
HETATM   16  C9  UNL     1      -1.109  -8.347  14.792  1.00  0.00     0.076 A 
HETATM   17  C16 UNL     1      -0.078  -8.682  15.661  1.00  0.00     0.038 A 
HETATM   18  C17 UNL     1       0.957  -9.472  15.206  1.00  0.00     0.015 A 
BRANCH  16  19
HETATM   19  O1  UNL     1      -2.181  -7.553  15.196  1.00  0.00    -0.311 OA
BRANCH  19  20
HETATM   20  C10 UNL     1      -2.713  -7.677  16.478  1.00  0.00     0.076 A 
HETATM   21  C11 UNL     1      -3.592  -8.659  16.843  1.00  0.00     0.037 A 
HETATM   22  C12 UNL     1      -4.094  -8.745  18.119  1.00  0.00     0.003 A 
HETATM   23  C13 UNL     1      -3.693  -7.812  19.053  1.00  0.00     0.000 A 
HETATM   24  C14 UNL     1      -2.810  -6.805  18.732  1.00  0.00     0.003 A 
HETATM   25  C15 UNL     1      -2.328  -6.749  17.444  1.00  0.00     0.037 A 
ENDBRANCH  19  20
ENDBRANCH  16  19
ENDBRANCH  10  13
BRANCH  12  26
HETATM   26  C19 UNL     1       3.935 -13.849  12.915  1.00  0.00     0.091 C 
HETATM   27  C20 UNL     1       2.888 -14.860  12.533  1.00  0.00     0.026 C 
HETATM   28  C21 UNL     1       3.577 -16.167  12.853  1.00  0.00     0.002 C 
HETATM   29  C22 UNL     1       4.553 -15.861  13.961  1.00  0.00     0.002 C 
HETATM   30  C23 UNL     1       4.424 -14.363  14.236  1.00  0.00     0.026 C 
ENDBRANCH  12  26
TORSDOF 4
ENDMDL
