MODEL 3
REMARK VINA RESULT: -11.025584519      0.912      1.305
REMARK  4 active torsions:
REMARK  status: ('A' for Active; 'I' for Inactive)
REMARK    1  A    between atoms: C5_10  and  C6_11 
REMARK    2  A    between atoms: C9_14  and  O1_15 
REMARK    3  A    between atoms: O1_15  and  C10_16 
REMARK    4  A    between atoms: N4_25  and  C19_26 
ROOT
HETATM    1  N1  UNL     1       2.774  -7.970  12.577  1.00  0.00    -0.082 NA
HETATM    2  C1  UNL     1       3.578  -9.126  12.362  1.00  0.00     0.132 A 
HETATM    3  N2  UNL     1       4.745  -9.081  11.715  1.00  0.00    -0.340 N 
ATOM      4  H2  UNL     1       5.081  -8.179  11.374  1.00  0.00     0.167 HD
HETATM    5  C2  UNL     1       5.495 -10.168  11.495  1.00  0.00     0.183 A 
HETATM    6  N3  UNL     1       5.078 -11.365  11.931  1.00  0.00    -0.338 N 
ATOM      7  H3  UNL     1       5.652 -12.191  11.760  1.00  0.00     0.168 HD
HETATM    8  C3  UNL     1       3.913 -11.492  12.591  1.00  0.00     0.123 A 
HETATM    9  C4  UNL     1       3.133 -10.352  12.820  1.00  0.00     0.062 A 
HETATM   10  C5  UNL     1       2.014 -10.786  13.501  1.00  0.00     0.007 A 
HETATM   11  C18 UNL     1       2.110 -12.149  13.678  1.00  0.00     0.106 A 
HETATM   12  N4  UNL     1       3.255 -12.552  13.126  1.00  0.00    -0.337 N 
ENDROOT
BRANCH  10  13
HETATM   13  C6  UNL     1       0.952  -9.900  13.965  1.00  0.00    -0.023 A 
HETATM   14  C7  UNL     1       1.013  -9.279  15.194  1.00  0.00     0.015 A 
HETATM   15  C8  UNL     1       0.040  -8.418  15.662  1.00  0.00     0.038 A 
HETATM   16  C9  UNL     1      -1.040  -8.180  14.843  1.00  0.00     0.076 A 
HETATM   17  C16 UNL     1      -1.152  -8.781  13.595  1.00  0.00     0.038 A 
HETATM   18  C17 UNL     1      -0.157  -9.634  13.166  1.00  0.00     0.015 A 
BRANCH  16  19
HETATM   19  O1  UNL     1      -2.014  -7.310  15.330  1.00  0.00    -0.311 OA
BRANCH  19  20
HETATM   20  C10 UNL     1      -2.584  -7.512  16.584  1.00  0.00     0.076 A 
HETATM   21  C11 UNL     1      -2.257  -6.781  17.693  1.00  0.00     0.037 A 
HETATM   22  C12 UNL     1      -2.844  -7.014  18.914  1.00  0.00     0.003 A 
HETATM   23  C13 UNL     1      -3.791  -8.014  19.014  1.00  0.00     0.000 A 
HETATM   24  C14 UNL     1      -4.152  -8.775  17.925  1.00  0.00     0.003 A 
HETATM   25  C15 UNL     1      -3.543  -8.515  16.718  1.00  0.00     0.037 A 
ENDBRANCH  19  20
ENDBRANCH  16  19
ENDBRANCH  10  13
BRANCH  12  26
HETATM   26  C19 UNL     1       3.814 -13.898  13.051  1.00  0.00     0.091 C 
HETATM   27  C20 UNL     1       2.717 -14.915  12.890  1.00  0.00     0.026 C 
HETATM   28  C21 UNL     1       3.433 -16.207  13.216  1.00  0.00     0.002 C 
HETATM   29  C22 UNL     1       4.551 -15.836  14.157  1.00  0.00     0.002 C 
HETATM   30  C23 UNL     1       4.472 -14.319  14.330  1.00  0.00     0.026 C 
ENDBRANCH  12  26
TORSDOF 4
ENDMDL
