MODEL 1
REMARK VINA RESULT: -11.238874086      0.000      0.000
REMARK  4 active torsions:
REMARK  status: ('A' for Active; 'I' for Inactive)
REMARK    1  A    between atoms: C5_10  and  C6_11 
REMARK    2  A    between atoms: C9_14  and  O1_15 
REMARK    3  A    between atoms: O1_15  and  C10_16 
REMARK    4  A    between atoms: N4_25  and  C19_26 
ROOT
HETATM    1  N1  UNL     1       3.002  -7.731  12.592  1.00  0.00    -0.082 NA
HETATM    2  C1  UNL     1       3.935  -8.769  12.304  1.00  0.00     0.132 A 
HETATM    3  N2  UNL     1       5.148  -8.528  11.801  1.00  0.00    -0.340 N 
ATOM      4  H2  UNL     1       5.423  -7.561  11.630  1.00  0.00     0.167 HD
HETATM    5  C2  UNL     1       6.019  -9.503  11.512  1.00  0.00     0.183 A 
HETATM    6  N3  UNL     1       5.683 -10.783  11.727  1.00  0.00    -0.338 N 
ATOM      7  H3  UNL     1       6.350 -11.522  11.504  1.00  0.00     0.168 HD
HETATM    8  C3  UNL     1       4.479 -11.105  12.232  1.00  0.00     0.123 A 
HETATM    9  C4  UNL     1       3.571 -10.082  12.533  1.00  0.00     0.062 A 
HETATM   10  C5  UNL     1       2.441 -10.707  13.020  1.00  0.00     0.007 A 
HETATM   11  C18 UNL     1       2.655 -12.069  13.012  1.00  0.00     0.106 A 
HETATM   12  N4  UNL     1       3.881 -12.286  12.537  1.00  0.00    -0.337 N 
ENDROOT
BRANCH  10  13
HETATM   13  C6  UNL     1       1.257  -9.993  13.486  1.00  0.00    -0.023 A 
HETATM   14  C7  UNL     1       0.293  -9.540  12.612  1.00  0.00     0.015 A 
HETATM   15  C8  UNL     1      -0.851  -8.879  13.015  1.00  0.00     0.038 A 
HETATM   16  C9  UNL     1      -1.018  -8.670  14.364  1.00  0.00     0.076 A 
HETATM   17  C16 UNL     1      -0.077  -9.105  15.289  1.00  0.00     0.038 A 
HETATM   18  C17 UNL     1       1.051  -9.762  14.844  1.00  0.00     0.015 A 
BRANCH  16  19
HETATM   19  O1  UNL     1      -2.177  -8.002  14.754  1.00  0.00    -0.311 OA
BRANCH  19  20
HETATM   20  C10 UNL     1      -2.453  -7.788  16.103  1.00  0.00     0.076 A 
HETATM   21  C11 UNL     1      -1.822  -6.843  16.865  1.00  0.00     0.037 A 
HETATM   22  C12 UNL     1      -2.124  -6.664  18.194  1.00  0.00     0.003 A 
HETATM   23  C13 UNL     1      -3.093  -7.463  18.767  1.00  0.00     0.000 A 
HETATM   24  C14 UNL     1      -3.754  -8.426  18.039  1.00  0.00     0.003 A 
HETATM   25  C15 UNL     1      -3.426  -8.578  16.711  1.00  0.00     0.037 A 
ENDBRANCH  19  20
ENDBRANCH  16  19
ENDBRANCH  10  13
BRANCH  12  26
HETATM   26  C19 UNL     1       4.575 -13.553  12.333  1.00  0.00     0.091 C 
HETATM   27  C20 UNL     1       3.975 -14.302  11.174  1.00  0.00     0.026 C 
HETATM   28  C21 UNL     1       4.541 -15.691  11.367  1.00  0.00     0.002 C 
HETATM   29  C22 UNL     1       4.788 -15.837  12.847  1.00  0.00     0.002 C 
HETATM   30  C23 UNL     1       4.383 -14.503  13.477  1.00  0.00     0.026 C 
ENDBRANCH  12  26
TORSDOF 4
ENDMDL
