MODEL 1
REMARK VINA RESULT: -9.913973846      0.000      0.000
REMARK  2 active torsions:
REMARK  status: ('A' for Active; 'I' for Inactive)
REMARK    1  A    between atoms: C2_2  and  N1_3 
REMARK    2  A    between atoms: C15_18  and  C16_19 
ROOT
HETATM    1  N1  UNL     1       3.090  15.133 -33.767  1.00  0.00    -0.367 N 
HETATM    2  C3  UNL     1       2.402  14.049 -34.361  1.00  0.00     0.044 A 
HETATM    3  C4  UNL     1       1.103  14.305 -34.775  1.00  0.00     0.056 A 
HETATM    4  C5  UNL     1       0.347  13.305 -35.366  1.00  0.00     0.048 A 
HETATM    5  N2  UNL     1      -0.996  13.535 -35.806  1.00  0.00    -0.102 NA
HETATM    6  C6  UNL     1       0.904  12.061 -35.534  1.00  0.00     0.027 A 
HETATM    7  C7  UNL     1       2.213  11.766 -35.127  1.00  0.00     0.016 A 
HETATM    8  C8  UNL     1       2.927  12.779 -34.549  1.00  0.00     0.001 A 
HETATM    9  C9  UNL     1       4.300  12.516 -34.101  1.00  0.00    -0.015 A 
HETATM   10  C10 UNL     1       4.917  11.275 -34.263  1.00  0.00     0.015 A 
HETATM   11  C11 UNL     1       6.213  11.081 -33.841  1.00  0.00     0.027 A 
HETATM   12  C12 UNL     1       6.916  12.110 -33.254  1.00  0.00     0.047 A 
HETATM   13  N3  UNL     1       8.263  11.917 -32.813  1.00  0.00    -0.102 NA
HETATM   14  C13 UNL     1       6.284  13.310 -33.110  1.00  0.00     0.037 A 
HETATM   15  C14 UNL     1       4.969  13.568 -33.519  1.00  0.00    -0.018 A 
HETATM   16  C15 UNL     1       4.431  14.913 -33.281  1.00  0.00     0.152 A 
ENDROOT
BRANCH  16  17
HETATM   17  C16 UNL     1       5.367  15.974 -33.778  1.00  0.00    -0.031 A 
HETATM   18  C17 UNL     1       6.119  16.749 -32.899  1.00  0.00     0.009 A 
HETATM   19  C18 UNL     1       6.982  17.733 -33.367  1.00  0.00     0.001 A 
HETATM   20  C19 UNL     1       7.113  17.965 -34.721  1.00  0.00     0.000 A 
HETATM   21  C20 UNL     1       6.383  17.215 -35.604  1.00  0.00     0.001 A 
HETATM   22  C21 UNL     1       5.533  16.244 -35.124  1.00  0.00     0.009 A 
ENDBRANCH  16  17
BRANCH   1  23
HETATM   23  C2  UNL     1       2.542  16.469 -33.600  1.00  0.00     0.120 C 
HETATM   24  C1  UNL     1       2.092  16.628 -32.158  1.00  0.00     0.026 C 
ENDBRANCH   1  23
TORSDOF 2
ENDMDL
