MODEL 5
REMARK VINA RESULT: -9.061166314      1.366      5.193
REMARK  2 active torsions:
REMARK  status: ('A' for Active; 'I' for Inactive)
REMARK    1  A    between atoms: C2_2  and  N1_3 
REMARK    2  A    between atoms: C15_18  and  C16_19 
ROOT
HETATM    1  N1  UNL     1       5.505  15.629 -33.301  1.00  0.00    -0.367 N 
HETATM    2  C3  UNL     1       5.904  14.277 -33.186  1.00  0.00     0.044 A 
HETATM    3  C4  UNL     1       7.052  14.041 -32.443  1.00  0.00     0.056 A 
HETATM    4  C5  UNL     1       7.523  12.748 -32.276  1.00  0.00     0.048 A 
HETATM    5  N2  UNL     1       8.703  12.468 -31.515  1.00  0.00    -0.102 NA
HETATM    6  C6  UNL     1       6.838  11.709 -32.856  1.00  0.00     0.027 A 
HETATM    7  C7  UNL     1       5.675  11.911 -33.614  1.00  0.00     0.016 A 
HETATM    8  C8  UNL     1       5.242  13.200 -33.756  1.00  0.00     0.001 A 
HETATM    9  C9  UNL     1       4.032  13.461 -34.546  1.00  0.00    -0.015 A 
HETATM   10  C10 UNL     1       3.291  12.440 -35.142  1.00  0.00     0.015 A 
HETATM   11  C11 UNL     1       2.154  12.733 -35.861  1.00  0.00     0.027 A 
HETATM   12  C12 UNL     1       1.734  14.038 -36.000  1.00  0.00     0.047 A 
HETATM   13  N3  UNL     1       0.554  14.352 -36.745  1.00  0.00    -0.102 NA
HETATM   14  C13 UNL     1       2.482  15.012 -35.405  1.00  0.00     0.037 A 
HETATM   15  C14 UNL     1       3.645  14.776 -34.663  1.00  0.00    -0.018 A 
HETATM   16  C15 UNL     1       4.341  15.938 -34.096  1.00  0.00     0.152 A 
ENDROOT
BRANCH  16  17
HETATM   17  C16 UNL     1       3.397  16.832 -33.348  1.00  0.00    -0.031 A 
HETATM   18  C17 UNL     1       3.228  18.168 -33.702  1.00  0.00     0.009 A 
HETATM   19  C18 UNL     1       2.354  18.991 -33.002  1.00  0.00     0.001 A 
HETATM   20  C19 UNL     1       1.631  18.499 -31.934  1.00  0.00     0.000 A 
HETATM   21  C20 UNL     1       1.781  17.188 -31.568  1.00  0.00     0.001 A 
HETATM   22  C21 UNL     1       2.651  16.386 -32.273  1.00  0.00     0.009 A 
ENDBRANCH  16  17
BRANCH   1  23
HETATM   23  C2  UNL     1       6.190  16.749 -32.677  1.00  0.00     0.120 C 
HETATM   24  C1  UNL     1       6.860  17.572 -33.765  1.00  0.00     0.026 C 
ENDBRANCH   1  23
TORSDOF 2
ENDMDL
