MODEL 2
REMARK VINA RESULT: -9.685873211      1.343      5.058
REMARK  2 active torsions:
REMARK  status: ('A' for Active; 'I' for Inactive)
REMARK    1  A    between atoms: C2_2  and  N1_3 
REMARK    2  A    between atoms: C15_18  and  C16_19 
ROOT
HETATM    1  N1  UNL     1       4.646  14.441 -34.391  1.00  0.00    -0.367 N 
HETATM    2  C3  UNL     1       4.786  13.038 -34.274  1.00  0.00     0.044 A 
HETATM    3  C4  UNL     1       6.033  12.582 -33.871  1.00  0.00     0.056 A 
HETATM    4  C5  UNL     1       6.267  11.223 -33.729  1.00  0.00     0.048 A 
HETATM    5  N2  UNL     1       7.541  10.717 -33.314  1.00  0.00    -0.102 NA
HETATM    6  C6  UNL     1       5.250  10.340 -33.994  1.00  0.00     0.027 A 
HETATM    7  C7  UNL     1       3.978  10.765 -34.404  1.00  0.00     0.016 A 
HETATM    8  C8  UNL     1       3.785  12.113 -34.531  1.00  0.00     0.001 A 
HETATM    9  C9  UNL     1       2.472  12.606 -34.964  1.00  0.00    -0.015 A 
HETATM   10  C10 UNL     1       1.400  11.752 -35.229  1.00  0.00     0.015 A 
HETATM   11  C11 UNL     1       0.182  12.263 -35.617  1.00  0.00     0.027 A 
HETATM   12  C12 UNL     1       0.006  13.622 -35.747  1.00  0.00     0.047 A 
HETATM   13  N3  UNL     1      -1.257  14.162 -36.150  1.00  0.00    -0.102 NA
HETATM   14  C13 UNL     1       1.073  14.430 -35.481  1.00  0.00     0.037 A 
HETATM   15  C14 UNL     1       2.334  13.970 -35.083  1.00  0.00    -0.018 A 
HETATM   16  C15 UNL     1       3.383  14.970 -34.845  1.00  0.00     0.152 A 
ENDROOT
BRANCH  16  17
HETATM   17  C16 UNL     1       2.900  16.067 -33.943  1.00  0.00    -0.031 A 
HETATM   18  C17 UNL     1       3.078  17.408 -34.270  1.00  0.00     0.009 A 
HETATM   19  C18 UNL     1       2.630  18.418 -33.427  1.00  0.00     0.001 A 
HETATM   20  C19 UNL     1       1.997  18.112 -32.240  1.00  0.00     0.000 A 
HETATM   21  C20 UNL     1       1.810  16.799 -31.897  1.00  0.00     0.001 A 
HETATM   22  C21 UNL     1       2.260  15.810 -32.744  1.00  0.00     0.009 A 
ENDBRANCH  16  17
BRANCH   1  23
HETATM   23  C2  UNL     1       5.692  15.404 -34.092  1.00  0.00     0.120 C 
HETATM   24  C1  UNL     1       5.874  15.466 -32.585  1.00  0.00     0.026 C 
ENDBRANCH   1  23
TORSDOF 2
ENDMDL
