MODEL 10
REMARK VINA RESULT: -8.669194280      1.631      6.042
REMARK  6 active torsions:
REMARK  status: ('A' for Active; 'I' for Inactive)
REMARK    1  A    between atoms: N1_2  and  C3_4 
REMARK    2  A    between atoms: C6_7  and  C7_8 
REMARK    3  A    between atoms: C7_8  and  C8_9 
REMARK    4  A    between atoms: C7_8  and  C16_18 
REMARK    5  A    between atoms: C11_12  and  N2_13 
REMARK    6  A    between atoms: C19_21  and  N3_22 
ROOT
HETATM    1  C7  UNL     1     -12.941   1.591 -17.689  1.00  0.00     0.084 C 
ENDROOT
BRANCH   1   2
HETATM    2  C6  UNL     1     -14.262   2.210 -17.991  1.00  0.00    -0.045 A 
HETATM    3  C5  UNL     1     -15.200   2.239 -16.986  1.00  0.00     0.010 A 
HETATM    4  C4  UNL     1     -16.434   2.803 -17.216  1.00  0.00     0.030 A 
HETATM    5  C3  UNL     1     -16.774   3.351 -18.442  1.00  0.00     0.029 A 
HETATM    6  C25 UNL     1     -15.801   3.298 -19.414  1.00  0.00     0.030 A 
HETATM    7  C24 UNL     1     -14.565   2.742 -19.210  1.00  0.00     0.010 A 
BRANCH   5   8
HETATM    8  N1  UNL     1     -18.062   3.933 -18.646  1.00  0.00    -0.390 N 
HETATM    9  C1  UNL     1     -19.176   3.602 -17.778  1.00  0.00     0.149 C 
HETATM   10  C2  UNL     1     -18.276   4.865 -19.723  1.00  0.00     0.149 C 
ENDBRANCH   5   8
ENDBRANCH   1   2
BRANCH   1  11
HETATM   11  C8  UNL     1     -12.183   1.207 -18.890  1.00  0.00    -0.045 A 
HETATM   12  C9  UNL     1     -10.844   1.510 -19.037  1.00  0.00     0.010 A 
HETATM   13  C10 UNL     1     -10.177   1.114 -20.191  1.00  0.00     0.030 A 
HETATM   14  C11 UNL     1     -10.819   0.425 -21.197  1.00  0.00     0.029 A 
HETATM   15  C14 UNL     1     -12.133   0.125 -21.056  1.00  0.00     0.030 A 
HETATM   16  C15 UNL     1     -12.812   0.519 -19.898  1.00  0.00     0.010 A 
BRANCH  14  17
HETATM   17  N2  UNL     1     -10.115   0.028 -22.362  1.00  0.00    -0.390 N 
HETATM   18  C12 UNL     1      -8.682  -0.101 -22.354  1.00  0.00     0.149 C 
HETATM   19  C13 UNL     1     -10.843  -0.252 -23.568  1.00  0.00     0.149 C 
ENDBRANCH  14  17
ENDBRANCH   1  11
BRANCH   1  20
HETATM   20  C16 UNL     1     -12.118   2.469 -16.831  1.00  0.00    -0.045 A 
HETATM   21  C17 UNL     1     -12.023   3.827 -16.998  1.00  0.00     0.010 A 
HETATM   22  C18 UNL     1     -11.259   4.635 -16.181  1.00  0.00     0.030 A 
HETATM   23  C19 UNL     1     -10.536   4.114 -15.130  1.00  0.00     0.029 A 
HETATM   24  C22 UNL     1     -10.625   2.732 -14.949  1.00  0.00     0.030 A 
HETATM   25  C23 UNL     1     -11.384   1.929 -15.763  1.00  0.00     0.010 A 
BRANCH  23  26
HETATM   26  N3  UNL     1      -9.736   4.906 -14.270  1.00  0.00    -0.390 N 
HETATM   27  C20 UNL     1     -10.224   6.123 -13.678  1.00  0.00     0.149 C 
HETATM   28  C21 UNL     1      -8.390   4.500 -13.958  1.00  0.00     0.149 C 
ENDBRANCH  23  26
ENDBRANCH   1  20
TORSDOF 6
ENDMDL
