MODEL 9
REMARK VINA RESULT: -8.691896784      2.366      6.596
REMARK  6 active torsions:
REMARK  status: ('A' for Active; 'I' for Inactive)
REMARK    1  A    between atoms: N1_2  and  C3_4 
REMARK    2  A    between atoms: C6_7  and  C7_8 
REMARK    3  A    between atoms: C7_8  and  C8_9 
REMARK    4  A    between atoms: C7_8  and  C16_18 
REMARK    5  A    between atoms: C11_12  and  N2_13 
REMARK    6  A    between atoms: C19_21  and  N3_22 
ROOT
HETATM    1  C7  UNL     1     -13.286   2.443 -17.403  1.00  0.00     0.084 C 
ENDROOT
BRANCH   1   2
HETATM    2  C6  UNL     1     -12.358   1.895 -18.431  1.00  0.00    -0.045 A 
HETATM    3  C5  UNL     1     -12.794   0.830 -19.185  1.00  0.00     0.010 A 
HETATM    4  C4  UNL     1     -11.974   0.291 -20.150  1.00  0.00     0.030 A 
HETATM    5  C3  UNL     1     -10.704   0.788 -20.396  1.00  0.00     0.029 A 
HETATM    6  C25 UNL     1     -10.315   1.854 -19.616  1.00  0.00     0.030 A 
HETATM    7  C24 UNL     1     -11.113   2.408 -18.649  1.00  0.00     0.010 A 
BRANCH   5   8
HETATM    8  N1  UNL     1      -9.880   0.209 -21.408  1.00  0.00    -0.390 N 
HETATM    9  C1  UNL     1     -10.464  -0.384 -22.596  1.00  0.00     0.149 C 
HETATM   10  C2  UNL     1      -8.447   0.207 -21.266  1.00  0.00     0.149 C 
ENDBRANCH   5   8
ENDBRANCH   1   2
BRANCH   1  11
HETATM   11  C8  UNL     1     -12.711   3.548 -16.621  1.00  0.00    -0.045 A 
HETATM   12  C9  UNL     1     -12.012   3.331 -15.451  1.00  0.00     0.010 A 
HETATM   13  C10 UNL     1     -11.485   4.416 -14.758  1.00  0.00     0.030 A 
HETATM   14  C11 UNL     1     -11.642   5.708 -15.211  1.00  0.00     0.029 A 
HETATM   15  C14 UNL     1     -12.327   5.925 -16.360  1.00  0.00     0.030 A 
HETATM   16  C15 UNL     1     -12.860   4.840 -17.063  1.00  0.00     0.010 A 
BRANCH  14  17
HETATM   17  N2  UNL     1     -11.090   6.796 -14.489  1.00  0.00    -0.390 N 
HETATM   18  C12 UNL     1     -11.235   8.148 -14.961  1.00  0.00     0.149 C 
HETATM   19  C13 UNL     1     -10.378   6.546 -13.267  1.00  0.00     0.149 C 
ENDBRANCH  14  17
ENDBRANCH   1  11
BRANCH   1  20
HETATM   20  C16 UNL     1     -14.569   2.862 -18.003  1.00  0.00    -0.045 A 
HETATM   21  C17 UNL     1     -14.690   3.357 -19.277  1.00  0.00     0.010 A 
HETATM   22  C18 UNL     1     -15.898   3.733 -19.827  1.00  0.00     0.030 A 
HETATM   23  C19 UNL     1     -17.074   3.630 -19.117  1.00  0.00     0.029 A 
HETATM   24  C22 UNL     1     -16.965   3.126 -17.818  1.00  0.00     0.030 A 
HETATM   25  C23 UNL     1     -15.762   2.754 -17.271  1.00  0.00     0.010 A 
BRANCH  23  26
HETATM   26  N3  UNL     1     -18.334   4.009 -19.642  1.00  0.00    -0.390 N 
HETATM   27  C20 UNL     1     -18.904   5.307 -19.398  1.00  0.00     0.149 C 
HETATM   28  C21 UNL     1     -19.086   3.087 -20.454  1.00  0.00     0.149 C 
ENDBRANCH  23  26
ENDBRANCH   1  20
TORSDOF 6
ENDMDL
