MODEL 8
REMARK VINA RESULT: -8.692281816      1.658      6.136
REMARK  6 active torsions:
REMARK  status: ('A' for Active; 'I' for Inactive)
REMARK    1  A    between atoms: N1_2  and  C3_4 
REMARK    2  A    between atoms: C6_7  and  C7_8 
REMARK    3  A    between atoms: C7_8  and  C8_9 
REMARK    4  A    between atoms: C7_8  and  C16_18 
REMARK    5  A    between atoms: C11_12  and  N2_13 
REMARK    6  A    between atoms: C19_21  and  N3_22 
ROOT
HETATM    1  C7  UNL     1     -12.994   1.719 -17.512  1.00  0.00     0.084 C 
ENDROOT
BRANCH   1   2
HETATM    2  C6  UNL     1     -12.137   2.602 -16.672  1.00  0.00    -0.045 A 
HETATM    3  C5  UNL     1     -11.338   2.006 -15.725  1.00  0.00     0.010 A 
HETATM    4  C4  UNL     1     -10.527   2.780 -14.926  1.00  0.00     0.030 A 
HETATM    5  C3  UNL     1     -10.484   4.160 -15.042  1.00  0.00     0.029 A 
HETATM    6  C25 UNL     1     -11.301   4.708 -16.006  1.00  0.00     0.030 A 
HETATM    7  C24 UNL     1     -12.117   3.959 -16.812  1.00  0.00     0.010 A 
BRANCH   5   8
HETATM    8  N1  UNL     1      -9.627   4.935 -14.202  1.00  0.00    -0.390 N 
HETATM    9  C1  UNL     1      -8.271   4.503 -13.920  1.00  0.00     0.149 C 
HETATM   10  C2  UNL     1     -10.098   6.164 -13.619  1.00  0.00     0.149 C 
ENDBRANCH   5   8
ENDBRANCH   1   2
BRANCH   1  11
HETATM   11  C8  UNL     1     -14.299   2.309 -17.845  1.00  0.00    -0.045 A 
HETATM   12  C9  UNL     1     -14.569   2.827 -19.096  1.00  0.00     0.010 A 
HETATM   13  C10 UNL     1     -15.825   3.365 -19.356  1.00  0.00     0.030 A 
HETATM   14  C11 UNL     1     -16.812   3.395 -18.393  1.00  0.00     0.029 A 
HETATM   15  C14 UNL     1     -16.550   2.887 -17.165  1.00  0.00     0.030 A 
HETATM   16  C15 UNL     1     -15.289   2.343 -16.895  1.00  0.00     0.010 A 
BRANCH  14  17
HETATM   17  N2  UNL     1     -18.086   3.945 -18.685  1.00  0.00    -0.390 N 
HETATM   18  C12 UNL     1     -18.272   4.834 -19.801  1.00  0.00     0.149 C 
HETATM   19  C13 UNL     1     -19.209   3.606 -17.856  1.00  0.00     0.149 C 
ENDBRANCH  14  17
ENDBRANCH   1  11
BRANCH   1  20
HETATM   20  C16 UNL     1     -12.295   1.307 -18.747  1.00  0.00    -0.045 A 
HETATM   21  C17 UNL     1     -11.026   1.712 -19.077  1.00  0.00     0.010 A 
HETATM   22  C18 UNL     1     -10.383   1.309 -20.230  1.00  0.00     0.030 A 
HETATM   23  C19 UNL     1     -10.988   0.461 -21.131  1.00  0.00     0.029 A 
HETATM   24  C22 UNL     1     -12.281   0.041 -20.807  1.00  0.00     0.030 A 
HETATM   25  C23 UNL     1     -12.920   0.444 -19.661  1.00  0.00     0.010 A 
BRANCH  23  26
HETATM   26  N3  UNL     1     -10.366   0.028 -22.327  1.00  0.00    -0.390 N 
HETATM   27  C20 UNL     1      -8.945  -0.173 -22.421  1.00  0.00     0.149 C 
HETATM   28  C21 UNL     1     -11.159  -0.234 -23.501  1.00  0.00     0.149 C 
ENDBRANCH  23  26
ENDBRANCH   1  20
TORSDOF 6
ENDMDL
