MODEL 7
REMARK VINA RESULT: -8.750505023      1.631      6.335
REMARK  6 active torsions:
REMARK  status: ('A' for Active; 'I' for Inactive)
REMARK    1  A    between atoms: N1_2  and  C3_4 
REMARK    2  A    between atoms: C6_7  and  C7_8 
REMARK    3  A    between atoms: C7_8  and  C8_9 
REMARK    4  A    between atoms: C7_8  and  C16_18 
REMARK    5  A    between atoms: C11_12  and  N2_13 
REMARK    6  A    between atoms: C19_21  and  N3_22 
ROOT
HETATM    1  C7  UNL     1     -12.887   1.614 -17.601  1.00  0.00     0.084 C 
ENDROOT
BRANCH   1   2
HETATM    2  C6  UNL     1     -12.185   1.209 -18.851  1.00  0.00    -0.045 A 
HETATM    3  C5  UNL     1     -12.904   0.512 -19.793  1.00  0.00     0.010 A 
HETATM    4  C4  UNL     1     -12.300   0.118 -20.965  1.00  0.00     0.030 A 
HETATM    5  C3  UNL     1     -10.972   0.403 -21.238  1.00  0.00     0.029 A 
HETATM    6  C25 UNL     1     -10.296   1.104 -20.265  1.00  0.00     0.030 A 
HETATM    7  C24 UNL     1     -10.875   1.506 -19.090  1.00  0.00     0.010 A 
BRANCH   5   8
HETATM    8  N1  UNL     1     -10.375  -0.015 -22.467  1.00  0.00    -0.390 N 
HETATM    9  C1  UNL     1      -8.939  -0.189 -22.577  1.00  0.00     0.149 C 
HETATM   10  C2  UNL     1     -11.195  -0.273 -23.622  1.00  0.00     0.149 C 
ENDBRANCH   5   8
ENDBRANCH   1   2
BRANCH   1  11
HETATM   11  C8  UNL     1     -12.095   2.510 -16.745  1.00  0.00    -0.045 A 
HETATM   12  C9  UNL     1     -12.074   3.876 -16.938  1.00  0.00     0.010 A 
HETATM   13  C10 UNL     1     -11.313   4.674 -16.092  1.00  0.00     0.030 A 
HETATM   14  C11 UNL     1     -10.575   4.135 -15.059  1.00  0.00     0.029 A 
HETATM   15  C14 UNL     1     -10.594   2.795 -14.866  1.00  0.00     0.030 A 
HETATM   16  C15 UNL     1     -11.357   1.984 -15.714  1.00  0.00     0.010 A 
BRANCH  14  17
HETATM   17  N2  UNL     1      -9.811   4.972 -14.207  1.00  0.00    -0.390 N 
HETATM   18  C12 UNL     1     -10.347   6.211 -13.709  1.00  0.00     0.149 C 
HETATM   19  C13 UNL     1      -8.482   4.574 -13.831  1.00  0.00     0.149 C 
ENDBRANCH  14  17
ENDBRANCH   1  11
BRANCH   1  20
HETATM   20  C16 UNL     1     -14.200   2.225 -17.895  1.00  0.00    -0.045 A 
HETATM   21  C17 UNL     1     -14.537   2.760 -19.112  1.00  0.00     0.010 A 
HETATM   22  C18 UNL     1     -15.772   3.317 -19.374  1.00  0.00     0.030 A 
HETATM   23  C19 UNL     1     -16.756   3.368 -18.411  1.00  0.00     0.029 A 
HETATM   24  C22 UNL     1     -16.425   2.826 -17.166  1.00  0.00     0.030 A 
HETATM   25  C23 UNL     1     -15.196   2.273 -16.907  1.00  0.00     0.010 A 
BRANCH  23  26
HETATM   26  N3  UNL     1     -18.034   3.935 -18.635  1.00  0.00    -0.390 N 
HETATM   27  C20 UNL     1     -19.166   3.622 -17.805  1.00  0.00     0.149 C 
HETATM   28  C21 UNL     1     -18.233   4.863 -19.720  1.00  0.00     0.149 C 
ENDBRANCH  23  26
ENDBRANCH   1  20
TORSDOF 6
ENDMDL
