MODEL 3
REMARK VINA RESULT: -9.533368519      0.650      7.377
REMARK  6 active torsions:
REMARK  status: ('A' for Active; 'I' for Inactive)
REMARK    1  A    between atoms: N1_2  and  C3_4 
REMARK    2  A    between atoms: C6_7  and  C7_8 
REMARK    3  A    between atoms: C7_8  and  C8_9 
REMARK    4  A    between atoms: C7_8  and  C16_18 
REMARK    5  A    between atoms: C11_12  and  N2_13 
REMARK    6  A    between atoms: C19_21  and  N3_22 
ROOT
HETATM    1  C7  UNL     1     -12.590   2.990 -18.373  1.00  0.00     0.084 C 
ENDROOT
BRANCH   1   2
HETATM    2  C6  UNL     1     -12.077   2.084 -19.438  1.00  0.00    -0.045 A 
HETATM    3  C5  UNL     1     -10.716   1.901 -19.521  1.00  0.00     0.010 A 
HETATM    4  C4  UNL     1     -10.194   1.071 -20.487  1.00  0.00     0.030 A 
HETATM    5  C3  UNL     1     -10.999   0.401 -21.395  1.00  0.00     0.029 A 
HETATM    6  C25 UNL     1     -12.353   0.618 -21.269  1.00  0.00     0.030 A 
HETATM    7  C24 UNL     1     -12.897   1.439 -20.316  1.00  0.00     0.010 A 
BRANCH   5   8
HETATM    8  N1  UNL     1     -10.426  -0.457 -22.382  1.00  0.00    -0.390 N 
HETATM    9  C1  UNL     1     -11.245  -1.042 -23.426  1.00  0.00     0.149 C 
HETATM   10  C2  UNL     1      -9.018  -0.755 -22.356  1.00  0.00     0.149 C 
ENDBRANCH   5   8
ENDBRANCH   1   2
BRANCH   1  11
HETATM   11  C8  UNL     1     -14.047   3.187 -18.420  1.00  0.00    -0.045 A 
HETATM   12  C9  UNL     1     -14.873   2.781 -17.391  1.00  0.00     0.010 A 
HETATM   13  C10 UNL     1     -16.243   3.001 -17.488  1.00  0.00     0.030 A 
HETATM   14  C11 UNL     1     -16.801   3.616 -18.588  1.00  0.00     0.029 A 
HETATM   15  C14 UNL     1     -15.993   4.016 -19.599  1.00  0.00     0.030 A 
HETATM   16  C15 UNL     1     -14.613   3.799 -19.511  1.00  0.00     0.010 A 
BRANCH  14  17
HETATM   17  N2  UNL     1     -18.200   3.833 -18.660  1.00  0.00    -0.390 N 
HETATM   18  C12 UNL     1     -18.766   4.695 -19.664  1.00  0.00     0.149 C 
HETATM   19  C13 UNL     1     -19.066   3.181 -17.718  1.00  0.00     0.149 C 
ENDBRANCH  14  17
ENDBRANCH   1  11
BRANCH   1  20
HETATM   20  C16 UNL     1     -12.186   2.526 -17.030  1.00  0.00    -0.045 A 
HETATM   21  C17 UNL     1     -12.382   1.247 -16.573  1.00  0.00     0.010 A 
HETATM   22  C18 UNL     1     -11.988   0.826 -15.320  1.00  0.00     0.030 A 
HETATM   23  C19 UNL     1     -11.362   1.680 -14.439  1.00  0.00     0.029 A 
HETATM   24  C22 UNL     1     -11.156   2.986 -14.892  1.00  0.00     0.030 A 
HETATM   25  C23 UNL     1     -11.550   3.404 -16.138  1.00  0.00     0.010 A 
BRANCH  23  26
HETATM   26  N3  UNL     1     -10.947   1.291 -13.142  1.00  0.00    -0.390 N 
HETATM   27  C20 UNL     1      -9.609   1.524 -12.666  1.00  0.00     0.149 C 
HETATM   28  C21 UNL     1     -11.874   0.644 -12.249  1.00  0.00     0.149 C 
ENDBRANCH  23  26
ENDBRANCH   1  20
TORSDOF 6
ENDMDL
