MODEL 2
REMARK VINA RESULT: -9.133789666      3.596      7.752
REMARK  2 active torsions:
REMARK  status: ('A' for Active; 'I' for Inactive)
REMARK    1  A    between atoms: O1_2  and  C2_3 
REMARK    2  A    between atoms: C18_20  and  O2_21 
ROOT
HETATM    1  C2  UNL     1       0.688  13.469 -35.831  1.00  0.00     0.075 A 
HETATM    2  C3  UNL     1       0.571  14.501 -36.649  1.00  0.00     0.035 A 
HETATM    3  C4  UNL     1       1.713  15.355 -36.936  1.00  0.00     0.006 A 
HETATM    4  C5  UNL     1       2.879  15.112 -36.387  1.00  0.00    -0.066 A 
HETATM    5  C6  UNL     1       3.992  16.063 -36.755  1.00  0.00     0.092 C 
HETATM    6  C7  UNL     1       4.887  16.210 -35.581  1.00  0.00     0.026 A 
HETATM    7  C8  UNL     1       5.875  17.197 -35.730  1.00  0.00     0.000 A 
HETATM    8  C9  UNL     1       5.970  17.942 -36.887  1.00  0.00     0.054 A 
HETATM    9  C10 UNL     1       6.943  18.925 -37.053  1.00  0.00     0.105 A 
HETATM   10  C11 UNL     1       7.834  19.152 -36.024  1.00  0.00     0.105 A 
HETATM   11  C12 UNL     1       7.736  18.397 -34.855  1.00  0.00     0.052 A 
HETATM   12  C13 UNL     1       6.764  17.424 -34.705  1.00  0.00    -0.020 A 
HETATM   13  C14 UNL     1       6.633  16.657 -33.567  1.00  0.00     0.029 A 
HETATM   14  C15 UNL     1       5.660  15.692 -33.431  1.00  0.00     0.092 A 
HETATM   15  N1  UNL     1       4.791  15.485 -34.461  1.00  0.00    -0.358 N 
HETATM   16  C16 UNL     1       3.814  14.449 -34.209  1.00  0.00     0.140 C 
HETATM   17  C17 UNL     1       3.111  13.998 -35.491  1.00  0.00     0.069 A 
HETATM   18  C18 UNL     1       1.953  13.148 -35.187  1.00  0.00     0.187 A 
HETATM   19  O3  UNL     1       8.674  20.169 -36.464  1.00  0.00    -0.323 OA
HETATM   20  C20 UNL     1       8.552  20.317 -37.868  1.00  0.00     0.352 C 
HETATM   21  O4  UNL     1       7.253  19.799 -38.092  1.00  0.00    -0.323 OA
ENDROOT
BRANCH   1  22
HETATM   22  O1  UNL     1      -0.479  12.701 -35.619  1.00  0.00    -0.358 OA
HETATM   23  C1  UNL     1      -1.587  13.036 -36.444  1.00  0.00     0.209 C 
ENDBRANCH   1  22
BRANCH  18  24
HETATM   24  O2  UNL     1       2.251  11.772 -35.306  1.00  0.00    -0.383 OA
HETATM   25  C19 UNL     1       3.133  11.492 -36.318  1.00  0.00     0.202 C 
ENDBRANCH  18  24
TORSDOF 2
ENDMDL
