MODEL 3
REMARK VINA RESULT: -8.631597589      3.820      4.910
REMARK  2 active torsions:
REMARK  status: ('A' for Active; 'I' for Inactive)
REMARK    1  A    between atoms: O1_2  and  C2_3 
REMARK    2  A    between atoms: C18_20  and  O2_21 
ROOT
HETATM    1  C2  UNL     1       7.743  18.863 -36.495  1.00  0.00     0.075 A 
HETATM    2  C3  UNL     1       6.924  18.943 -37.530  1.00  0.00     0.035 A 
HETATM    3  C4  UNL     1       5.613  18.314 -37.493  1.00  0.00     0.006 A 
HETATM    4  C5  UNL     1       5.223  17.656 -36.428  1.00  0.00    -0.066 A 
HETATM    5  C6  UNL     1       3.845  17.042 -36.500  1.00  0.00     0.092 C 
HETATM    6  C7  UNL     1       3.858  15.777 -35.726  1.00  0.00     0.026 A 
HETATM    7  C8  UNL     1       2.682  15.017 -35.847  1.00  0.00     0.000 A 
HETATM    8  C9  UNL     1       1.631  15.450 -36.628  1.00  0.00     0.054 A 
HETATM    9  C10 UNL     1       0.457  14.709 -36.760  1.00  0.00     0.105 A 
HETATM   10  C11 UNL     1       0.354  13.511 -36.084  1.00  0.00     0.105 A 
HETATM   11  C12 UNL     1       1.419  13.076 -35.294  1.00  0.00     0.052 A 
HETATM   12  C13 UNL     1       2.578  13.822 -35.173  1.00  0.00    -0.020 A 
HETATM   13  C14 UNL     1       3.652  13.429 -34.404  1.00  0.00     0.029 A 
HETATM   14  C15 UNL     1       4.800  14.181 -34.293  1.00  0.00     0.092 A 
HETATM   15  N1  UNL     1       4.879  15.362 -34.970  1.00  0.00    -0.358 N 
HETATM   16  C16 UNL     1       6.128  16.068 -34.779  1.00  0.00     0.140 C 
HETATM   17  C17 UNL     1       6.040  17.525 -35.239  1.00  0.00     0.069 A 
HETATM   18  C18 UNL     1       7.370  18.144 -35.286  1.00  0.00     0.187 A 
HETATM   19  O3  UNL     1      -0.902  13.003 -36.398  1.00  0.00    -0.323 OA
HETATM   20  C20 UNL     1      -1.708  14.029 -36.951  1.00  0.00     0.352 C 
HETATM   21  O4  UNL     1      -0.727  14.909 -37.466  1.00  0.00    -0.323 OA
ENDROOT
BRANCH   1  22
HETATM   22  O1  UNL     1       8.992  19.509 -36.631  1.00  0.00    -0.358 OA
HETATM   23  C1  UNL     1       8.944  20.818 -37.184  1.00  0.00     0.209 C 
ENDBRANCH   1  22
BRANCH  18  24
HETATM   24  O2  UNL     1       7.645  18.912 -34.132  1.00  0.00    -0.383 OA
HETATM   25  C19 UNL     1       7.330  18.269 -32.962  1.00  0.00     0.202 C 
ENDBRANCH  18  24
TORSDOF 2
ENDMDL
