MODEL 1
REMARK VINA RESULT: -10.320384146      0.000      0.000
REMARK  2 active torsions:
REMARK  status: ('A' for Active; 'I' for Inactive)
REMARK    1  A    between atoms: O1_2  and  C2_3 
REMARK    2  A    between atoms: C18_20  and  O2_21 
ROOT
HETATM    1  C2  UNL     1       4.347  18.354 -31.927  1.00  0.00     0.075 A 
HETATM    2  C3  UNL     1       5.176  17.347 -31.712  1.00  0.00     0.035 A 
HETATM    3  C4  UNL     1       5.064  16.115 -32.477  1.00  0.00     0.006 A 
HETATM    4  C5  UNL     1       4.136  15.986 -33.395  1.00  0.00    -0.066 A 
HETATM    5  C6  UNL     1       4.111  14.665 -34.127  1.00  0.00     0.092 C 
HETATM    6  C7  UNL     1       2.702  14.342 -34.457  1.00  0.00     0.026 A 
HETATM    7  C8  UNL     1       2.516  13.057 -34.993  1.00  0.00     0.000 A 
HETATM    8  C9  UNL     1       3.583  12.202 -35.181  1.00  0.00     0.054 A 
HETATM    9  C10 UNL     1       3.418  10.924 -35.712  1.00  0.00     0.105 A 
HETATM   10  C11 UNL     1       2.148  10.512 -36.058  1.00  0.00     0.105 A 
HETATM   11  C12 UNL     1       1.071  11.378 -35.867  1.00  0.00     0.052 A 
HETATM   12  C13 UNL     1       1.250  12.645 -35.338  1.00  0.00    -0.020 A 
HETATM   13  C14 UNL     1       0.215  13.531 -35.134  1.00  0.00     0.029 A 
HETATM   14  C15 UNL     1       0.407  14.788 -34.606  1.00  0.00     0.092 A 
HETATM   15  N1  UNL     1       1.671  15.173 -34.273  1.00  0.00    -0.358 N 
HETATM   16  C16 UNL     1       1.755  16.512 -33.730  1.00  0.00     0.140 C 
HETATM   17  C17 UNL     1       3.192  17.037 -33.715  1.00  0.00     0.069 A 
HETATM   18  C18 UNL     1       3.295  18.272 -32.929  1.00  0.00     0.187 A 
HETATM   19  O3  UNL     1       2.288   9.220 -36.551  1.00  0.00    -0.323 OA
HETATM   20  C20 UNL     1       3.648   8.968 -36.856  1.00  0.00     0.352 C 
HETATM   21  O4  UNL     1       4.302   9.886 -35.999  1.00  0.00    -0.323 OA
ENDROOT
BRANCH   1  22
HETATM   22  O1  UNL     1       4.541  19.507 -31.132  1.00  0.00    -0.358 OA
HETATM   23  C1  UNL     1       4.398  19.312 -29.732  1.00  0.00     0.209 C 
ENDBRANCH   1  22
BRANCH  18  24
HETATM   24  O2  UNL     1       3.273  19.429 -33.740  1.00  0.00    -0.383 OA
HETATM   25  C19 UNL     1       2.121  20.163 -33.612  1.00  0.00     0.202 C 
ENDBRANCH  18  24
TORSDOF 2
ENDMDL
