MODEL 4
REMARK VINA RESULT: -8.560415657      1.832      7.942
REMARK  2 active torsions:
REMARK  status: ('A' for Active; 'I' for Inactive)
REMARK    1  A    between atoms: O1_2  and  C2_3 
REMARK    2  A    between atoms: C18_20  and  O2_21 
ROOT
HETATM    1  C2  UNL     1       0.795  12.712 -35.836  1.00  0.00     0.075 A 
HETATM    2  C3  UNL     1      -0.073  13.379 -35.096  1.00  0.00     0.035 A 
HETATM    3  C4  UNL     1       0.332  14.571 -34.367  1.00  0.00     0.006 A 
HETATM    4  C5  UNL     1       1.569  15.003 -34.435  1.00  0.00    -0.066 A 
HETATM    5  C6  UNL     1       1.878  16.247 -33.637  1.00  0.00     0.092 C 
HETATM    6  C7  UNL     1       3.274  16.151 -33.146  1.00  0.00     0.026 A 
HETATM    7  C8  UNL     1       3.640  17.168 -32.249  1.00  0.00     0.000 A 
HETATM    8  C9  UNL     1       2.745  18.153 -31.884  1.00  0.00     0.054 A 
HETATM    9  C10 UNL     1       3.090  19.169 -30.995  1.00  0.00     0.105 A 
HETATM   10  C11 UNL     1       4.367  19.183 -30.472  1.00  0.00     0.105 A 
HETATM   11  C12 UNL     1       5.270  18.186 -30.843  1.00  0.00     0.052 A 
HETATM   12  C13 UNL     1       4.912  17.183 -31.726  1.00  0.00    -0.020 A 
HETATM   13  C14 UNL     1       5.773  16.180 -32.118  1.00  0.00     0.029 A 
HETATM   14  C15 UNL     1       5.404  15.188 -32.998  1.00  0.00     0.092 A 
HETATM   15  N1  UNL     1       4.138  15.195 -33.502  1.00  0.00    -0.358 N 
HETATM   16  C16 UNL     1       3.862  14.107 -34.416  1.00  0.00     0.140 C 
HETATM   17  C17 UNL     1       2.589  14.350 -35.230  1.00  0.00     0.069 A 
HETATM   18  C18 UNL     1       2.183  13.136 -35.949  1.00  0.00     0.187 A 
HETATM   19  O3  UNL     1       4.423  20.290 -29.633  1.00  0.00    -0.323 OA
HETATM   20  C20 UNL     1       3.338  21.157 -29.912  1.00  0.00     0.352 C 
HETATM   21  O4  UNL     1       2.398  20.259 -30.472  1.00  0.00    -0.323 OA
ENDROOT
BRANCH   1  22
HETATM   22  O1  UNL     1       0.302  11.569 -36.505  1.00  0.00    -0.358 OA
HETATM   23  C1  UNL     1       1.081  10.390 -36.352  1.00  0.00     0.209 C 
ENDBRANCH   1  22
BRANCH  18  24
HETATM   24  O2  UNL     1       2.604  13.146 -37.298  1.00  0.00    -0.383 OA
HETATM   25  C19 UNL     1       2.361  14.337 -37.935  1.00  0.00     0.202 C 
ENDBRANCH  18  24
TORSDOF 2
ENDMDL
