MODEL 3
REMARK VINA RESULT: -9.128407446      3.066      6.612
REMARK  6 active torsions:
REMARK  status: ('A' for Active; 'I' for Inactive)
REMARK    1  A    between atoms: N1_5  and  C4_6 
REMARK    2  A    between atoms: C5_8  and  C6_9 
REMARK    3  A    between atoms: C6_9  and  O3_10 
REMARK    4  A    between atoms: O3_10  and  P1_11 
REMARK    5  A    between atoms: C7_15  and  O7_16 
REMARK    6  A    between atoms: C8_18  and  O8_19 
ROOT
HETATM    1  C4  UNL     1      18.208  38.076  37.782  1.00  0.00     0.263 C 
HETATM    2  O2  UNL     1      17.046  38.527  37.192  1.00  0.00    -0.353 OA
HETATM    3  C5  UNL     1      17.275  39.841  36.794  1.00  0.00     0.180 C 
HETATM    4  C7  UNL     1      18.655  39.732  36.180  1.00  0.00     0.182 C 
HETATM    5  C8  UNL     1      19.350  38.850  37.197  1.00  0.00     0.198 C 
ENDROOT
BRANCH   1   6
HETATM    6  N1  UNL     1      18.394  36.654  37.666  1.00  0.00    -0.280 N 
HETATM    7  C3  UNL     1      18.064  36.007  36.537  1.00  0.00     0.104 A 
HETATM    8  C2  UNL     1      18.225  34.650  36.381  1.00  0.00     0.092 A 
HETATM    9  C1  UNL     1      18.742  33.921  37.424  1.00  0.00     0.250 A 
HETATM   10  O1  UNL     1      18.911  32.667  37.333  1.00  0.00    -0.268 OA
HETATM   11  N2  UNL     1      19.070  34.576  38.551  1.00  0.00    -0.275 N 
HETATM   12  C9  UNL     1      18.897  35.896  38.656  1.00  0.00     0.331 A 
ATOM     13  H2  UNL     1      19.456  34.056  39.339  1.00  0.00     0.173 HD
HETATM   14  O9  UNL     1      19.212  36.477  39.724  1.00  0.00    -0.246 OA
ENDBRANCH   1   6
BRANCH   5  15
HETATM   15  O8  UNL     1      19.954  39.701  38.130  1.00  0.00    -0.388 OA
ATOM     16  H8  UNL     1      20.368  40.452  37.722  1.00  0.00     0.210 HD
ENDBRANCH   5  15
BRANCH   3  17
HETATM   17  C6  UNL     1      16.244  40.296  35.792  1.00  0.00     0.217 C 
BRANCH  17  18
HETATM   18  O3  UNL     1      15.020  40.113  36.345  1.00  0.00    -0.280 OA
BRANCH  18  19
HETATM   19  P1  UNL     1      13.752  40.839  35.596  1.00  0.00     0.422 P 
HETATM   20  O4  UNL     1      12.959  40.985  36.889  1.00  0.00    -0.617 OA
HETATM   21  O5  UNL     1      13.796  42.445  35.305  1.00  0.00    -0.617 OA
HETATM   22  O6  UNL     1      12.498  39.955  34.931  1.00  0.00    -0.617 OA
ENDBRANCH  18  19
ENDBRANCH  17  18
ENDBRANCH   3  17
BRANCH   4  23
HETATM   23  O7  UNL     1      19.269  40.981  36.066  1.00  0.00    -0.390 OA
ATOM     24  H7  UNL     1      18.702  41.681  36.368  1.00  0.00     0.210 HD
ENDBRANCH   4  23
TORSDOF 6
ENDMDL
