MODEL 12
REMARK VINA RESULT: -8.285290320      3.327      6.824
REMARK  6 active torsions:
REMARK  status: ('A' for Active; 'I' for Inactive)
REMARK    1  A    between atoms: N1_5  and  C4_6 
REMARK    2  A    between atoms: C5_8  and  C6_9 
REMARK    3  A    between atoms: C6_9  and  O3_10 
REMARK    4  A    between atoms: O3_10  and  P1_11 
REMARK    5  A    between atoms: C7_15  and  O7_16 
REMARK    6  A    between atoms: C8_18  and  O8_19 
ROOT
HETATM    1  C4  UNL     1      18.497  37.892  37.734  1.00  0.00     0.263 C 
HETATM    2  O2  UNL     1      17.177  38.281  37.787  1.00  0.00    -0.353 OA
HETATM    3  C5  UNL     1      17.072  39.464  37.061  1.00  0.00     0.180 C 
HETATM    4  C7  UNL     1      17.902  39.140  35.838  1.00  0.00     0.182 C 
HETATM    5  C8  UNL     1      19.090  38.450  36.476  1.00  0.00     0.198 C 
ENDROOT
BRANCH   1   6
HETATM    6  N1  UNL     1      18.679  36.468  37.840  1.00  0.00    -0.280 N 
HETATM    7  C3  UNL     1      19.558  35.950  38.713  1.00  0.00     0.104 A 
HETATM    8  C2  UNL     1      19.765  34.597  38.850  1.00  0.00     0.092 A 
HETATM    9  C1  UNL     1      19.045  33.735  38.060  1.00  0.00     0.250 A 
HETATM   10  O1  UNL     1      19.196  32.478  38.145  1.00  0.00    -0.268 OA
HETATM   11  N2  UNL     1      18.167  34.261  37.188  1.00  0.00    -0.275 N 
HETATM   12  C9  UNL     1      17.999  35.582  37.091  1.00  0.00     0.331 A 
ATOM     13  H2  UNL     1      17.620  33.640  36.591  1.00  0.00     0.173 HD
HETATM   14  O9  UNL     1      17.171  36.041  36.265  1.00  0.00    -0.246 OA
ENDBRANCH   1   6
BRANCH   5  15
HETATM   15  O8  UNL     1      20.050  39.438  36.729  1.00  0.00    -0.388 OA
ATOM     16  H8  UNL     1      20.448  39.769  35.933  1.00  0.00     0.210 HD
ENDBRANCH   5  15
BRANCH   3  17
HETATM   17  C6  UNL     1      15.636  39.763  36.707  1.00  0.00     0.217 C 
BRANCH  17  18
HETATM   18  O3  UNL     1      15.606  40.961  36.075  1.00  0.00    -0.280 OA
BRANCH  18  19
HETATM   19  P1  UNL     1      14.460  41.161  34.917  1.00  0.00     0.422 P 
HETATM   20  O4  UNL     1      14.016  42.512  35.466  1.00  0.00    -0.617 OA
HETATM   21  O5  UNL     1      14.880  41.761  33.458  1.00  0.00    -0.617 OA
HETATM   22  O6  UNL     1      12.904  40.577  35.107  1.00  0.00    -0.617 OA
ENDBRANCH  18  19
ENDBRANCH  17  18
ENDBRANCH   3  17
BRANCH   4  23
HETATM   23  O7  UNL     1      18.279  40.296  35.149  1.00  0.00    -0.390 OA
ATOM     24  H7  UNL     1      18.485  40.111  34.240  1.00  0.00     0.210 HD
ENDBRANCH   4  23
TORSDOF 6
ENDMDL
