MODEL 4
REMARK VINA RESULT: -9.117694229      0.912      1.322
REMARK  6 active torsions:
REMARK  status: ('A' for Active; 'I' for Inactive)
REMARK    1  A    between atoms: N1_5  and  C4_6 
REMARK    2  A    between atoms: C5_8  and  C6_9 
REMARK    3  A    between atoms: C6_9  and  O3_10 
REMARK    4  A    between atoms: O3_10  and  P1_11 
REMARK    5  A    between atoms: C7_15  and  O7_16 
REMARK    6  A    between atoms: C8_18  and  O8_19 
ROOT
HETATM    1  C4  UNL     1      17.936  39.829  35.602  1.00  0.00     0.263 C 
HETATM    2  O2  UNL     1      18.186  38.474  35.592  1.00  0.00    -0.353 OA
HETATM    3  C5  UNL     1      19.370  38.274  36.297  1.00  0.00     0.180 C 
HETATM    4  C7  UNL     1      19.162  39.178  37.493  1.00  0.00     0.182 C 
HETATM    5  C8  UNL     1      18.582  40.407  36.824  1.00  0.00     0.198 C 
ENDROOT
BRANCH   1   6
HETATM    6  N1  UNL     1      16.536  40.154  35.518  1.00  0.00    -0.280 N 
HETATM    7  C3  UNL     1      16.080  40.988  34.570  1.00  0.00     0.104 A 
HETATM    8  C2  UNL     1      14.751  41.326  34.452  1.00  0.00     0.092 A 
HETATM    9  C1  UNL     1      13.850  40.790  35.339  1.00  0.00     0.250 A 
HETATM   10  O1  UNL     1      12.614  41.069  35.274  1.00  0.00    -0.268 OA
HETATM   11  N2  UNL     1      14.315  39.956  36.285  1.00  0.00    -0.275 N 
HETATM   12  C9  UNL     1      15.614  39.656  36.361  1.00  0.00     0.331 A 
ATOM     13  H2  UNL     1      13.665  39.546  36.955  1.00  0.00     0.173 HD
HETATM   14  O9  UNL     1      16.016  38.873  37.258  1.00  0.00    -0.246 OA
ENDBRANCH   1   6
BRANCH   5  15
HETATM   15  O8  UNL     1      19.657  41.249  36.514  1.00  0.00    -0.388 OA
ATOM     16  H8  UNL     1      20.232  40.877  35.857  1.00  0.00     0.210 HD
ENDBRANCH   5  15
BRANCH   3  17
HETATM   17  C6  UNL     1      19.528  36.829  36.700  1.00  0.00     0.217 C 
BRANCH  17  18
HETATM   18  O3  UNL     1      18.799  36.631  37.825  1.00  0.00    -0.280 OA
BRANCH  18  19
HETATM   19  P1  UNL     1      18.956  35.172  38.563  1.00  0.00     0.422 P 
HETATM   20  O4  UNL     1      19.089  34.421  37.243  1.00  0.00    -0.617 OA
HETATM   21  O5  UNL     1      20.417  34.698  39.115  1.00  0.00    -0.617 OA
HETATM   22  O6  UNL     1      17.627  34.237  38.957  1.00  0.00    -0.617 OA
ENDBRANCH  18  19
ENDBRANCH  17  18
ENDBRANCH   3  17
BRANCH   4  23
HETATM   23  O7  UNL     1      20.367  39.458  38.144  1.00  0.00    -0.390 OA
ATOM     24  H7  UNL     1      21.115  39.309  37.578  1.00  0.00     0.210 HD
ENDBRANCH   4  23
TORSDOF 6
ENDMDL
