MODEL 2
REMARK VINA RESULT: -9.138927232      1.036      1.427
REMARK  6 active torsions:
REMARK  status: ('A' for Active; 'I' for Inactive)
REMARK    1  A    between atoms: N1_5  and  C4_6 
REMARK    2  A    between atoms: C5_8  and  C6_9 
REMARK    3  A    between atoms: C6_9  and  O3_10 
REMARK    4  A    between atoms: O3_10  and  P1_11 
REMARK    5  A    between atoms: C7_15  and  O7_16 
REMARK    6  A    between atoms: C8_18  and  O8_19 
ROOT
HETATM    1  C4  UNL     1      17.896  39.856  35.530  1.00  0.00     0.263 C 
HETATM    2  O2  UNL     1      17.964  38.492  35.709  1.00  0.00    -0.353 OA
HETATM    3  C5  UNL     1      19.087  38.239  36.492  1.00  0.00     0.180 C 
HETATM    4  C7  UNL     1      18.962  39.315  37.549  1.00  0.00     0.182 C 
HETATM    5  C8  UNL     1      18.573  40.506  36.698  1.00  0.00     0.198 C 
ENDROOT
BRANCH   1   6
HETATM    6  N1  UNL     1      16.555  40.342  35.335  1.00  0.00    -0.280 N 
HETATM    7  C3  UNL     1      15.676  40.361  36.350  1.00  0.00     0.104 A 
HETATM    8  C2  UNL     1      14.386  40.817  36.210  1.00  0.00     0.092 A 
HETATM    9  C1  UNL     1      13.974  41.270  34.981  1.00  0.00     0.250 A 
HETATM   10  O1  UNL     1      12.795  41.701  34.797  1.00  0.00    -0.268 OA
HETATM   11  N2  UNL     1      14.860  41.248  33.970  1.00  0.00    -0.275 N 
HETATM   12  C9  UNL     1      16.103  40.797  34.153  1.00  0.00     0.331 A 
ATOM     13  H2  UNL     1      14.577  41.580  33.048  1.00  0.00     0.173 HD
HETATM   14  O9  UNL     1      16.906  40.789  33.187  1.00  0.00    -0.246 OA
ENDBRANCH   1   6
BRANCH   5  15
HETATM   15  O8  UNL     1      19.760  41.155  36.336  1.00  0.00    -0.388 OA
ATOM     16  H8  UNL     1      19.863  41.993  36.770  1.00  0.00     0.210 HD
ENDBRANCH   5  15
BRANCH   3  17
HETATM   17  C6  UNL     1      19.038  36.854  37.087  1.00  0.00     0.217 C 
BRANCH  17  18
HETATM   18  O3  UNL     1      20.292  36.530  37.486  1.00  0.00    -0.280 OA
BRANCH  18  19
HETATM   19  P1  UNL     1      20.436  35.761  38.930  1.00  0.00     0.422 P 
HETATM   20  O4  UNL     1      19.158  36.378  39.485  1.00  0.00    -0.617 OA
HETATM   21  O5  UNL     1      19.901  34.226  39.084  1.00  0.00    -0.617 OA
HETATM   22  O6  UNL     1      21.302  36.422  40.198  1.00  0.00    -0.617 OA
ENDBRANCH  18  19
ENDBRANCH  17  18
ENDBRANCH   3  17
BRANCH   4  23
HETATM   23  O7  UNL     1      20.171  39.525  38.218  1.00  0.00    -0.390 OA
ATOM     24  H7  UNL     1      20.115  39.277  39.133  1.00  0.00     0.210 HD
ENDBRANCH   4  23
TORSDOF 6
ENDMDL
