MODEL 7
REMARK VINA RESULT: -8.967239125      1.702      2.402
REMARK  6 active torsions:
REMARK  status: ('A' for Active; 'I' for Inactive)
REMARK    1  A    between atoms: N1_5  and  C4_6 
REMARK    2  A    between atoms: C5_8  and  C6_9 
REMARK    3  A    between atoms: C6_9  and  O3_10 
REMARK    4  A    between atoms: O3_10  and  P1_11 
REMARK    5  A    between atoms: C7_15  and  O7_16 
REMARK    6  A    between atoms: C8_18  and  O8_19 
ROOT
HETATM    1  C4  UNL     1      18.337  39.179  35.766  1.00  0.00     0.263 C 
HETATM    2  O2  UNL     1      18.189  37.820  35.591  1.00  0.00    -0.353 OA
HETATM    3  C5  UNL     1      19.170  37.202  36.361  1.00  0.00     0.180 C 
HETATM    4  C7  UNL     1      19.083  37.993  37.649  1.00  0.00     0.182 C 
HETATM    5  C8  UNL     1      18.965  39.403  37.108  1.00  0.00     0.198 C 
ENDROOT
BRANCH   1   6
HETATM    6  N1  UNL     1      17.109  39.914  35.607  1.00  0.00    -0.280 N 
HETATM    7  C3  UNL     1      16.327  40.181  36.664  1.00  0.00     0.104 A 
HETATM    8  C2  UNL     1      15.146  40.880  36.559  1.00  0.00     0.092 A 
HETATM    9  C1  UNL     1      14.747  41.322  35.322  1.00  0.00     0.250 A 
HETATM   10  O1  UNL     1      13.667  41.970  35.169  1.00  0.00    -0.268 OA
HETATM   11  N2  UNL     1      15.536  41.050  34.269  1.00  0.00    -0.275 N 
HETATM   12  C9  UNL     1      16.674  40.369  34.419  1.00  0.00     0.331 A 
ATOM     13  H2  UNL     1      15.260  41.368  33.340  1.00  0.00     0.173 HD
HETATM   14  O9  UNL     1      17.389  40.130  33.413  1.00  0.00    -0.246 OA
ENDBRANCH   1   6
BRANCH   5  15
HETATM   15  O8  UNL     1      20.266  39.915  37.012  1.00  0.00    -0.388 OA
ATOM     16  H8  UNL     1      20.924  39.231  36.998  1.00  0.00     0.210 HD
ENDBRANCH   5  15
BRANCH   3  17
HETATM   17  C6  UNL     1      18.859  35.741  36.573  1.00  0.00     0.217 C 
BRANCH  17  18
HETATM   18  O3  UNL     1      18.201  35.625  37.752  1.00  0.00    -0.280 OA
BRANCH  18  19
HETATM   19  P1  UNL     1      18.153  34.130  38.431  1.00  0.00     0.422 P 
HETATM   20  O4  UNL     1      18.572  33.435  37.140  1.00  0.00    -0.617 OA
HETATM   21  O5  UNL     1      19.437  33.586  39.278  1.00  0.00    -0.617 OA
HETATM   22  O6  UNL     1      16.750  33.221  38.461  1.00  0.00    -0.617 OA
ENDBRANCH  18  19
ENDBRANCH  17  18
ENDBRANCH   3  17
BRANCH   4  23
HETATM   23  O7  UNL     1      20.228  37.830  38.434  1.00  0.00    -0.390 OA
ATOM     24  H7  UNL     1      20.869  37.274  38.008  1.00  0.00     0.210 HD
ENDBRANCH   4  23
TORSDOF 6
ENDMDL
