MODEL 1
REMARK VINA RESULT: -9.233270508      0.000      0.000
REMARK  6 active torsions:
REMARK  status: ('A' for Active; 'I' for Inactive)
REMARK    1  A    between atoms: N1_5  and  C4_6 
REMARK    2  A    between atoms: C5_8  and  C6_9 
REMARK    3  A    between atoms: C6_9  and  O3_10 
REMARK    4  A    between atoms: O3_10  and  P1_11 
REMARK    5  A    between atoms: C7_15  and  O7_16 
REMARK    6  A    between atoms: C8_18  and  O8_19 
ROOT
HETATM    1  C4  UNL     1      17.856  39.740  35.615  1.00  0.00     0.263 C 
HETATM    2  O2  UNL     1      18.018  38.379  35.756  1.00  0.00    -0.353 OA
HETATM    3  C5  UNL     1      19.187  38.182  36.485  1.00  0.00     0.180 C 
HETATM    4  C7  UNL     1      19.039  39.223  37.574  1.00  0.00     0.182 C 
HETATM    5  C8  UNL     1      18.539  40.406  36.771  1.00  0.00     0.198 C 
ENDROOT
BRANCH   1   6
HETATM    6  N1  UNL     1      16.479  40.142  35.487  1.00  0.00    -0.280 N 
HETATM    7  C3  UNL     1      16.094  40.969  34.503  1.00  0.00     0.104 A 
HETATM    8  C2  UNL     1      14.791  41.379  34.341  1.00  0.00     0.092 A 
HETATM    9  C1  UNL     1      13.841  40.926  35.224  1.00  0.00     0.250 A 
HETATM   10  O1  UNL     1      12.624  41.273  35.121  1.00  0.00    -0.268 OA
HETATM   11  N2  UNL     1      14.235  40.098  36.206  1.00  0.00    -0.275 N 
HETATM   12  C9  UNL     1      15.512  39.727  36.324  1.00  0.00     0.331 A 
ATOM     13  H2  UNL     1      13.547  39.749  36.874  1.00  0.00     0.173 HD
HETATM   14  O9  UNL     1      15.847  38.952  37.254  1.00  0.00    -0.246 OA
ENDBRANCH   1   6
BRANCH   5  15
HETATM   15  O8  UNL     1      19.665  41.139  36.377  1.00  0.00    -0.388 OA
ATOM     16  H8  UNL     1      19.868  41.844  36.979  1.00  0.00     0.210 HD
ENDBRANCH   5  15
BRANCH   3  17
HETATM   17  C6  UNL     1      19.253  36.783  37.045  1.00  0.00     0.217 C 
BRANCH  17  18
HETATM   18  O3  UNL     1      20.483  36.612  37.589  1.00  0.00    -0.280 OA
BRANCH  18  19
HETATM   19  P1  UNL     1      20.555  35.823  39.028  1.00  0.00     0.422 P 
HETATM   20  O4  UNL     1      19.225  36.393  39.506  1.00  0.00    -0.617 OA
HETATM   21  O5  UNL     1      20.058  34.271  39.124  1.00  0.00    -0.617 OA
HETATM   22  O6  UNL     1      21.315  36.488  40.360  1.00  0.00    -0.617 OA
ENDBRANCH  18  19
ENDBRANCH  17  18
ENDBRANCH   3  17
BRANCH   4  23
HETATM   23  O7  UNL     1      20.260  39.495  38.198  1.00  0.00    -0.390 OA
ATOM     24  H7  UNL     1      20.160  40.118  38.909  1.00  0.00     0.210 HD
ENDBRANCH   4  23
TORSDOF 6
ENDMDL
