MODEL 6
REMARK VINA RESULT: -9.019940000      1.609      2.445
REMARK  6 active torsions:
REMARK  status: ('A' for Active; 'I' for Inactive)
REMARK    1  A    between atoms: N1_5  and  C4_6 
REMARK    2  A    between atoms: C5_8  and  C6_9 
REMARK    3  A    between atoms: C6_9  and  O3_10 
REMARK    4  A    between atoms: O3_10  and  P1_11 
REMARK    5  A    between atoms: C7_15  and  O7_16 
REMARK    6  A    between atoms: C8_18  and  O8_19 
ROOT
HETATM    1  C4  UNL     1      18.245  38.930  36.057  1.00  0.00     0.263 C 
HETATM    2  O2  UNL     1      18.102  37.625  35.636  1.00  0.00    -0.353 OA
HETATM    3  C5  UNL     1      18.893  36.840  36.468  1.00  0.00     0.180 C 
HETATM    4  C7  UNL     1      18.570  37.424  37.827  1.00  0.00     0.182 C 
HETATM    5  C8  UNL     1      18.597  38.905  37.513  1.00  0.00     0.198 C 
ENDROOT
BRANCH   1   6
HETATM    6  N1  UNL     1      17.092  39.748  35.786  1.00  0.00    -0.280 N 
HETATM    7  C3  UNL     1      16.214  40.042  36.758  1.00  0.00     0.104 A 
HETATM    8  C2  UNL     1      15.100  40.820  36.546  1.00  0.00     0.092 A 
HETATM    9  C1  UNL     1      14.871  41.318  35.287  1.00  0.00     0.250 A 
HETATM   10  O1  UNL     1      13.858  42.041  35.036  1.00  0.00    -0.268 OA
HETATM   11  N2  UNL     1      15.754  41.019  34.319  1.00  0.00    -0.275 N 
HETATM   12  C9  UNL     1      16.823  40.260  34.572  1.00  0.00     0.331 A 
ATOM     13  H2  UNL     1      15.606  41.378  33.376  1.00  0.00     0.173 HD
HETATM   14  O9  UNL     1      17.630  39.999  33.645  1.00  0.00    -0.246 OA
ENDBRANCH   1   6
BRANCH   5  15
HETATM   15  O8  UNL     1      19.902  39.351  37.756  1.00  0.00    -0.388 OA
ATOM     16  H8  UNL     1      20.238  39.053  38.593  1.00  0.00     0.210 HD
ENDBRANCH   5  15
BRANCH   3  17
HETATM   17  C6  UNL     1      18.510  35.384  36.373  1.00  0.00     0.217 C 
BRANCH  17  18
HETATM   18  O3  UNL     1      19.377  34.676  37.137  1.00  0.00    -0.280 OA
BRANCH  18  19
HETATM   19  P1  UNL     1      18.732  33.551  38.144  1.00  0.00     0.422 P 
HETATM   20  O4  UNL     1      19.605  33.973  39.319  1.00  0.00    -0.617 OA
HETATM   21  O5  UNL     1      17.331  33.869  38.920  1.00  0.00    -0.617 OA
HETATM   22  O6  UNL     1      19.351  32.001  38.245  1.00  0.00    -0.617 OA
ENDBRANCH  18  19
ENDBRANCH  17  18
ENDBRANCH   3  17
BRANCH   4  23
HETATM   23  O7  UNL     1      19.529  37.075  38.781  1.00  0.00    -0.390 OA
ATOM     24  H7  UNL     1      19.132  36.711  39.563  1.00  0.00     0.210 HD
ENDBRANCH   4  23
TORSDOF 6
ENDMDL
