MODEL 5
REMARK VINA RESULT: -9.096809564      3.227      6.796
REMARK  6 active torsions:
REMARK  status: ('A' for Active; 'I' for Inactive)
REMARK    1  A    between atoms: N1_5  and  C4_6 
REMARK    2  A    between atoms: C5_8  and  C6_9 
REMARK    3  A    between atoms: C6_9  and  O3_10 
REMARK    4  A    between atoms: O3_10  and  P1_11 
REMARK    5  A    between atoms: C7_15  and  O7_16 
REMARK    6  A    between atoms: C8_18  and  O8_19 
ROOT
HETATM    1  C4  UNL     1      18.517  37.849  37.685  1.00  0.00     0.263 C 
HETATM    2  O2  UNL     1      17.211  38.269  37.816  1.00  0.00    -0.353 OA
HETATM    3  C5  UNL     1      17.104  39.480  37.139  1.00  0.00     0.180 C 
HETATM    4  C7  UNL     1      17.866  39.180  35.866  1.00  0.00     0.182 C 
HETATM    5  C8  UNL     1      19.064  38.437  36.421  1.00  0.00     0.198 C 
ENDROOT
BRANCH   1   6
HETATM    6  N1  UNL     1      18.665  36.418  37.732  1.00  0.00    -0.280 N 
HETATM    7  C3  UNL     1      18.240  35.649  36.716  1.00  0.00     0.104 A 
HETATM    8  C2  UNL     1      18.362  34.279  36.717  1.00  0.00     0.092 A 
HETATM    9  C1  UNL     1      18.939  33.667  37.802  1.00  0.00     0.250 A 
HETATM   10  O1  UNL     1      19.075  32.406  37.855  1.00  0.00    -0.268 OA
HETATM   11  N2  UNL     1      19.361  34.443  38.815  1.00  0.00    -0.275 N 
HETATM   12  C9  UNL     1      19.224  35.770  38.770  1.00  0.00     0.331 A 
ATOM     13  H2  UNL     1      19.794  34.011  39.632  1.00  0.00     0.173 HD
HETATM   14  O9  UNL     1      19.629  36.467  39.734  1.00  0.00    -0.246 OA
ENDBRANCH   1   6
BRANCH   5  15
HETATM   15  O8  UNL     1      20.061  39.391  36.662  1.00  0.00    -0.388 OA
ATOM     16  H8  UNL     1      20.935  39.045  36.524  1.00  0.00     0.210 HD
ENDBRANCH   5  15
BRANCH   3  17
HETATM   17  C6  UNL     1      15.662  39.828  36.866  1.00  0.00     0.217 C 
BRANCH  17  18
HETATM   18  O3  UNL     1      15.643  40.952  36.109  1.00  0.00    -0.280 OA
BRANCH  18  19
HETATM   19  P1  UNL     1      14.431  41.086  35.008  1.00  0.00     0.422 P 
HETATM   20  O4  UNL     1      13.973  42.436  35.547  1.00  0.00    -0.617 OA
HETATM   21  O5  UNL     1      14.755  41.659  33.515  1.00  0.00    -0.617 OA
HETATM   22  O6  UNL     1      12.908  40.459  35.296  1.00  0.00    -0.617 OA
ENDBRANCH  18  19
ENDBRANCH  17  18
ENDBRANCH   3  17
BRANCH   4  23
HETATM   23  O7  UNL     1      18.241  40.350  35.200  1.00  0.00    -0.390 OA
ATOM     24  H7  UNL     1      18.820  40.169  34.470  1.00  0.00     0.210 HD
ENDBRANCH   4  23
TORSDOF 6
ENDMDL
