MODEL 1
REMARK VINA RESULT: -9.188931718      0.000      0.000
REMARK  8 active torsions:
REMARK  status: ('A' for Active; 'I' for Inactive)
REMARK    1  A    between atoms: C4_4  and  C5_5 
REMARK    2  A    between atoms: C5_5  and  C6_6 
REMARK    3  A    between atoms: C6_6  and  C7_7 
REMARK    4  A    between atoms: C9_9  and  C10_10 
REMARK    5  A    between atoms: C10_10  and  C11_11 
REMARK    6  A    between atoms: C12_12  and  O1_13 
REMARK    7  A    between atoms: C16_19  and  C17_20 
REMARK    8  A    between atoms: C18_22  and  O3_23 
ROOT
HETATM    1  C11 UNL     1      69.096  26.901  24.014  1.00  0.00     0.014 A 
HETATM    2  C12 UNL     1      68.129  25.948  23.850  1.00  0.00     0.097 A 
HETATM    3  C13 UNL     1      66.832  26.137  24.330  1.00  0.00     0.074 A 
HETATM    4 CL1  UNL     1      65.598  24.921  24.120  1.00  0.00    -0.081 Cl
HETATM    5  C14 UNL     1      66.569  27.328  24.975  1.00  0.00    -0.021 A 
HETATM    6  C15 UNL     1      65.202  27.622  25.524  1.00  0.00     0.051 C 
HETATM    7  C16 UNL     1      67.517  28.293  25.150  1.00  0.00     0.043 A 
HETATM    8  C18 UNL     1      68.792  28.078  24.666  1.00  0.00     0.088 A 
ENDROOT
BRANCH   1   9
HETATM    9  C10 UNL     1      70.474  26.621  23.498  1.00  0.00     0.072 C 
BRANCH   9  10
HETATM   10  C9  UNL     1      70.491  26.900  22.080  1.00  0.00    -0.020 C 
HETATM   11  C7  UNL     1      71.148  26.292  21.141  1.00  0.00    -0.087 C 
HETATM   12  C8  UNL     1      71.996  25.158  21.424  1.00  0.00     0.043 C 
BRANCH  11  13
HETATM   13  C6  UNL     1      71.040  26.728  19.717  1.00  0.00     0.037 C 
BRANCH  13  14
HETATM   14  C5  UNL     1      69.586  26.917  19.285  1.00  0.00     0.031 C 
BRANCH  14  15
HETATM   15  C4  UNL     1      69.137  25.808  18.428  1.00  0.00    -0.024 C 
HETATM   16  C2  UNL     1      68.102  25.053  18.658  1.00  0.00    -0.091 C 
HETATM   17  C1  UNL     1      67.764  23.949  17.683  1.00  0.00     0.042 C 
HETATM   18  C3  UNL     1      67.229  25.210  19.833  1.00  0.00     0.042 C 
ENDBRANCH  14  15
ENDBRANCH  13  14
ENDBRANCH  11  13
ENDBRANCH   9  10
ENDBRANCH   1   9
BRANCH   2  19
HETATM   19  O1  UNL     1      68.345  24.742  23.206  1.00  0.00    -0.358 OA
ATOM     20  H1  UNL     1      68.187  24.605  22.279  1.00  0.00     0.217 HD
ENDBRANCH   2  19
BRANCH   8  21
HETATM   21  O3  UNL     1      69.726  29.044  24.848  1.00  0.00    -0.359 OA
ATOM     22  H3  UNL     1      69.866  29.442  25.699  1.00  0.00     0.217 HD
ENDBRANCH   8  21
BRANCH   7  23
HETATM   23  C17 UNL     1      67.230  29.536  25.826  1.00  0.00     0.273 C 
HETATM   24  O2  UNL     1      67.384  30.636  25.260  1.00  0.00    -0.301 OA
ENDBRANCH   7  23
TORSDOF 8
ENDMDL
