MODEL 13
REMARK VINA RESULT: -7.783907502      1.674      2.114
REMARK  8 active torsions:
REMARK  status: ('A' for Active; 'I' for Inactive)
REMARK    1  A    between atoms: C4_4  and  C5_5 
REMARK    2  A    between atoms: C5_5  and  C6_6 
REMARK    3  A    between atoms: C6_6  and  C7_7 
REMARK    4  A    between atoms: C9_9  and  C10_10 
REMARK    5  A    between atoms: C10_10  and  C11_11 
REMARK    6  A    between atoms: C12_12  and  O1_13 
REMARK    7  A    between atoms: C16_19  and  C17_20 
REMARK    8  A    between atoms: C18_22  and  O3_23 
ROOT
HETATM    1  C11 UNL     1      68.219  26.061  22.510  1.00  0.00     0.014 A 
HETATM    2  C12 UNL     1      66.885  25.857  22.732  1.00  0.00     0.097 A 
HETATM    3  C13 UNL     1      66.229  26.451  23.811  1.00  0.00     0.074 A 
HETATM    4 CL1  UNL     1      64.526  26.191  24.096  1.00  0.00    -0.081 Cl
HETATM    5  C14 UNL     1      66.985  27.252  24.642  1.00  0.00    -0.021 A 
HETATM    6  C15 UNL     1      66.366  27.934  25.829  1.00  0.00     0.051 C 
HETATM    7  C16 UNL     1      68.316  27.470  24.440  1.00  0.00     0.043 A 
HETATM    8  C18 UNL     1      68.939  26.869  23.364  1.00  0.00     0.088 A 
ENDROOT
BRANCH   1   9
HETATM    9  C10 UNL     1      68.865  25.371  21.347  1.00  0.00     0.072 C 
BRANCH   9  10
HETATM   10  C9  UNL     1      69.211  26.371  20.364  1.00  0.00    -0.020 C 
HETATM   11  C7  UNL     1      70.354  26.578  19.784  1.00  0.00    -0.087 C 
HETATM   12  C8  UNL     1      71.504  25.750  20.063  1.00  0.00     0.043 C 
BRANCH  11  13
HETATM   13  C6  UNL     1      70.525  27.673  18.783  1.00  0.00     0.037 C 
BRANCH  13  14
HETATM   14  C5  UNL     1      70.326  27.177  17.351  1.00  0.00     0.031 C 
BRANCH  14  15
HETATM   15  C4  UNL     1      68.944  27.399  16.898  1.00  0.00    -0.024 C 
HETATM   16  C2  UNL     1      68.040  26.473  16.757  1.00  0.00    -0.091 C 
HETATM   17  C1  UNL     1      66.659  26.857  16.280  1.00  0.00     0.042 C 
HETATM   18  C3  UNL     1      68.290  25.049  17.036  1.00  0.00     0.042 C 
ENDBRANCH  14  15
ENDBRANCH  13  14
ENDBRANCH  11  13
ENDBRANCH   9  10
ENDBRANCH   1   9
BRANCH   2  19
HETATM   19  O1  UNL     1      66.086  25.067  21.925  1.00  0.00    -0.358 OA
ATOM     20  H1  UNL     1      65.473  24.423  22.260  1.00  0.00     0.217 HD
ENDBRANCH   2  19
BRANCH   8  21
HETATM   21  O3  UNL     1      70.263  27.091  23.175  1.00  0.00    -0.359 OA
ATOM     22  H3  UNL     1      70.827  27.358  23.891  1.00  0.00     0.217 HD
ENDBRANCH   8  21
BRANCH   7  23
HETATM   23  C17 UNL     1      69.097  28.311  25.315  1.00  0.00     0.273 C 
HETATM   24  O2  UNL     1      69.538  29.414  24.936  1.00  0.00    -0.301 OA
ENDBRANCH   7  23
TORSDOF 8
ENDMDL
