MODEL 10
REMARK VINA RESULT: -7.876579869      2.576      6.905
REMARK  8 active torsions:
REMARK  status: ('A' for Active; 'I' for Inactive)
REMARK    1  A    between atoms: C4_4  and  C5_5 
REMARK    2  A    between atoms: C5_5  and  C6_6 
REMARK    3  A    between atoms: C6_6  and  C7_7 
REMARK    4  A    between atoms: C9_9  and  C10_10 
REMARK    5  A    between atoms: C10_10  and  C11_11 
REMARK    6  A    between atoms: C12_12  and  O1_13 
REMARK    7  A    between atoms: C16_19  and  C17_20 
REMARK    8  A    between atoms: C18_22  and  O3_23 
ROOT
HETATM    1  C11 UNL     1      68.629  25.778  21.487  1.00  0.00     0.014 A 
HETATM    2  C12 UNL     1      69.648  26.675  21.326  1.00  0.00     0.097 A 
HETATM    3  C13 UNL     1      70.023  27.132  20.062  1.00  0.00     0.074 A 
HETATM    4 CL1  UNL     1      71.324  28.277  19.857  1.00  0.00    -0.081 Cl
HETATM    5  C14 UNL     1      69.320  26.639  18.983  1.00  0.00    -0.021 A 
HETATM    6  C15 UNL     1      69.650  27.072  17.583  1.00  0.00     0.051 C 
HETATM    7  C16 UNL     1      68.299  25.743  19.118  1.00  0.00     0.043 A 
HETATM    8  C18 UNL     1      67.950  25.309  20.382  1.00  0.00     0.088 A 
ENDROOT
BRANCH   1   9
HETATM    9  C10 UNL     1      68.297  25.311  22.871  1.00  0.00     0.072 C 
BRANCH   9  10
HETATM   10  C9  UNL     1      67.157  26.064  23.341  1.00  0.00    -0.020 C 
HETATM   11  C7  UNL     1      65.998  25.626  23.729  1.00  0.00    -0.087 C 
HETATM   12  C8  UNL     1      65.695  24.214  23.757  1.00  0.00     0.043 C 
BRANCH  11  13
HETATM   13  C6  UNL     1      64.931  26.566  24.185  1.00  0.00     0.037 C 
BRANCH  13  14
HETATM   14  C5  UNL     1      65.278  27.222  25.521  1.00  0.00     0.031 C 
BRANCH  14  15
HETATM   15  C4  UNL     1      65.552  28.658  25.354  1.00  0.00    -0.024 C 
HETATM   16  C2  UNL     1      66.714  29.224  25.503  1.00  0.00    -0.091 C 
HETATM   17  C1  UNL     1      66.839  30.716  25.298  1.00  0.00     0.042 C 
HETATM   18  C3  UNL     1      67.934  28.486  25.872  1.00  0.00     0.042 C 
ENDBRANCH  14  15
ENDBRANCH  13  14
ENDBRANCH  11  13
ENDBRANCH   9  10
ENDBRANCH   1   9
BRANCH   2  19
HETATM   19  O1  UNL     1      70.378  27.201  22.378  1.00  0.00    -0.358 OA
ATOM     20  H1  UNL     1      70.651  26.694  23.134  1.00  0.00     0.217 HD
ENDBRANCH   2  19
BRANCH   8  21
HETATM   21  O3  UNL     1      66.936  24.418  20.503  1.00  0.00    -0.359 OA
ATOM     22  H3  UNL     1      67.066  23.574  20.921  1.00  0.00     0.217 HD
ENDBRANCH   8  21
BRANCH   7  23
HETATM   23  C17 UNL     1      67.569  25.235  17.982  1.00  0.00     0.273 C 
HETATM   24  O2  UNL     1      67.632  24.034  17.650  1.00  0.00    -0.301 OA
ENDBRANCH   7  23
TORSDOF 8
ENDMDL
