MODEL 9
REMARK VINA RESULT: -8.062102440      2.408      6.270
REMARK  8 active torsions:
REMARK  status: ('A' for Active; 'I' for Inactive)
REMARK    1  A    between atoms: C4_4  and  C5_5 
REMARK    2  A    between atoms: C5_5  and  C6_6 
REMARK    3  A    between atoms: C6_6  and  C7_7 
REMARK    4  A    between atoms: C9_9  and  C10_10 
REMARK    5  A    between atoms: C10_10  and  C11_11 
REMARK    6  A    between atoms: C12_12  and  O1_13 
REMARK    7  A    between atoms: C16_19  and  C17_20 
REMARK    8  A    between atoms: C18_22  and  O3_23 
ROOT
HETATM    1  C11 UNL     1      68.090  25.466  21.271  1.00  0.00     0.014 A 
HETATM    2  C12 UNL     1      68.100  25.716  19.926  1.00  0.00     0.097 A 
HETATM    3  C13 UNL     1      69.116  26.468  19.334  1.00  0.00     0.074 A 
HETATM    4 CL1  UNL     1      69.130  26.786  17.617  1.00  0.00    -0.081 Cl
HETATM    5  C14 UNL     1      70.108  26.946  20.164  1.00  0.00    -0.021 A 
HETATM    6  C15 UNL     1      71.244  27.764  19.618  1.00  0.00     0.051 C 
HETATM    7  C16 UNL     1      70.119  26.709  21.508  1.00  0.00     0.043 A 
HETATM    8  C18 UNL     1      69.101  25.963  22.066  1.00  0.00     0.088 A 
ENDROOT
BRANCH   1   9
HETATM    9  C10 UNL     1      66.954  24.674  21.843  1.00  0.00     0.072 C 
BRANCH   9  10
HETATM   10  C9  UNL     1      66.060  25.589  22.516  1.00  0.00    -0.020 C 
HETATM   11  C7  UNL     1      65.688  25.593  23.759  1.00  0.00    -0.087 C 
HETATM   12  C8  UNL     1      66.180  24.614  24.699  1.00  0.00     0.043 C 
BRANCH  11  13
HETATM   13  C6  UNL     1      64.745  26.629  24.278  1.00  0.00     0.037 C 
BRANCH  13  14
HETATM   14  C5  UNL     1      65.209  27.207  25.614  1.00  0.00     0.031 C 
BRANCH  14  15
HETATM   15  C4  UNL     1      65.541  28.635  25.490  1.00  0.00    -0.024 C 
HETATM   16  C2  UNL     1      66.745  29.121  25.396  1.00  0.00    -0.091 C 
HETATM   17  C1  UNL     1      66.928  30.616  25.273  1.00  0.00     0.042 C 
HETATM   18  C3  UNL     1      67.959  28.287  25.406  1.00  0.00     0.042 C 
ENDBRANCH  14  15
ENDBRANCH  13  14
ENDBRANCH  11  13
ENDBRANCH   9  10
ENDBRANCH   1   9
BRANCH   2  19
HETATM   19  O1  UNL     1      67.130  25.253  19.054  1.00  0.00    -0.358 OA
ATOM     20  H1  UNL     1      66.908  25.685  18.238  1.00  0.00     0.217 HD
ENDBRANCH   2  19
BRANCH   8  21
HETATM   21  O3  UNL     1      69.122  25.736  23.402  1.00  0.00    -0.359 OA
ATOM     22  H3  UNL     1      69.807  26.096  23.954  1.00  0.00     0.217 HD
ENDBRANCH   8  21
BRANCH   7  23
HETATM   23  C17 UNL     1      71.164  27.214  22.367  1.00  0.00     0.273 C 
HETATM   24  O2  UNL     1      70.950  28.132  23.183  1.00  0.00    -0.301 OA
ENDBRANCH   7  23
TORSDOF 8
ENDMDL
