MODEL 8
REMARK VINA RESULT: -8.114802711      2.443      6.278
REMARK  8 active torsions:
REMARK  status: ('A' for Active; 'I' for Inactive)
REMARK    1  A    between atoms: C4_4  and  C5_5 
REMARK    2  A    between atoms: C5_5  and  C6_6 
REMARK    3  A    between atoms: C6_6  and  C7_7 
REMARK    4  A    between atoms: C9_9  and  C10_10 
REMARK    5  A    between atoms: C10_10  and  C11_11 
REMARK    6  A    between atoms: C12_12  and  O1_13 
REMARK    7  A    between atoms: C16_19  and  C17_20 
REMARK    8  A    between atoms: C18_22  and  O3_23 
ROOT
HETATM    1  C11 UNL     1      68.745  25.834  21.552  1.00  0.00     0.014 A 
HETATM    2  C12 UNL     1      68.103  25.411  20.420  1.00  0.00     0.097 A 
HETATM    3  C13 UNL     1      68.443  25.911  19.162  1.00  0.00     0.074 A 
HETATM    4 CL1  UNL     1      67.625  25.372  17.717  1.00  0.00    -0.081 Cl
HETATM    5  C14 UNL     1      69.454  26.848  19.112  1.00  0.00    -0.021 A 
HETATM    6  C15 UNL     1      69.891  27.443  17.803  1.00  0.00     0.051 C 
HETATM    7  C16 UNL     1      70.108  27.284  20.227  1.00  0.00     0.043 A 
HETATM    8  C18 UNL     1      69.750  26.773  21.458  1.00  0.00     0.088 A 
ENDROOT
BRANCH   1   9
HETATM    9  C10 UNL     1      68.310  25.274  22.872  1.00  0.00     0.072 C 
BRANCH   9  10
HETATM   10  C9  UNL     1      67.174  26.039  23.334  1.00  0.00    -0.020 C 
HETATM   11  C7  UNL     1      66.007  25.612  23.709  1.00  0.00    -0.087 C 
HETATM   12  C8  UNL     1      65.687  24.204  23.728  1.00  0.00     0.043 C 
BRANCH  11  13
HETATM   13  C6  UNL     1      64.946  26.562  24.158  1.00  0.00     0.037 C 
BRANCH  13  14
HETATM   14  C5  UNL     1      65.288  27.211  25.499  1.00  0.00     0.031 C 
BRANCH  14  15
HETATM   15  C4  UNL     1      65.557  28.649  25.341  1.00  0.00    -0.024 C 
HETATM   16  C2  UNL     1      66.717  29.218  25.497  1.00  0.00    -0.091 C 
HETATM   17  C1  UNL     1      66.838  30.712  25.301  1.00  0.00     0.042 C 
HETATM   18  C3  UNL     1      67.939  28.482  25.865  1.00  0.00     0.042 C 
ENDBRANCH  14  15
ENDBRANCH  13  14
ENDBRANCH  11  13
ENDBRANCH   9  10
ENDBRANCH   1   9
BRANCH   2  19
HETATM   19  O1  UNL     1      67.088  24.471  20.421  1.00  0.00    -0.358 OA
ATOM     20  H1  UNL     1      67.192  23.584  20.098  1.00  0.00     0.217 HD
ENDBRANCH   2  19
BRANCH   8  21
HETATM   21  O3  UNL     1      70.406  27.215  22.559  1.00  0.00    -0.359 OA
ATOM     22  H3  UNL     1      70.519  26.662  23.323  1.00  0.00     0.217 HD
ENDBRANCH   8  21
BRANCH   7  23
HETATM   23  C17 UNL     1      71.166  28.265  20.162  1.00  0.00     0.273 C 
HETATM   24  O2  UNL     1      71.136  29.302  20.853  1.00  0.00    -0.301 OA
ENDBRANCH   7  23
TORSDOF 8
ENDMDL
