MODEL 2
REMARK VINA RESULT: -9.129540603      1.197      1.534
REMARK  8 active torsions:
REMARK  status: ('A' for Active; 'I' for Inactive)
REMARK    1  A    between atoms: C4_4  and  C5_5 
REMARK    2  A    between atoms: C5_5  and  C6_6 
REMARK    3  A    between atoms: C6_6  and  C7_7 
REMARK    4  A    between atoms: C9_9  and  C10_10 
REMARK    5  A    between atoms: C10_10  and  C11_11 
REMARK    6  A    between atoms: C12_12  and  O1_13 
REMARK    7  A    between atoms: C16_19  and  C17_20 
REMARK    8  A    between atoms: C18_22  and  O3_23 
ROOT
HETATM    1  C11 UNL     1      69.154  27.079  24.021  1.00  0.00     0.014 A 
HETATM    2  C12 UNL     1      68.238  26.071  23.895  1.00  0.00     0.097 A 
HETATM    3  C13 UNL     1      66.951  26.189  24.421  1.00  0.00     0.074 A 
HETATM    4 CL1  UNL     1      65.781  24.903  24.260  1.00  0.00    -0.081 Cl
HETATM    5  C14 UNL     1      66.644  27.366  25.071  1.00  0.00    -0.021 A 
HETATM    6  C15 UNL     1      65.283  27.586  25.669  1.00  0.00     0.051 C 
HETATM    7  C16 UNL     1      67.541  28.385  25.209  1.00  0.00     0.043 A 
HETATM    8  C18 UNL     1      68.808  28.240  24.679  1.00  0.00     0.088 A 
ENDROOT
BRANCH   1   9
HETATM    9  C10 UNL     1      70.527  26.874  23.456  1.00  0.00     0.072 C 
BRANCH   9  10
HETATM   10  C9  UNL     1      70.541  27.392  22.106  1.00  0.00    -0.020 C 
HETATM   11  C7  UNL     1      71.029  26.848  21.034  1.00  0.00    -0.087 C 
HETATM   12  C8  UNL     1      71.649  25.544  21.062  1.00  0.00     0.043 C 
BRANCH  11  13
HETATM   13  C6  UNL     1      70.952  27.542  19.713  1.00  0.00     0.037 C 
BRANCH  13  14
HETATM   14  C5  UNL     1      70.113  26.760  18.704  1.00  0.00     0.031 C 
BRANCH  14  15
HETATM   15  C4  UNL     1      69.840  27.563  17.502  1.00  0.00    -0.024 C 
HETATM   16  C2  UNL     1      68.810  27.420  16.719  1.00  0.00    -0.091 C 
HETATM   17  C1  UNL     1      68.666  28.324  15.518  1.00  0.00     0.042 C 
HETATM   18  C3  UNL     1      67.761  26.408  16.937  1.00  0.00     0.042 C 
ENDBRANCH  14  15
ENDBRANCH  13  14
ENDBRANCH  11  13
ENDBRANCH   9  10
ENDBRANCH   1   9
BRANCH   2  19
HETATM   19  O1  UNL     1      68.499  24.876  23.248  1.00  0.00    -0.358 OA
ATOM     20  H1  UNL     1      68.831  24.821  22.359  1.00  0.00     0.217 HD
ENDBRANCH   2  19
BRANCH   8  21
HETATM   21  O3  UNL     1      69.691  29.258  24.824  1.00  0.00    -0.359 OA
ATOM     22  H3  UNL     1      69.942  29.577  25.683  1.00  0.00     0.217 HD
ENDBRANCH   8  21
BRANCH   7  23
HETATM   23  C17 UNL     1      67.208  29.613  25.890  1.00  0.00     0.273 C 
HETATM   24  O2  UNL     1      67.271  30.717  25.313  1.00  0.00    -0.301 OA
ENDBRANCH   7  23
TORSDOF 8
ENDMDL
