MODEL 1
REMARK VINA RESULT: -6.888680130      0.000      0.000
REMARK  4 active torsions:
REMARK  status: ('A' for Active; 'I' for Inactive)
REMARK    1  A    between atoms: C3_4  and  O2_5 
REMARK    2  A    between atoms: C4_7  and  O3_8 
REMARK    3  A    between atoms: C5_10  and  O4_11 
REMARK    4  A    between atoms: C6_13  and  O5_14 
ROOT
HETATM    1  C1  UNL     1      23.900   3.598  32.177  1.00  0.00     0.042 C 
HETATM    2  C2  UNL     1      24.164   3.575  30.667  1.00  0.00     0.152 C 
HETATM    3  O1  UNL     1      24.829   2.448  30.374  1.00  0.00    -0.351 OA
HETATM    4  C3  UNL     1      25.506   2.332  29.222  1.00  0.00     0.288 C 
HETATM    5  C4  UNL     1      26.185   3.557  28.709  1.00  0.00     0.204 C 
HETATM    6  C5  UNL     1      25.164   4.698  28.776  1.00  0.00     0.182 C 
HETATM    7  C6  UNL     1      24.937   4.839  30.288  1.00  0.00     0.178 C 
ENDROOT
BRANCH   4   8
HETATM    8  O2  UNL     1      24.750   1.800  28.151  1.00  0.00    -0.369 OA
ATOM      9  H2  UNL     1      24.267   2.449  27.652  1.00  0.00     0.212 HD
ENDBRANCH   4   8
BRANCH   5  10
HETATM   10  O3  UNL     1      27.189   3.908  29.629  1.00  0.00    -0.388 OA
ATOM     11  H3  UNL     1      27.215   4.856  29.681  1.00  0.00     0.210 HD
ENDBRANCH   5  10
BRANCH   6  12
HETATM   12  O4  UNL     1      25.626   5.853  28.206  1.00  0.00    -0.390 OA
ATOM     13  H4  UNL     1      25.853   6.513  28.850  1.00  0.00     0.210 HD
ENDBRANCH   6  12
BRANCH   7  14
HETATM   14  O5  UNL     1      24.279   5.987  30.618  1.00  0.00    -0.390 OA
ATOM     15  H5  UNL     1      24.394   6.680  29.978  1.00  0.00     0.210 HD
ENDBRANCH   7  14
TORSDOF 4
ENDMDL
