MODEL 9
REMARK VINA RESULT: -3.858225131      3.062      4.837
REMARK  4 active torsions:
REMARK  status: ('A' for Active; 'I' for Inactive)
REMARK    1  A    between atoms: C3_4  and  O2_5 
REMARK    2  A    between atoms: C4_7  and  O3_8 
REMARK    3  A    between atoms: C5_10  and  O4_11 
REMARK    4  A    between atoms: C6_13  and  O5_14 
ROOT
HETATM    1  C1  UNL     1      24.790   2.605  29.976  1.00  0.00     0.042 C 
HETATM    2  C2  UNL     1      23.898   1.542  29.323  1.00  0.00     0.152 C 
HETATM    3  O1  UNL     1      23.182   0.946  30.287  1.00  0.00    -0.351 OA
HETATM    4  C3  UNL     1      22.604  -0.246  30.074  1.00  0.00     0.288 C 
HETATM    5  C4  UNL     1      23.348  -1.217  29.220  1.00  0.00     0.204 C 
HETATM    6  C5  UNL     1      23.804  -0.457  27.968  1.00  0.00     0.182 C 
HETATM    7  C6  UNL     1      24.789   0.566  28.552  1.00  0.00     0.178 C 
ENDROOT
BRANCH   4   8
HETATM    8  O2  UNL     1      21.287  -0.173  29.563  1.00  0.00    -0.369 OA
ATOM      9  H2  UNL     1      20.606  -0.304  30.213  1.00  0.00     0.212 HD
ENDBRANCH   4   8
BRANCH   5  10
HETATM   10  O3  UNL     1      24.534  -1.559  29.893  1.00  0.00    -0.388 OA
ATOM     11  H3  UNL     1      24.701  -2.481  29.736  1.00  0.00     0.210 HD
ENDBRANCH   5  10
BRANCH   6  12
HETATM   12  O4  UNL     1      24.387  -1.273  27.039  1.00  0.00    -0.390 OA
ATOM     13  H4  UNL     1      23.791  -1.519  26.342  1.00  0.00     0.210 HD
ENDBRANCH   6  12
BRANCH   7  14
HETATM   14  O5  UNL     1      25.547   1.174  27.597  1.00  0.00    -0.390 OA
ATOM     15  H5  UNL     1      25.457   0.775  26.739  1.00  0.00     0.210 HD
ENDBRANCH   7  14
TORSDOF 4
ENDMDL
