MODEL 8
REMARK VINA RESULT: -3.941887563      4.649      6.394
REMARK  4 active torsions:
REMARK  status: ('A' for Active; 'I' for Inactive)
REMARK    1  A    between atoms: C3_4  and  O2_5 
REMARK    2  A    between atoms: C4_7  and  O3_8 
REMARK    3  A    between atoms: C5_10  and  O4_11 
REMARK    4  A    between atoms: C6_13  and  O5_14 
ROOT
HETATM    1  C1  UNL     1      21.620  -3.234  27.703  1.00  0.00     0.042 C 
HETATM    2  C2  UNL     1      22.941  -2.613  28.174  1.00  0.00     0.152 C 
HETATM    3  O1  UNL     1      22.700  -1.919  29.296  1.00  0.00    -0.351 OA
HETATM    4  C3  UNL     1      23.563  -0.985  29.722  1.00  0.00     0.288 C 
HETATM    5  C4  UNL     1      24.258  -0.177  28.678  1.00  0.00     0.204 C 
HETATM    6  C5  UNL     1      24.795  -1.161  27.632  1.00  0.00     0.182 C 
HETATM    7  C6  UNL     1      23.501  -1.746  27.045  1.00  0.00     0.178 C 
ENDROOT
BRANCH   4   8
HETATM    8  O2  UNL     1      24.561  -1.470  30.600  1.00  0.00    -0.369 OA
ATOM      9  H2  UNL     1      24.368  -1.344  31.522  1.00  0.00     0.212 HD
ENDBRANCH   4   8
BRANCH   5  10
HETATM   10  O3  UNL     1      23.284   0.580  28.004  1.00  0.00    -0.388 OA
ATOM     11  H3  UNL     1      22.984   0.070  27.261  1.00  0.00     0.210 HD
ENDBRANCH   5  10
BRANCH   6  12
HETATM   12  O4  UNL     1      25.570  -0.552  26.685  1.00  0.00    -0.390 OA
ATOM     13  H4  UNL     1      25.085  -0.341  25.895  1.00  0.00     0.210 HD
ENDBRANCH   6  12
BRANCH   7  14
HETATM   14  O5  UNL     1      23.712  -2.440  25.892  1.00  0.00    -0.390 OA
ATOM     15  H5  UNL     1      24.590  -2.798  25.827  1.00  0.00     0.210 HD
ENDBRANCH   7  14
TORSDOF 4
ENDMDL
