MODEL 6
REMARK VINA RESULT: -4.269352426      3.669      5.476
REMARK  4 active torsions:
REMARK  status: ('A' for Active; 'I' for Inactive)
REMARK    1  A    between atoms: C3_4  and  O2_5 
REMARK    2  A    between atoms: C4_7  and  O3_8 
REMARK    3  A    between atoms: C5_10  and  O4_11 
REMARK    4  A    between atoms: C6_13  and  O5_14 
ROOT
HETATM    1  C1  UNL     1      24.450   1.662  29.917  1.00  0.00     0.042 C 
HETATM    2  C2  UNL     1      23.588   0.834  28.956  1.00  0.00     0.152 C 
HETATM    3  O1  UNL     1      22.697   0.143  29.682  1.00  0.00    -0.351 OA
HETATM    4  C3  UNL     1      22.071  -0.924  29.163  1.00  0.00     0.288 C 
HETATM    5  C4  UNL     1      22.858  -1.787  28.235  1.00  0.00     0.204 C 
HETATM    6  C5  UNL     1      23.545  -0.856  27.229  1.00  0.00     0.182 C 
HETATM    7  C6  UNL     1      24.507  -0.064  28.127  1.00  0.00     0.178 C 
ENDROOT
BRANCH   4   8
HETATM    8  O2  UNL     1      20.850  -0.625  28.512  1.00  0.00    -0.369 OA
ATOM      9  H2  UNL     1      20.257  -0.083  29.019  1.00  0.00     0.212 HD
ENDBRANCH   4   8
BRANCH   5  10
HETATM   10  O3  UNL     1      23.905  -2.366  28.974  1.00  0.00    -0.388 OA
ATOM     11  H3  UNL     1      24.282  -3.061  28.446  1.00  0.00     0.210 HD
ENDBRANCH   5  10
BRANCH   6  12
HETATM   12  O4  UNL     1      24.196  -1.538  26.239  1.00  0.00    -0.390 OA
ATOM     13  H4  UNL     1      24.542  -0.964  25.566  1.00  0.00     0.210 HD
ENDBRANCH   6  12
BRANCH   7  14
HETATM   14  O5  UNL     1      25.439   0.633  27.418  1.00  0.00    -0.390 OA
ATOM     15  H5  UNL     1      25.223   0.712  26.496  1.00  0.00     0.210 HD
ENDBRANCH   7  14
TORSDOF 4
ENDMDL
