MODEL 4
REMARK VINA RESULT: -7.191051596      1.663      5.756
REMARK  5 active torsions:
REMARK  status: ('A' for Active; 'I' for Inactive)
REMARK    1  A    between atoms: C9_10  and  O2_11 
REMARK    2  A    between atoms: C9_10  and  C10_13 
REMARK    3  A    between atoms: C10_13  and  C11_14 
REMARK    4  A    between atoms: C11_14  and  C12_15 
REMARK    5  A    between atoms: C14_17  and  C15_18 
ROOT
HETATM    1  C1  UNL     1      39.617 -43.944  -5.341  1.00  0.00     0.046 C 
HETATM    2  C2  UNL     1      39.165 -43.095  -6.501  1.00  0.00    -0.045 C 
HETATM    3  C3  UNL     1      39.998 -42.300  -7.103  1.00  0.00     0.055 C 
HETATM    4  C4  UNL     1      39.588 -41.467  -8.227  1.00  0.00     0.150 C 
HETATM    5  O1  UNL     1      40.332 -41.110  -9.158  1.00  0.00    -0.293 OA
HETATM    6  C5  UNL     1      38.162 -41.055  -8.184  1.00  0.00     0.095 C 
HETATM    7  C6  UNL     1      37.364 -42.330  -8.072  1.00  0.00    -0.005 C 
HETATM    8  C7  UNL     1      35.886 -41.932  -8.022  1.00  0.00     0.019 C 
HETATM    9  C8  UNL     1      37.563 -43.047  -9.415  1.00  0.00     0.019 C 
HETATM   10  C9  UNL     1      37.703 -43.229  -6.937  1.00  0.00     0.098 C 
ENDROOT
BRANCH  10  11
HETATM   11  O2  UNL     1      37.013 -42.896  -5.796  1.00  0.00    -0.384 OA
ATOM     12  H2  UNL     1      36.325 -43.550  -5.767  1.00  0.00     0.211 HD
ENDBRANCH  10  11
BRANCH  10  13
HETATM   13  C10 UNL     1      37.521 -44.651  -7.337  1.00  0.00     0.129 C 
BRANCH  13  14
HETATM   14  C11 UNL     1      37.465 -45.750  -6.767  1.00  0.00    -0.145 C 
BRANCH  14  15
HETATM   15  C12 UNL     1      37.405 -46.978  -6.129  1.00  0.00    -0.015 C 
HETATM   16  C13 UNL     1      36.624 -47.199  -4.774  1.00  0.00     0.057 C 
HETATM   17  C14 UNL     1      37.943 -48.106  -6.520  1.00  0.00     0.099 C 
BRANCH  17  18
HETATM   18  C15 UNL     1      38.704 -48.225  -7.715  1.00  0.00     0.199 C 
HETATM   19  O3  UNL     1      38.301 -48.395  -8.850  1.00  0.00    -0.644 OA
HETATM   20  O4  UNL     1      40.107 -48.134  -7.569  1.00  0.00    -0.644 OA
ENDBRANCH  17  18
ENDBRANCH  14  15
ENDBRANCH  13  14
ENDBRANCH  10  13
TORSDOF 5
ENDMDL
