MODEL 5
REMARK VINA RESULT: -7.137004628      1.798      5.232
REMARK  5 active torsions:
REMARK  status: ('A' for Active; 'I' for Inactive)
REMARK    1  A    between atoms: C9_10  and  O2_11 
REMARK    2  A    between atoms: C9_10  and  C10_13 
REMARK    3  A    between atoms: C10_13  and  C11_14 
REMARK    4  A    between atoms: C11_14  and  C12_15 
REMARK    5  A    between atoms: C14_17  and  C15_18 
ROOT
HETATM    1  C1  UNL     1      38.209 -44.934  -3.876  1.00  0.00     0.046 C 
HETATM    2  C2  UNL     1      38.351 -43.959  -5.017  1.00  0.00    -0.045 C 
HETATM    3  C3  UNL     1      39.468 -43.325  -5.210  1.00  0.00     0.055 C 
HETATM    4  C4  UNL     1      39.633 -42.376  -6.304  1.00  0.00     0.150 C 
HETATM    5  O1  UNL     1      40.707 -42.136  -6.884  1.00  0.00    -0.293 OA
HETATM    6  C5  UNL     1      38.379 -41.684  -6.697  1.00  0.00     0.095 C 
HETATM    7  C6  UNL     1      37.382 -42.773  -7.005  1.00  0.00    -0.005 C 
HETATM    8  C7  UNL     1      36.075 -42.085  -7.411  1.00  0.00     0.019 C 
HETATM    9  C8  UNL     1      37.912 -43.454  -8.274  1.00  0.00     0.019 C 
HETATM   10  C9  UNL     1      37.136 -43.772  -5.931  1.00  0.00     0.098 C 
ENDROOT
BRANCH  10  11
HETATM   11  O2  UNL     1      36.159 -43.357  -5.060  1.00  0.00    -0.384 OA
ATOM     12  H2  UNL     1      35.395 -43.281  -5.619  1.00  0.00     0.211 HD
ENDBRANCH  10  11
BRANCH  10  13
HETATM   13  C10 UNL     1      36.860 -45.107  -6.528  1.00  0.00     0.129 C 
BRANCH  13  14
HETATM   14  C11 UNL     1      37.449 -46.195  -6.619  1.00  0.00    -0.145 C 
BRANCH  14  15
HETATM   15  C12 UNL     1      38.107 -47.409  -6.721  1.00  0.00    -0.015 C 
HETATM   16  C13 UNL     1      37.570 -48.731  -6.044  1.00  0.00     0.057 C 
HETATM   17  C14 UNL     1      39.218 -47.662  -7.366  1.00  0.00     0.099 C 
BRANCH  17  18
HETATM   18  C15 UNL     1      39.936 -46.667  -8.086  1.00  0.00     0.199 C 
HETATM   19  O3  UNL     1      40.504 -45.685  -7.649  1.00  0.00    -0.644 OA
HETATM   20  O4  UNL     1      39.996 -46.839  -9.488  1.00  0.00    -0.644 OA
ENDBRANCH  17  18
ENDBRANCH  14  15
ENDBRANCH  13  14
ENDBRANCH  10  13
TORSDOF 5
ENDMDL
