MODEL 1
REMARK VINA RESULT: -7.592265449      0.000      0.000
REMARK  5 active torsions:
REMARK  status: ('A' for Active; 'I' for Inactive)
REMARK    1  A    between atoms: C9_10  and  O2_11 
REMARK    2  A    between atoms: C9_10  and  C10_13 
REMARK    3  A    between atoms: C10_13  and  C11_14 
REMARK    4  A    between atoms: C11_14  and  C12_15 
REMARK    5  A    between atoms: C14_17  and  C15_18 
ROOT
HETATM    1  C1  UNL     1      37.058 -44.953  -5.226  1.00  0.00     0.046 C 
HETATM    2  C2  UNL     1      37.469 -46.160  -6.031  1.00  0.00    -0.045 C 
HETATM    3  C3  UNL     1      37.158 -47.357  -5.634  1.00  0.00     0.055 C 
HETATM    4  C4  UNL     1      37.542 -48.541  -6.392  1.00  0.00     0.150 C 
HETATM    5  O1  UNL     1      36.903 -49.607  -6.421  1.00  0.00    -0.293 OA
HETATM    6  C5  UNL     1      38.804 -48.383  -7.159  1.00  0.00     0.095 C 
HETATM    7  C6  UNL     1      38.613 -47.163  -8.026  1.00  0.00    -0.005 C 
HETATM    8  C7  UNL     1      39.905 -46.975  -8.827  1.00  0.00     0.019 C 
HETATM    9  C8  UNL     1      37.538 -47.561  -9.046  1.00  0.00     0.019 C 
HETATM   10  C9  UNL     1      38.242 -45.903  -7.329  1.00  0.00     0.098 C 
ENDROOT
BRANCH  10  11
HETATM   11  O2  UNL     1      39.347 -45.214  -6.894  1.00  0.00    -0.384 OA
ATOM     12  H2  UNL     1      39.963 -45.329  -7.608  1.00  0.00     0.211 HD
ENDBRANCH  10  11
BRANCH  10  13
HETATM   13  C10 UNL     1      37.344 -45.087  -8.190  1.00  0.00     0.129 C 
BRANCH  13  14
HETATM   14  C11 UNL     1      37.003 -43.898  -8.268  1.00  0.00    -0.145 C 
BRANCH  14  15
HETATM   15  C12 UNL     1      36.621 -42.569  -8.354  1.00  0.00    -0.015 C 
HETATM   16  C13 UNL     1      35.232 -42.117  -8.952  1.00  0.00     0.057 C 
HETATM   17  C14 UNL     1      37.301 -41.518  -7.969  1.00  0.00     0.099 C 
BRANCH  17  18
HETATM   18  C15 UNL     1      38.593 -41.608  -7.380  1.00  0.00     0.199 C 
HETATM   19  O3  UNL     1      39.664 -41.756  -7.935  1.00  0.00    -0.644 OA
HETATM   20  O4  UNL     1      38.639 -41.513  -5.971  1.00  0.00    -0.644 OA
ENDBRANCH  17  18
ENDBRANCH  14  15
ENDBRANCH  13  14
ENDBRANCH  10  13
TORSDOF 5
ENDMDL
