MODEL 10
REMARK VINA RESULT: -7.023149211      1.539      1.822
REMARK  5 active torsions:
REMARK  status: ('A' for Active; 'I' for Inactive)
REMARK    1  A    between atoms: C9_10  and  O2_11 
REMARK    2  A    between atoms: C9_10  and  C10_13 
REMARK    3  A    between atoms: C10_13  and  C11_14 
REMARK    4  A    between atoms: C11_14  and  C12_15 
REMARK    5  A    between atoms: C14_17  and  C15_18 
ROOT
HETATM    1  C1  UNL     1      36.706 -45.459  -4.779  1.00  0.00     0.046 C 
HETATM    2  C2  UNL     1      37.053 -46.633  -5.658  1.00  0.00    -0.045 C 
HETATM    3  C3  UNL     1      36.335 -47.715  -5.630  1.00  0.00     0.055 C 
HETATM    4  C4  UNL     1      36.647 -48.866  -6.468  1.00  0.00     0.150 C 
HETATM    5  O1  UNL     1      35.811 -49.676  -6.907  1.00  0.00    -0.293 OA
HETATM    6  C5  UNL     1      38.092 -49.015  -6.774  1.00  0.00     0.095 C 
HETATM    7  C6  UNL     1      38.525 -47.705  -7.385  1.00  0.00    -0.005 C 
HETATM    8  C7  UNL     1      40.016 -47.830  -7.708  1.00  0.00     0.019 C 
HETATM    9  C8  UNL     1      37.804 -47.636  -8.738  1.00  0.00     0.019 C 
HETATM   10  C9  UNL     1      38.264 -46.479  -6.583  1.00  0.00     0.098 C 
ENDROOT
BRANCH  10  11
HETATM   11  O2  UNL     1      39.286 -46.214  -5.706  1.00  0.00    -0.384 OA
ATOM     12  H2  UNL     1      39.712 -45.462  -6.099  1.00  0.00     0.211 HD
ENDBRANCH  10  11
BRANCH  10  13
HETATM   13  C10 UNL     1      37.953 -45.336  -7.483  1.00  0.00     0.129 C 
BRANCH  13  14
HETATM   14  C11 UNL     1      38.339 -44.166  -7.623  1.00  0.00    -0.145 C 
BRANCH  14  15
HETATM   15  C12 UNL     1      38.770 -42.859  -7.778  1.00  0.00    -0.015 C 
HETATM   16  C13 UNL     1      38.329 -41.953  -8.994  1.00  0.00     0.057 C 
HETATM   17  C14 UNL     1      39.563 -42.182  -6.986  1.00  0.00     0.099 C 
BRANCH  17  18
HETATM   18  C15 UNL     1      40.118 -42.731  -5.797  1.00  0.00     0.199 C 
HETATM   19  O3  UNL     1      39.548 -43.342  -4.913  1.00  0.00    -0.644 OA
HETATM   20  O4  UNL     1      41.507 -42.544  -5.618  1.00  0.00    -0.644 OA
ENDBRANCH  17  18
ENDBRANCH  14  15
ENDBRANCH  13  14
ENDBRANCH  10  13
TORSDOF 5
ENDMDL
