MODEL 6
REMARK VINA RESULT: -7.112047273      3.331      5.330
REMARK  5 active torsions:
REMARK  status: ('A' for Active; 'I' for Inactive)
REMARK    1  A    between atoms: C9_10  and  O2_11 
REMARK    2  A    between atoms: C9_10  and  C10_13 
REMARK    3  A    between atoms: C10_13  and  C11_14 
REMARK    4  A    between atoms: C11_14  and  C12_15 
REMARK    5  A    between atoms: C14_17  and  C15_18 
ROOT
HETATM    1  C1  UNL     1      36.036 -49.504  -6.846  1.00  0.00     0.046 C 
HETATM    2  C2  UNL     1      34.983 -49.337  -7.913  1.00  0.00    -0.045 C 
HETATM    3  C3  UNL     1      33.723 -49.310  -7.600  1.00  0.00     0.055 C 
HETATM    4  C4  UNL     1      32.685 -49.151  -8.611  1.00  0.00     0.150 C 
HETATM    5  O1  UNL     1      31.582 -48.607  -8.421  1.00  0.00    -0.293 OA
HETATM    6  C5  UNL     1      33.046 -49.706  -9.940  1.00  0.00     0.095 C 
HETATM    7  C6  UNL     1      34.350 -49.051 -10.324  1.00  0.00    -0.005 C 
HETATM    8  C7  UNL     1      34.747 -49.610 -11.693  1.00  0.00     0.019 C 
HETATM    9  C8  UNL     1      34.002 -47.574 -10.556  1.00  0.00     0.019 C 
HETATM   10  C9  UNL     1      35.472 -49.186  -9.357  1.00  0.00     0.098 C 
ENDROOT
BRANCH  10  11
HETATM   11  O2  UNL     1      36.187 -50.340  -9.560  1.00  0.00    -0.384 OA
ATOM     12  H2  UNL     1      36.845 -50.073 -10.191  1.00  0.00     0.211 HD
ENDBRANCH  10  11
BRANCH  10  13
HETATM   13  C10 UNL     1      36.317 -47.961  -9.381  1.00  0.00     0.129 C 
BRANCH  13  14
HETATM   14  C11 UNL     1      37.052 -47.356  -8.587  1.00  0.00    -0.145 C 
BRANCH  14  15
HETATM   15  C12 UNL     1      37.875 -46.681  -7.700  1.00  0.00    -0.015 C 
HETATM   16  C13 UNL     1      37.315 -45.824  -6.499  1.00  0.00     0.057 C 
HETATM   17  C14 UNL     1      39.184 -46.645  -7.698  1.00  0.00     0.099 C 
BRANCH  17  18
HETATM   18  C15 UNL     1      39.977 -47.332  -8.658  1.00  0.00     0.199 C 
HETATM   19  O3  UNL     1      40.433 -48.457  -8.591  1.00  0.00    -0.644 OA
HETATM   20  O4  UNL     1      40.274 -46.618  -9.841  1.00  0.00    -0.644 OA
ENDBRANCH  17  18
ENDBRANCH  14  15
ENDBRANCH  13  14
ENDBRANCH  10  13
TORSDOF 5
ENDMDL
