MODEL 10
REMARK VINA RESULT: -9.299053106      2.527     10.243
REMARK  15 active torsions:
REMARK  status: ('A' for Active; 'I' for Inactive)
REMARK    1  A    between atoms: C1_2  and  C2_4 
REMARK    2  A    between atoms: N2_6  and  C4_7 
REMARK    3  A    between atoms: C5_9  and  C6_10 
REMARK    4  A    between atoms: C6_10  and  O3_11 
REMARK    5  A    between atoms: O3_11  and  P1_12 
REMARK    6  A    between atoms: P1_12  and  O6_15 
REMARK    7  A    between atoms: O6_15  and  P2_16 
REMARK    8  A    between atoms: P2_16  and  O9_19 
REMARK    9  A    between atoms: O9_19  and  C7_20 
REMARK   10  A    between atoms: C7_20  and  C8_21 
REMARK   11  A    between atoms: C9_23  and  N3_24 
REMARK   12  A    between atoms: C15_37  and  O11_38 
REMARK   13  A    between atoms: C16_40  and  O12_41 
REMARK   14  A    between atoms: C17_43  and  O13_44 
REMARK   15  A    between atoms: C18_46  and  O14_47 
ROOT
HETATM    1  P2  UNL     1       3.692  26.215  14.621  1.00  0.00     0.417 P 
HETATM    2  O7  UNL     1       2.897  27.630  15.010  1.00  0.00    -0.624 OA
HETATM    3  O8  UNL     1       4.447  25.399  15.813  1.00  0.00    -0.624 OA
ENDROOT
BRANCH   1   4
HETATM    4  O6  UNL     1       4.931  27.035  14.281  1.00  0.00    -0.180 OA
BRANCH   4   5
HETATM    5  P1  UNL     1       6.433  26.443  14.089  1.00  0.00     0.417 P 
HETATM    6  O4  UNL     1       6.847  25.604  12.736  1.00  0.00    -0.624 OA
HETATM    7  O5  UNL     1       6.964  27.819  13.677  1.00  0.00    -0.624 OA
BRANCH   5   8
HETATM    8  O3  UNL     1       7.539  26.475  15.361  1.00  0.00    -0.287 OA
BRANCH   8   9
HETATM    9  C6  UNL     1       8.655  25.828  14.905  1.00  0.00     0.216 C 
BRANCH   9  10
HETATM   10  C5  UNL     1       8.998  24.607  15.725  1.00  0.00     0.180 C 
HETATM   11  O2  UNL     1       9.936  24.858  16.685  1.00  0.00    -0.353 OA
HETATM   12  C4  UNL     1       9.337  24.874  17.956  1.00  0.00     0.259 C 
HETATM   13  C18 UNL     1       7.887  24.816  17.748  1.00  0.00     0.198 C 
HETATM   14  C17 UNL     1       7.802  24.046  16.442  1.00  0.00     0.182 C 
BRANCH  12  15
HETATM   15  N2  UNL     1       9.958  23.939  18.836  1.00  0.00    -0.337 N 
HETATM   16  C3  UNL     1      10.199  24.338  20.207  1.00  0.00     0.105 A 
HETATM   17  C2  UNL     1      10.767  23.535  21.036  1.00  0.00     0.026 A 
HETATM   18  C21 UNL     1      11.227  22.169  20.723  1.00  0.00     0.073 A 
HETATM   19  C20 UNL     1      10.965  21.812  19.336  1.00  0.00    -0.005 A 
HETATM   20  C19 UNL     1      10.374  22.649  18.475  1.00  0.00     0.089 A 
BRANCH  17  21
HETATM   21  C1  UNL     1      10.973  24.039  22.426  1.00  0.00     0.262 C 
HETATM   22  N1  UNL     1      10.286  25.186  22.834  1.00  0.00    -0.057 NA
HETATM   23  O1  UNL     1      11.745  23.453  23.220  1.00  0.00    -0.271 OA
ENDBRANCH  17  21
ENDBRANCH  12  15
BRANCH  13  24
HETATM   24  O14 UNL     1       7.070  24.339  18.712  1.00  0.00    -0.388 OA
ATOM     25  H14 UNL     1       6.673  23.480  18.631  1.00  0.00     0.210 HD
ENDBRANCH  13  24
BRANCH  14  26
HETATM   26  O13 UNL     1       7.885  22.689  16.565  1.00  0.00    -0.390 OA
ATOM     27  H13 UNL     1       7.026  22.297  16.678  1.00  0.00     0.210 HD
ENDBRANCH  14  26
ENDBRANCH   9  10
ENDBRANCH   8   9
ENDBRANCH   5   8
ENDBRANCH   4   5
ENDBRANCH   1   4
BRANCH   1  28
HETATM   28  O9  UNL     1       3.617  25.594  13.096  1.00  0.00    -0.287 OA
BRANCH  28  29
HETATM   29  C7  UNL     1       3.267  24.275  13.131  1.00  0.00     0.216 C 
BRANCH  29  30
HETATM   30  C8  UNL     1       2.198  23.948  12.078  1.00  0.00     0.180 C 
HETATM   31  O10 UNL     1       1.775  22.656  12.172  1.00  0.00    -0.353 OA
HETATM   32  C9  UNL     1       0.415  22.618  12.349  1.00  0.00     0.262 C 
HETATM   33  C15 UNL     1       0.179  23.835  13.232  1.00  0.00     0.198 C 
HETATM   34  C16 UNL     1       1.019  24.852  12.444  1.00  0.00     0.182 C 
BRANCH  32  35
HETATM   35  N3  UNL     1      -0.046  21.393  12.932  1.00  0.00    -0.297 N 
HETATM   36  C10 UNL     1      -0.288  21.215  14.250  1.00  0.00     0.188 A 
HETATM   37  N4  UNL     1      -0.713  19.947  14.476  1.00  0.00    -0.346 N 
HETATM   38  C11 UNL     1      -0.747  19.304  13.305  1.00  0.00     0.119 A 
ATOM     39  H4  UNL     1      -0.963  19.553  15.383  1.00  0.00     0.167 HD
HETATM   40  C12 UNL     1      -1.103  18.008  12.977  1.00  0.00     0.148 A 
HETATM   41  C14 UNL     1      -0.330  20.212  12.356  1.00  0.00     0.142 A 
HETATM   42  N5  UNL     1      -1.529  17.079  13.948  1.00  0.00    -0.080 NA
HETATM   43  N6  UNL     1      -1.018  17.689  11.672  1.00  0.00    -0.339 N 
HETATM   44  C13 UNL     1      -0.608  18.581  10.734  1.00  0.00     0.183 A 
ATOM     45  H6  UNL     1      -1.271  16.745  11.378  1.00  0.00     0.167 HD
HETATM   46  N7  UNL     1      -0.264  19.838  11.069  1.00  0.00    -0.336 N 
ATOM     47  H7  UNL     1       0.042  20.498  10.354  1.00  0.00     0.168 HD
ENDBRANCH  32  35
BRANCH  33  48
HETATM   48  O11 UNL     1      -1.148  24.207  13.276  1.00  0.00    -0.388 OA
ATOM     49  H11 UNL     1      -1.475  24.284  14.165  1.00  0.00     0.210 HD
ENDBRANCH  33  48
BRANCH  34  50
HETATM   50  O12 UNL     1       0.285  25.188  11.314  1.00  0.00    -0.390 OA
ATOM     51  H12 UNL     1       0.740  25.843  10.798  1.00  0.00     0.210 HD
ENDBRANCH  34  50
ENDBRANCH  29  30
ENDBRANCH  28  29
ENDBRANCH   1  28
TORSDOF 15
ENDMDL
