MODEL 4
REMARK VINA RESULT: -9.805956883      6.286      9.838
REMARK  15 active torsions:
REMARK  status: ('A' for Active; 'I' for Inactive)
REMARK    1  A    between atoms: C1_2  and  C2_4 
REMARK    2  A    between atoms: N2_6  and  C4_7 
REMARK    3  A    between atoms: C5_9  and  C6_10 
REMARK    4  A    between atoms: C6_10  and  O3_11 
REMARK    5  A    between atoms: O3_11  and  P1_12 
REMARK    6  A    between atoms: P1_12  and  O6_15 
REMARK    7  A    between atoms: O6_15  and  P2_16 
REMARK    8  A    between atoms: P2_16  and  O9_19 
REMARK    9  A    between atoms: O9_19  and  C7_20 
REMARK   10  A    between atoms: C7_20  and  C8_21 
REMARK   11  A    between atoms: C9_23  and  N3_24 
REMARK   12  A    between atoms: C15_37  and  O11_38 
REMARK   13  A    between atoms: C16_40  and  O12_41 
REMARK   14  A    between atoms: C17_43  and  O13_44 
REMARK   15  A    between atoms: C18_46  and  O14_47 
ROOT
HETATM    1  P2  UNL     1       9.291  22.582  24.798  1.00  0.00     0.417 P 
HETATM    2  O7  UNL     1       8.452  22.445  23.360  1.00  0.00    -0.624 OA
HETATM    3  O8  UNL     1       9.096  23.938  25.681  1.00  0.00    -0.624 OA
ENDROOT
BRANCH   1   4
HETATM    4  O6  UNL     1      10.473  23.154  24.023  1.00  0.00    -0.180 OA
BRANCH   4   5
HETATM    5  P1  UNL     1      10.370  24.108  22.710  1.00  0.00     0.417 P 
HETATM    6  O4  UNL     1       9.640  25.579  22.787  1.00  0.00    -0.624 OA
HETATM    7  O5  UNL     1      11.822  24.563  22.881  1.00  0.00    -0.624 OA
BRANCH   5   8
HETATM    8  O3  UNL     1      10.805  23.525  21.190  1.00  0.00    -0.287 OA
BRANCH   8   9
HETATM    9  C6  UNL     1      10.409  24.481  20.294  1.00  0.00     0.216 C 
BRANCH   9  10
HETATM   10  C5  UNL     1       9.059  24.188  19.684  1.00  0.00     0.180 C 
HETATM   11  O2  UNL     1       8.747  25.028  18.655  1.00  0.00    -0.353 OA
HETATM   12  C4  UNL     1       8.844  24.349  17.428  1.00  0.00     0.259 C 
HETATM   13  C18 UNL     1       9.444  23.042  17.708  1.00  0.00     0.198 C 
HETATM   14  C17 UNL     1       8.974  22.794  19.130  1.00  0.00     0.182 C 
BRANCH  12  15
HETATM   15  N2  UNL     1       7.621  24.418  16.698  1.00  0.00    -0.337 N 
HETATM   16  C3  UNL     1       7.647  24.975  15.361  1.00  0.00     0.105 A 
HETATM   17  C2  UNL     1       6.569  25.071  14.666  1.00  0.00     0.026 A 
HETATM   18  C21 UNL     1       5.227  24.649  15.109  1.00  0.00     0.073 A 
HETATM   19  C20 UNL     1       5.248  24.097  16.457  1.00  0.00    -0.005 A 
HETATM   20  C19 UNL     1       6.372  23.999  17.178  1.00  0.00     0.089 A 
BRANCH  17  21
HETATM   21  C1  UNL     1       6.699  25.660  13.300  1.00  0.00     0.262 C 
HETATM   22  N1  UNL     1       6.692  24.803  12.196  1.00  0.00    -0.057 NA
HETATM   23  O1  UNL     1       6.813  26.896  13.135  1.00  0.00    -0.271 OA
ENDBRANCH  17  21
ENDBRANCH  12  15
BRANCH  13  24
HETATM   24  O14 UNL     1       9.236  21.996  16.878  1.00  0.00    -0.388 OA
ATOM     25  H14 UNL     1       9.754  21.203  16.957  1.00  0.00     0.210 HD
ENDBRANCH  13  24
BRANCH  14  26
HETATM   26  O13 UNL     1       7.710  22.288  19.241  1.00  0.00    -0.390 OA
ATOM     27  H13 UNL     1       7.719  21.340  19.308  1.00  0.00     0.210 HD
ENDBRANCH  14  26
ENDBRANCH   9  10
ENDBRANCH   8   9
ENDBRANCH   5   8
ENDBRANCH   4   5
ENDBRANCH   1   4
BRANCH   1  28
HETATM   28  O9  UNL     1      10.199  21.331  25.368  1.00  0.00    -0.287 OA
BRANCH  28  29
HETATM   29  C7  UNL     1      10.008  21.173  26.711  1.00  0.00     0.216 C 
BRANCH  29  30
HETATM   30  C8  UNL     1      10.884  20.043  27.274  1.00  0.00     0.180 C 
HETATM   31  O10 UNL     1      11.722  19.534  26.328  1.00  0.00    -0.353 OA
HETATM   32  C9  UNL     1      13.023  19.622  26.755  1.00  0.00     0.262 C 
HETATM   33  C15 UNL     1      13.017  20.945  27.507  1.00  0.00     0.198 C 
HETATM   34  C16 UNL     1      11.744  20.728  28.338  1.00  0.00     0.182 C 
BRANCH  32  35
HETATM   35  N3  UNL     1      13.975  19.578  25.685  1.00  0.00    -0.297 N 
HETATM   36  C10 UNL     1      15.095  18.821  25.688  1.00  0.00     0.188 A 
HETATM   37  N4  UNL     1      15.780  19.004  24.532  1.00  0.00    -0.346 N 
HETATM   38  C11 UNL     1      15.103  19.877  23.779  1.00  0.00     0.119 A 
ATOM     39  H4  UNL     1      16.659  18.552  24.280  1.00  0.00     0.167 HD
HETATM   40  C12 UNL     1      15.357  20.402  22.526  1.00  0.00     0.148 A 
HETATM   41  C14 UNL     1      13.986  20.225  24.508  1.00  0.00     0.142 A 
HETATM   42  N5  UNL     1      16.500  20.046  21.781  1.00  0.00    -0.080 NA
HETATM   43  N6  UNL     1      14.445  21.275  22.059  1.00  0.00    -0.339 N 
HETATM   44  C13 UNL     1      13.343  21.621  22.774  1.00  0.00     0.183 A 
ATOM     45  H6  UNL     1      14.586  21.691  21.137  1.00  0.00     0.167 HD
HETATM   46  N7  UNL     1      13.110  21.101  23.993  1.00  0.00    -0.336 N 
ATOM     47  H7  UNL     1      12.278  21.370  24.518  1.00  0.00     0.168 HD
ENDBRANCH  32  35
BRANCH  33  48
HETATM   48  O11 UNL     1      14.124  21.099  28.315  1.00  0.00    -0.388 OA
ATOM     49  H11 UNL     1      14.929  21.184  27.818  1.00  0.00     0.210 HD
ENDBRANCH  33  48
BRANCH  34  50
HETATM   50  O12 UNL     1      12.075  19.839  29.352  1.00  0.00    -0.390 OA
ATOM     51  H12 UNL     1      12.217  20.299  30.172  1.00  0.00     0.210 HD
ENDBRANCH  34  50
ENDBRANCH  29  30
ENDBRANCH  28  29
ENDBRANCH   1  28
TORSDOF 15
ENDMDL
