MODEL 3
REMARK VINA RESULT: -9.923844031      6.500     13.114
REMARK  15 active torsions:
REMARK  status: ('A' for Active; 'I' for Inactive)
REMARK    1  A    between atoms: C1_2  and  C2_4 
REMARK    2  A    between atoms: N2_6  and  C4_7 
REMARK    3  A    between atoms: C5_9  and  C6_10 
REMARK    4  A    between atoms: C6_10  and  O3_11 
REMARK    5  A    between atoms: O3_11  and  P1_12 
REMARK    6  A    between atoms: P1_12  and  O6_15 
REMARK    7  A    between atoms: O6_15  and  P2_16 
REMARK    8  A    between atoms: P2_16  and  O9_19 
REMARK    9  A    between atoms: O9_19  and  C7_20 
REMARK   10  A    between atoms: C7_20  and  C8_21 
REMARK   11  A    between atoms: C9_23  and  N3_24 
REMARK   12  A    between atoms: C15_37  and  O11_38 
REMARK   13  A    between atoms: C16_40  and  O12_41 
REMARK   14  A    between atoms: C17_43  and  O13_44 
REMARK   15  A    between atoms: C18_46  and  O14_47 
ROOT
HETATM    1  P2  UNL     1       8.451  23.340  23.318  1.00  0.00     0.417 P 
HETATM    2  O7  UNL     1       7.864  24.860  23.688  1.00  0.00    -0.624 OA
HETATM    3  O8  UNL     1       9.318  22.550  24.448  1.00  0.00    -0.624 OA
ENDROOT
BRANCH   1   4
HETATM    4  O6  UNL     1       9.684  23.994  22.705  1.00  0.00    -0.180 OA
BRANCH   4   5
HETATM    5  P1  UNL     1      10.834  23.226  21.849  1.00  0.00     0.417 P 
HETATM    6  O4  UNL     1      11.087  23.579  20.263  1.00  0.00    -0.624 OA
HETATM    7  O5  UNL     1      11.928  24.107  22.458  1.00  0.00    -0.624 OA
BRANCH   5   8
HETATM    8  O3  UNL     1      11.641  21.896  22.497  1.00  0.00    -0.287 OA
BRANCH   8   9
HETATM    9  C6  UNL     1      12.812  21.790  21.795  1.00  0.00     0.216 C 
BRANCH   9  10
HETATM   10  C5  UNL     1      14.023  21.688  22.692  1.00  0.00     0.180 C 
HETATM   11  O2  UNL     1      13.718  21.252  23.949  1.00  0.00    -0.353 OA
HETATM   12  C4  UNL     1      14.153  19.927  24.123  1.00  0.00     0.259 C 
HETATM   13  C18 UNL     1      14.590  19.444  22.810  1.00  0.00     0.198 C 
HETATM   14  C17 UNL     1      15.052  20.734  22.154  1.00  0.00     0.182 C 
BRANCH  12  15
HETATM   15  N2  UNL     1      15.029  19.809  25.242  1.00  0.00    -0.337 N 
HETATM   16  C3  UNL     1      15.185  20.953  26.117  1.00  0.00     0.105 A 
HETATM   17  C2  UNL     1      15.973  20.901  27.133  1.00  0.00     0.026 A 
HETATM   18  C21 UNL     1      16.783  19.733  27.527  1.00  0.00     0.073 A 
HETATM   19  C20 UNL     1      16.594  18.609  26.620  1.00  0.00    -0.005 A 
HETATM   20  C19 UNL     1      15.774  18.666  25.563  1.00  0.00     0.089 A 
BRANCH  17  21
HETATM   21  C1  UNL     1      16.067  22.131  27.974  1.00  0.00     0.262 C 
HETATM   22  N1  UNL     1      16.465  22.003  29.308  1.00  0.00    -0.057 NA
HETATM   23  O1  UNL     1      15.796  23.260  27.505  1.00  0.00    -0.271 OA
ENDBRANCH  17  21
ENDBRANCH  12  15
BRANCH  13  24
HETATM   24  O14 UNL     1      15.483  18.435  22.708  1.00  0.00    -0.388 OA
ATOM     25  H14 UNL     1      16.325  18.485  23.146  1.00  0.00     0.210 HD
ENDBRANCH  13  24
BRANCH  14  26
HETATM   26  O13 UNL     1      16.318  21.127  22.482  1.00  0.00    -0.390 OA
ATOM     27  H13 UNL     1      16.614  20.714  23.285  1.00  0.00     0.210 HD
ENDBRANCH  14  26
ENDBRANCH   9  10
ENDBRANCH   8   9
ENDBRANCH   5   8
ENDBRANCH   4   5
ENDBRANCH   1   4
BRANCH   1  28
HETATM   28  O9  UNL     1       8.062  22.609  21.893  1.00  0.00    -0.287 OA
BRANCH  28  29
HETATM   29  C7  UNL     1       7.086  23.309  21.244  1.00  0.00     0.216 C 
BRANCH  29  30
HETATM   30  C8  UNL     1       6.499  22.504  20.075  1.00  0.00     0.180 C 
HETATM   31  O10 UNL     1       6.319  23.280  18.969  1.00  0.00    -0.353 OA
HETATM   32  C9  UNL     1       6.996  22.743  17.903  1.00  0.00     0.262 C 
HETATM   33  C15 UNL     1       8.249  22.195  18.571  1.00  0.00     0.198 C 
HETATM   34  C16 UNL     1       7.579  21.471  19.748  1.00  0.00     0.182 C 
BRANCH  32  35
HETATM   35  N3  UNL     1       7.272  23.696  16.869  1.00  0.00    -0.297 N 
HETATM   36  C10 UNL     1       8.444  24.355  16.728  1.00  0.00     0.188 A 
HETATM   37  N4  UNL     1       8.383  25.182  15.655  1.00  0.00    -0.346 N 
HETATM   38  C11 UNL     1       7.174  25.059  15.100  1.00  0.00     0.119 A 
ATOM     39  H4  UNL     1       9.132  25.792  15.327  1.00  0.00     0.167 HD
HETATM   40  C12 UNL     1       6.599  25.667  13.999  1.00  0.00     0.148 A 
HETATM   41  C14 UNL     1       6.494  24.134  15.865  1.00  0.00     0.142 A 
HETATM   42  N5  UNL     1       7.294  26.612  13.217  1.00  0.00    -0.080 NA
HETATM   43  N6  UNL     1       5.335  25.300  13.718  1.00  0.00    -0.339 N 
HETATM   44  C13 UNL     1       4.663  24.390  14.469  1.00  0.00     0.183 A 
ATOM     45  H6  UNL     1       4.866  25.719  12.915  1.00  0.00     0.167 HD
HETATM   46  N7  UNL     1       5.235  23.807  15.538  1.00  0.00    -0.336 N 
ATOM     47  H7  UNL     1       4.717  23.125  16.093  1.00  0.00     0.168 HD
ENDBRANCH  32  35
BRANCH  33  48
HETATM   48  O11 UNL     1       8.936  21.312  17.764  1.00  0.00    -0.388 OA
ATOM     49  H11 UNL     1       9.287  20.574  18.248  1.00  0.00     0.210 HD
ENDBRANCH  33  48
BRANCH  34  50
HETATM   50  O12 UNL     1       7.013  20.311  19.236  1.00  0.00    -0.390 OA
ATOM     51  H12 UNL     1       6.920  20.369  18.292  1.00  0.00     0.210 HD
ENDBRANCH  34  50
ENDBRANCH  29  30
ENDBRANCH  28  29
ENDBRANCH   1  28
TORSDOF 15
ENDMDL
