MODEL 1
REMARK VINA RESULT: -9.976772553      0.000      0.000
REMARK  15 active torsions:
REMARK  status: ('A' for Active; 'I' for Inactive)
REMARK    1  A    between atoms: C1_2  and  C2_4 
REMARK    2  A    between atoms: N2_6  and  C4_7 
REMARK    3  A    between atoms: C5_9  and  C6_10 
REMARK    4  A    between atoms: C6_10  and  O3_11 
REMARK    5  A    between atoms: O3_11  and  P1_12 
REMARK    6  A    between atoms: P1_12  and  O6_15 
REMARK    7  A    between atoms: O6_15  and  P2_16 
REMARK    8  A    between atoms: P2_16  and  O9_19 
REMARK    9  A    between atoms: O9_19  and  C7_20 
REMARK   10  A    between atoms: C7_20  and  C8_21 
REMARK   11  A    between atoms: C9_23  and  N3_24 
REMARK   12  A    between atoms: C15_37  and  O11_38 
REMARK   13  A    between atoms: C16_40  and  O12_41 
REMARK   14  A    between atoms: C17_43  and  O13_44 
REMARK   15  A    between atoms: C18_46  and  O14_47 
ROOT
HETATM    1  P2  UNL     1       7.148  26.053  14.081  1.00  0.00     0.417 P 
HETATM    2  O7  UNL     1       8.529  26.970  13.878  1.00  0.00    -0.624 OA
HETATM    3  O8  UNL     1       6.747  24.989  12.914  1.00  0.00    -0.624 OA
ENDROOT
BRANCH   1   4
HETATM    4  O6  UNL     1       6.338  27.180  13.450  1.00  0.00    -0.180 OA
BRANCH   4   5
HETATM    5  P1  UNL     1       5.503  28.314  14.264  1.00  0.00     0.417 P 
HETATM    6  O4  UNL     1       6.270  29.575  14.988  1.00  0.00    -0.624 OA
HETATM    7  O5  UNL     1       5.100  29.007  12.960  1.00  0.00    -0.624 OA
BRANCH   5   8
HETATM    8  O3  UNL     1       3.860  28.108  14.580  1.00  0.00    -0.287 OA
BRANCH   8   9
HETATM    9  C6  UNL     1       3.366  27.376  13.534  1.00  0.00     0.216 C 
BRANCH   9  10
HETATM   10  C5  UNL     1       3.052  25.948  13.917  1.00  0.00     0.180 C 
HETATM   11  O2  UNL     1       1.711  25.694  13.965  1.00  0.00    -0.353 OA
HETATM   12  C4  UNL     1       1.327  24.911  12.863  1.00  0.00     0.259 C 
HETATM   13  C18 UNL     1       2.483  24.834  11.967  1.00  0.00     0.198 C 
HETATM   14  C17 UNL     1       3.634  24.957  12.950  1.00  0.00     0.182 C 
BRANCH  12  15
HETATM   15  N2  UNL     1       0.681  23.709  13.279  1.00  0.00    -0.337 N 
HETATM   16  C3  UNL     1      -0.152  23.750  14.463  1.00  0.00     0.105 A 
HETATM   17  C2  UNL     1      -0.746  22.691  14.887  1.00  0.00     0.026 A 
HETATM   18  C21 UNL     1      -0.668  21.358  14.259  1.00  0.00     0.073 A 
HETATM   19  C20 UNL     1       0.179  21.365  13.075  1.00  0.00    -0.005 A 
HETATM   20  C19 UNL     1       0.797  22.469  12.636  1.00  0.00     0.089 A 
BRANCH  17  21
HETATM   21  C1  UNL     1      -1.582  22.834  16.116  1.00  0.00     0.262 C 
HETATM   22  N1  UNL     1      -1.520  21.835  17.091  1.00  0.00    -0.057 NA
HETATM   23  O1  UNL     1      -2.330  23.826  16.279  1.00  0.00    -0.271 OA
ENDBRANCH  17  21
ENDBRANCH  12  15
BRANCH  13  24
HETATM   24  O14 UNL     1       2.618  23.807  11.100  1.00  0.00    -0.388 OA
ATOM     25  H14 UNL     1       1.911  23.573  10.510  1.00  0.00     0.210 HD
ENDBRANCH  13  24
BRANCH  14  26
HETATM   26  O13 UNL     1       3.985  23.795  13.575  1.00  0.00    -0.390 OA
ATOM     27  H13 UNL     1       4.916  23.769  13.764  1.00  0.00     0.210 HD
ENDBRANCH  14  26
ENDBRANCH   9  10
ENDBRANCH   8   9
ENDBRANCH   5   8
ENDBRANCH   4   5
ENDBRANCH   1   4
BRANCH   1  28
HETATM   28  O9  UNL     1       6.277  26.135  15.478  1.00  0.00    -0.287 OA
BRANCH  28  29
HETATM   29  C7  UNL     1       6.177  24.901  16.055  1.00  0.00     0.216 C 
BRANCH  29  30
HETATM   30  C8  UNL     1       7.486  24.109  15.918  1.00  0.00     0.180 C 
HETATM   31  O10 UNL     1       8.378  24.435  16.896  1.00  0.00    -0.353 OA
HETATM   32  C9  UNL     1       8.748  23.310  17.589  1.00  0.00     0.262 C 
HETATM   33  C15 UNL     1       7.449  22.517  17.616  1.00  0.00     0.198 C 
HETATM   34  C16 UNL     1       7.070  22.653  16.134  1.00  0.00     0.182 C 
BRANCH  32  35
HETATM   35  N3  UNL     1       9.271  23.594  18.892  1.00  0.00    -0.297 N 
HETATM   36  C10 UNL     1      10.406  23.060  19.394  1.00  0.00     0.188 A 
HETATM   37  N4  UNL     1      10.624  23.531  20.648  1.00  0.00    -0.346 N 
HETATM   38  C11 UNL     1       9.631  24.370  20.957  1.00  0.00     0.119 A 
ATOM     39  H4  UNL     1      11.410  23.286  21.250  1.00  0.00     0.167 HD
HETATM   40  C12 UNL     1       9.375  25.113  22.094  1.00  0.00     0.148 A 
HETATM   41  C14 UNL     1       8.799  24.400  19.858  1.00  0.00     0.142 A 
HETATM   42  N5  UNL     1      10.227  25.083  23.217  1.00  0.00    -0.080 NA
HETATM   43  N6  UNL     1       8.261  25.869  22.063  1.00  0.00    -0.339 N 
HETATM   44  C13 UNL     1       7.438  25.900  20.983  1.00  0.00     0.183 A 
ATOM     45  H6  UNL     1       8.027  26.437  22.878  1.00  0.00     0.167 HD
HETATM   46  N7  UNL     1       7.701  25.171  19.884  1.00  0.00    -0.336 N 
ATOM     47  H7  UNL     1       7.074  25.204  19.080  1.00  0.00     0.168 HD
ENDBRANCH  32  35
BRANCH  33  48
HETATM   48  O11 UNL     1       7.642  21.198  17.966  1.00  0.00    -0.388 OA
ATOM     49  H11 UNL     1       6.862  20.670  17.841  1.00  0.00     0.210 HD
ENDBRANCH  33  48
BRANCH  34  50
HETATM   50  O12 UNL     1       7.900  21.792  15.427  1.00  0.00    -0.390 OA
ATOM     51  H12 UNL     1       7.390  21.166  14.927  1.00  0.00     0.210 HD
ENDBRANCH  34  50
ENDBRANCH  29  30
ENDBRANCH  28  29
ENDBRANCH   1  28
TORSDOF 15
ENDMDL
