MODEL 5
REMARK VINA RESULT: -8.342727241      4.064      6.692
REMARK  6 active torsions:
REMARK  status: ('A' for Active; 'I' for Inactive)
REMARK    1  A    between atoms: C1_2  and  C2_4 
REMARK    2  A    between atoms: C2_4  and  C3_5 
REMARK    3  A    between atoms: C3_5  and  C4_6 
REMARK    4  A    between atoms: C4_6  and  S1_7 
REMARK    5  A    between atoms: S1_7  and  C5_8 
REMARK    6  A    between atoms: C7_15  and  C8_16 
ROOT
HETATM    1  C5  UNL     1     -29.217  21.297 -24.583  1.00  0.00     0.148 A 
HETATM    2  N2  UNL     1     -29.550  22.455 -25.180  1.00  0.00    -0.311 N 
ATOM      3  H2  UNL     1     -29.750  22.474 -26.180  1.00  0.00     0.170 HD
HETATM    4  C6  UNL     1     -29.621  23.595 -24.457  1.00  0.00     0.195 A 
HETATM    5  N3  UNL     1     -29.984  24.779 -25.183  1.00  0.00    -0.063 NA
HETATM    6  N4  UNL     1     -29.366  23.622 -23.139  1.00  0.00    -0.316 N 
ATOM      7  H4  UNL     1     -29.425  24.495 -22.615  1.00  0.00     0.170 HD
HETATM    8  C7  UNL     1     -29.033  22.478 -22.527  1.00  0.00     0.122 A 
HETATM    9  N5  UNL     1     -28.970  21.360 -23.264  1.00  0.00    -0.322 N 
ATOM     10  H5  UNL     1     -28.715  20.494 -22.789  1.00  0.00     0.169 HD
ENDROOT
BRANCH   8  11
HETATM   11  C8  UNL     1     -28.751  22.482 -21.089  1.00  0.00     0.041 A 
HETATM   12  C9  UNL     1     -29.731  22.326 -20.143  1.00  0.00     0.049 A 
HETATM   13 CL1  UNL     1     -31.384  22.113 -20.713  1.00  0.00    -0.083 Cl
HETATM   14  C10 UNL     1     -29.416  22.336 -18.798  1.00  0.00     0.035 A 
HETATM   15  C11 UNL     1     -28.122  22.501 -18.352  1.00  0.00    -0.021 A 
HETATM   16  C12 UNL     1     -27.128  22.660 -19.292  1.00  0.00    -0.008 A 
HETATM   17  C19 UNL     1     -27.785  22.514 -16.917  1.00  0.00     0.207 C 
HETATM   18  C13 UNL     1     -25.834  22.827 -18.871  1.00  0.00    -0.023 A 
HETATM   19  C17 UNL     1     -27.453  22.648 -20.654  1.00  0.00    -0.009 A 
HETATM   20  C14 UNL     1     -24.848  22.984 -19.821  1.00  0.00     0.010 A 
HETATM   21  C18 UNL     1     -25.558  22.827 -17.415  1.00  0.00     0.207 C 
HETATM   22  C15 UNL     1     -25.148  22.976 -21.159  1.00  0.00     0.002 A 
HETATM   23  C16 UNL     1     -26.452  22.809 -21.593  1.00  0.00     0.013 A 
HETATM   24  O2  UNL     1     -26.634  23.257 -16.655  1.00  0.00    -0.382 OA
ENDBRANCH   8  11
BRANCH   1  25
HETATM   25  S1  UNL     1     -29.107  19.746 -25.484  1.00  0.00    -0.094 SA
BRANCH  25  26
HETATM   26  C4  UNL     1     -27.992  19.976 -26.911  1.00  0.00     0.083 C 
BRANCH  26  27
HETATM   27  C3  UNL     1     -26.656  20.411 -26.397  1.00  0.00     0.019 C 
BRANCH  27  28
HETATM   28  C2  UNL     1     -26.102  21.641 -27.072  1.00  0.00     0.100 C 
BRANCH  28  29
HETATM   29  C1  UNL     1     -25.634  22.670 -26.117  1.00  0.00     0.231 C 
HETATM   30  N1  UNL     1     -24.463  23.435 -26.357  1.00  0.00    -0.062 NA
HETATM   31  O1  UNL     1     -26.262  22.900 -25.057  1.00  0.00    -0.277 OA
ENDBRANCH  28  29
ENDBRANCH  27  28
ENDBRANCH  26  27
ENDBRANCH  25  26
ENDBRANCH   1  25
TORSDOF 6
ENDMDL
