MODEL 4
REMARK VINA RESULT: -8.599410201      2.585      5.849
REMARK  6 active torsions:
REMARK  status: ('A' for Active; 'I' for Inactive)
REMARK    1  A    between atoms: C1_2  and  C2_4 
REMARK    2  A    between atoms: C2_4  and  C3_5 
REMARK    3  A    between atoms: C3_5  and  C4_6 
REMARK    4  A    between atoms: C4_6  and  S1_7 
REMARK    5  A    between atoms: S1_7  and  C5_8 
REMARK    6  A    between atoms: C7_15  and  C8_16 
ROOT
HETATM    1  C5  UNL     1     -26.669  22.715 -18.381  1.00  0.00     0.148 A 
HETATM    2  N2  UNL     1     -27.065  23.476 -17.345  1.00  0.00    -0.311 N 
ATOM      3  H2  UNL     1     -26.398  24.095 -16.883  1.00  0.00     0.170 HD
HETATM    4  C6  UNL     1     -28.345  23.423 -16.914  1.00  0.00     0.195 A 
HETATM    5  N3  UNL     1     -28.670  24.271 -15.803  1.00  0.00    -0.063 NA
HETATM    6  N4  UNL     1     -29.260  22.624 -17.488  1.00  0.00    -0.316 N 
ATOM      7  H4  UNL     1     -30.220  22.601 -17.144  1.00  0.00     0.170 HD
HETATM    8  C7  UNL     1     -28.885  21.860 -18.521  1.00  0.00     0.122 A 
HETATM    9  N5  UNL     1     -27.610  21.929 -18.932  1.00  0.00    -0.322 N 
ATOM     10  H5  UNL     1     -27.333  21.343 -19.720  1.00  0.00     0.169 HD
ENDROOT
BRANCH   8  11
HETATM   11  C8  UNL     1     -29.864  20.981 -19.164  1.00  0.00     0.041 A 
HETATM   12  C9  UNL     1     -30.080  19.689 -18.756  1.00  0.00     0.049 A 
HETATM   13 CL1  UNL     1     -29.124  19.097 -17.401  1.00  0.00    -0.083 Cl
HETATM   14  C10 UNL     1     -31.016  18.899 -19.395  1.00  0.00     0.035 A 
HETATM   15  C11 UNL     1     -31.764  19.364 -20.454  1.00  0.00    -0.021 A 
HETATM   16  C12 UNL     1     -31.558  20.659 -20.875  1.00  0.00    -0.008 A 
HETATM   17  C19 UNL     1     -32.762  18.521 -21.137  1.00  0.00     0.207 C 
HETATM   18  C13 UNL     1     -32.291  21.143 -21.928  1.00  0.00    -0.023 A 
HETATM   19  C17 UNL     1     -30.608  21.456 -20.224  1.00  0.00    -0.009 A 
HETATM   20  C14 UNL     1     -32.075  22.440 -22.339  1.00  0.00     0.010 A 
HETATM   21  C18 UNL     1     -33.281  20.247 -22.571  1.00  0.00     0.207 C 
HETATM   22  C15 UNL     1     -31.149  23.235 -21.714  1.00  0.00     0.002 A 
HETATM   23  C16 UNL     1     -30.404  22.755 -20.651  1.00  0.00     0.013 A 
HETATM   24  O2  UNL     1     -32.954  18.904 -22.464  1.00  0.00    -0.382 OA
ENDBRANCH   8  11
BRANCH   1  25
HETATM   25  S1  UNL     1     -24.984  22.739 -19.006  1.00  0.00    -0.094 SA
BRANCH  25  26
HETATM   26  C4  UNL     1     -25.032  22.589 -20.824  1.00  0.00     0.083 C 
BRANCH  26  27
HETATM   27  C3  UNL     1     -26.052  23.551 -21.347  1.00  0.00     0.019 C 
BRANCH  27  28
HETATM   28  C2  UNL     1     -25.900  23.879 -22.812  1.00  0.00     0.100 C 
BRANCH  28  29
HETATM   29  C1  UNL     1     -26.950  24.791 -23.317  1.00  0.00     0.231 C 
HETATM   30  N1  UNL     1     -26.759  26.197 -23.366  1.00  0.00    -0.062 NA
HETATM   31  O1  UNL     1     -28.052  24.348 -23.720  1.00  0.00    -0.277 OA
ENDBRANCH  28  29
ENDBRANCH  27  28
ENDBRANCH  26  27
ENDBRANCH  25  26
ENDBRANCH   1  25
TORSDOF 6
ENDMDL
