MODEL 3
REMARK VINA RESULT: -8.785986612      2.590      5.490
REMARK  6 active torsions:
REMARK  status: ('A' for Active; 'I' for Inactive)
REMARK    1  A    between atoms: C1_2  and  C2_4 
REMARK    2  A    between atoms: C2_4  and  C3_5 
REMARK    3  A    between atoms: C3_5  and  C4_6 
REMARK    4  A    between atoms: C4_6  and  S1_7 
REMARK    5  A    between atoms: S1_7  and  C5_8 
REMARK    6  A    between atoms: C7_15  and  C8_16 
ROOT
HETATM    1  C5  UNL     1     -26.575  22.537 -17.993  1.00  0.00     0.148 A 
HETATM    2  N2  UNL     1     -27.031  23.385 -17.054  1.00  0.00    -0.311 N 
ATOM      3  H2  UNL     1     -26.381  24.000 -16.564  1.00  0.00     0.170 HD
HETATM    4  C6  UNL     1     -28.349  23.425 -16.758  1.00  0.00     0.195 A 
HETATM    5  N3  UNL     1     -28.737  24.362 -15.743  1.00  0.00    -0.063 NA
HETATM    6  N4  UNL     1     -29.244  22.635 -17.373  1.00  0.00    -0.316 N 
ATOM      7  H4  UNL     1     -30.234  22.683 -17.131  1.00  0.00     0.170 HD
HETATM    8  C7  UNL     1     -28.810  21.784 -18.312  1.00  0.00     0.122 A 
HETATM    9  N5  UNL     1     -27.498  21.762 -18.589  1.00  0.00    -0.322 N 
ATOM     10  H5  UNL     1     -27.176  21.111 -19.305  1.00  0.00     0.169 HD
ENDROOT
BRANCH   8  11
HETATM   11  C8  UNL     1     -29.767  20.913 -18.998  1.00  0.00     0.041 A 
HETATM   12  C9  UNL     1     -30.011  19.624 -18.600  1.00  0.00     0.049 A 
HETATM   13 CL1  UNL     1     -29.121  19.023 -17.204  1.00  0.00    -0.083 Cl
HETATM   14  C10 UNL     1     -30.924  18.841 -19.279  1.00  0.00     0.035 A 
HETATM   15  C11 UNL     1     -31.621  19.312 -20.371  1.00  0.00    -0.021 A 
HETATM   16  C12 UNL     1     -31.385  20.605 -20.782  1.00  0.00    -0.008 A 
HETATM   17  C19 UNL     1     -32.594  18.476 -21.098  1.00  0.00     0.207 C 
HETATM   18  C13 UNL     1     -32.067  21.094 -21.866  1.00  0.00    -0.023 A 
HETATM   19  C17 UNL     1     -30.459  21.394 -20.089  1.00  0.00    -0.009 A 
HETATM   20  C14 UNL     1     -31.822  22.390 -22.267  1.00  0.00     0.010 A 
HETATM   21  C18 UNL     1     -33.034  20.207 -22.552  1.00  0.00     0.207 C 
HETATM   22  C15 UNL     1     -30.919  23.177 -21.601  1.00  0.00     0.002 A 
HETATM   23  C16 UNL     1     -30.226  22.692 -20.506  1.00  0.00     0.013 A 
HETATM   24  O2  UNL     1     -32.723  18.861 -22.432  1.00  0.00    -0.382 OA
ENDBRANCH   8  11
BRANCH   1  25
HETATM   25  S1  UNL     1     -24.837  22.434 -18.437  1.00  0.00    -0.094 SA
BRANCH  25  26
HETATM   26  C4  UNL     1     -24.661  22.841 -20.208  1.00  0.00     0.083 C 
BRANCH  26  27
HETATM   27  C3  UNL     1     -26.020  23.141 -20.757  1.00  0.00     0.019 C 
BRANCH  27  28
HETATM   28  C2  UNL     1     -26.289  22.535 -22.112  1.00  0.00     0.100 C 
BRANCH  28  29
HETATM   29  C1  UNL     1     -27.088  21.291 -22.047  1.00  0.00     0.231 C 
HETATM   30  N1  UNL     1     -28.066  20.979 -23.027  1.00  0.00    -0.062 NA
HETATM   31  O1  UNL     1     -26.925  20.467 -21.116  1.00  0.00    -0.277 OA
ENDBRANCH  28  29
ENDBRANCH  27  28
ENDBRANCH  26  27
ENDBRANCH  25  26
ENDBRANCH   1  25
TORSDOF 6
ENDMDL
