MODEL 1
REMARK VINA RESULT: -9.051608805      0.000      0.000
REMARK  6 active torsions:
REMARK  status: ('A' for Active; 'I' for Inactive)
REMARK    1  A    between atoms: C1_2  and  C2_4 
REMARK    2  A    between atoms: C2_4  and  C3_5 
REMARK    3  A    between atoms: C3_5  and  C4_6 
REMARK    4  A    between atoms: C4_6  and  S1_7 
REMARK    5  A    between atoms: S1_7  and  C5_8 
REMARK    6  A    between atoms: C7_15  and  C8_16 
ROOT
HETATM    1  C5  UNL     1     -28.849  20.946 -17.428  1.00  0.00     0.148 A 
HETATM    2  N2  UNL     1     -29.072  21.949 -16.560  1.00  0.00    -0.311 N 
ATOM      3  H2  UNL     1     -29.699  21.807 -15.768  1.00  0.00     0.170 HD
HETATM    4  C6  UNL     1     -28.467  23.145 -16.736  1.00  0.00     0.195 A 
HETATM    5  N3  UNL     1     -28.768  24.151 -15.758  1.00  0.00    -0.063 NA
HETATM    6  N4  UNL     1     -27.635  23.381 -17.762  1.00  0.00    -0.316 N 
ATOM      7  H4  UNL     1     -27.191  24.292 -17.874  1.00  0.00     0.170 HD
HETATM    8  C7  UNL     1     -27.400  22.394 -18.637  1.00  0.00     0.122 A 
HETATM    9  N5  UNL     1     -28.011  21.216 -18.443  1.00  0.00    -0.322 N 
ATOM     10  H5  UNL     1     -27.825  20.471 -19.114  1.00  0.00     0.169 HD
ENDROOT
BRANCH   8  11
HETATM   11  C8  UNL     1     -26.495  22.627 -19.765  1.00  0.00     0.041 A 
HETATM   12  C9  UNL     1     -25.133  22.690 -19.620  1.00  0.00     0.049 A 
HETATM   13 CL1  UNL     1     -24.478  22.477 -17.999  1.00  0.00    -0.083 Cl
HETATM   14  C10 UNL     1     -24.320  22.912 -20.715  1.00  0.00     0.035 A 
HETATM   15  C11 UNL     1     -24.833  23.077 -21.984  1.00  0.00    -0.021 A 
HETATM   16  C12 UNL     1     -26.200  23.016 -22.144  1.00  0.00    -0.008 A 
HETATM   17  C19 UNL     1     -23.967  23.315 -23.153  1.00  0.00     0.207 C 
HETATM   18  C13 UNL     1     -26.732  23.179 -23.397  1.00  0.00    -0.023 A 
HETATM   19  C17 UNL     1     -27.018  22.791 -21.031  1.00  0.00    -0.009 A 
HETATM   20  C14 UNL     1     -28.100  23.116 -23.544  1.00  0.00     0.010 A 
HETATM   21  C18 UNL     1     -25.809  23.411 -24.532  1.00  0.00     0.207 C 
HETATM   22  C15 UNL     1     -28.918  22.897 -22.465  1.00  0.00     0.002 A 
HETATM   23  C16 UNL     1     -28.390  22.732 -21.196  1.00  0.00     0.013 A 
HETATM   24  O2  UNL     1     -24.624  24.025 -24.157  1.00  0.00    -0.382 OA
ENDBRANCH   8  11
BRANCH   1  25
HETATM   25  S1  UNL     1     -29.619  19.331 -17.253  1.00  0.00    -0.094 SA
BRANCH  25  26
HETATM   26  C4  UNL     1     -29.680  18.532 -18.892  1.00  0.00     0.083 C 
BRANCH  26  27
HETATM   27  C3  UNL     1     -30.988  18.876 -19.533  1.00  0.00     0.019 C 
BRANCH  27  28
HETATM   28  C2  UNL     1     -30.900  19.961 -20.578  1.00  0.00     0.100 C 
BRANCH  28  29
HETATM   29  C1  UNL     1     -32.084  20.848 -20.599  1.00  0.00     0.231 C 
HETATM   30  N1  UNL     1     -33.352  20.392 -21.047  1.00  0.00    -0.062 NA
HETATM   31  O1  UNL     1     -32.005  22.040 -20.218  1.00  0.00    -0.277 OA
ENDBRANCH  28  29
ENDBRANCH  27  28
ENDBRANCH  26  27
ENDBRANCH  25  26
ENDBRANCH   1  25
TORSDOF 6
ENDMDL
