MODEL 2
REMARK VINA RESULT: -9.027881170      1.130      1.198
REMARK  6 active torsions:
REMARK  status: ('A' for Active; 'I' for Inactive)
REMARK    1  A    between atoms: C1_2  and  C2_4 
REMARK    2  A    between atoms: C2_4  and  C3_5 
REMARK    3  A    between atoms: C3_5  and  C4_6 
REMARK    4  A    between atoms: C4_6  and  S1_7 
REMARK    5  A    between atoms: S1_7  and  C5_8 
REMARK    6  A    between atoms: C7_15  and  C8_16 
ROOT
HETATM    1  C5  UNL     1     -28.844  20.908 -17.449  1.00  0.00     0.148 A 
HETATM    2  N2  UNL     1     -29.086  21.911 -16.587  1.00  0.00    -0.311 N 
ATOM      3  H2  UNL     1     -29.719  21.765 -15.800  1.00  0.00     0.170 HD
HETATM    4  C6  UNL     1     -28.492  23.113 -16.760  1.00  0.00     0.195 A 
HETATM    5  N3  UNL     1     -28.814  24.119 -15.788  1.00  0.00    -0.063 NA
HETATM    6  N4  UNL     1     -27.653  23.355 -17.779  1.00  0.00    -0.316 N 
ATOM      7  H4  UNL     1     -27.218  24.271 -17.889  1.00  0.00     0.170 HD
HETATM    8  C7  UNL     1     -27.398  22.368 -18.648  1.00  0.00     0.122 A 
HETATM    9  N5  UNL     1     -27.998  21.184 -18.456  1.00  0.00    -0.322 N 
ATOM     10  H5  UNL     1     -27.798  20.439 -19.124  1.00  0.00     0.169 HD
ENDROOT
BRANCH   8  11
HETATM   11  C8  UNL     1     -26.485  22.608 -19.768  1.00  0.00     0.041 A 
HETATM   12  C9  UNL     1     -25.124  22.676 -19.612  1.00  0.00     0.049 A 
HETATM   13 CL1  UNL     1     -24.483  22.461 -17.986  1.00  0.00    -0.083 Cl
HETATM   14  C10 UNL     1     -24.304  22.903 -20.699  1.00  0.00     0.035 A 
HETATM   15  C11 UNL     1     -24.806  23.069 -21.972  1.00  0.00    -0.021 A 
HETATM   16  C12 UNL     1     -26.171  23.004 -22.143  1.00  0.00    -0.008 A 
HETATM   17  C19 UNL     1     -23.931  23.314 -23.133  1.00  0.00     0.207 C 
HETATM   18  C13 UNL     1     -26.694  23.168 -23.401  1.00  0.00    -0.023 A 
HETATM   19  C17 UNL     1     -26.999  22.773 -21.038  1.00  0.00    -0.009 A 
HETATM   20  C14 UNL     1     -28.061  23.100 -23.559  1.00  0.00     0.010 A 
HETATM   21  C18 UNL     1     -25.762  23.407 -24.527  1.00  0.00     0.207 C 
HETATM   22  C15 UNL     1     -28.886  22.875 -22.488  1.00  0.00     0.002 A 
HETATM   23  C16 UNL     1     -28.368  22.709 -21.215  1.00  0.00     0.013 A 
HETATM   24  O2  UNL     1     -24.583  24.025 -24.141  1.00  0.00    -0.382 OA
ENDBRANCH   8  11
BRANCH   1  25
HETATM   25  S1  UNL     1     -29.597  19.286 -17.276  1.00  0.00    -0.094 SA
BRANCH  25  26
HETATM   26  C4  UNL     1     -29.880  18.592 -18.941  1.00  0.00     0.083 C 
BRANCH  26  27
HETATM   27  C3  UNL     1     -31.029  19.320 -19.564  1.00  0.00     0.019 C 
BRANCH  27  28
HETATM   28  C2  UNL     1     -30.739  19.882 -20.933  1.00  0.00     0.100 C 
BRANCH  28  29
HETATM   29  C1  UNL     1     -30.744  18.854 -21.998  1.00  0.00     0.231 C 
HETATM   30  N1  UNL     1     -31.759  17.865 -22.078  1.00  0.00    -0.062 NA
HETATM   31  O1  UNL     1     -29.843  18.824 -22.870  1.00  0.00    -0.277 OA
ENDBRANCH  28  29
ENDBRANCH  27  28
ENDBRANCH  26  27
ENDBRANCH  25  26
ENDBRANCH   1  25
TORSDOF 6
ENDMDL
