MODEL 4
REMARK VINA RESULT: -9.033809871      1.185      2.107
REMARK  6 active torsions:
REMARK  status: ('A' for Active; 'I' for Inactive)
REMARK    1  A    between atoms: N2_10  and  C6_11 
REMARK    2  A    between atoms: C7_13  and  C8_14 
REMARK    3  A    between atoms: C8_14  and  O4_15 
REMARK    4  A    between atoms: O4_15  and  P1_16 
REMARK    5  A    between atoms: C9_20  and  O8_21 
REMARK    6  A    between atoms: C10_23  and  O9_24 
ROOT
HETATM    1  C6  UNL     1      17.909  39.759  35.468  1.00  0.00     0.264 C 
HETATM    2  O3  UNL     1      17.942  38.388  35.777  1.00  0.00    -0.353 OA
HETATM    3  C7  UNL     1      19.089  38.299  36.472  1.00  0.00     0.180 C 
HETATM    4  C9  UNL     1      18.997  39.327  37.537  1.00  0.00     0.182 C 
HETATM    5  C10 UNL     1      18.520  40.506  36.655  1.00  0.00     0.198 C 
ENDROOT
BRANCH   1   6
HETATM    6  N2  UNL     1      16.552  40.262  35.326  1.00  0.00    -0.274 N 
HETATM    7  C2  UNL     1      15.602  40.045  36.215  1.00  0.00     0.020 A 
HETATM    8  C1  UNL     1      15.830  39.138  37.338  1.00  0.00     0.068 C 
HETATM    9  C3  UNL     1      14.357  40.647  36.015  1.00  0.00     0.099 A 
HETATM   10  C4  UNL     1      14.171  41.442  34.921  1.00  0.00     0.251 A 
HETATM   11  O1  UNL     1      13.051  42.021  34.691  1.00  0.00    -0.268 OA
HETATM   12  N1  UNL     1      15.154  41.633  34.037  1.00  0.00    -0.275 N 
HETATM   13  C5  UNL     1      16.355  41.023  34.237  1.00  0.00     0.331 A 
ATOM     14  H1  UNL     1      15.006  42.228  33.222  1.00  0.00     0.173 HD
HETATM   15  O2  UNL     1      17.190  41.192  33.342  1.00  0.00    -0.246 OA
ENDBRANCH   1   6
BRANCH   5  16
HETATM   16  O9  UNL     1      19.636  41.153  36.184  1.00  0.00    -0.388 OA
ATOM     17  H9  UNL     1      19.505  42.080  36.350  1.00  0.00     0.210 HD
ENDBRANCH   5  16
BRANCH   3  18
HETATM   18  C8  UNL     1      19.538  36.929  36.878  1.00  0.00     0.217 C 
BRANCH  18  19
HETATM   19  O4  UNL     1      18.473  36.402  37.634  1.00  0.00    -0.280 OA
BRANCH  19  20
HETATM   20  P1  UNL     1      18.501  34.914  38.146  1.00  0.00     0.422 P 
HETATM   21  O5  UNL     1      16.992  34.074  37.966  1.00  0.00    -0.617 OA
HETATM   22  O6  UNL     1      19.700  34.123  38.932  1.00  0.00    -0.617 OA
HETATM   23  O7  UNL     1      18.952  34.285  36.813  1.00  0.00    -0.617 OA
ENDBRANCH  19  20
ENDBRANCH  18  19
ENDBRANCH   3  18
BRANCH   4  24
HETATM   24  O8  UNL     1      20.235  39.660  38.094  1.00  0.00    -0.390 OA
ATOM     25  H8  UNL     1      20.734  38.904  38.381  1.00  0.00     0.210 HD
ENDBRANCH   4  24
TORSDOF 6
ENDMDL
