MODEL 1
REMARK VINA RESULT: -9.602050883      0.000      0.000
REMARK  6 active torsions:
REMARK  status: ('A' for Active; 'I' for Inactive)
REMARK    1  A    between atoms: N2_10  and  C6_11 
REMARK    2  A    between atoms: C7_13  and  C8_14 
REMARK    3  A    between atoms: C8_14  and  O4_15 
REMARK    4  A    between atoms: O4_15  and  P1_16 
REMARK    5  A    between atoms: C9_20  and  O8_21 
REMARK    6  A    between atoms: C10_23  and  O9_24 
ROOT
HETATM    1  C6  UNL     1      17.900  39.825  35.418  1.00  0.00     0.264 C 
HETATM    2  O3  UNL     1      18.004  38.437  35.613  1.00  0.00    -0.353 OA
HETATM    3  C7  UNL     1      19.165  38.347  36.284  1.00  0.00     0.180 C 
HETATM    4  C9  UNL     1      19.041  39.279  37.431  1.00  0.00     0.182 C 
HETATM    5  C10 UNL     1      18.494  40.501  36.655  1.00  0.00     0.198 C 
ENDROOT
BRANCH   1   6
HETATM    6  N2  UNL     1      16.518  40.271  35.335  1.00  0.00    -0.274 N 
HETATM    7  C2  UNL     1      16.049  40.994  34.337  1.00  0.00     0.020 A 
HETATM    8  C1  UNL     1      16.950  41.525  33.317  1.00  0.00     0.068 C 
HETATM    9  C3  UNL     1      14.684  41.295  34.322  1.00  0.00     0.099 A 
HETATM   10  C4  UNL     1      13.889  40.825  35.327  1.00  0.00     0.251 A 
HETATM   11  O1  UNL     1      12.630  41.069  35.360  1.00  0.00    -0.268 OA
HETATM   12  N1  UNL     1      14.401  40.102  36.326  1.00  0.00    -0.275 N 
HETATM   13  C5  UNL     1      15.736  39.834  36.335  1.00  0.00     0.331 A 
ATOM     14  H1  UNL     1      13.799  39.755  37.073  1.00  0.00     0.173 HD
HETATM   15  O2  UNL     1      16.145  39.219  37.326  1.00  0.00    -0.246 OA
ENDBRANCH   1   6
BRANCH   5  16
HETATM   16  O9  UNL     1      19.569  41.239  36.226  1.00  0.00    -0.388 OA
ATOM     17  H9  UNL     1      20.336  40.687  36.322  1.00  0.00     0.210 HD
ENDBRANCH   5  16
BRANCH   3  18
HETATM   18  C8  UNL     1      19.686  36.972  36.570  1.00  0.00     0.217 C 
BRANCH  18  19
HETATM   19  O4  UNL     1      18.574  36.249  37.045  1.00  0.00    -0.280 OA
BRANCH  19  20
HETATM   20  P1  UNL     1      18.711  35.255  38.257  1.00  0.00     0.422 P 
HETATM   21  O5  UNL     1      20.310  35.173  38.929  1.00  0.00    -0.617 OA
HETATM   22  O6  UNL     1      17.602  34.213  38.859  1.00  0.00    -0.617 OA
HETATM   23  O7  UNL     1      18.357  36.276  39.355  1.00  0.00    -0.617 OA
ENDBRANCH  19  20
ENDBRANCH  18  19
ENDBRANCH   3  18
BRANCH   4  24
HETATM   24  O8  UNL     1      20.270  39.625  37.999  1.00  0.00    -0.390 OA
ATOM     25  H8  UNL     1      20.222  39.780  38.935  1.00  0.00     0.210 HD
ENDBRANCH   4  24
TORSDOF 6
ENDMDL
