MODEL 2
REMARK VINA RESULT: -9.500540179      0.614      1.161
REMARK  6 active torsions:
REMARK  status: ('A' for Active; 'I' for Inactive)
REMARK    1  A    between atoms: N2_10  and  C6_11 
REMARK    2  A    between atoms: C7_13  and  C8_14 
REMARK    3  A    between atoms: C8_14  and  O4_15 
REMARK    4  A    between atoms: O4_15  and  P1_16 
REMARK    5  A    between atoms: C9_20  and  O8_21 
REMARK    6  A    between atoms: C10_23  and  O9_24 
ROOT
HETATM    1  C6  UNL     1      17.794  39.697  35.464  1.00  0.00     0.264 C 
HETATM    2  O3  UNL     1      17.826  38.326  35.770  1.00  0.00    -0.353 OA
HETATM    3  C7  UNL     1      18.985  38.228  36.442  1.00  0.00     0.180 C 
HETATM    4  C9  UNL     1      18.920  39.255  37.510  1.00  0.00     0.182 C 
HETATM    5  C10 UNL     1      18.432  40.438  36.641  1.00  0.00     0.198 C 
ENDROOT
BRANCH   1   6
HETATM    6  N2  UNL     1      16.437  40.208  35.350  1.00  0.00    -0.274 N 
HETATM    7  C2  UNL     1      16.028  40.964  34.350  1.00  0.00     0.020 A 
HETATM    8  C1  UNL     1      16.980  41.464  33.360  1.00  0.00     0.068 C 
HETATM    9  C3  UNL     1      14.680  41.328  34.302  1.00  0.00     0.099 A 
HETATM   10  C4  UNL     1      13.837  40.885  35.280  1.00  0.00     0.251 A 
HETATM   11  O1  UNL     1      12.591  41.187  35.284  1.00  0.00    -0.268 OA
HETATM   12  N1  UNL     1      14.287  40.128  36.283  1.00  0.00    -0.275 N 
HETATM   13  C5  UNL     1      15.608  39.797  36.324  1.00  0.00     0.331 A 
ATOM     14  H1  UNL     1      13.650  39.800  37.010  1.00  0.00     0.173 HD
HETATM   15  O2  UNL     1      15.962  39.153  37.318  1.00  0.00    -0.246 OA
ENDBRANCH   1   6
BRANCH   5  16
HETATM   16  O9  UNL     1      19.542  41.081  36.149  1.00  0.00    -0.388 OA
ATOM     17  H9  UNL     1      20.162  41.144  36.866  1.00  0.00     0.210 HD
ENDBRANCH   5  16
BRANCH   3  18
HETATM   18  C8  UNL     1      19.435  36.855  36.836  1.00  0.00     0.217 C 
BRANCH  18  19
HETATM   19  O4  UNL     1      18.403  36.351  37.652  1.00  0.00    -0.280 OA
BRANCH  19  20
HETATM   20  P1  UNL     1      18.435  34.867  38.174  1.00  0.00     0.422 P 
HETATM   21  O5  UNL     1      16.937  34.013  37.974  1.00  0.00    -0.617 OA
HETATM   22  O6  UNL     1      19.627  34.091  38.985  1.00  0.00    -0.617 OA
HETATM   23  O7  UNL     1      18.914  34.233  36.853  1.00  0.00    -0.617 OA
ENDBRANCH  19  20
ENDBRANCH  18  19
ENDBRANCH   3  18
BRANCH   4  24
HETATM   24  O8  UNL     1      20.170  39.580  38.044  1.00  0.00    -0.390 OA
ATOM     25  H8  UNL     1      20.279  40.509  38.209  1.00  0.00     0.210 HD
ENDBRANCH   4  24
TORSDOF 6
ENDMDL
