MODEL 10
REMARK VINA RESULT: -8.090835870      3.142      6.572
REMARK  6 active torsions:
REMARK  status: ('A' for Active; 'I' for Inactive)
REMARK    1  A    between atoms: N2_10  and  C6_11 
REMARK    2  A    between atoms: C7_13  and  C8_14 
REMARK    3  A    between atoms: C8_14  and  O4_15 
REMARK    4  A    between atoms: O4_15  and  P1_16 
REMARK    5  A    between atoms: C9_20  and  O8_21 
REMARK    6  A    between atoms: C10_23  and  O9_24 
ROOT
HETATM    1  C6  UNL     1      18.399  38.094  37.693  1.00  0.00     0.264 C 
HETATM    2  O3  UNL     1      17.026  38.347  37.527  1.00  0.00    -0.353 OA
HETATM    3  C7  UNL     1      17.047  39.490  36.820  1.00  0.00     0.180 C 
HETATM    4  C9  UNL     1      17.929  39.228  35.657  1.00  0.00     0.182 C 
HETATM    5  C10 UNL     1      19.103  38.572  36.421  1.00  0.00     0.198 C 
ENDROOT
BRANCH   1   6
HETATM    6  N2  UNL     1      18.691  36.674  37.810  1.00  0.00    -0.274 N 
HETATM    7  C2  UNL     1      19.557  36.181  38.674  1.00  0.00     0.020 A 
HETATM    8  C1  UNL     1      20.399  37.072  39.471  1.00  0.00     0.068 C 
HETATM    9  C3  UNL     1      19.696  34.793  38.754  1.00  0.00     0.099 A 
HETATM   10  C4  UNL     1      18.929  34.001  37.949  1.00  0.00     0.251 A 
HETATM   11  O1  UNL     1      19.015  32.722  37.984  1.00  0.00    -0.268 OA
HETATM   12  N1  UNL     1      18.069  34.535  37.080  1.00  0.00    -0.275 N 
HETATM   13  C5  UNL     1      17.960  35.891  37.001  1.00  0.00     0.331 A 
ATOM     14  H1  UNL     1      17.500  33.936  36.482  1.00  0.00     0.173 HD
HETATM   15  O2  UNL     1      17.194  36.310  36.127  1.00  0.00    -0.246 OA
ENDBRANCH   1   6
BRANCH   5  16
HETATM   16  O9  UNL     1      19.967  39.570  36.798  1.00  0.00    -0.388 OA
ATOM     17  H9  UNL     1      19.969  40.211  36.096  1.00  0.00     0.210 HD
ENDBRANCH   5  16
BRANCH   3  18
HETATM   18  C8  UNL     1      15.731  40.152  36.550  1.00  0.00     0.217 C 
BRANCH  18  19
HETATM   19  O4  UNL     1      15.745  40.447  35.173  1.00  0.00    -0.280 OA
BRANCH  19  20
HETATM   20  P1  UNL     1      14.922  41.658  34.596  1.00  0.00     0.422 P 
HETATM   21  O5  UNL     1      15.480  42.223  33.052  1.00  0.00    -0.617 OA
HETATM   22  O6  UNL     1      13.726  42.518  35.311  1.00  0.00    -0.617 OA
HETATM   23  O7  UNL     1      13.873  40.810  33.849  1.00  0.00    -0.617 OA
ENDBRANCH  19  20
ENDBRANCH  18  19
ENDBRANCH   3  18
BRANCH   4  24
HETATM   24  O8  UNL     1      18.394  40.394  35.041  1.00  0.00    -0.390 OA
ATOM     25  H8  UNL     1      17.709  40.890  34.608  1.00  0.00     0.210 HD
ENDBRANCH   4  24
TORSDOF 6
ENDMDL
