MODEL 6
REMARK VINA RESULT: -8.293415720      3.229      6.471
REMARK  6 active torsions:
REMARK  status: ('A' for Active; 'I' for Inactive)
REMARK    1  A    between atoms: N2_10  and  C6_11 
REMARK    2  A    between atoms: C7_13  and  C8_14 
REMARK    3  A    between atoms: C8_14  and  O4_15 
REMARK    4  A    between atoms: O4_15  and  P1_16 
REMARK    5  A    between atoms: C9_20  and  O8_21 
REMARK    6  A    between atoms: C10_23  and  O9_24 
ROOT
HETATM    1  C6  UNL     1      18.335  38.198  37.985  1.00  0.00     0.264 C 
HETATM    2  O3  UNL     1      17.142  38.474  37.295  1.00  0.00    -0.353 OA
HETATM    3  C7  UNL     1      17.371  39.724  36.854  1.00  0.00     0.180 C 
HETATM    4  C9  UNL     1      18.674  39.670  36.149  1.00  0.00     0.182 C 
HETATM    5  C10 UNL     1      19.468  38.892  37.225  1.00  0.00     0.198 C 
ENDROOT
BRANCH   1   6
HETATM    6  N2  UNL     1      18.658  36.780  37.990  1.00  0.00    -0.274 N 
HETATM    7  C2  UNL     1      19.492  36.229  38.849  1.00  0.00     0.020 A 
HETATM    8  C1  UNL     1      20.272  37.061  39.764  1.00  0.00     0.068 C 
HETATM    9  C3  UNL     1      19.663  34.843  38.812  1.00  0.00     0.099 A 
HETATM   10  C4  UNL     1      18.957  34.111  37.900  1.00  0.00     0.251 A 
HETATM   11  O1  UNL     1      19.073  32.836  37.825  1.00  0.00    -0.268 OA
HETATM   12  N1  UNL     1      18.126  34.704  37.040  1.00  0.00    -0.275 N 
HETATM   13  C5  UNL     1      17.986  36.058  37.078  1.00  0.00     0.331 A 
ATOM     14  H1  UNL     1      17.602  34.149  36.362  1.00  0.00     0.173 HD
HETATM   15  O2  UNL     1      17.254  36.539  36.206  1.00  0.00    -0.246 OA
ENDBRANCH   1   6
BRANCH   5  16
HETATM   16  O9  UNL     1      20.018  39.810  38.085  1.00  0.00    -0.388 OA
ATOM     17  H9  UNL     1      20.197  40.591  37.575  1.00  0.00     0.210 HD
ENDBRANCH   5  16
BRANCH   3  18
HETATM   18  C8  UNL     1      16.242  40.421  36.159  1.00  0.00     0.217 C 
BRANCH  18  19
HETATM   19  O4  UNL     1      16.837  41.085  35.069  1.00  0.00    -0.280 OA
BRANCH  19  20
HETATM   20  P1  UNL     1      16.177  41.046  33.640  1.00  0.00     0.422 P 
HETATM   21  O5  UNL     1      14.512  41.537  33.615  1.00  0.00    -0.617 OA
HETATM   22  O6  UNL     1      16.805  40.485  32.236  1.00  0.00    -0.617 OA
HETATM   23  O7  UNL     1      16.555  42.486  33.240  1.00  0.00    -0.617 OA
ENDBRANCH  19  20
ENDBRANCH  18  19
ENDBRANCH   3  18
BRANCH   4  24
HETATM   24  O8  UNL     1      19.265  40.926  35.982  1.00  0.00    -0.390 OA
ATOM     25  H8  UNL     1      19.614  41.065  35.109  1.00  0.00     0.210 HD
ENDBRANCH   4  24
TORSDOF 6
ENDMDL
