MODEL 3
REMARK VINA RESULT: -9.280866963      1.024      1.753
REMARK  6 active torsions:
REMARK  status: ('A' for Active; 'I' for Inactive)
REMARK    1  A    between atoms: N2_10  and  C6_11 
REMARK    2  A    between atoms: C7_13  and  C8_14 
REMARK    3  A    between atoms: C8_14  and  O4_15 
REMARK    4  A    between atoms: O4_15  and  P1_16 
REMARK    5  A    between atoms: C9_20  and  O8_21 
REMARK    6  A    between atoms: C10_23  and  O9_24 
ROOT
HETATM    1  C6  UNL     1      17.972  39.853  35.464  1.00  0.00     0.264 C 
HETATM    2  O3  UNL     1      18.104  38.470  35.676  1.00  0.00    -0.353 OA
HETATM    3  C7  UNL     1      19.261  38.412  36.357  1.00  0.00     0.180 C 
HETATM    4  C9  UNL     1      19.109  39.355  37.491  1.00  0.00     0.182 C 
HETATM    5  C10 UNL     1      18.543  40.556  36.698  1.00  0.00     0.198 C 
ENDROOT
BRANCH   1   6
HETATM    6  N2  UNL     1      16.582  40.269  35.366  1.00  0.00    -0.274 N 
HETATM    7  C2  UNL     1      15.657  39.915  36.236  1.00  0.00     0.020 A 
HETATM    8  C1  UNL     1      15.956  38.939  37.283  1.00  0.00     0.068 C 
HETATM    9  C3  UNL     1      14.371  40.442  36.087  1.00  0.00     0.099 A 
HETATM   10  C4  UNL     1      14.122  41.306  35.060  1.00  0.00     0.251 A 
HETATM   11  O1  UNL     1      12.961  41.820  34.879  1.00  0.00    -0.268 OA
HETATM   12  N1  UNL     1      15.081  41.635  34.193  1.00  0.00    -0.275 N 
HETATM   13  C5  UNL     1      16.324  41.098  34.341  1.00  0.00     0.331 A 
ATOM     14  H1  UNL     1      14.886  42.282  33.428  1.00  0.00     0.173 HD
HETATM   15  O2  UNL     1      17.138  41.396  33.461  1.00  0.00    -0.246 OA
ENDBRANCH   1   6
BRANCH   5  16
HETATM   16  O9  UNL     1      19.605  41.311  36.267  1.00  0.00    -0.388 OA
ATOM     17  H9  UNL     1      19.886  40.941  35.438  1.00  0.00     0.210 HD
ENDBRANCH   5  16
BRANCH   3  18
HETATM   18  C8  UNL     1      19.809  37.051  36.663  1.00  0.00     0.217 C 
BRANCH  18  19
HETATM   19  O4  UNL     1      18.688  36.278  37.023  1.00  0.00    -0.280 OA
BRANCH  19  20
HETATM   20  P1  UNL     1      18.746  35.288  38.245  1.00  0.00     0.422 P 
HETATM   21  O5  UNL     1      20.320  35.142  38.964  1.00  0.00    -0.617 OA
HETATM   22  O6  UNL     1      17.575  34.300  38.821  1.00  0.00    -0.617 OA
HETATM   23  O7  UNL     1      18.405  36.332  39.326  1.00  0.00    -0.617 OA
ENDBRANCH  19  20
ENDBRANCH  18  19
ENDBRANCH   3  18
BRANCH   4  24
HETATM   24  O8  UNL     1      20.327  39.733  38.064  1.00  0.00    -0.390 OA
ATOM     25  H8  UNL     1      20.467  39.366  38.929  1.00  0.00     0.210 HD
ENDBRANCH   4  24
TORSDOF 6
ENDMDL
