MODEL 5
REMARK VINA RESULT: -8.365023861      3.069      6.512
REMARK  6 active torsions:
REMARK  status: ('A' for Active; 'I' for Inactive)
REMARK    1  A    between atoms: N2_10  and  C6_11 
REMARK    2  A    between atoms: C7_13  and  C8_14 
REMARK    3  A    between atoms: C8_14  and  O4_15 
REMARK    4  A    between atoms: O4_15  and  P1_16 
REMARK    5  A    between atoms: C9_20  and  O8_21 
REMARK    6  A    between atoms: C10_23  and  O9_24 
ROOT
HETATM    1  C6  UNL     1      18.740  37.943  37.798  1.00  0.00     0.264 C 
HETATM    2  O3  UNL     1      17.388  38.321  37.864  1.00  0.00    -0.353 OA
HETATM    3  C7  UNL     1      17.389  39.448  37.132  1.00  0.00     0.180 C 
HETATM    4  C9  UNL     1      18.027  39.091  35.842  1.00  0.00     0.182 C 
HETATM    5  C10 UNL     1      19.252  38.337  36.411  1.00  0.00     0.198 C 
ENDROOT
BRANCH   1   6
HETATM    6  N2  UNL     1      18.919  36.503  37.903  1.00  0.00    -0.274 N 
HETATM    7  C2  UNL     1      19.796  35.939  38.710  1.00  0.00     0.020 A 
HETATM    8  C1  UNL     1      20.762  36.755  39.444  1.00  0.00     0.068 C 
HETATM    9  C3  UNL     1      19.823  34.544  38.788  1.00  0.00     0.099 A 
HETATM   10  C4  UNL     1      18.940  33.820  38.040  1.00  0.00     0.251 A 
HETATM   11  O1  UNL     1      18.920  32.538  38.076  1.00  0.00    -0.268 OA
HETATM   12  N1  UNL     1      18.071  34.425  37.227  1.00  0.00    -0.275 N 
HETATM   13  C5  UNL     1      18.071  35.784  37.149  1.00  0.00     0.331 A 
ATOM     14  H1  UNL     1      17.415  33.876  36.672  1.00  0.00     0.173 HD
HETATM   15  O2  UNL     1      17.286  36.267  36.326  1.00  0.00    -0.246 OA
ENDBRANCH   1   6
BRANCH   5  16
HETATM   16  O9  UNL     1      20.255  39.255  36.605  1.00  0.00    -0.388 OA
ATOM     17  H9  UNL     1      19.849  40.030  36.976  1.00  0.00     0.210 HD
ENDBRANCH   5  16
BRANCH   3  18
HETATM   18  C8  UNL     1      16.111  40.227  37.074  1.00  0.00     0.217 C 
BRANCH  18  19
HETATM   19  O4  UNL     1      15.589  39.981  35.789  1.00  0.00    -0.280 OA
BRANCH  19  20
HETATM   20  P1  UNL     1      14.500  40.929  35.162  1.00  0.00     0.422 P 
HETATM   21  O5  UNL     1      12.881  40.595  35.691  1.00  0.00    -0.617 OA
HETATM   22  O6  UNL     1      14.679  42.069  34.001  1.00  0.00    -0.617 OA
HETATM   23  O7  UNL     1      14.576  42.018  36.250  1.00  0.00    -0.617 OA
ENDBRANCH  19  20
ENDBRANCH  18  19
ENDBRANCH   3  18
BRANCH   4  24
HETATM   24  O8  UNL     1      18.481  40.201  35.123  1.00  0.00    -0.390 OA
ATOM     25  H8  UNL     1      19.185  39.996  34.520  1.00  0.00     0.210 HD
ENDBRANCH   4  24
TORSDOF 6
ENDMDL
