MODEL 2
REMARK VINA RESULT: -7.752388179      1.492      1.681
REMARK  8 active torsions:
REMARK  status: ('A' for Active; 'I' for Inactive)
REMARK    1  A    between atoms: C3_7  and  C4_8 
REMARK    2  A    between atoms: C4_8  and  N3_9 
REMARK    3  A    between atoms: N3_9  and  C5_12 
REMARK    4  A    between atoms: C5_12  and  C6_13 
REMARK    5  A    between atoms: C6_13  and  N4_14 
REMARK    6  A    between atoms: C7_15  and  O1_16 
REMARK    7  A    between atoms: C13_23  and  N5_24 
REMARK    8  A    between atoms: C20_31  and  O2_32 
ROOT
HETATM    1  N4  UNL     1     -36.601  -5.252 190.054  1.00  0.00     0.156 N 
HETATM    2  C7  UNL     1     -35.235  -5.459 189.599  1.00  0.00     0.395 C 
HETATM    3  C8  UNL     1     -34.297  -5.355 190.756  1.00  0.00     0.012 A 
HETATM    4  C9  UNL     1     -33.002  -4.945 190.543  1.00  0.00     0.012 A 
HETATM    5  C10 UNL     1     -32.118  -4.819 191.591  1.00  0.00     0.002 A 
HETATM    6  C11 UNL     1     -32.509  -5.102 192.889  1.00  0.00     0.014 A 
HETATM    7  C12 UNL     1     -33.822  -5.515 193.086  1.00  0.00     0.002 A 
HETATM    8  C13 UNL     1     -34.296  -5.812 194.344  1.00  0.00     0.040 A 
HETATM    9  C16 UNL     1     -35.604  -6.219 194.548  1.00  0.00     0.031 A 
HETATM   10  C17 UNL     1     -36.483  -6.346 193.509  1.00  0.00     0.015 A 
HETATM   11  C18 UNL     1     -36.029  -6.053 192.224  1.00  0.00     0.012 A 
HETATM   12  C19 UNL     1     -34.732  -5.647 192.022  1.00  0.00    -0.002 A 
HETATM   13  C20 UNL     1     -36.954  -6.203 191.076  1.00  0.00     0.395 C 
ENDROOT
BRANCH   1  14
HETATM   14  C6  UNL     1     -36.856  -3.898 190.434  1.00  0.00     0.307 C 
BRANCH  14  15
HETATM   15  C5  UNL     1     -36.623  -2.895 189.343  1.00  0.00     0.263 C 
BRANCH  15  16
HETATM   16  N3  UNL     1     -37.816  -2.297 188.831  1.00  0.00    -0.068 N 
ATOM     17  H32 UNL     1     -38.555  -2.313 189.534  1.00  0.00     0.277 HD
ATOM     18  H31 UNL     1     -38.241  -2.896 188.121  1.00  0.00     0.277 HD
BRANCH  16  19
HETATM   19  C4  UNL     1     -37.634  -0.974 188.325  1.00  0.00     0.298 C 
BRANCH  19  20
HETATM   20  C3  UNL     1     -38.832  -0.503 187.552  1.00  0.00     0.093 A 
HETATM   21  N2  UNL     1     -39.519  -1.147 186.611  1.00  0.00    -0.296 N 
HETATM   22  N1  UNL     1     -40.509  -0.587 186.064  1.00  0.00    -0.298 N 
ATOM     23  H2  UNL     1     -39.245  -2.089 186.333  1.00  0.00     0.187 HD
HETATM   24  C2  UNL     1     -40.863   0.640 186.430  1.00  0.00     0.064 A 
ATOM     25  H1  UNL     1     -41.038  -1.077 185.342  1.00  0.00     0.187 HD
HETATM   26  C1  UNL     1     -42.008   1.466 185.897  1.00  0.00     0.078 C 
HETATM   27  S1  UNL     1     -39.686   0.976 187.624  1.00  0.00    -0.059 SA
ENDBRANCH  19  20
ENDBRANCH  16  19
ENDBRANCH  15  16
ENDBRANCH  14  15
ENDBRANCH   1  14
BRANCH   2  28
HETATM   28  O1  UNL     1     -35.088  -6.666 188.927  1.00  0.00    -0.364 OA
ATOM     29  H1  UNL     1     -34.180  -6.848 188.717  1.00  0.00     0.212 HD
ENDBRANCH   2  28
BRANCH  13  30
HETATM   30  O2  UNL     1     -38.279  -5.982 191.446  1.00  0.00    -0.364 OA
ATOM     31  H2  UNL     1     -38.319  -5.913 192.393  1.00  0.00     0.212 HD
ENDBRANCH  13  30
BRANCH   8  32
HETATM   32  N5  UNL     1     -33.389  -5.703 195.454  1.00  0.00    -0.389 N 
HETATM   33  C14 UNL     1     -33.021  -4.437 196.049  1.00  0.00     0.149 C 
HETATM   34  C15 UNL     1     -32.835  -6.927 195.984  1.00  0.00     0.149 C 
ENDBRANCH   8  32
TORSDOF 8
ENDMDL
