MODEL 1
REMARK VINA RESULT: -8.336198787      0.000      0.000
REMARK  8 active torsions:
REMARK  status: ('A' for Active; 'I' for Inactive)
REMARK    1  A    between atoms: C3_7  and  C4_8 
REMARK    2  A    between atoms: C4_8  and  N3_9 
REMARK    3  A    between atoms: N3_9  and  C5_12 
REMARK    4  A    between atoms: C5_12  and  C6_13 
REMARK    5  A    between atoms: C6_13  and  N4_14 
REMARK    6  A    between atoms: C7_15  and  O1_16 
REMARK    7  A    between atoms: C13_23  and  N5_24 
REMARK    8  A    between atoms: C20_31  and  O2_32 
ROOT
HETATM    1  N4  UNL     1     -37.235  -5.024 190.105  1.00  0.00     0.156 N 
HETATM    2  C7  UNL     1     -36.504  -6.133 189.511  1.00  0.00     0.395 C 
HETATM    3  C8  UNL     1     -35.538  -6.689 190.504  1.00  0.00     0.012 A 
HETATM    4  C9  UNL     1     -34.389  -7.303 190.061  1.00  0.00     0.012 A 
HETATM    5  C10 UNL     1     -33.468  -7.808 190.952  1.00  0.00     0.002 A 
HETATM    6  C11 UNL     1     -33.673  -7.713 192.318  1.00  0.00     0.014 A 
HETATM    7  C12 UNL     1     -34.839  -7.090 192.748  1.00  0.00     0.002 A 
HETATM    8  C13 UNL     1     -35.121  -6.948 194.088  1.00  0.00     0.040 A 
HETATM    9  C16 UNL     1     -36.278  -6.325 194.523  1.00  0.00     0.031 A 
HETATM   10  C17 UNL     1     -37.195  -5.824 193.641  1.00  0.00     0.015 A 
HETATM   11  C18 UNL     1     -36.935  -5.954 192.278  1.00  0.00     0.012 A 
HETATM   12  C19 UNL     1     -35.786  -6.571 191.847  1.00  0.00    -0.002 A 
HETATM   13  C20 UNL     1     -37.923  -5.440 191.299  1.00  0.00     0.395 C 
ENDROOT
BRANCH   1  14
HETATM   14  C6  UNL     1     -36.417  -3.868 190.301  1.00  0.00     0.307 C 
BRANCH  14  15
HETATM   15  C5  UNL     1     -36.427  -2.901 189.155  1.00  0.00     0.263 C 
BRANCH  15  16
HETATM   16  N3  UNL     1     -37.629  -2.132 189.047  1.00  0.00    -0.068 N 
ATOM     17  H32 UNL     1     -38.066  -2.020 189.962  1.00  0.00     0.277 HD
ATOM     18  H31 UNL     1     -38.356  -2.669 188.573  1.00  0.00     0.277 HD
BRANCH  16  19
HETATM   19  C4  UNL     1     -37.452  -0.862 188.417  1.00  0.00     0.298 C 
BRANCH  19  20
HETATM   20  C3  UNL     1     -38.674  -0.448 187.647  1.00  0.00     0.093 A 
HETATM   21  N2  UNL     1     -39.355  -1.140 186.737  1.00  0.00    -0.296 N 
HETATM   22  N1  UNL     1     -40.368  -0.625 186.187  1.00  0.00    -0.298 N 
ATOM     23  H2  UNL     1     -39.060  -2.082 186.484  1.00  0.00     0.187 HD
HETATM   24  C2  UNL     1     -40.750   0.604 186.520  1.00  0.00     0.064 A 
ATOM     25  H1  UNL     1     -40.893  -1.151 185.489  1.00  0.00     0.187 HD
HETATM   26  C1  UNL     1     -41.924   1.382 185.978  1.00  0.00     0.078 C 
HETATM   27  S1  UNL     1     -39.566   1.009 187.686  1.00  0.00    -0.059 SA
ENDBRANCH  19  20
ENDBRANCH  16  19
ENDBRANCH  15  16
ENDBRANCH  14  15
ENDBRANCH   1  14
BRANCH   2  28
HETATM   28  O1  UNL     1     -37.357  -7.114 189.021  1.00  0.00    -0.364 OA
ATOM     29  H1  UNL     1     -37.556  -7.772 189.676  1.00  0.00     0.212 HD
ENDBRANCH   2  28
BRANCH  13  30
HETATM   30  O2  UNL     1     -38.631  -4.351 191.803  1.00  0.00    -0.364 OA
ATOM     31  H2  UNL     1     -38.411  -4.247 192.721  1.00  0.00     0.212 HD
ENDBRANCH  13  30
BRANCH   8  32
HETATM   32  N5  UNL     1     -34.183  -7.480 195.038  1.00  0.00    -0.389 N 
HETATM   33  C14 UNL     1     -34.199  -8.859 195.475  1.00  0.00     0.149 C 
HETATM   34  C15 UNL     1     -33.186  -6.577 195.566  1.00  0.00     0.149 C 
ENDBRANCH   8  32
TORSDOF 8
ENDMDL
