MODEL 3
REMARK VINA RESULT: -7.731908636      5.133      8.251
REMARK  8 active torsions:
REMARK  status: ('A' for Active; 'I' for Inactive)
REMARK    1  A    between atoms: C3_7  and  C4_8 
REMARK    2  A    between atoms: C4_8  and  N3_9 
REMARK    3  A    between atoms: N3_9  and  C5_12 
REMARK    4  A    between atoms: C5_12  and  C6_13 
REMARK    5  A    between atoms: C6_13  and  N4_14 
REMARK    6  A    between atoms: C7_15  and  O1_16 
REMARK    7  A    between atoms: C13_23  and  N5_24 
REMARK    8  A    between atoms: C20_31  and  O2_32 
ROOT
HETATM    1  N4  UNL     1     -33.760  -3.626 189.259  1.00  0.00     0.156 N 
HETATM    2  C7  UNL     1     -33.300  -2.270 189.517  1.00  0.00     0.395 C 
HETATM    3  C8  UNL     1     -34.350  -1.294 189.099  1.00  0.00     0.012 A 
HETATM    4  C9  UNL     1     -33.980  -0.030 188.703  1.00  0.00     0.012 A 
HETATM    5  C10 UNL     1     -34.921   0.887 188.292  1.00  0.00     0.002 A 
HETATM    6  C11 UNL     1     -36.267   0.562 188.266  1.00  0.00     0.014 A 
HETATM    7  C12 UNL     1     -36.623  -0.720 188.670  1.00  0.00     0.002 A 
HETATM    8  C13 UNL     1     -37.937  -1.129 188.671  1.00  0.00     0.040 A 
HETATM    9  C16 UNL     1     -38.299  -2.406 189.067  1.00  0.00     0.031 A 
HETATM   10  C17 UNL     1     -37.366  -3.318 189.476  1.00  0.00     0.015 A 
HETATM   11  C18 UNL     1     -36.027  -2.929 189.486  1.00  0.00     0.012 A 
HETATM   12  C19 UNL     1     -35.669  -1.663 189.091  1.00  0.00    -0.002 A 
HETATM   13  C20 UNL     1     -34.997  -3.891 189.946  1.00  0.00     0.395 C 
ENDROOT
BRANCH   1  14
HETATM   14  C6  UNL     1     -33.815  -3.933 187.864  1.00  0.00     0.307 C 
BRANCH  14  15
HETATM   15  C5  UNL     1     -32.877  -5.020 187.432  1.00  0.00     0.263 C 
BRANCH  15  16
HETATM   16  N3  UNL     1     -32.994  -5.382 186.053  1.00  0.00    -0.068 N 
ATOM     17  H32 UNL     1     -33.974  -5.488 185.793  1.00  0.00     0.277 HD
ATOM     18  H31 UNL     1     -32.672  -6.340 185.905  1.00  0.00     0.277 HD
BRANCH  16  19
HETATM   19  C4  UNL     1     -32.331  -4.488 185.158  1.00  0.00     0.298 C 
BRANCH  19  20
HETATM   20  C3  UNL     1     -32.309  -5.021 183.754  1.00  0.00     0.093 A 
HETATM   21  N2  UNL     1     -32.196  -6.283 183.346  1.00  0.00    -0.296 N 
HETATM   22  N1  UNL     1     -32.195  -6.546 182.112  1.00  0.00    -0.298 N 
ATOM     23  H2  UNL     1     -32.109  -7.035 184.030  1.00  0.00     0.187 HD
HETATM   24  C2  UNL     1     -32.308  -5.563 181.225  1.00  0.00     0.064 A 
ATOM     25  H1  UNL     1     -32.108  -7.512 181.795  1.00  0.00     0.187 HD
HETATM   26  C1  UNL     1     -32.328  -5.678 179.720  1.00  0.00     0.078 C 
HETATM   27  S1  UNL     1     -32.417  -4.204 182.257  1.00  0.00    -0.059 SA
ENDBRANCH  19  20
ENDBRANCH  16  19
ENDBRANCH  15  16
ENDBRANCH  14  15
ENDBRANCH   1  14
BRANCH   2  28
HETATM   28  O1  UNL     1     -32.932  -2.090 190.844  1.00  0.00    -0.364 OA
ATOM     29  H1  UNL     1     -33.212  -2.813 191.392  1.00  0.00     0.212 HD
ENDBRANCH   2  28
BRANCH  13  30
HETATM   30  O2  UNL     1     -35.370  -5.209 189.693  1.00  0.00    -0.364 OA
ATOM     31  H2  UNL     1     -35.711  -5.261 188.808  1.00  0.00     0.212 HD
ENDBRANCH  13  30
BRANCH   8  32
HETATM   32  N5  UNL     1     -38.942  -0.186 188.260  1.00  0.00    -0.389 N 
HETATM   33  C14 UNL     1     -39.399   0.896 189.104  1.00  0.00     0.149 C 
HETATM   34  C15 UNL     1     -39.505  -0.346 186.940  1.00  0.00     0.149 C 
ENDBRANCH   8  32
TORSDOF 8
ENDMDL
