MODEL 5
REMARK VINA RESULT: -5.592588720      1.948      2.392
REMARK  2 active torsions:
REMARK  status: ('A' for Active; 'I' for Inactive)
REMARK    1  A    between atoms: N3_9  and  C5_10 
REMARK    2  A    between atoms: C5_10  and  C6_11 
ROOT
HETATM    1  N1  UNL     1      30.295 -26.116 -34.240  1.00  0.00    -0.172 NA
HETATM    2  C1  UNL     1      30.515 -26.433 -33.138  1.00  0.00     0.183 C 
HETATM    3  N2  UNL     1      30.757 -26.827 -31.809  1.00  0.00    -0.274 N 
ATOM      4  H2  UNL     1      31.285 -27.684 -31.641  1.00  0.00     0.180 HD
HETATM    5  C2  UNL     1      30.341 -26.152 -30.798  1.00  0.00     0.151 C 
HETATM    6  S1  UNL     1      29.401 -24.630 -30.916  1.00  0.00    -0.092 SA
HETATM    7  C3  UNL     1      29.236 -24.344 -29.104  1.00  0.00     0.102 C 
HETATM    8  C4  UNL     1      30.406 -25.189 -28.624  1.00  0.00     0.136 C 
HETATM    9  N3  UNL     1      30.479 -26.376 -29.402  1.00  0.00    -0.356 N 
ENDROOT
BRANCH   9  10
HETATM   10  C5  UNL     1      30.683 -27.727 -28.844  1.00  0.00     0.165 C 
BRANCH  10  11
HETATM   11  C6  UNL     1      31.291 -27.620 -27.478  1.00  0.00    -0.025 A 
HETATM   12  C7  UNL     1      32.627 -27.336 -27.291  1.00  0.00     0.013 A 
HETATM   13  C8  UNL     1      33.180 -27.239 -26.026  1.00  0.00     0.043 A 
HETATM   14  C9  UNL     1      32.398 -27.426 -24.918  1.00  0.00     0.103 A 
HETATM   15 CL1  UNL     1      33.048 -27.316 -23.279  1.00  0.00    -0.065 Cl
HETATM   16  N4  UNL     1      31.094 -27.703 -25.118  1.00  0.00    -0.356 N 
HETATM   17  C10 UNL     1      30.535 -27.802 -26.332  1.00  0.00     0.098 A 
ATOM     18  H4  UNL     1      30.500 -27.846 -24.300  1.00  0.00     0.166 HD
ENDBRANCH  10  11
ENDBRANCH   9  10
TORSDOF 2
ENDMDL
