MODEL 1
REMARK VINA RESULT: -7.000258174      0.000      0.000
REMARK  2 active torsions:
REMARK  status: ('A' for Active; 'I' for Inactive)
REMARK    1  A    between atoms: N3_9  and  C5_10 
REMARK    2  A    between atoms: C5_10  and  C6_11 
ROOT
HETATM    1  N1  UNL     1      29.712 -28.804 -34.244  1.00  0.00    -0.172 NA
HETATM    2  C1  UNL     1      29.638 -28.271 -33.208  1.00  0.00     0.183 C 
HETATM    3  N2  UNL     1      29.525 -27.627 -31.962  1.00  0.00    -0.274 N 
ATOM      4  H2  UNL     1      29.489 -28.199 -31.117  1.00  0.00     0.180 HD
HETATM    5  C2  UNL     1      29.464 -26.350 -31.843  1.00  0.00     0.151 C 
HETATM    6  S1  UNL     1      29.511 -25.203 -33.220  1.00  0.00    -0.092 SA
HETATM    7  C3  UNL     1      29.387 -23.664 -32.215  1.00  0.00     0.102 C 
HETATM    8  C4  UNL     1      29.871 -24.212 -30.883  1.00  0.00     0.136 C 
HETATM    9  N3  UNL     1      29.349 -25.521 -30.694  1.00  0.00    -0.356 N 
ENDROOT
BRANCH   9  10
HETATM   10  C5  UNL     1      28.745 -26.005 -29.439  1.00  0.00     0.165 C 
BRANCH  10  11
HETATM   11  C6  UNL     1      29.825 -26.300 -28.442  1.00  0.00    -0.025 A 
HETATM   12  C7  UNL     1      29.985 -25.555 -27.293  1.00  0.00     0.013 A 
HETATM   13  C8  UNL     1      30.985 -25.834 -26.378  1.00  0.00     0.043 A 
HETATM   14  C9  UNL     1      31.849 -26.872 -26.600  1.00  0.00     0.103 A 
HETATM   15 CL1  UNL     1      33.145 -27.276 -25.469  1.00  0.00    -0.065 Cl
HETATM   16  N4  UNL     1      31.680 -27.591 -27.728  1.00  0.00    -0.356 N 
HETATM   17  C10 UNL     1      30.720 -27.341 -28.629  1.00  0.00     0.098 A 
ATOM     18  H4  UNL     1      32.318 -28.368 -27.906  1.00  0.00     0.166 HD
ENDBRANCH  10  11
ENDBRANCH   9  10
TORSDOF 2
ENDMDL
