MODEL 4
REMARK VINA RESULT: -6.404874480      3.578      5.626
REMARK  2 active torsions:
REMARK  status: ('A' for Active; 'I' for Inactive)
REMARK    1  A    between atoms: N3_9  and  C5_10 
REMARK    2  A    between atoms: C5_10  and  C6_11 
ROOT
HETATM    1  N1  UNL     1      30.732 -31.337 -26.680  1.00  0.00    -0.172 NA
HETATM    2  C1  UNL     1      30.418 -30.212 -26.661  1.00  0.00     0.183 C 
HETATM    3  N2  UNL     1      30.044 -28.855 -26.663  1.00  0.00    -0.274 N 
ATOM      4  H2  UNL     1      29.052 -28.622 -26.703  1.00  0.00     0.180 HD
HETATM    5  C2  UNL     1      30.901 -27.899 -26.619  1.00  0.00     0.151 C 
HETATM    6  S1  UNL     1      32.677 -28.135 -26.550  1.00  0.00    -0.092 SA
HETATM    7  C3  UNL     1      33.124 -26.348 -26.505  1.00  0.00     0.102 C 
HETATM    8  C4  UNL     1      31.804 -25.787 -26.001  1.00  0.00     0.136 C 
HETATM    9  N3  UNL     1      30.729 -26.489 -26.613  1.00  0.00    -0.356 N 
ENDROOT
BRANCH   9  10
HETATM   10  C5  UNL     1      29.535 -25.845 -27.191  1.00  0.00     0.165 C 
BRANCH  10  11
HETATM   11  C6  UNL     1      29.671 -25.780 -28.683  1.00  0.00    -0.025 A 
HETATM   12  C7  UNL     1      29.632 -26.911 -29.472  1.00  0.00     0.013 A 
HETATM   13  C8  UNL     1      29.758 -26.843 -30.847  1.00  0.00     0.043 A 
HETATM   14  C9  UNL     1      29.928 -25.632 -31.463  1.00  0.00     0.103 A 
HETATM   15 CL1  UNL     1      30.096 -25.482 -33.215  1.00  0.00    -0.065 Cl
HETATM   16  N4  UNL     1      29.965 -24.535 -30.678  1.00  0.00    -0.356 N 
HETATM   17  C10 UNL     1      29.845 -24.576 -29.344  1.00  0.00     0.098 A 
ATOM     18  H4  UNL     1      30.092 -23.627 -31.124  1.00  0.00     0.166 HD
ENDBRANCH  10  11
ENDBRANCH   9  10
TORSDOF 2
ENDMDL
