MODEL 3
REMARK VINA RESULT: -6.681064938      3.390      5.522
REMARK  2 active torsions:
REMARK  status: ('A' for Active; 'I' for Inactive)
REMARK    1  A    between atoms: N3_9  and  C5_10 
REMARK    2  A    between atoms: C5_10  and  C6_11 
ROOT
HETATM    1  N1  UNL     1      30.662 -31.320 -26.699  1.00  0.00    -0.172 NA
HETATM    2  C1  UNL     1      30.379 -30.187 -26.691  1.00  0.00     0.183 C 
HETATM    3  N2  UNL     1      30.042 -28.821 -26.706  1.00  0.00    -0.274 N 
ATOM      4  H2  UNL     1      29.058 -28.560 -26.779  1.00  0.00     0.180 HD
HETATM    5  C2  UNL     1      30.923 -27.888 -26.632  1.00  0.00     0.151 C 
HETATM    6  S1  UNL     1      32.688 -28.171 -26.503  1.00  0.00    -0.092 SA
HETATM    7  C3  UNL     1      33.181 -26.397 -26.443  1.00  0.00     0.102 C 
HETATM    8  C4  UNL     1      31.861 -25.801 -25.983  1.00  0.00     0.136 C 
HETATM    9  N3  UNL     1      30.789 -26.473 -26.632  1.00  0.00    -0.356 N 
ENDROOT
BRANCH   9  10
HETATM   10  C5  UNL     1      29.633 -25.798 -27.250  1.00  0.00     0.165 C 
BRANCH  10  11
HETATM   11  C6  UNL     1      29.800 -25.778 -28.740  1.00  0.00    -0.025 A 
HETATM   12  C7  UNL     1      29.559 -24.645 -29.489  1.00  0.00     0.013 A 
HETATM   13  C8  UNL     1      29.716 -24.636 -30.864  1.00  0.00     0.043 A 
HETATM   14  C9  UNL     1      30.120 -25.769 -31.517  1.00  0.00     0.103 A 
HETATM   15 CL1  UNL     1      30.336 -25.817 -33.270  1.00  0.00    -0.065 Cl
HETATM   16  N4  UNL     1      30.351 -26.868 -30.771  1.00  0.00    -0.356 N 
HETATM   17  C10 UNL     1      30.206 -26.902 -29.439  1.00  0.00     0.098 A 
ATOM     18  H4  UNL     1      30.652 -27.720 -31.246  1.00  0.00     0.166 HD
ENDBRANCH  10  11
ENDBRANCH   9  10
TORSDOF 2
ENDMDL
