MODEL 2
REMARK VINA RESULT: -6.877066841      0.705      1.179
REMARK  2 active torsions:
REMARK  status: ('A' for Active; 'I' for Inactive)
REMARK    1  A    between atoms: N3_9  and  C5_10 
REMARK    2  A    between atoms: C5_10  and  C6_11 
ROOT
HETATM    1  N1  UNL     1      29.657 -28.860 -34.250  1.00  0.00    -0.172 NA
HETATM    2  C1  UNL     1      29.592 -28.333 -33.210  1.00  0.00     0.183 C 
HETATM    3  N2  UNL     1      29.489 -27.696 -31.959  1.00  0.00    -0.274 N 
ATOM      4  H2  UNL     1      29.449 -28.273 -31.119  1.00  0.00     0.180 HD
HETATM    5  C2  UNL     1      29.444 -26.419 -31.833  1.00  0.00     0.151 C 
HETATM    6  S1  UNL     1      29.501 -25.264 -33.202  1.00  0.00    -0.092 SA
HETATM    7  C3  UNL     1      29.396 -23.730 -32.187  1.00  0.00     0.102 C 
HETATM    8  C4  UNL     1      29.878 -24.293 -30.859  1.00  0.00     0.136 C 
HETATM    9  N3  UNL     1      29.341 -25.596 -30.678  1.00  0.00    -0.356 N 
ENDROOT
BRANCH   9  10
HETATM   10  C5  UNL     1      28.734 -26.082 -29.424  1.00  0.00     0.165 C 
BRANCH  10  11
HETATM   11  C6  UNL     1      29.805 -26.288 -28.395  1.00  0.00    -0.025 A 
HETATM   12  C7  UNL     1      30.777 -27.256 -28.533  1.00  0.00     0.013 A 
HETATM   13  C8  UNL     1      31.761 -27.440 -27.578  1.00  0.00     0.043 A 
HETATM   14  C9  UNL     1      31.790 -26.651 -26.460  1.00  0.00     0.103 A 
HETATM   15 CL1  UNL     1      33.020 -26.838 -25.207  1.00  0.00    -0.065 Cl
HETATM   16  N4  UNL     1      30.832 -25.709 -26.339  1.00  0.00    -0.356 N 
HETATM   17  C10 UNL     1      29.868 -25.512 -27.250  1.00  0.00     0.098 A 
ATOM     18  H4  UNL     1      30.841 -25.115 -25.510  1.00  0.00     0.166 HD
ENDBRANCH  10  11
ENDBRANCH   9  10
TORSDOF 2
ENDMDL
