MODEL 2
REMARK VINA RESULT: -7.035844959      0.668      1.152
REMARK  3 active torsions:
REMARK  status: ('A' for Active; 'I' for Inactive)
REMARK    1  A    between atoms: N1_2  and  C1_4 
REMARK    2  A    between atoms: N3_10  and  C5_11 
REMARK    3  A    between atoms: C5_11  and  C6_12 
ROOT
HETATM    1  C1  UNL     1      28.363 -28.455 -27.664  1.00  0.00     0.215 C 
HETATM    2  C2  UNL     1      29.250 -27.591 -27.188  1.00  0.00     0.121 C 
HETATM    3  N2  UNL     1      29.093 -26.703 -26.076  1.00  0.00    -0.374 N 
ATOM      4  H2  UNL     1      28.309 -26.670 -25.424  1.00  0.00     0.161 HD
HETATM    5  C3  UNL     1      30.272 -25.859 -26.062  1.00  0.00     0.141 C 
HETATM    6  C4  UNL     1      31.320 -26.830 -26.626  1.00  0.00     0.144 C 
HETATM    7  N3  UNL     1      30.560 -27.399 -27.731  1.00  0.00    -0.360 N 
ENDROOT
BRANCH   7   8
HETATM    8  C5  UNL     1      30.990 -27.706 -29.069  1.00  0.00     0.164 C 
BRANCH   8   9
HETATM    9  C6  UNL     1      30.467 -26.757 -30.070  1.00  0.00    -0.025 A 
HETATM   10  C7  UNL     1      30.022 -27.089 -31.329  1.00  0.00     0.013 A 
HETATM   11  C8  UNL     1      29.553 -26.117 -32.199  1.00  0.00     0.043 A 
HETATM   12  C9  UNL     1      29.537 -24.815 -31.786  1.00  0.00     0.103 A 
HETATM   13 CL1  UNL     1      28.952 -23.513 -32.837  1.00  0.00    -0.065 Cl
HETATM   14  N4  UNL     1      29.960 -24.467 -30.577  1.00  0.00    -0.356 N 
HETATM   15  C10 UNL     1      30.419 -25.418 -29.727  1.00  0.00     0.098 A 
ATOM     16  H4  UNL     1      29.940 -23.489 -30.289  1.00  0.00     0.166 HD
ENDBRANCH   8   9
ENDBRANCH   7   8
BRANCH   1  17
HETATM   17  N1  UNL     1      27.097 -28.563 -27.053  1.00  0.00    -0.124 N 
HETATM   18  O1  UNL     1      26.086 -28.795 -27.732  1.00  0.00    -0.532 OA
HETATM   19  O2  UNL     1      26.966 -28.412 -25.704  1.00  0.00    -0.532 OA
ENDBRANCH   1  17
TORSDOF 3
ENDMDL
