MODEL 4
REMARK VINA RESULT: -5.501933103      3.716      5.757
REMARK  3 active torsions:
REMARK  status: ('A' for Active; 'I' for Inactive)
REMARK    1  A    between atoms: N1_2  and  C1_4 
REMARK    2  A    between atoms: N3_10  and  C5_11 
REMARK    3  A    between atoms: C5_11  and  C6_12 
ROOT
HETATM    1  C1  UNL     1      30.235 -27.298 -31.936  1.00  0.00     0.215 C 
HETATM    2  C2  UNL     1      30.111 -26.022 -31.595  1.00  0.00     0.121 C 
HETATM    3  N2  UNL     1      29.780 -24.919 -32.447  1.00  0.00    -0.374 N 
ATOM      4  H2  UNL     1      29.496 -24.965 -33.425  1.00  0.00     0.161 HD
HETATM    5  C3  UNL     1      29.930 -23.725 -31.640  1.00  0.00     0.141 C 
HETATM    6  C4  UNL     1      29.549 -24.271 -30.255  1.00  0.00     0.144 C 
HETATM    7  N3  UNL     1      30.298 -25.521 -30.268  1.00  0.00    -0.360 N 
ENDROOT
BRANCH   7   8
HETATM    8  C5  UNL     1      31.060 -26.136 -29.215  1.00  0.00     0.164 C 
BRANCH   8   9
HETATM    9  C6  UNL     1      30.223 -26.566 -28.078  1.00  0.00    -0.025 A 
HETATM   10  C7  UNL     1      30.350 -26.125 -26.781  1.00  0.00     0.013 A 
HETATM   11  C8  UNL     1      29.513 -26.597 -25.782  1.00  0.00     0.043 A 
HETATM   12  C9  UNL     1      28.553 -27.513 -26.105  1.00  0.00     0.103 A 
HETATM   13 CL1  UNL     1      27.443 -28.166 -24.887  1.00  0.00    -0.065 Cl
HETATM   14  N4  UNL     1      28.409 -27.955 -27.348  1.00  0.00    -0.356 N 
HETATM   15  C10 UNL     1      29.227 -27.493 -28.325  1.00  0.00     0.098 A 
ATOM     16  H4  UNL     1      27.685 -28.640 -27.567  1.00  0.00     0.166 HD
ENDBRANCH   8   9
ENDBRANCH   7   8
BRANCH   1  17
HETATM   17  N1  UNL     1      30.031 -27.685 -33.277  1.00  0.00    -0.124 N 
HETATM   18  O1  UNL     1      28.892 -27.690 -33.766  1.00  0.00    -0.532 OA
HETATM   19  O2  UNL     1      31.085 -28.060 -34.056  1.00  0.00    -0.532 OA
ENDBRANCH   1  17
TORSDOF 3
ENDMDL
