MODEL 1
REMARK VINA RESULT: -7.430428554      0.000      0.000
REMARK  3 active torsions:
REMARK  status: ('A' for Active; 'I' for Inactive)
REMARK    1  A    between atoms: N1_2  and  C1_4 
REMARK    2  A    between atoms: N3_10  and  C5_11 
REMARK    3  A    between atoms: C5_11  and  C6_12 
ROOT
HETATM    1  C1  UNL     1      28.301 -28.434 -27.686  1.00  0.00     0.215 C 
HETATM    2  C2  UNL     1      29.235 -27.611 -27.229  1.00  0.00     0.121 C 
HETATM    3  N2  UNL     1      29.169 -26.774 -26.069  1.00  0.00    -0.374 N 
ATOM      4  H2  UNL     1      28.430 -26.758 -25.367  1.00  0.00     0.161 HD
HETATM    5  C3  UNL     1      30.364 -25.954 -26.093  1.00  0.00     0.141 C 
HETATM    6  C4  UNL     1      31.353 -26.917 -26.769  1.00  0.00     0.144 C 
HETATM    7  N3  UNL     1      30.511 -27.418 -27.847  1.00  0.00    -0.360 N 
ENDROOT
BRANCH   7   8
HETATM    8  C5  UNL     1      30.848 -27.668 -29.223  1.00  0.00     0.164 C 
BRANCH   8   9
HETATM    9  C6  UNL     1      30.402 -26.591 -30.127  1.00  0.00    -0.025 A 
HETATM   10  C7  UNL     1      30.313 -25.258 -29.797  1.00  0.00     0.013 A 
HETATM   11  C8  UNL     1      29.876 -24.322 -30.722  1.00  0.00     0.043 A 
HETATM   12  C9  UNL     1      29.532 -24.744 -31.975  1.00  0.00     0.103 A 
HETATM   13 CL1  UNL     1      28.964 -23.611 -33.214  1.00  0.00    -0.065 Cl
HETATM   14  N4  UNL     1      29.609 -26.023 -32.319  1.00  0.00    -0.356 N 
HETATM   15  C10 UNL     1      30.036 -26.939 -31.415  1.00  0.00     0.098 A 
ATOM     16  H4  UNL     1      29.347 -26.317 -33.260  1.00  0.00     0.166 HD
ENDBRANCH   8   9
ENDBRANCH   7   8
BRANCH   1  17
HETATM   17  N1  UNL     1      27.074 -28.548 -26.999  1.00  0.00    -0.124 N 
HETATM   18  O1  UNL     1      26.044 -28.888 -27.599  1.00  0.00    -0.532 OA
HETATM   19  O2  UNL     1      27.004 -28.284 -25.664  1.00  0.00    -0.532 OA
ENDBRANCH   1  17
TORSDOF 3
ENDMDL
