MODEL 3
REMARK VINA RESULT: -6.377659627      4.093      6.113
REMARK  3 active torsions:
REMARK  status: ('A' for Active; 'I' for Inactive)
REMARK    1  A    between atoms: N1_2  and  C1_4 
REMARK    2  A    between atoms: N3_10  and  C5_11 
REMARK    3  A    between atoms: C5_11  and  C6_12 
ROOT
HETATM    1  C1  UNL     1      55.210 -13.862 -29.423  1.00  0.00     0.215 C 
HETATM    2  C2  UNL     1      56.422 -13.728 -29.947  1.00  0.00     0.121 C 
HETATM    3  N2  UNL     1      56.756 -13.350 -31.287  1.00  0.00    -0.374 N 
ATOM      4  H2  UNL     1      56.113 -13.034 -32.013  1.00  0.00     0.161 HD
HETATM    5  C3  UNL     1      58.192 -13.507 -31.405  1.00  0.00     0.141 C 
HETATM    6  C4  UNL     1      58.631 -13.181 -29.970  1.00  0.00     0.144 C 
HETATM    7  N3  UNL     1      57.639 -13.949 -29.228  1.00  0.00    -0.360 N 
ENDROOT
BRANCH   7   8
HETATM    8  C5  UNL     1      57.808 -14.757 -28.049  1.00  0.00     0.164 C 
BRANCH   8   9
HETATM    9  C6  UNL     1      57.729 -13.972 -26.803  1.00  0.00    -0.025 A 
HETATM   10  C7  UNL     1      58.235 -14.359 -25.583  1.00  0.00     0.013 A 
HETATM   11  C8  UNL     1      58.103 -13.547 -24.467  1.00  0.00     0.043 A 
HETATM   12  C9  UNL     1      57.461 -12.349 -24.595  1.00  0.00     0.103 A 
HETATM   13 CL1  UNL     1      57.251 -11.254 -23.217  1.00  0.00    -0.065 Cl
HETATM   14  N4  UNL     1      56.964 -11.952 -25.759  1.00  0.00    -0.356 N 
HETATM   15  C10 UNL     1      57.093 -12.745 -26.851  1.00  0.00     0.098 A 
ATOM     16  H4  UNL     1      56.487 -11.053 -25.833  1.00  0.00     0.166 HD
ENDBRANCH   8   9
ENDBRANCH   7   8
BRANCH   1  17
HETATM   17  N1  UNL     1      54.074 -13.620 -30.223  1.00  0.00    -0.124 N 
HETATM   18  O1  UNL     1      53.947 -14.176 -31.323  1.00  0.00    -0.532 OA
HETATM   19  O2  UNL     1      53.098 -12.769 -29.797  1.00  0.00    -0.532 OA
ENDBRANCH   1  17
TORSDOF 3
ENDMDL
