MODEL 4
REMARK VINA RESULT: -6.337306714      3.906      5.711
REMARK  3 active torsions:
REMARK  status: ('A' for Active; 'I' for Inactive)
REMARK    1  A    between atoms: N1_2  and  C1_4 
REMARK    2  A    between atoms: N3_10  and  C5_11 
REMARK    3  A    between atoms: C5_11  and  C6_12 
ROOT
HETATM    1  C1  UNL     1      57.846 -14.021 -28.176  1.00  0.00     0.215 C 
HETATM    2  C2  UNL     1      57.549 -13.302 -27.101  1.00  0.00     0.121 C 
HETATM    3  N2  UNL     1      56.854 -12.051 -27.052  1.00  0.00    -0.374 N 
ATOM      4  H2  UNL     1      56.400 -11.572 -27.829  1.00  0.00     0.161 HD
HETATM    5  C3  UNL     1      56.927 -11.601 -25.676  1.00  0.00     0.141 C 
HETATM    6  C4  UNL     1      56.933 -12.949 -24.939  1.00  0.00     0.144 C 
HETATM    7  N3  UNL     1      57.890 -13.677 -25.762  1.00  0.00    -0.360 N 
ENDROOT
BRANCH   7   8
HETATM    8  C5  UNL     1      58.945 -14.568 -25.360  1.00  0.00     0.164 C 
BRANCH   8   9
HETATM    9  C6  UNL     1      58.479 -15.634 -24.454  1.00  0.00    -0.025 A 
HETATM   10  C7  UNL     1      57.998 -15.445 -23.179  1.00  0.00     0.013 A 
HETATM   11  C8  UNL     1      57.589 -16.520 -22.405  1.00  0.00     0.043 A 
HETATM   12  C9  UNL     1      57.670 -17.779 -22.928  1.00  0.00     0.103 A 
HETATM   13 CL1  UNL     1      57.167 -19.205 -22.004  1.00  0.00    -0.065 Cl
HETATM   14  N4  UNL     1      58.130 -17.989 -24.155  1.00  0.00    -0.356 N 
HETATM   15  C10 UNL     1      58.530 -16.938 -24.912  1.00  0.00     0.098 A 
ATOM     16  H4  UNL     1      58.183 -18.938 -24.527  1.00  0.00     0.166 HD
ENDBRANCH   8   9
ENDBRANCH   7   8
BRANCH   1  17
HETATM   17  N1  UNL     1      57.463 -13.557 -29.452  1.00  0.00    -0.124 N 
HETATM   18  O1  UNL     1      56.275 -13.585 -29.803  1.00  0.00    -0.532 OA
HETATM   19  O2  UNL     1      58.396 -13.072 -30.319  1.00  0.00    -0.532 OA
ENDBRANCH   1  17
TORSDOF 3
ENDMDL
