MODEL 11
REMARK VINA RESULT: -5.464921967      1.405      2.000
REMARK  3 active torsions:
REMARK  status: ('A' for Active; 'I' for Inactive)
REMARK    1  A    between atoms: N1_2  and  C1_4 
REMARK    2  A    between atoms: N3_10  and  C5_11 
REMARK    3  A    between atoms: C5_11  and  C6_12 
ROOT
HETATM    1  C1  UNL     1      58.634 -15.823 -25.756  1.00  0.00     0.215 C 
HETATM    2  C2  UNL     1      58.417 -14.542 -26.027  1.00  0.00     0.121 C 
HETATM    3  N2  UNL     1      58.319 -13.457 -25.098  1.00  0.00    -0.374 N 
ATOM      4  H2  UNL     1      58.498 -13.493 -24.094  1.00  0.00     0.161 HD
HETATM    5  C3  UNL     1      57.916 -12.299 -25.869  1.00  0.00     0.141 C 
HETATM    6  C4  UNL     1      58.585 -12.609 -27.216  1.00  0.00     0.144 C 
HETATM    7  N3  UNL     1      58.236 -14.018 -27.347  1.00  0.00    -0.360 N 
ENDROOT
BRANCH   7   8
HETATM    8  C5  UNL     1      57.804 -14.745 -28.510  1.00  0.00     0.164 C 
BRANCH   8   9
HETATM    9  C6  UNL     1      56.541 -14.228 -29.070  1.00  0.00    -0.025 A 
HETATM   10  C7  UNL     1      56.076 -14.466 -30.343  1.00  0.00     0.013 A 
HETATM   11  C8  UNL     1      54.874 -13.928 -30.776  1.00  0.00     0.043 A 
HETATM   12  C9  UNL     1      54.150 -13.152 -29.914  1.00  0.00     0.103 A 
HETATM   13 CL1  UNL     1      52.604 -12.428 -30.390  1.00  0.00    -0.065 Cl
HETATM   14  N4  UNL     1      54.576 -12.908 -28.681  1.00  0.00    -0.356 N 
HETATM   15  C10 UNL     1      55.751 -13.434 -28.258  1.00  0.00     0.098 A 
ATOM     16  H4  UNL     1      54.020 -12.325 -28.054  1.00  0.00     0.166 HD
ENDBRANCH   8   9
ENDBRANCH   7   8
BRANCH   1  17
HETATM   17  N1  UNL     1      58.797 -16.234 -24.417  1.00  0.00    -0.124 N 
HETATM   18  O1  UNL     1      58.301 -15.577 -23.490  1.00  0.00    -0.532 OA
HETATM   19  O2  UNL     1      59.504 -17.361 -24.121  1.00  0.00    -0.532 OA
ENDBRANCH   1  17
TORSDOF 3
ENDMDL
