MODEL 1
REMARK VINA RESULT: -7.403335452      0.000      0.000
REMARK  3 active torsions:
REMARK  status: ('A' for Active; 'I' for Inactive)
REMARK    1  A    between atoms: N1_2  and  C1_4 
REMARK    2  A    between atoms: N3_10  and  C5_11 
REMARK    3  A    between atoms: C5_11  and  C6_12 
ROOT
HETATM    1  C1  UNL     1      58.742 -15.273 -25.176  1.00  0.00     0.215 C 
HETATM    2  C2  UNL     1      58.174 -14.107 -24.897  1.00  0.00     0.121 C 
HETATM    3  N2  UNL     1      57.335 -13.790 -23.780  1.00  0.00    -0.374 N 
ATOM      4  H2  UNL     1      57.127 -14.389 -22.982  1.00  0.00     0.161 HD
HETATM    5  C3  UNL     1      56.841 -12.448 -24.013  1.00  0.00     0.141 C 
HETATM    6  C4  UNL     1      58.027 -11.839 -24.776  1.00  0.00     0.144 C 
HETATM    7  N3  UNL     1      58.314 -12.930 -25.699  1.00  0.00    -0.360 N 
ENDROOT
BRANCH   7   8
HETATM    8  C5  UNL     1      58.655 -12.876 -27.095  1.00  0.00     0.164 C 
BRANCH   8   9
HETATM    9  C6  UNL     1      57.501 -13.135 -27.977  1.00  0.00    -0.025 A 
HETATM   10  C7  UNL     1      56.211 -12.718 -27.746  1.00  0.00     0.013 A 
HETATM   11  C8  UNL     1      55.194 -13.019 -28.639  1.00  0.00     0.043 A 
HETATM   12  C9  UNL     1      55.492 -13.742 -29.759  1.00  0.00     0.103 A 
HETATM   13 CL1  UNL     1      54.250 -14.168 -30.949  1.00  0.00    -0.065 Cl
HETATM   14  N4  UNL     1      56.728 -14.156 -30.006  1.00  0.00    -0.356 N 
HETATM   15  C10 UNL     1      57.723 -13.861 -29.133  1.00  0.00     0.098 A 
ATOM     16  H4  UNL     1      56.929 -14.695 -30.848  1.00  0.00     0.166 HD
ENDBRANCH   8   9
ENDBRANCH   7   8
BRANCH   1  17
HETATM   17  N1  UNL     1      58.537 -16.372 -24.316  1.00  0.00    -0.124 N 
HETATM   18  O1  UNL     1      58.221 -16.196 -23.131  1.00  0.00    -0.532 OA
HETATM   19  O2  UNL     1      58.686 -17.646 -24.777  1.00  0.00    -0.532 OA
ENDBRANCH   1  17
TORSDOF 3
ENDMDL
