MODEL 9
REMARK VINA RESULT: -5.656001771      1.253      1.253
REMARK  3 active torsions:
REMARK  status: ('A' for Active; 'I' for Inactive)
REMARK    1  A    between atoms: N1_2  and  C1_4 
REMARK    2  A    between atoms: N3_10  and  C5_11 
REMARK    3  A    between atoms: C5_11  and  C6_12 
ROOT
HETATM    1  C1  UNL     1      58.633 -15.647 -24.528  1.00  0.00     0.215 C 
HETATM    2  C2  UNL     1      58.195 -14.419 -24.778  1.00  0.00     0.121 C 
HETATM    3  N2  UNL     1      57.322 -13.623 -23.969  1.00  0.00    -0.374 N 
ATOM      4  H2  UNL     1      56.983 -13.845 -23.033  1.00  0.00     0.161 HD
HETATM    5  C3  UNL     1      57.017 -12.439 -24.747  1.00  0.00     0.141 C 
HETATM    6  C4  UNL     1      58.323 -12.280 -25.541  1.00  0.00     0.144 C 
HETATM    7  N3  UNL     1      58.538 -13.663 -25.943  1.00  0.00    -0.360 N 
ENDROOT
BRANCH   7   8
HETATM    8  C5  UNL     1      58.985 -14.185 -27.207  1.00  0.00     0.164 C 
BRANCH   8   9
HETATM    9  C6  UNL     1      57.944 -14.125 -28.251  1.00  0.00    -0.025 A 
HETATM   10  C7  UNL     1      56.722 -14.755 -28.197  1.00  0.00     0.013 A 
HETATM   11  C8  UNL     1      55.814 -14.639 -29.237  1.00  0.00     0.043 A 
HETATM   12  C9  UNL     1      56.149 -13.885 -30.325  1.00  0.00     0.103 A 
HETATM   13 CL1  UNL     1      55.044 -13.687 -31.696  1.00  0.00    -0.065 Cl
HETATM   14  N4  UNL     1      57.321 -13.267 -30.403  1.00  0.00    -0.356 N 
HETATM   15  C10 UNL     1      58.210 -13.380 -29.385  1.00  0.00     0.098 A 
ATOM     16  H4  UNL     1      57.552 -12.709 -31.225  1.00  0.00     0.166 HD
ENDBRANCH   8   9
ENDBRANCH   7   8
BRANCH   1  17
HETATM   17  N1  UNL     1      58.231 -16.304 -23.347  1.00  0.00    -0.124 N 
HETATM   18  O1  UNL     1      57.028 -16.448 -23.083  1.00  0.00    -0.532 OA
HETATM   19  O2  UNL     1      59.160 -16.792 -22.477  1.00  0.00    -0.532 OA
ENDBRANCH   1  17
TORSDOF 3
ENDMDL
