MODEL 2
REMARK VINA RESULT: -6.621221594      3.971      5.738
REMARK  3 active torsions:
REMARK  status: ('A' for Active; 'I' for Inactive)
REMARK    1  A    between atoms: N1_2  and  C1_4 
REMARK    2  A    between atoms: N3_10  and  C5_11 
REMARK    3  A    between atoms: C5_11  and  C6_12 
ROOT
HETATM    1  C1  UNL     1      56.983 -13.715 -27.528  1.00  0.00     0.215 C 
HETATM    2  C2  UNL     1      57.203 -13.028 -26.415  1.00  0.00     0.121 C 
HETATM    3  N2  UNL     1      56.818 -11.677 -26.133  1.00  0.00    -0.374 N 
ATOM      4  H2  UNL     1      56.233 -11.074 -26.710  1.00  0.00     0.161 HD
HETATM    5  C3  UNL     1      57.427 -11.341 -24.861  1.00  0.00     0.141 C 
HETATM    6  C4  UNL     1      57.417 -12.713 -24.172  1.00  0.00     0.144 C 
HETATM    7  N3  UNL     1      57.888 -13.546 -25.271  1.00  0.00    -0.360 N 
ENDROOT
BRANCH   7   8
HETATM    8  C5  UNL     1      58.825 -14.637 -25.249  1.00  0.00     0.164 C 
BRANCH   8   9
HETATM    9  C6  UNL     1      58.407 -15.733 -24.356  1.00  0.00    -0.025 A 
HETATM   10  C7  UNL     1      57.938 -15.581 -23.071  1.00  0.00     0.013 A 
HETATM   11  C8  UNL     1      57.574 -16.681 -22.310  1.00  0.00     0.043 A 
HETATM   12  C9  UNL     1      57.688 -17.928 -22.856  1.00  0.00     0.103 A 
HETATM   13 CL1  UNL     1      57.244 -19.385 -21.949  1.00  0.00    -0.065 Cl
HETATM   14  N4  UNL     1      58.137 -18.103 -24.092  1.00  0.00    -0.356 N 
HETATM   15  C10 UNL     1      58.493 -17.027 -24.837  1.00  0.00     0.098 A 
ATOM     16  H4  UNL     1      58.215 -19.043 -24.481  1.00  0.00     0.166 HD
ENDBRANCH   8   9
ENDBRANCH   7   8
BRANCH   1  17
HETATM   17  N1  UNL     1      56.297 -13.106 -28.600  1.00  0.00    -0.124 N 
HETATM   18  O1  UNL     1      56.839 -12.983 -29.708  1.00  0.00    -0.532 OA
HETATM   19  O2  UNL     1      55.026 -12.644 -28.432  1.00  0.00    -0.532 OA
ENDBRANCH   1  17
TORSDOF 3
ENDMDL
