MODEL 10
REMARK VINA RESULT: -5.505290047      1.627      1.961
REMARK  3 active torsions:
REMARK  status: ('A' for Active; 'I' for Inactive)
REMARK    1  A    between atoms: N1_2  and  C1_4 
REMARK    2  A    between atoms: N3_10  and  C5_11 
REMARK    3  A    between atoms: C5_11  and  C6_12 
ROOT
HETATM    1  C1  UNL     1      57.682 -14.786 -25.120  1.00  0.00     0.215 C 
HETATM    2  C2  UNL     1      57.485 -13.508 -24.826  1.00  0.00     0.121 C 
HETATM    3  N2  UNL     1      57.866 -12.819 -23.630  1.00  0.00    -0.374 N 
ATOM      4  H2  UNL     1      58.432 -13.187 -22.866  1.00  0.00     0.161 HD
HETATM    5  C3  UNL     1      57.287 -11.494 -23.724  1.00  0.00     0.141 C 
HETATM    6  C4  UNL     1      57.324 -11.277 -25.245  1.00  0.00     0.144 C 
HETATM    7  N3  UNL     1      56.832 -12.573 -25.692  1.00  0.00    -0.360 N 
ENDROOT
BRANCH   7   8
HETATM    8  C5  UNL     1      55.905 -12.881 -26.747  1.00  0.00     0.164 C 
BRANCH   8   9
HETATM    9  C6  UNL     1      56.572 -13.337 -27.981  1.00  0.00    -0.025 A 
HETATM   10  C7  UNL     1      55.986 -14.086 -28.976  1.00  0.00     0.013 A 
HETATM   11  C8  UNL     1      56.705 -14.468 -30.097  1.00  0.00     0.043 A 
HETATM   12  C9  UNL     1      58.013 -14.090 -30.203  1.00  0.00     0.103 A 
HETATM   13 CL1  UNL     1      59.001 -14.539 -31.605  1.00  0.00    -0.065 Cl
HETATM   14  N4  UNL     1      58.603 -13.368 -29.258  1.00  0.00    -0.356 N 
HETATM   15  C10 UNL     1      57.900 -12.993 -28.161  1.00  0.00     0.098 A 
ATOM     16  H4  UNL     1      59.581 -13.096 -29.357  1.00  0.00     0.166 HD
ENDBRANCH   8   9
ENDBRANCH   7   8
BRANCH   1  17
HETATM   17  N1  UNL     1      58.336 -15.623 -24.193  1.00  0.00    -0.124 N 
HETATM   18  O1  UNL     1      58.109 -15.518 -22.979  1.00  0.00    -0.532 OA
HETATM   19  O2  UNL     1      59.230 -16.560 -24.618  1.00  0.00    -0.532 OA
ENDBRANCH   1  17
TORSDOF 3
ENDMDL
