MODEL 3
REMARK VINA RESULT: -5.938242070      0.801      1.608
REMARK  2 active torsions:
REMARK  status: ('A' for Active; 'I' for Inactive)
REMARK    1  A    between atoms: N3_7  and  C4_8 
REMARK    2  A    between atoms: C4_8  and  C5_9 
ROOT
HETATM    1  C5  UNL     1       2.741  20.226  13.888  1.00  0.00    -0.024 A 
HETATM    2  C6  UNL     1       2.482  18.882  13.710  1.00  0.00     0.013 A 
HETATM    3  C7  UNL     1       3.474  17.969  13.971  1.00  0.00     0.043 A 
HETATM    4  C8  UNL     1       4.727  18.350  14.406  1.00  0.00     0.103 A 
HETATM    5 CL1  UNL     1       5.991  17.173  14.737  1.00  0.00    -0.065 Cl
HETATM    6  N4  UNL     1       4.929  19.670  14.564  1.00  0.00    -0.356 N 
ATOM      7  H4  UNL     1       5.846  19.980  14.885  1.00  0.00     0.166 HD
HETATM    8  C9  UNL     1       3.996  20.604  14.323  1.00  0.00     0.098 A 
ENDROOT
BRANCH   1   9
HETATM    9  C4  UNL     1       1.692  21.245  13.615  1.00  0.00     0.171 C 
BRANCH   9  10
HETATM   10  N3  UNL     1       1.879  22.342  14.539  1.00  0.00    -0.326 N 
HETATM   11  C1  UNL     1       2.463  23.511  14.231  1.00  0.00     0.194 A 
HETATM   12  N1  UNL     1       3.003  23.903  12.975  1.00  0.00    -0.063 NA
HETATM   13  N2  UNL     1       2.427  24.235  15.382  1.00  0.00    -0.339 N 
HETATM   14  C2  UNL     1       1.843  23.550  16.368  1.00  0.00     0.108 A 
ATOM     15  H2  UNL     1       2.798  25.180  15.479  1.00  0.00     0.168 HD
HETATM   16  C3  UNL     1       1.489  22.330  15.829  1.00  0.00     0.111 A 
ENDBRANCH   9  10
ENDBRANCH   1   9
TORSDOF 2
ENDMDL
