MODEL 1
REMARK VINA RESULT: -6.896602407      0.000      0.000
REMARK  2 active torsions:
REMARK  status: ('A' for Active; 'I' for Inactive)
REMARK    1  A    between atoms: N3_7  and  C4_8 
REMARK    2  A    between atoms: C4_8  and  C5_9 
ROOT
HETATM    1  C5  UNL     1       2.738  20.292  14.092  1.00  0.00    -0.024 A 
HETATM    2  C6  UNL     1       2.525  18.976  13.733  1.00  0.00     0.013 A 
HETATM    3  C7  UNL     1       3.560  18.081  13.831  1.00  0.00     0.043 A 
HETATM    4  C8  UNL     1       4.813  18.450  14.275  1.00  0.00     0.103 A 
HETATM    5 CL1  UNL     1       6.132  17.295  14.396  1.00  0.00    -0.065 Cl
HETATM    6  N4  UNL     1       4.969  19.743  14.612  1.00  0.00    -0.356 N 
ATOM      7  H4  UNL     1       5.885  20.044  14.945  1.00  0.00     0.166 HD
HETATM    8  C9  UNL     1       3.993  20.660  14.536  1.00  0.00     0.098 A 
ENDROOT
BRANCH   1   9
HETATM    9  C4  UNL     1       1.640  21.293  13.999  1.00  0.00     0.171 C 
BRANCH   9  10
HETATM   10  N3  UNL     1       2.180  22.586  14.356  1.00  0.00    -0.326 N 
HETATM   11  C1  UNL     1       1.906  23.243  15.495  1.00  0.00     0.194 A 
HETATM   12  N1  UNL     1       1.054  22.821  16.552  1.00  0.00    -0.063 NA
HETATM   13  N2  UNL     1       2.618  24.399  15.413  1.00  0.00    -0.339 N 
HETATM   14  C2  UNL     1       3.310  24.464  14.273  1.00  0.00     0.108 A 
ATOM     15  H2  UNL     1       2.621  25.124  16.130  1.00  0.00     0.168 HD
HETATM   16  C3  UNL     1       3.031  23.298  13.589  1.00  0.00     0.111 A 
ENDBRANCH   9  10
ENDBRANCH   1   9
TORSDOF 2
ENDMDL
