MODEL 6
REMARK VINA RESULT: -5.715260137      3.744      5.754
REMARK  2 active torsions:
REMARK  status: ('A' for Active; 'I' for Inactive)
REMARK    1  A    between atoms: N3_7  and  C4_8 
REMARK    2  A    between atoms: C4_8  and  C5_9 
ROOT
HETATM    1  C5  UNL     1       2.887  18.050  14.363  1.00  0.00    -0.024 A 
HETATM    2  C6  UNL     1       4.218  18.343  14.588  1.00  0.00     0.013 A 
HETATM    3  C7  UNL     1       4.623  19.654  14.586  1.00  0.00     0.043 A 
HETATM    4  C8  UNL     1       3.745  20.695  14.364  1.00  0.00     0.103 A 
HETATM    5 CL1  UNL     1       4.275  22.371  14.362  1.00  0.00    -0.065 Cl
HETATM    6  N4  UNL     1       2.461  20.357  14.150  1.00  0.00    -0.356 N 
ATOM      7  H4  UNL     1       1.790  21.107  13.984  1.00  0.00     0.166 HD
HETATM    8  C9  UNL     1       2.011  19.093  14.142  1.00  0.00     0.098 A 
ENDROOT
BRANCH   1   9
HETATM    9  C4  UNL     1       2.410  16.641  14.358  1.00  0.00     0.171 C 
BRANCH   9  10
HETATM   10  N3  UNL     1       1.631  16.435  13.157  1.00  0.00    -0.326 N 
HETATM   11  C1  UNL     1       0.358  16.006  13.133  1.00  0.00     0.194 A 
HETATM   12  N1  UNL     1      -0.462  15.674  14.246  1.00  0.00    -0.063 NA
HETATM   13  N2  UNL     1       0.029  15.958  11.815  1.00  0.00    -0.339 N 
HETATM   14  C2  UNL     1       1.050  16.341  11.044  1.00  0.00     0.108 A 
ATOM     15  H2  UNL     1      -0.881  15.666  11.459  1.00  0.00     0.168 HD
HETATM   16  C3  UNL     1       2.084  16.649  11.905  1.00  0.00     0.111 A 
ENDBRANCH   9  10
ENDBRANCH   1   9
TORSDOF 2
ENDMDL
