MODEL 5
REMARK VINA RESULT: -5.868541242      2.768      5.198
REMARK  2 active torsions:
REMARK  status: ('A' for Active; 'I' for Inactive)
REMARK    1  A    between atoms: N3_7  and  C4_8 
REMARK    2  A    between atoms: C4_8  and  C5_9 
ROOT
HETATM    1  C5  UNL     1       2.533  20.711  13.903  1.00  0.00    -0.024 A 
HETATM    2  C6  UNL     1       1.413  21.514  13.830  1.00  0.00     0.013 A 
HETATM    3  C7  UNL     1       1.489  22.811  14.273  1.00  0.00     0.043 A 
HETATM    4  C8  UNL     1       2.651  23.343  14.793  1.00  0.00     0.103 A 
HETATM    5 CL1  UNL     1       2.738  25.005  15.359  1.00  0.00    -0.065 Cl
HETATM    6  N4  UNL     1       3.714  22.521  14.843  1.00  0.00    -0.356 N 
ATOM      7  H4  UNL     1       4.587  22.888  15.222  1.00  0.00     0.166 HD
HETATM    8  C9  UNL     1       3.695  21.246  14.424  1.00  0.00     0.098 A 
ENDROOT
BRANCH   1   9
HETATM    9  C4  UNL     1       2.489  19.300  13.433  1.00  0.00     0.171 C 
BRANCH   9  10
HETATM   10  N3  UNL     1       3.674  18.628  13.919  1.00  0.00    -0.326 N 
HETATM   11  C1  UNL     1       3.700  17.375  14.404  1.00  0.00     0.194 A 
HETATM   12  N1  UNL     1       2.604  16.479  14.539  1.00  0.00    -0.063 NA
HETATM   13  N2  UNL     1       4.999  17.156  14.739  1.00  0.00    -0.339 N 
HETATM   14  C2  UNL     1       5.757  18.223  14.474  1.00  0.00     0.108 A 
ATOM     15  H2  UNL     1       5.351  16.287  15.142  1.00  0.00     0.168 HD
HETATM   16  C3  UNL     1       4.907  19.173  13.945  1.00  0.00     0.111 A 
ENDBRANCH   9  10
ENDBRANCH   1   9
TORSDOF 2
ENDMDL
