MODEL 7
REMARK VINA RESULT: -5.708732770      3.709      5.710
REMARK  2 active torsions:
REMARK  status: ('A' for Active; 'I' for Inactive)
REMARK    1  A    between atoms: N3_7  and  C4_8 
REMARK    2  A    between atoms: C4_8  and  C5_9 
ROOT
HETATM    1  C5  UNL     1       2.808  18.158  14.332  1.00  0.00    -0.024 A 
HETATM    2  C6  UNL     1       1.934  19.127  13.882  1.00  0.00     0.013 A 
HETATM    3  C7  UNL     1       2.330  20.441  13.893  1.00  0.00     0.043 A 
HETATM    4  C8  UNL     1       3.576  20.830  14.340  1.00  0.00     0.103 A 
HETATM    5 CL1  UNL     1       4.073  22.517  14.349  1.00  0.00    -0.065 Cl
HETATM    6  N4  UNL     1       4.390  19.849  14.767  1.00  0.00    -0.356 N 
ATOM      7  H4  UNL     1       5.318  20.108  15.102  1.00  0.00     0.166 HD
HETATM    8  C9  UNL     1       4.054  18.550  14.778  1.00  0.00     0.098 A 
ENDROOT
BRANCH   1   9
HETATM    9  C4  UNL     1       2.415  16.723  14.336  1.00  0.00     0.171 C 
BRANCH   9  10
HETATM   10  N3  UNL     1       1.635  16.468  13.145  1.00  0.00    -0.326 N 
HETATM   11  C1  UNL     1       0.370  16.015  13.139  1.00  0.00     0.194 A 
HETATM   12  N1  UNL     1      -0.439  15.700  14.265  1.00  0.00    -0.063 NA
HETATM   13  N2  UNL     1       0.038  15.921  11.824  1.00  0.00    -0.339 N 
HETATM   14  C2  UNL     1       1.048  16.301  11.038  1.00  0.00     0.108 A 
ATOM     15  H2  UNL     1      -0.869  15.602  11.482  1.00  0.00     0.168 HD
HETATM   16  C3  UNL     1       2.079  16.654  11.885  1.00  0.00     0.111 A 
ENDBRANCH   9  10
ENDBRANCH   1   9
TORSDOF 2
ENDMDL
