MODEL 17
REMARK VINA RESULT: -4.265082039      1.738      2.478
REMARK  2 active torsions:
REMARK  status: ('A' for Active; 'I' for Inactive)
REMARK    1  A    between atoms: N3_7  and  C4_8 
REMARK    2  A    between atoms: C4_8  and  C5_9 
ROOT
HETATM    1  C5  UNL     1     -22.366  -2.427  23.973  1.00  0.00    -0.024 A 
HETATM    2  C6  UNL     1     -22.821  -3.657  24.402  1.00  0.00     0.013 A 
HETATM    3  C7  UNL     1     -22.663  -4.750  23.587  1.00  0.00     0.043 A 
HETATM    4  C8  UNL     1     -22.063  -4.662  22.348  1.00  0.00     0.103 A 
HETATM    5 CL1  UNL     1     -21.866  -6.068  21.311  1.00  0.00    -0.065 Cl
HETATM    6  N4  UNL     1     -21.637  -3.442  21.976  1.00  0.00    -0.356 N 
ATOM      7  H4  UNL     1     -21.189  -3.348  21.065  1.00  0.00     0.166 HD
HETATM    8  C9  UNL     1     -21.767  -2.341  22.733  1.00  0.00     0.098 A 
ENDROOT
BRANCH   1   9
HETATM    9  C4  UNL     1     -22.521  -1.219  24.829  1.00  0.00     0.171 C 
BRANCH   9  10
HETATM   10  N3  UNL     1     -21.274  -0.485  24.798  1.00  0.00    -0.326 N 
HETATM   11  C1  UNL     1     -21.021   0.561  23.996  1.00  0.00     0.194 A 
HETATM   12  N1  UNL     1     -21.894   1.147  23.038  1.00  0.00    -0.063 NA
HETATM   13  N2  UNL     1     -19.749   0.935  24.298  1.00  0.00    -0.339 N 
HETATM   14  C2  UNL     1     -19.227   0.158  25.250  1.00  0.00     0.108 A 
ATOM     15  H2  UNL     1     -19.255   1.709  23.854  1.00  0.00     0.168 HD
HETATM   16  C3  UNL     1     -20.207  -0.758  25.576  1.00  0.00     0.111 A 
ENDBRANCH   9  10
ENDBRANCH   1   9
TORSDOF 2
ENDMDL
