MODEL 6
REMARK VINA RESULT: -4.806182522      2.741      5.382
REMARK  2 active torsions:
REMARK  status: ('A' for Active; 'I' for Inactive)
REMARK    1  A    between atoms: N3_7  and  C4_8 
REMARK    2  A    between atoms: C4_8  and  C5_9 
ROOT
HETATM    1  C5  UNL     1     -22.572  -1.827  24.292  1.00  0.00    -0.024 A 
HETATM    2  C6  UNL     1     -21.673  -1.573  23.275  1.00  0.00     0.013 A 
HETATM    3  C7  UNL     1     -20.874  -0.460  23.352  1.00  0.00     0.043 A 
HETATM    4  C8  UNL     1     -20.937   0.418  24.414  1.00  0.00     0.103 A 
HETATM    5 CL1  UNL     1     -19.908   1.842  24.503  1.00  0.00    -0.065 Cl
HETATM    6  N4  UNL     1     -21.828   0.126  25.378  1.00  0.00    -0.356 N 
ATOM      7  H4  UNL     1     -21.895   0.758  26.176  1.00  0.00     0.166 HD
HETATM    8  C9  UNL     1     -22.633  -0.947  25.353  1.00  0.00     0.098 A 
ENDROOT
BRANCH   1   9
HETATM    9  C4  UNL     1     -23.456  -3.023  24.243  1.00  0.00     0.171 C 
BRANCH   9  10
HETATM   10  N3  UNL     1     -22.907  -3.948  23.275  1.00  0.00    -0.326 N 
HETATM   11  C1  UNL     1     -22.057  -4.946  23.566  1.00  0.00     0.194 A 
HETATM   12  N1  UNL     1     -21.534  -5.291  24.843  1.00  0.00    -0.063 NA
HETATM   13  N2  UNL     1     -21.805  -5.551  22.375  1.00  0.00    -0.339 N 
HETATM   14  C2  UNL     1     -22.470  -4.960  21.379  1.00  0.00     0.108 A 
ATOM     15  H2  UNL     1     -21.187  -6.354  22.256  1.00  0.00     0.168 HD
HETATM   16  C3  UNL     1     -23.181  -3.926  21.955  1.00  0.00     0.111 A 
ENDBRANCH   9  10
ENDBRANCH   1   9
TORSDOF 2
ENDMDL
