MODEL 2
REMARK VINA RESULT: -5.148263400      2.801      5.591
REMARK  2 active torsions:
REMARK  status: ('A' for Active; 'I' for Inactive)
REMARK    1  A    between atoms: N3_7  and  C4_8 
REMARK    2  A    between atoms: C4_8  and  C5_9 
ROOT
HETATM    1  C5  UNL     1     -22.600  -2.099  23.892  1.00  0.00    -0.024 A 
HETATM    2  C6  UNL     1     -22.593  -1.443  25.106  1.00  0.00     0.013 A 
HETATM    3  C7  UNL     1     -21.657  -0.465  25.333  1.00  0.00     0.043 A 
HETATM    4  C8  UNL     1     -20.716  -0.115  24.386  1.00  0.00     0.103 A 
HETATM    5 CL1  UNL     1     -19.520   1.138  24.686  1.00  0.00    -0.065 Cl
HETATM    6  N4  UNL     1     -20.765  -0.784  23.220  1.00  0.00    -0.356 N 
ATOM      7  H4  UNL     1     -20.081  -0.545  22.501  1.00  0.00     0.166 HD
HETATM    8  C9  UNL     1     -21.658  -1.747  22.946  1.00  0.00     0.098 A 
ENDROOT
BRANCH   1   9
HETATM    9  C4  UNL     1     -23.600  -3.165  23.610  1.00  0.00     0.171 C 
BRANCH   9  10
HETATM   10  N3  UNL     1     -22.936  -4.220  22.875  1.00  0.00    -0.326 N 
HETATM   11  C1  UNL     1     -22.098  -5.120  23.416  1.00  0.00     0.194 A 
HETATM   12  N1  UNL     1     -21.700  -5.221  24.777  1.00  0.00    -0.063 NA
HETATM   13  N2  UNL     1     -21.715  -5.910  22.377  1.00  0.00    -0.339 N 
HETATM   14  C2  UNL     1     -22.289  -5.524  21.235  1.00  0.00     0.108 A 
ATOM     15  H2  UNL     1     -21.071  -6.697  22.460  1.00  0.00     0.168 HD
HETATM   16  C3  UNL     1     -23.076  -4.435  21.551  1.00  0.00     0.111 A 
ENDBRANCH   9  10
ENDBRANCH   1   9
TORSDOF 2
ENDMDL
