MODEL 1
REMARK VINA RESULT: -5.803355431      0.000      0.000
REMARK  2 active torsions:
REMARK  status: ('A' for Active; 'I' for Inactive)
REMARK    1  A    between atoms: N3_7  and  C4_8 
REMARK    2  A    between atoms: C4_8  and  C5_9 
ROOT
HETATM    1  C5  UNL     1     -21.540  -1.623  23.445  1.00  0.00    -0.024 A 
HETATM    2  C6  UNL     1     -21.439  -2.642  22.519  1.00  0.00     0.013 A 
HETATM    3  C7  UNL     1     -21.976  -3.870  22.814  1.00  0.00     0.043 A 
HETATM    4  C8  UNL     1     -22.615  -4.124  24.010  1.00  0.00     0.103 A 
HETATM    5 CL1  UNL     1     -23.299  -5.701  24.380  1.00  0.00    -0.065 Cl
HETATM    6  N4  UNL     1     -22.687  -3.099  24.878  1.00  0.00    -0.356 N 
ATOM      7  H4  UNL     1     -23.156  -3.259  25.770  1.00  0.00     0.166 HD
HETATM    8  C9  UNL     1     -22.180  -1.880  24.640  1.00  0.00     0.098 A 
ENDROOT
BRANCH   1   9
HETATM    9  C4  UNL     1     -20.970  -0.278  23.160  1.00  0.00     0.171 C 
BRANCH   9  10
HETATM   10  N3  UNL     1     -21.026   0.500  24.378  1.00  0.00    -0.326 N 
HETATM   11  C1  UNL     1     -19.996   0.677  25.222  1.00  0.00     0.194 A 
HETATM   12  N1  UNL     1     -18.680   0.154  25.100  1.00  0.00    -0.063 NA
HETATM   13  N2  UNL     1     -20.489   1.463  26.216  1.00  0.00    -0.339 N 
HETATM   14  C2  UNL     1     -21.771   1.768  26.005  1.00  0.00     0.108 A 
ATOM     15  H2  UNL     1     -19.948   1.780  27.021  1.00  0.00     0.168 HD
HETATM   16  C3  UNL     1     -22.121   1.149  24.821  1.00  0.00     0.111 A 
ENDBRANCH   9  10
ENDBRANCH   1   9
TORSDOF 2
ENDMDL
