MODEL 15
REMARK VINA RESULT: -4.314758436      1.683      1.960
REMARK  2 active torsions:
REMARK  status: ('A' for Active; 'I' for Inactive)
REMARK    1  A    between atoms: N3_7  and  C4_8 
REMARK    2  A    between atoms: C4_8  and  C5_9 
ROOT
HETATM    1  C5  UNL     1     -21.921  -2.581  24.003  1.00  0.00    -0.024 A 
HETATM    2  C6  UNL     1     -21.339  -2.287  22.786  1.00  0.00     0.013 A 
HETATM    3  C7  UNL     1     -21.494  -3.164  21.741  1.00  0.00     0.043 A 
HETATM    4  C8  UNL     1     -22.213  -4.335  21.865  1.00  0.00     0.103 A 
HETATM    5 CL1  UNL     1     -22.404  -5.452  20.521  1.00  0.00    -0.065 Cl
HETATM    6  N4  UNL     1     -22.759  -4.576  23.070  1.00  0.00    -0.356 N 
ATOM      7  H4  UNL     1     -23.296  -5.435  23.190  1.00  0.00     0.166 HD
HETATM    8  C9  UNL     1     -22.639  -3.754  24.124  1.00  0.00     0.098 A 
ENDROOT
BRANCH   1   9
HETATM    9  C4  UNL     1     -21.775  -1.656  25.158  1.00  0.00     0.171 C 
BRANCH   9  10
HETATM   10  N3  UNL     1     -21.387  -0.359  24.649  1.00  0.00    -0.326 N 
HETATM   11  C1  UNL     1     -20.240   0.272  24.951  1.00  0.00     0.194 A 
HETATM   12  N1  UNL     1     -19.202  -0.186  25.808  1.00  0.00    -0.063 NA
HETATM   13  N2  UNL     1     -20.292   1.443  24.261  1.00  0.00    -0.339 N 
HETATM   14  C2  UNL     1     -21.420   1.542  23.554  1.00  0.00     0.108 A 
ATOM     15  H2  UNL     1     -19.561   2.155  24.281  1.00  0.00     0.168 HD
HETATM   16  C3  UNL     1     -22.129   0.383  23.801  1.00  0.00     0.111 A 
ENDBRANCH   9  10
ENDBRANCH   1   9
TORSDOF 2
ENDMDL
