MODEL 4
REMARK VINA RESULT: -4.909285450      2.756      5.392
REMARK  2 active torsions:
REMARK  status: ('A' for Active; 'I' for Inactive)
REMARK    1  A    between atoms: N3_7  and  C4_8 
REMARK    2  A    between atoms: C4_8  and  C5_9 
ROOT
HETATM    1  C5  UNL     1     -21.522  -1.585  23.226  1.00  0.00    -0.024 A 
HETATM    2  C6  UNL     1     -20.999  -0.333  22.969  1.00  0.00     0.013 A 
HETATM    3  C7  UNL     1     -21.160   0.663  23.900  1.00  0.00     0.043 A 
HETATM    4  C8  UNL     1     -21.831   0.457  25.088  1.00  0.00     0.103 A 
HETATM    5 CL1  UNL     1     -22.032   1.740  26.273  1.00  0.00    -0.065 Cl
HETATM    6  N4  UNL     1     -22.322  -0.779  25.290  1.00  0.00    -0.356 N 
ATOM      7  H4  UNL     1     -22.822  -0.959  26.161  1.00  0.00     0.166 HD
HETATM    8  C9  UNL     1     -22.193  -1.788  24.415  1.00  0.00     0.098 A 
ENDROOT
BRANCH   1   9
HETATM    9  C4  UNL     1     -21.368  -2.689  22.241  1.00  0.00     0.171 C 
BRANCH   9  10
HETATM   10  N3  UNL     1     -21.831  -3.912  22.861  1.00  0.00    -0.326 N 
HETATM   11  C1  UNL     1     -22.594  -4.836  22.255  1.00  0.00     0.194 A 
HETATM   12  N1  UNL     1     -23.092  -4.809  20.923  1.00  0.00    -0.063 NA
HETATM   13  N2  UNL     1     -22.787  -5.801  23.194  1.00  0.00    -0.339 N 
HETATM   14  C2  UNL     1     -22.171  -5.496  24.339  1.00  0.00     0.108 A 
ATOM     15  H2  UNL     1     -23.334  -6.649  23.044  1.00  0.00     0.168 HD
HETATM   16  C3  UNL     1     -21.554  -4.279  24.128  1.00  0.00     0.111 A 
ENDBRANCH   9  10
ENDBRANCH   1   9
TORSDOF 2
ENDMDL
