MODEL 3
REMARK VINA RESULT: -5.323291785      3.432      6.648
REMARK  12 active torsions:
REMARK  status: ('A' for Active; 'I' for Inactive)
REMARK    1  A    between atoms: O1_1  and  C1_3 
REMARK    2  A    between atoms: C1_3  and  C2_4 
REMARK    3  A    between atoms: C3_6  and  O3_7 
REMARK    4  A    between atoms: O3_7  and  C4_8 
REMARK    5  A    between atoms: C5_9  and  C6_10 
REMARK    6  A    between atoms: C6_10  and  O4_11 
REMARK    7  A    between atoms: C7_14  and  O6_15 
REMARK    8  A    between atoms: C8_17  and  O7_18 
REMARK    9  A    between atoms: C9_20  and  O8_21 
REMARK   10  A    between atoms: C10_23  and  O9_24 
REMARK   11  A    between atoms: C11_26  and  O10_27 
REMARK   12  A    between atoms: C12_29  and  O11_30 
ROOT
HETATM    1  O3  UNL     1       1.907 -26.184 -15.694  1.00  0.00    -0.348 OA
ENDROOT
BRANCH   1   2
HETATM    2  C3  UNL     1       1.982 -25.209 -16.686  1.00  0.00     0.292 C 
HETATM    3  O2  UNL     1       1.609 -25.678 -17.925  1.00  0.00    -0.348 OA
HETATM    4  C2  UNL     1       1.124 -24.596 -18.656  1.00  0.00     0.179 C 
HETATM    5  C12 UNL     1       2.085 -23.429 -18.642  1.00  0.00     0.180 C 
HETATM    6  C11 UNL     1       3.434 -23.821 -18.076  1.00  0.00     0.183 C 
HETATM    7  C10 UNL     1       3.326 -24.569 -16.775  1.00  0.00     0.204 C 
BRANCH   4   8
HETATM    8  C1  UNL     1       0.739 -24.994 -20.062  1.00  0.00     0.198 C 
BRANCH   8   9
HETATM    9  O1  UNL     1      -0.464 -24.434 -20.468  1.00  0.00    -0.398 OA
ATOM     10  H1  UNL     1      -0.589 -24.472 -21.408  1.00  0.00     0.209 HD
ENDBRANCH   8   9
ENDBRANCH   4   8
BRANCH   5  11
HETATM   11  O11 UNL     1       2.307 -23.064 -19.977  1.00  0.00    -0.390 OA
ATOM     12  H11 UNL     1       1.767 -22.301 -20.149  1.00  0.00     0.210 HD
ENDBRANCH   5  11
BRANCH   6  13
HETATM   13  O10 UNL     1       4.125 -22.612 -17.837  1.00  0.00    -0.390 OA
ATOM     14  H10 UNL     1       3.826 -22.256 -17.009  1.00  0.00     0.210 HD
ENDBRANCH   6  13
BRANCH   7  15
HETATM   15  O9  UNL     1       4.367 -25.516 -16.753  1.00  0.00    -0.388 OA
ATOM     16  H9  UNL     1       4.953 -25.422 -17.494  1.00  0.00     0.210 HD
ENDBRANCH   7  15
ENDBRANCH   1   2
BRANCH   1  17
HETATM   17  C4  UNL     1       0.733 -26.907 -15.726  1.00  0.00     0.187 C 
HETATM   18  C5  UNL     1      -0.114 -26.520 -14.538  1.00  0.00     0.180 C 
HETATM   19  O5  UNL     1      -1.234 -27.320 -14.386  1.00  0.00    -0.349 OA
HETATM   20  C7  UNL     1      -0.939 -28.669 -14.302  1.00  0.00     0.288 C 
HETATM   21  C8  UNL     1      -0.151 -29.164 -15.493  1.00  0.00     0.204 C 
HETATM   22  C9  UNL     1       1.096 -28.374 -15.720  1.00  0.00     0.183 C 
BRANCH  18  23
HETATM   23  C6  UNL     1       0.718 -26.455 -13.268  1.00  0.00     0.198 C 
BRANCH  23  24
HETATM   24  O4  UNL     1       1.021 -25.117 -13.018  1.00  0.00    -0.398 OA
ATOM     25  H4  UNL     1       0.260 -24.714 -12.616  1.00  0.00     0.209 HD
ENDBRANCH  23  24
ENDBRANCH  18  23
BRANCH  20  26
HETATM   26  O6  UNL     1      -2.145 -29.368 -14.285  1.00  0.00    -0.369 OA
ATOM     27  H6  UNL     1      -2.324 -29.616 -13.386  1.00  0.00     0.212 HD
ENDBRANCH  20  26
BRANCH  21  28
HETATM   28  O7  UNL     1       0.150 -30.505 -15.268  1.00  0.00    -0.388 OA
ATOM     29  H7  UNL     1       0.951 -30.701 -15.738  1.00  0.00     0.210 HD
ENDBRANCH  21  28
BRANCH  22  30
HETATM   30  O8  UNL     1       2.117 -28.669 -14.844  1.00  0.00    -0.390 OA
ATOM     31  H8  UNL     1       2.040 -28.204 -14.019  1.00  0.00     0.210 HD
ENDBRANCH  22  30
ENDBRANCH   1  17
TORSDOF 12
ENDMDL
