MODEL 2
REMARK VINA RESULT: -5.401286574      1.804      3.664
REMARK  12 active torsions:
REMARK  status: ('A' for Active; 'I' for Inactive)
REMARK    1  A    between atoms: O1_1  and  C1_3 
REMARK    2  A    between atoms: C1_3  and  C2_4 
REMARK    3  A    between atoms: C3_6  and  O3_7 
REMARK    4  A    between atoms: O3_7  and  C4_8 
REMARK    5  A    between atoms: C5_9  and  C6_10 
REMARK    6  A    between atoms: C6_10  and  O4_11 
REMARK    7  A    between atoms: C7_14  and  O6_15 
REMARK    8  A    between atoms: C8_17  and  O7_18 
REMARK    9  A    between atoms: C9_20  and  O8_21 
REMARK   10  A    between atoms: C10_23  and  O9_24 
REMARK   11  A    between atoms: C11_26  and  O10_27 
REMARK   12  A    between atoms: C12_29  and  O11_30 
ROOT
HETATM    1  O3  UNL     1       2.282 -25.612 -19.767  1.00  0.00    -0.348 OA
ENDROOT
BRANCH   1   2
HETATM    2  C3  UNL     1       1.068 -26.242 -20.024  1.00  0.00     0.292 C 
HETATM    3  O2  UNL     1       1.190 -27.305 -20.890  1.00  0.00    -0.348 OA
HETATM    4  C2  UNL     1       0.160 -28.199 -20.609  1.00  0.00     0.179 C 
HETATM    5  C12 UNL     1      -1.188 -27.514 -20.573  1.00  0.00     0.180 C 
HETATM    6  C11 UNL     1      -1.113 -26.102 -21.116  1.00  0.00     0.183 C 
HETATM    7  C10 UNL     1       0.018 -25.307 -20.521  1.00  0.00     0.204 C 
BRANCH   4   8
HETATM    8  C1  UNL     1       0.168 -29.382 -21.549  1.00  0.00     0.198 C 
BRANCH   8   9
HETATM    9  O1  UNL     1       0.442 -29.022 -22.861  1.00  0.00    -0.398 OA
ATOM     10  H1  UNL     1       0.414 -29.760 -23.458  1.00  0.00     0.209 HD
ENDBRANCH   8   9
ENDBRANCH   4   8
BRANCH   5  11
HETATM   11  O11 UNL     1      -2.032 -28.225 -21.436  1.00  0.00    -0.390 OA
ATOM     12  H11 UNL     1      -2.898 -27.841 -21.357  1.00  0.00     0.210 HD
ENDBRANCH   5  11
BRANCH   6  13
HETATM   13  O10 UNL     1      -2.329 -25.479 -20.758  1.00  0.00    -0.390 OA
ATOM     14  H10 UNL     1      -3.020 -26.130 -20.799  1.00  0.00     0.210 HD
ENDBRANCH   6  13
BRANCH   7  15
HETATM   15  O9  UNL     1       0.503 -24.455 -21.531  1.00  0.00    -0.388 OA
ATOM     16  H9  UNL     1       0.888 -24.938 -22.252  1.00  0.00     0.210 HD
ENDBRANCH   7  15
ENDBRANCH   1   2
BRANCH   1  17
HETATM   17  C4  UNL     1       2.184 -24.588 -18.848  1.00  0.00     0.187 C 
HETATM   18  C5  UNL     1       3.357 -23.655 -19.025  1.00  0.00     0.180 C 
HETATM   19  O5  UNL     1       3.441 -22.693 -18.033  1.00  0.00    -0.349 OA
HETATM   20  C7  UNL     1       3.483 -23.224 -16.755  1.00  0.00     0.288 C 
HETATM   21  C8  UNL     1       2.301 -24.118 -16.461  1.00  0.00     0.204 C 
HETATM   22  C9  UNL     1       2.145 -25.209 -17.470  1.00  0.00     0.183 C 
BRANCH  18  23
HETATM   23  C6  UNL     1       4.656 -24.429 -19.182  1.00  0.00     0.198 C 
BRANCH  23  24
HETATM   24  O4  UNL     1       5.535 -23.649 -19.933  1.00  0.00    -0.398 OA
ATOM     25  H4  UNL     1       5.615 -24.042 -20.793  1.00  0.00     0.209 HD
ENDBRANCH  23  24
ENDBRANCH  18  23
BRANCH  20  26
HETATM   26  O6  UNL     1       3.432 -22.162 -15.852  1.00  0.00    -0.369 OA
ATOM     27  H6  UNL     1       3.877 -22.436 -15.059  1.00  0.00     0.212 HD
ENDBRANCH  20  26
BRANCH  21  28
HETATM   28  O7  UNL     1       2.483 -24.649 -15.187  1.00  0.00    -0.388 OA
ATOM     29  H7  UNL     1       1.642 -24.973 -14.889  1.00  0.00     0.210 HD
ENDBRANCH  21  28
BRANCH  22  30
HETATM   30  O8  UNL     1       3.044 -26.243 -17.324  1.00  0.00    -0.390 OA
ATOM     31  H8  UNL     1       3.603 -26.140 -16.563  1.00  0.00     0.210 HD
ENDBRANCH  22  30
ENDBRANCH   1  17
TORSDOF 12
ENDMDL
