MODEL 1
REMARK VINA RESULT: -5.510599101      0.000      0.000
REMARK  12 active torsions:
REMARK  status: ('A' for Active; 'I' for Inactive)
REMARK    1  A    between atoms: O1_1  and  C1_3 
REMARK    2  A    between atoms: C1_3  and  C2_4 
REMARK    3  A    between atoms: C3_6  and  O3_7 
REMARK    4  A    between atoms: O3_7  and  C4_8 
REMARK    5  A    between atoms: C5_9  and  C6_10 
REMARK    6  A    between atoms: C6_10  and  O4_11 
REMARK    7  A    between atoms: C7_14  and  O6_15 
REMARK    8  A    between atoms: C8_17  and  O7_18 
REMARK    9  A    between atoms: C9_20  and  O8_21 
REMARK   10  A    between atoms: C10_23  and  O9_24 
REMARK   11  A    between atoms: C11_26  and  O10_27 
REMARK   12  A    between atoms: C12_29  and  O11_30 
ROOT
HETATM    1  O3  UNL     1       0.059 -26.038 -19.286  1.00  0.00    -0.348 OA
ENDROOT
BRANCH   1   2
HETATM    2  C3  UNL     1      -0.833 -26.356 -20.307  1.00  0.00     0.292 C 
HETATM    3  O2  UNL     1      -2.146 -26.132 -19.958  1.00  0.00    -0.348 OA
HETATM    4  C2  UNL     1      -2.853 -25.869 -21.128  1.00  0.00     0.179 C 
HETATM    5  C12 UNL     1      -2.610 -26.925 -22.184  1.00  0.00     0.180 C 
HETATM    6  C11 UNL     1      -1.888 -28.128 -21.615  1.00  0.00     0.183 C 
HETATM    7  C10 UNL     1      -0.678 -27.754 -20.804  1.00  0.00     0.204 C 
BRANCH   4   8
HETATM    8  C1  UNL     1      -4.327 -25.665 -20.862  1.00  0.00     0.198 C 
BRANCH   8   9
HETATM    9  O1  UNL     1      -4.955 -24.929 -21.857  1.00  0.00    -0.398 OA
ATOM     10  H1  UNL     1      -5.676 -25.397 -22.260  1.00  0.00     0.209 HD
ENDBRANCH   8   9
ENDBRANCH   4   8
BRANCH   5  11
HETATM   11  O11 UNL     1      -3.867 -27.380 -22.604  1.00  0.00    -0.390 OA
ATOM     12  H11 UNL     1      -3.736 -27.839 -23.426  1.00  0.00     0.210 HD
ENDBRANCH   5  11
BRANCH   6  13
HETATM   13  O10 UNL     1      -1.460 -28.889 -22.726  1.00  0.00    -0.390 OA
ATOM     14  H10 UNL     1      -2.123 -28.827 -23.403  1.00  0.00     0.210 HD
ENDBRANCH   6  13
BRANCH   7  15
HETATM   15  O9  UNL     1      -0.579 -28.683 -19.751  1.00  0.00    -0.388 OA
ATOM     16  H9  UNL     1       0.081 -29.345 -19.919  1.00  0.00     0.210 HD
ENDBRANCH   7  15
ENDBRANCH   1   2
BRANCH   1  17
HETATM   17  C4  UNL     1       1.167 -25.344 -19.724  1.00  0.00     0.187 C 
HETATM   18  C5  UNL     1       2.381 -26.232 -19.607  1.00  0.00     0.180 C 
HETATM   19  O5  UNL     1       3.569 -25.564 -19.857  1.00  0.00    -0.349 OA
HETATM   20  C7  UNL     1       3.752 -24.451 -19.056  1.00  0.00     0.288 C 
HETATM   21  C8  UNL     1       2.612 -23.465 -19.165  1.00  0.00     0.204 C 
HETATM   22  C9  UNL     1       1.286 -24.092 -18.885  1.00  0.00     0.183 C 
BRANCH  18  23
HETATM   23  C6  UNL     1       2.404 -26.958 -18.272  1.00  0.00     0.198 C 
BRANCH  23  24
HETATM   24  O4  UNL     1       1.908 -28.246 -18.473  1.00  0.00    -0.398 OA
ATOM     25  H4  UNL     1       2.645 -28.844 -18.500  1.00  0.00     0.209 HD
ENDBRANCH  23  24
ENDBRANCH  18  23
BRANCH  20  26
HETATM   26  O6  UNL     1       4.906 -23.799 -19.491  1.00  0.00    -0.369 OA
ATOM     27  H6  UNL     1       5.211 -23.246 -18.782  1.00  0.00     0.212 HD
ENDBRANCH  20  26
BRANCH  21  28
HETATM   28  O7  UNL     1       2.867 -22.429 -18.270  1.00  0.00    -0.388 OA
ATOM     29  H7  UNL     1       3.350 -21.759 -18.738  1.00  0.00     0.210 HD
ENDBRANCH  21  28
BRANCH  22  30
HETATM   30  O8  UNL     1       1.043 -24.319 -17.548  1.00  0.00    -0.390 OA
ATOM     31  H8  UNL     1       0.117 -24.387 -17.348  1.00  0.00     0.210 HD
ENDBRANCH  22  30
ENDBRANCH   1  17
TORSDOF 12
ENDMDL
