MODEL 17
REMARK VINA RESULT: -5.913776876      2.380      3.270
REMARK  16 active torsions:
REMARK  status: ('A' for Active; 'I' for Inactive)
REMARK    1  A    between atoms: C2_2  and  C3_3 
REMARK    2  A    between atoms: C3_3  and  C4_4 
REMARK    3  A    between atoms: C4_4  and  C5_5 
REMARK    4  A    between atoms: C5_5  and  C6_6 
REMARK    5  A    between atoms: C6_6  and  C7_7 
REMARK    6  A    between atoms: C7_7  and  C8_8 
REMARK    7  A    between atoms: C8_8  and  C9_9 
REMARK    8  A    between atoms: C9_9  and  C10_10 
REMARK    9  A    between atoms: C10_10  and  C11_11 
REMARK   10  A    between atoms: C11_11  and  C12_12 
REMARK   11  A    between atoms: C12_12  and  C13_13 
REMARK   12  A    between atoms: C13_13  and  C14_14 
REMARK   13  A    between atoms: C14_14  and  C15_15 
REMARK   14  A    between atoms: C15_15  and  C16_16 
REMARK   15  A    between atoms: C16_16  and  C17_17 
REMARK   16  A    between atoms: C17_17  and  C18_18 
ROOT
HETATM    1  C10 UNL     1       6.228 -23.427  -3.479  1.00  0.00     0.000 C 
ENDROOT
BRANCH   1   2
HETATM    2  C9  UNL     1       7.229 -22.786  -2.539  1.00  0.00     0.000 C 
BRANCH   2   3
HETATM    3  C8  UNL     1       7.937 -23.811  -1.707  1.00  0.00     0.000 C 
BRANCH   3   4
HETATM    4  C7  UNL     1       7.204 -24.144  -0.433  1.00  0.00     0.000 C 
BRANCH   4   5
HETATM    5  C6  UNL     1       6.293 -23.062   0.043  1.00  0.00     0.000 C 
BRANCH   5   6
HETATM    6  C5  UNL     1       6.517 -22.882   1.527  1.00  0.00     0.000 C 
BRANCH   6   7
HETATM    7  C4  UNL     1       7.940 -22.510   1.836  1.00  0.00     0.000 C 
BRANCH   7   8
HETATM    8  C3  UNL     1       8.265 -21.084   1.536  1.00  0.00    -0.000 C 
BRANCH   8   9
HETATM    9  C2  UNL     1       9.366 -20.923   0.523  1.00  0.00    -0.005 C 
HETATM   10  C1  UNL     1       8.929 -20.084  -0.658  1.00  0.00     0.005 C 
ENDBRANCH   8   9
ENDBRANCH   7   8
ENDBRANCH   6   7
ENDBRANCH   5   6
ENDBRANCH   4   5
ENDBRANCH   3   4
ENDBRANCH   2   3
ENDBRANCH   1   2
BRANCH   1  11
HETATM   11  C11 UNL     1       6.964 -23.940  -4.666  1.00  0.00     0.000 C 
BRANCH  11  12
HETATM   12  C12 UNL     1       6.424 -23.538  -5.989  1.00  0.00     0.000 C 
BRANCH  12  13
HETATM   13  C13 UNL     1       5.954 -22.106  -6.065  1.00  0.00     0.000 C 
BRANCH  13  14
HETATM   14  C14 UNL     1       7.166 -21.305  -6.474  1.00  0.00     0.000 C 
BRANCH  14  15
HETATM   15  C15 UNL     1       7.589 -20.249  -5.522  1.00  0.00     0.001 C 
BRANCH  15  16
HETATM   16  C16 UNL     1       6.416 -19.478  -5.023  1.00  0.00     0.010 C 
BRANCH  16  17
HETATM   17  C17 UNL     1       6.508 -19.170  -3.539  1.00  0.00     0.113 C 
BRANCH  17  18
HETATM   18  C18 UNL     1       5.852 -17.915  -3.165  1.00  0.00     0.172 C 
HETATM   19  O1  UNL     1       6.025 -16.879  -3.864  1.00  0.00    -0.648 OA
HETATM   20  O2  UNL     1       5.027 -17.833  -2.041  1.00  0.00    -0.648 OA
ENDBRANCH  17  18
ENDBRANCH  16  17
ENDBRANCH  15  16
ENDBRANCH  14  15
ENDBRANCH  13  14
ENDBRANCH  12  13
ENDBRANCH  11  12
ENDBRANCH   1  11
TORSDOF 16
ENDMDL
