MODEL 4
REMARK VINA RESULT: -6.077699891      3.011      5.974
REMARK  16 active torsions:
REMARK  status: ('A' for Active; 'I' for Inactive)
REMARK    1  A    between atoms: C2_2  and  C3_3 
REMARK    2  A    between atoms: C3_3  and  C4_4 
REMARK    3  A    between atoms: C4_4  and  C5_5 
REMARK    4  A    between atoms: C5_5  and  C6_6 
REMARK    5  A    between atoms: C6_6  and  C7_7 
REMARK    6  A    between atoms: C7_7  and  C8_8 
REMARK    7  A    between atoms: C8_8  and  C9_9 
REMARK    8  A    between atoms: C9_9  and  C10_10 
REMARK    9  A    between atoms: C10_10  and  C11_11 
REMARK   10  A    between atoms: C11_11  and  C12_12 
REMARK   11  A    between atoms: C12_12  and  C13_13 
REMARK   12  A    between atoms: C13_13  and  C14_14 
REMARK   13  A    between atoms: C14_14  and  C15_15 
REMARK   14  A    between atoms: C15_15  and  C16_16 
REMARK   15  A    between atoms: C16_16  and  C17_17 
REMARK   16  A    between atoms: C17_17  and  C18_18 
ROOT
HETATM    1  C10 UNL     1       6.240 -22.934   0.776  1.00  0.00     0.000 C 
ENDROOT
BRANCH   1   2
HETATM    2  C9  UNL     1       6.533 -23.225  -0.682  1.00  0.00     0.000 C 
BRANCH   2   3
HETATM    3  C8  UNL     1       7.854 -23.913  -0.852  1.00  0.00     0.000 C 
BRANCH   3   4
HETATM    4  C7  UNL     1       7.748 -25.208  -1.614  1.00  0.00     0.000 C 
BRANCH   4   5
HETATM    5  C6  UNL     1       8.235 -25.124  -3.022  1.00  0.00     0.000 C 
BRANCH   5   6
HETATM    6  C5  UNL     1       7.052 -25.335  -3.939  1.00  0.00     0.000 C 
BRANCH   6   7
HETATM    7  C4  UNL     1       6.597 -24.047  -4.568  1.00  0.00     0.000 C 
BRANCH   7   8
HETATM    8  C3  UNL     1       7.628 -22.969  -4.540  1.00  0.00    -0.000 C 
BRANCH   8   9
HETATM    9  C2  UNL     1       7.148 -21.699  -3.892  1.00  0.00    -0.005 C 
HETATM   10  C1  UNL     1       7.269 -20.509  -4.819  1.00  0.00     0.005 C 
ENDBRANCH   8   9
ENDBRANCH   7   8
ENDBRANCH   6   7
ENDBRANCH   5   6
ENDBRANCH   4   5
ENDBRANCH   3   4
ENDBRANCH   2   3
ENDBRANCH   1   2
BRANCH   1  11
HETATM   11  C11 UNL     1       7.534 -22.726   1.481  1.00  0.00     0.000 C 
BRANCH  11  12
HETATM   12  C12 UNL     1       7.963 -21.314   1.647  1.00  0.00     0.000 C 
BRANCH  12  13
HETATM   13  C13 UNL     1       9.157 -20.920   0.813  1.00  0.00     0.000 C 
BRANCH  13  14
HETATM   14  C14 UNL     1       8.592 -20.183  -0.377  1.00  0.00     0.000 C 
BRANCH  14  15
HETATM   15  C15 UNL     1       7.311 -19.473  -0.144  1.00  0.00     0.001 C 
BRANCH  15  16
HETATM   16  C16 UNL     1       6.747 -18.953  -1.421  1.00  0.00     0.010 C 
BRANCH  16  17
HETATM   17  C17 UNL     1       7.277 -17.576  -1.777  1.00  0.00     0.113 C 
BRANCH  17  18
HETATM   18  C18 UNL     1       6.465 -16.483  -1.235  1.00  0.00     0.172 C 
HETATM   19  O1  UNL     1       7.009 -15.393  -0.911  1.00  0.00    -0.648 OA
HETATM   20  O2  UNL     1       5.085 -16.619  -1.066  1.00  0.00    -0.648 OA
ENDBRANCH  17  18
ENDBRANCH  16  17
ENDBRANCH  15  16
ENDBRANCH  14  15
ENDBRANCH  13  14
ENDBRANCH  12  13
ENDBRANCH  11  12
ENDBRANCH   1  11
TORSDOF 16
ENDMDL
