MODEL 5
REMARK VINA RESULT: -8.890799339      4.825      9.092
REMARK  9 active torsions:
REMARK  status: ('A' for Active; 'I' for Inactive)
REMARK    1  A    between atoms: C1_2  and  C2_3 
REMARK       I    between atoms: C1_2  and  N2_14 
REMARK    2  A    between atoms: C2_3  and  N1_4 
REMARK    3  A    between atoms: N1_4  and  C3_7 
REMARK    4  A    between atoms: C3_7  and  C4_8 
REMARK    5  A    between atoms: N2_14  and  C10_16 
REMARK    6  A    between atoms: C12_19  and  C13_20 
REMARK    7  A    between atoms: C19_26  and  C20_27 
REMARK       I    between atoms: C20_27  and  N3_29 
REMARK    8  A    between atoms: N3_29  and  C21_31 
REMARK    9  A    between atoms: C21_31  and  C22_32 
ROOT
HETATM    1  C10 UNL     1      40.039   5.005   7.557  1.00  0.00     0.093 A 
HETATM    2  S1  UNL     1      41.012   6.324   8.087  1.00  0.00    -0.082 SA
HETATM    3  C11 UNL     1      41.924   5.530   9.260  1.00  0.00     0.065 A 
HETATM    4  C12 UNL     1      41.450   4.228   9.221  1.00  0.00    -0.001 A 
HETATM    5  C19 UNL     1      40.468   3.955   8.336  1.00  0.00     0.077 A 
ENDROOT
BRANCH   1   6
HETATM    6  N2  UNL     1      39.056   5.099   6.549  1.00  0.00    -0.319 N 
HETATM    7  C1  UNL     1      39.434   5.079   5.168  1.00  0.00     0.248 C 
HETATM    8  O1  UNL     1      40.652   4.978   4.900  1.00  0.00    -0.271 OA
ATOM      9  H2  UNL     1      38.072   5.181   6.805  1.00  0.00     0.169 HD
BRANCH   7  10
HETATM   10  C2  UNL     1      38.385   5.179   4.104  1.00  0.00     0.335 C 
BRANCH  10  11
HETATM   11  N1  UNL     1      38.844   4.596   2.865  1.00  0.00    -0.063 N 
ATOM     12  H12 UNL     1      38.416   5.043   2.054  1.00  0.00     0.278 HD
ATOM     13  H11 UNL     1      39.817   4.832   2.673  1.00  0.00     0.278 HD
BRANCH  11  14
HETATM   14  C3  UNL     1      38.626   3.155   2.866  1.00  0.00     0.271 C 
BRANCH  14  15
HETATM   15  C4  UNL     1      37.547   2.750   1.941  1.00  0.00    -0.033 A 
HETATM   16  C5  UNL     1      36.234   3.079   2.184  1.00  0.00     0.009 A 
HETATM   17  C6  UNL     1      35.219   2.688   1.300  1.00  0.00     0.001 A 
HETATM   18  C7  UNL     1      35.576   1.961   0.172  1.00  0.00     0.000 A 
HETATM   19  C8  UNL     1      36.885   1.623  -0.087  1.00  0.00     0.001 A 
HETATM   20  C9  UNL     1      37.856   2.030   0.815  1.00  0.00     0.009 A 
ENDBRANCH  14  15
ENDBRANCH  11  14
ENDBRANCH  10  11
ENDBRANCH   7  10
ENDBRANCH   1   6
BRANCH   5  21
HETATM   21  C20 UNL     1      39.840   2.639   8.151  1.00  0.00     0.255 C 
HETATM   22  O2  UNL     1      40.082   1.995   7.070  1.00  0.00    -0.268 OA
HETATM   23  N3  UNL     1      38.975   1.969   9.024  1.00  0.00    -0.353 N 
ATOM     24  H3  UNL     1      38.713   2.415   9.903  1.00  0.00     0.163 HD
BRANCH  23  25
HETATM   25  C21 UNL     1      38.436   0.646   8.707  1.00  0.00     0.161 C 
BRANCH  25  26
HETATM   26  C22 UNL     1      38.964  -0.424   9.549  1.00  0.00    -0.041 A 
HETATM   27  C23 UNL     1      38.167  -1.225  10.359  1.00  0.00     0.009 A 
HETATM   28  C24 UNL     1      38.684  -2.223  11.132  1.00  0.00     0.001 A 
HETATM   29  C25 UNL     1      40.034  -2.466  11.131  1.00  0.00     0.000 A 
HETATM   30  C26 UNL     1      40.843  -1.693  10.343  1.00  0.00     0.001 A 
HETATM   31  C27 UNL     1      40.317  -0.674   9.553  1.00  0.00     0.009 A 
ENDBRANCH  25  26
ENDBRANCH  23  25
ENDBRANCH   5  21
BRANCH   4  32
HETATM   32  C13 UNL     1      42.189   3.288  10.103  1.00  0.00    -0.024 A 
HETATM   33  C14 UNL     1      41.582   2.587  11.121  1.00  0.00     0.012 A 
HETATM   34  C15 UNL     1      42.349   1.731  11.873  1.00  0.00     0.001 A 
HETATM   35  C16 UNL     1      43.704   1.544  11.653  1.00  0.00     0.000 A 
HETATM   36  C17 UNL     1      44.298   2.247  10.639  1.00  0.00     0.001 A 
HETATM   37  C18 UNL     1      43.537   3.105   9.881  1.00  0.00     0.012 A 
ENDBRANCH   4  32
TORSDOF 9
ENDMDL
