MODEL 2
REMARK VINA RESULT: -8.941436888      2.347      4.872
REMARK  9 active torsions:
REMARK  status: ('A' for Active; 'I' for Inactive)
REMARK    1  A    between atoms: C1_2  and  C2_3 
REMARK       I    between atoms: C1_2  and  N2_14 
REMARK    2  A    between atoms: C2_3  and  N1_4 
REMARK    3  A    between atoms: N1_4  and  C3_7 
REMARK    4  A    between atoms: C3_7  and  C4_8 
REMARK    5  A    between atoms: N2_14  and  C10_16 
REMARK    6  A    between atoms: C12_19  and  C13_20 
REMARK    7  A    between atoms: C19_26  and  C20_27 
REMARK       I    between atoms: C20_27  and  N3_29 
REMARK    8  A    between atoms: N3_29  and  C21_31 
REMARK    9  A    between atoms: C21_31  and  C22_32 
ROOT
HETATM    1  C10 UNL     1      42.239   7.434   8.081  1.00  0.00     0.093 A 
HETATM    2  S1  UNL     1      42.020   8.960   7.314  1.00  0.00    -0.082 SA
HETATM    3  C11 UNL     1      43.559   9.604   7.550  1.00  0.00     0.065 A 
HETATM    4  C12 UNL     1      44.232   8.605   8.234  1.00  0.00    -0.001 A 
HETATM    5  C19 UNL     1      43.546   7.477   8.512  1.00  0.00     0.077 A 
ENDROOT
BRANCH   1   6
HETATM    6  N2  UNL     1      41.237   6.447   8.187  1.00  0.00    -0.319 N 
HETATM    7  C1  UNL     1      41.179   5.374   7.241  1.00  0.00     0.248 C 
HETATM    8  O1  UNL     1      42.040   5.351   6.333  1.00  0.00    -0.271 OA
ATOM      9  H2  UNL     1      40.551   6.498   8.940  1.00  0.00     0.169 HD
BRANCH   7  10
HETATM   10  C2  UNL     1      40.112   4.329   7.360  1.00  0.00     0.335 C 
BRANCH  10  11
HETATM   11  N1  UNL     1      40.657   3.005   7.177  1.00  0.00    -0.063 N 
ATOM     12  H12 UNL     1      40.976   2.855   6.220  1.00  0.00     0.278 HD
ATOM     13  H11 UNL     1      41.551   2.895   7.655  1.00  0.00     0.278 HD
BRANCH  11  14
HETATM   14  C3  UNL     1      39.694   1.993   7.592  1.00  0.00     0.271 C 
BRANCH  14  15
HETATM   15  C4  UNL     1      40.336   0.858   8.287  1.00  0.00    -0.033 A 
HETATM   16  C5  UNL     1      39.646   0.091   9.195  1.00  0.00     0.009 A 
HETATM   17  C6  UNL     1      40.266  -0.982   9.849  1.00  0.00     0.001 A 
HETATM   18  C7  UNL     1      41.596  -1.250   9.553  1.00  0.00     0.000 A 
HETATM   19  C8  UNL     1      42.302  -0.492   8.647  1.00  0.00     0.001 A 
HETATM   20  C9  UNL     1      41.649   0.560   8.024  1.00  0.00     0.009 A 
ENDBRANCH  14  15
ENDBRANCH  11  14
ENDBRANCH  10  11
ENDBRANCH   7  10
ENDBRANCH   1   6
BRANCH   5  21
HETATM   21  C20 UNL     1      44.089   6.312   9.228  1.00  0.00     0.255 C 
HETATM   22  O2  UNL     1      44.403   6.448  10.462  1.00  0.00    -0.268 OA
HETATM   23  N3  UNL     1      44.325   5.028   8.723  1.00  0.00    -0.353 N 
ATOM     24  H3  UNL     1      44.119   4.833   7.744  1.00  0.00     0.163 HD
BRANCH  23  25
HETATM   25  C21 UNL     1      44.860   3.959   9.566  1.00  0.00     0.161 C 
BRANCH  25  26
HETATM   26  C22 UNL     1      43.837   3.218  10.301  1.00  0.00    -0.041 A 
HETATM   27  C23 UNL     1      42.484   3.532  10.256  1.00  0.00     0.009 A 
HETATM   28  C24 UNL     1      41.547   2.820  10.946  1.00  0.00     0.001 A 
HETATM   29  C25 UNL     1      41.925   1.752  11.720  1.00  0.00     0.000 A 
HETATM   30  C26 UNL     1      43.251   1.421  11.783  1.00  0.00     0.001 A 
HETATM   31  C27 UNL     1      44.209   2.146  11.079  1.00  0.00     0.009 A 
ENDBRANCH  25  26
ENDBRANCH  23  25
ENDBRANCH   5  21
BRANCH   4  32
HETATM   32  C13 UNL     1      45.672   8.894   8.464  1.00  0.00    -0.024 A 
HETATM   33  C14 UNL     1      46.649   7.927   8.381  1.00  0.00     0.012 A 
HETATM   34  C15 UNL     1      47.954   8.296   8.598  1.00  0.00     0.001 A 
HETATM   35  C16 UNL     1      48.328   9.596   8.896  1.00  0.00     0.000 A 
HETATM   36  C17 UNL     1      47.349  10.550   8.977  1.00  0.00     0.001 A 
HETATM   37  C18 UNL     1      46.041  10.188   8.761  1.00  0.00     0.012 A 
ENDBRANCH   4  32
TORSDOF 9
ENDMDL
