MODEL 6
REMARK VINA RESULT: -8.805629293      3.355      5.862
REMARK  9 active torsions:
REMARK  status: ('A' for Active; 'I' for Inactive)
REMARK    1  A    between atoms: C1_2  and  C2_3 
REMARK       I    between atoms: C1_2  and  N2_14 
REMARK    2  A    between atoms: C2_3  and  N1_4 
REMARK    3  A    between atoms: N1_4  and  C3_7 
REMARK    4  A    between atoms: C3_7  and  C4_8 
REMARK    5  A    between atoms: N2_14  and  C10_16 
REMARK    6  A    between atoms: C12_19  and  C13_20 
REMARK    7  A    between atoms: C19_26  and  C20_27 
REMARK       I    between atoms: C20_27  and  N3_29 
REMARK    8  A    between atoms: N3_29  and  C21_31 
REMARK    9  A    between atoms: C21_31  and  C22_32 
ROOT
HETATM    1  C10 UNL     1      45.632   8.395   9.249  1.00  0.00     0.093 A 
HETATM    2  S1  UNL     1      44.942   9.711   8.379  1.00  0.00    -0.082 SA
HETATM    3  C11 UNL     1      43.644   8.910   7.665  1.00  0.00     0.065 A 
HETATM    4  C12 UNL     1      43.768   7.608   8.122  1.00  0.00    -0.001 A 
HETATM    5  C19 UNL     1      44.804   7.339   8.944  1.00  0.00     0.077 A 
ENDROOT
BRANCH   1   6
HETATM    6  N2  UNL     1      46.787   8.493  10.055  1.00  0.00    -0.319 N 
HETATM    7  C1  UNL     1      46.678   8.893  11.425  1.00  0.00     0.248 C 
HETATM    8  O1  UNL     1      45.535   9.147  11.869  1.00  0.00    -0.271 OA
ATOM      9  H2  UNL     1      47.702   8.279   9.659  1.00  0.00     0.169 HD
BRANCH   7  10
HETATM   10  C2  UNL     1      47.907   8.995  12.274  1.00  0.00     0.335 C 
BRANCH  10  11
HETATM   11  N1  UNL     1      48.557   7.713  12.408  1.00  0.00    -0.063 N 
ATOM     12  H12 UNL     1      48.593   7.213  11.520  1.00  0.00     0.278 HD
ATOM     13  H11 UNL     1      49.559   7.811  12.568  1.00  0.00     0.278 HD
BRANCH  11  14
HETATM   14  C3  UNL     1      47.916   6.921  13.450  1.00  0.00     0.271 C 
BRANCH  14  15
HETATM   15  C4  UNL     1      48.469   7.205  14.790  1.00  0.00    -0.033 A 
HETATM   16  C5  UNL     1      47.728   7.857  15.747  1.00  0.00     0.009 A 
HETATM   17  C6  UNL     1      48.264   8.123  17.015  1.00  0.00     0.001 A 
HETATM   18  C7  UNL     1      49.563   7.708  17.278  1.00  0.00     0.000 A 
HETATM   19  C8  UNL     1      50.319   7.054  16.332  1.00  0.00     0.001 A 
HETATM   20  C9  UNL     1      49.749   6.813  15.092  1.00  0.00     0.009 A 
ENDBRANCH  14  15
ENDBRANCH  11  14
ENDBRANCH  10  11
ENDBRANCH   7  10
ENDBRANCH   1   6
BRANCH   5  21
HETATM   21  C20 UNL     1      45.100   6.022   9.527  1.00  0.00     0.255 C 
HETATM   22  O2  UNL     1      45.429   5.962  10.764  1.00  0.00    -0.268 OA
HETATM   23  N3  UNL     1      45.078   4.776   8.889  1.00  0.00    -0.353 N 
ATOM     24  H3  UNL     1      44.842   4.729   7.898  1.00  0.00     0.163 HD
BRANCH  23  25
HETATM   25  C21 UNL     1      45.384   3.539   9.609  1.00  0.00     0.161 C 
BRANCH  25  26
HETATM   26  C22 UNL     1      44.236   2.959  10.301  1.00  0.00    -0.041 A 
HETATM   27  C23 UNL     1      42.933   3.417  10.139  1.00  0.00     0.009 A 
HETATM   28  C24 UNL     1      41.877   2.853  10.794  1.00  0.00     0.001 A 
HETATM   29  C25 UNL     1      42.077   1.798  11.647  1.00  0.00     0.000 A 
HETATM   30  C26 UNL     1      43.350   1.328  11.825  1.00  0.00     0.001 A 
HETATM   31  C27 UNL     1      44.430   1.901  11.158  1.00  0.00     0.009 A 
ENDBRANCH  25  26
ENDBRANCH  23  25
ENDBRANCH   5  21
BRANCH   4  32
HETATM   32  C13 UNL     1      42.654   6.714   7.713  1.00  0.00    -0.024 A 
HETATM   33  C14 UNL     1      41.588   6.425   8.535  1.00  0.00     0.012 A 
HETATM   34  C15 UNL     1      40.601   5.597   8.060  1.00  0.00     0.001 A 
HETATM   35  C16 UNL     1      40.631   5.041   6.792  1.00  0.00     0.000 A 
HETATM   36  C17 UNL     1      41.696   5.333   5.982  1.00  0.00     0.001 A 
HETATM   37  C18 UNL     1      42.688   6.161   6.450  1.00  0.00     0.012 A 
ENDBRANCH   4  32
TORSDOF 9
ENDMDL
