MODEL 4
REMARK VINA RESULT: -8.894109495      1.332      2.042
REMARK  9 active torsions:
REMARK  status: ('A' for Active; 'I' for Inactive)
REMARK    1  A    between atoms: C1_2  and  C2_3 
REMARK       I    between atoms: C1_2  and  N2_14 
REMARK    2  A    between atoms: C2_3  and  N1_4 
REMARK    3  A    between atoms: N1_4  and  C3_7 
REMARK    4  A    between atoms: C3_7  and  C4_8 
REMARK    5  A    between atoms: N2_14  and  C10_16 
REMARK    6  A    between atoms: C12_19  and  C13_20 
REMARK    7  A    between atoms: C19_26  and  C20_27 
REMARK       I    between atoms: C20_27  and  N3_29 
REMARK    8  A    between atoms: N3_29  and  C21_31 
REMARK    9  A    between atoms: C21_31  and  C22_32 
ROOT
HETATM    1  C10 UNL     1      46.407   7.952   8.756  1.00  0.00     0.093 A 
HETATM    2  S1  UNL     1      47.321   9.395   8.979  1.00  0.00    -0.082 SA
HETATM    3  C11 UNL     1      46.095  10.528   8.749  1.00  0.00     0.065 A 
HETATM    4  C12 UNL     1      44.974   9.754   8.498  1.00  0.00    -0.001 A 
HETATM    5  C19 UNL     1      45.136   8.414   8.500  1.00  0.00     0.077 A 
ENDROOT
BRANCH   1   6
HETATM    6  N2  UNL     1      46.945   6.650   8.837  1.00  0.00    -0.319 N 
HETATM    7  C1  UNL     1      46.886   5.921  10.068  1.00  0.00     0.248 C 
HETATM    8  O1  UNL     1      46.347   6.479  11.050  1.00  0.00    -0.271 OA
ATOM      9  H2  UNL     1      47.378   6.227   8.016  1.00  0.00     0.169 HD
BRANCH   7  10
HETATM   10  C2  UNL     1      47.459   4.540  10.147  1.00  0.00     0.335 C 
BRANCH  10  11
HETATM   11  N1  UNL     1      46.486   3.600  10.650  1.00  0.00    -0.063 N 
ATOM     12  H12 UNL     1      46.906   2.695  10.860  1.00  0.00     0.278 HD
ATOM     13  H11 UNL     1      46.173   3.845  11.590  1.00  0.00     0.278 HD
BRANCH  11  14
HETATM   14  C3  UNL     1      45.367   3.476   9.724  1.00  0.00     0.271 C 
BRANCH  14  15
HETATM   15  C4  UNL     1      44.151   2.952  10.379  1.00  0.00    -0.033 A 
HETATM   16  C5  UNL     1      42.920   3.529  10.172  1.00  0.00     0.009 A 
HETATM   17  C6  UNL     1      41.774   3.024  10.800  1.00  0.00     0.001 A 
HETATM   18  C7  UNL     1      41.915   1.924  11.637  1.00  0.00     0.000 A 
HETATM   19  C8  UNL     1      43.139   1.334  11.856  1.00  0.00     0.001 A 
HETATM   20  C9  UNL     1      44.246   1.867  11.214  1.00  0.00     0.009 A 
ENDBRANCH  14  15
ENDBRANCH  11  14
ENDBRANCH  10  11
ENDBRANCH   7  10
ENDBRANCH   1   6
BRANCH   5  21
HETATM   21  C20 UNL     1      44.067   7.433   8.254  1.00  0.00     0.255 C 
HETATM   22  O2  UNL     1      43.301   7.111   9.228  1.00  0.00    -0.268 OA
HETATM   23  N3  UNL     1      43.766   6.774   7.056  1.00  0.00    -0.353 N 
ATOM     24  H3  UNL     1      44.336   6.957   6.231  1.00  0.00     0.163 HD
BRANCH  23  25
HETATM   25  C21 UNL     1      42.654   5.828   6.960  1.00  0.00     0.161 C 
BRANCH  25  26
HETATM   26  C22 UNL     1      41.371   6.454   6.651  1.00  0.00    -0.041 A 
HETATM   27  C23 UNL     1      40.171   6.069   7.239  1.00  0.00     0.009 A 
HETATM   28  C24 UNL     1      38.986   6.674   6.938  1.00  0.00     0.001 A 
HETATM   29  C25 UNL     1      38.947   7.700   6.027  1.00  0.00     0.000 A 
HETATM   30  C26 UNL     1      40.114   8.099   5.434  1.00  0.00     0.001 A 
HETATM   31  C27 UNL     1      41.324   7.483   5.740  1.00  0.00     0.009 A 
ENDBRANCH  25  26
ENDBRANCH  23  25
ENDBRANCH   5  21
BRANCH   4  32
HETATM   32  C13 UNL     1      43.716  10.534   8.371  1.00  0.00    -0.024 A 
HETATM   33  C14 UNL     1      42.734  10.224   7.457  1.00  0.00     0.012 A 
HETATM   34  C15 UNL     1      41.600  10.998   7.426  1.00  0.00     0.001 A 
HETATM   35  C16 UNL     1      41.403  12.077   8.273  1.00  0.00     0.000 A 
HETATM   36  C17 UNL     1      42.386  12.379   9.178  1.00  0.00     0.001 A 
HETATM   37  C18 UNL     1      43.523  11.608   9.214  1.00  0.00     0.012 A 
ENDBRANCH   4  32
TORSDOF 9
ENDMDL
