MODEL 1
REMARK VINA RESULT: -8.947059538      0.000      0.000
REMARK  9 active torsions:
REMARK  status: ('A' for Active; 'I' for Inactive)
REMARK    1  A    between atoms: C1_2  and  C2_3 
REMARK       I    between atoms: C1_2  and  N2_14 
REMARK    2  A    between atoms: C2_3  and  N1_4 
REMARK    3  A    between atoms: N1_4  and  C3_7 
REMARK    4  A    between atoms: C3_7  and  C4_8 
REMARK    5  A    between atoms: N2_14  and  C10_16 
REMARK    6  A    between atoms: C12_19  and  C13_20 
REMARK    7  A    between atoms: C19_26  and  C20_27 
REMARK       I    between atoms: C20_27  and  N3_29 
REMARK    8  A    between atoms: N3_29  and  C21_31 
REMARK    9  A    between atoms: C21_31  and  C22_32 
ROOT
HETATM    1  C10 UNL     1      46.294   7.837   8.650  1.00  0.00     0.093 A 
HETATM    2  S1  UNL     1      47.392   9.137   8.387  1.00  0.00    -0.082 SA
HETATM    3  C11 UNL     1      46.297  10.417   8.383  1.00  0.00     0.065 A 
HETATM    4  C12 UNL     1      45.072   9.803   8.591  1.00  0.00    -0.001 A 
HETATM    5  C19 UNL     1      45.070   8.460   8.727  1.00  0.00     0.077 A 
ENDROOT
BRANCH   1   6
HETATM    6  N2  UNL     1      46.676   6.482   8.743  1.00  0.00    -0.319 N 
HETATM    7  C1  UNL     1      47.072   5.929  10.003  1.00  0.00     0.248 C 
HETATM    8  O1  UNL     1      47.065   6.686  10.999  1.00  0.00    -0.271 OA
ATOM      9  H2  UNL     1      46.670   5.893   7.910  1.00  0.00     0.169 HD
BRANCH   7  10
HETATM   10  C2  UNL     1      47.476   4.490  10.095  1.00  0.00     0.335 C 
BRANCH  10  11
HETATM   11  N1  UNL     1      46.461   3.705  10.757  1.00  0.00    -0.063 N 
ATOM     12  H12 UNL     1      46.861   2.906  11.249  1.00  0.00     0.278 HD
ATOM     13  H11 UNL     1      46.066   4.196  11.559  1.00  0.00     0.278 HD
BRANCH  11  14
HETATM   14  C3  UNL     1      45.431   3.298   9.810  1.00  0.00     0.271 C 
BRANCH  14  15
HETATM   15  C4  UNL     1      44.231   2.760  10.485  1.00  0.00    -0.033 A 
HETATM   16  C5  UNL     1      44.304   1.661  11.308  1.00  0.00     0.009 A 
HETATM   17  C6  UNL     1      43.158   1.159  11.941  1.00  0.00     0.001 A 
HETATM   18  C7  UNL     1      41.949   1.803  11.715  1.00  0.00     0.000 A 
HETATM   19  C8  UNL     1      41.858   2.904  10.894  1.00  0.00     0.001 A 
HETATM   20  C9  UNL     1      43.016   3.365  10.288  1.00  0.00     0.009 A 
ENDBRANCH  14  15
ENDBRANCH  11  14
ENDBRANCH  10  11
ENDBRANCH   7  10
ENDBRANCH   1   6
BRANCH   5  21
HETATM   21  C20 UNL     1      43.873   7.636   8.952  1.00  0.00     0.255 C 
HETATM   22  O2  UNL     1      43.799   6.950  10.031  1.00  0.00    -0.268 OA
HETATM   23  N3  UNL     1      42.764   7.487   8.111  1.00  0.00    -0.353 N 
ATOM     24  H3  UNL     1      42.744   7.984   7.221  1.00  0.00     0.163 HD
BRANCH  23  25
HETATM   25  C21 UNL     1      41.632   6.635   8.479  1.00  0.00     0.161 C 
BRANCH  25  26
HETATM   26  C22 UNL     1      41.586   5.368   7.753  1.00  0.00    -0.041 A 
HETATM   27  C23 UNL     1      42.632   4.898   6.968  1.00  0.00     0.009 A 
HETATM   28  C24 UNL     1      42.568   3.707   6.305  1.00  0.00     0.001 A 
HETATM   29  C25 UNL     1      41.443   2.926   6.398  1.00  0.00     0.000 A 
HETATM   30  C26 UNL     1      40.398   3.365   7.164  1.00  0.00     0.001 A 
HETATM   31  C27 UNL     1      40.462   4.580   7.842  1.00  0.00     0.009 A 
ENDBRANCH  25  26
ENDBRANCH  23  25
ENDBRANCH   5  21
BRANCH   4  32
HETATM   32  C13 UNL     1      43.938  10.751   8.743  1.00  0.00    -0.024 A 
HETATM   33  C14 UNL     1      42.873  10.787   7.870  1.00  0.00     0.012 A 
HETATM   34  C15 UNL     1      41.866  11.691   8.103  1.00  0.00     0.001 A 
HETATM   35  C16 UNL     1      41.876  12.567   9.176  1.00  0.00     0.000 A 
HETATM   36  C17 UNL     1      42.939  12.525  10.038  1.00  0.00     0.001 A 
HETATM   37  C18 UNL     1      43.950  11.622   9.811  1.00  0.00     0.012 A 
ENDBRANCH   4  32
TORSDOF 9
ENDMDL
