MODEL 3
REMARK VINA RESULT: -9.428955767      1.728      3.999
REMARK  9 active torsions:
REMARK  status: ('A' for Active; 'I' for Inactive)
REMARK    1  A    between atoms: C1_2  and  C2_3 
REMARK       I    between atoms: C1_2  and  N3_19 
REMARK    2  A    between atoms: C2_3  and  N1_4 
REMARK    3  A    between atoms: N1_4  and  C3_7 
REMARK    4  A    between atoms: C3_7  and  C4_8 
REMARK    5  A    between atoms: C4_8  and  C5_9 
REMARK    6  A    between atoms: N3_19  and  C13_21 
REMARK    7  A    between atoms: C16_25  and  C17_26 
REMARK       I    between atoms: C17_26  and  N4_28 
REMARK    8  A    between atoms: N4_28  and  C18_30 
REMARK    9  A    between atoms: C18_30  and  C19_31 
ROOT
HETATM    1  C13 UNL     1      46.500   7.973   8.786  1.00  0.00     0.093 A 
HETATM    2  S1  UNL     1      47.774   9.093   8.933  1.00  0.00    -0.075 SA
HETATM    3  C14 UNL     1      46.880  10.530   9.025  1.00  0.00    -0.008 A 
HETATM    4  C15 UNL     1      45.583  10.104   8.942  1.00  0.00    -0.026 A 
HETATM    5  C16 UNL     1      45.361   8.767   8.811  1.00  0.00     0.073 A 
HETATM    6  C25 UNL     1      44.601  11.242   9.129  1.00  0.00     0.041 C 
HETATM    7  C26 UNL     1      45.183  12.025  10.354  1.00  0.00     0.005 C 
HETATM    8  C27 UNL     1      46.340  12.805   9.824  1.00  0.00     0.005 C 
HETATM    9  C28 UNL     1      47.333  11.952   9.120  1.00  0.00     0.047 C 
ENDROOT
BRANCH   1  10
HETATM   10  N3  UNL     1      46.670   6.568   8.669  1.00  0.00    -0.319 N 
HETATM   11  C1  UNL     1      46.844   5.779   9.861  1.00  0.00     0.248 C 
HETATM   12  O1  UNL     1      46.842   6.368  10.967  1.00  0.00    -0.271 OA
ATOM     13  H3  UNL     1      46.668   6.123   7.751  1.00  0.00     0.169 HD
BRANCH  11  14
HETATM   14  C2  UNL     1      47.024   4.323   9.825  1.00  0.00     0.334 C 
BRANCH  14  15
HETATM   15  N1  UNL     1      45.857   3.652   9.306  1.00  0.00    -0.067 N 
ATOM     16  H12 UNL     1      45.597   4.021   8.392  1.00  0.00     0.277 HD
ATOM     17  H11 UNL     1      46.075   2.692   9.040  1.00  0.00     0.277 HD
BRANCH  15  18
HETATM   18  C3  UNL     1      44.743   3.696  10.218  1.00  0.00     0.237 C 
BRANCH  18  19
HETATM   19  C4  UNL     1      44.419   2.304  10.701  1.00  0.00     0.068 C 
BRANCH  19  20
HETATM   20  C5  UNL     1      42.978   2.009  10.645  1.00  0.00    -0.029 A 
HETATM   21  C6  UNL     1      41.949   2.925  10.686  1.00  0.00     0.096 A 
HETATM   22  N2  UNL     1      40.769   2.285  10.612  1.00  0.00    -0.365 N 
HETATM   23  C7  UNL     1      40.985   0.944  10.521  1.00  0.00     0.042 A 
ATOM     24  H2  UNL     1      39.854   2.735  10.622  1.00  0.00     0.165 HD
HETATM   25  C8  UNL     1      40.122  -0.121  10.424  1.00  0.00     0.030 A 
HETATM   26  C12 UNL     1      42.363   0.779  10.541  1.00  0.00    -0.002 A 
HETATM   27  C9  UNL     1      40.634  -1.393  10.344  1.00  0.00     0.002 A 
HETATM   28  C10 UNL     1      42.003  -1.567  10.363  1.00  0.00     0.001 A 
HETATM   29  C11 UNL     1      42.856  -0.513  10.460  1.00  0.00     0.014 A 
ENDBRANCH  19  20
ENDBRANCH  18  19
ENDBRANCH  15  18
ENDBRANCH  14  15
ENDBRANCH  11  14
ENDBRANCH   1  10
BRANCH   5  30
HETATM   30  C17 UNL     1      44.049   8.107   8.704  1.00  0.00     0.255 C 
HETATM   31  O2  UNL     1      43.619   7.459   9.724  1.00  0.00    -0.268 OA
HETATM   32  N4  UNL     1      43.180   8.078   7.599  1.00  0.00    -0.353 N 
ATOM     33  H4  UNL     1      43.455   8.548   6.737  1.00  0.00     0.163 HD
BRANCH  32  34
HETATM   34  C18 UNL     1      41.884   7.388   7.656  1.00  0.00     0.161 C 
BRANCH  34  35
HETATM   35  C19 UNL     1      41.865   6.103   6.969  1.00  0.00    -0.041 A 
HETATM   36  C20 UNL     1      41.321   6.024   5.707  1.00  0.00     0.009 A 
HETATM   37  C21 UNL     1      41.261   4.837   4.998  1.00  0.00     0.001 A 
HETATM   38  C22 UNL     1      41.769   3.704   5.595  1.00  0.00     0.000 A 
HETATM   39  C23 UNL     1      42.325   3.732   6.860  1.00  0.00     0.001 A 
HETATM   40  C24 UNL     1      42.363   4.954   7.536  1.00  0.00     0.009 A 
ENDBRANCH  34  35
ENDBRANCH  32  34
ENDBRANCH   5  30
TORSDOF 9
ENDMDL
