MODEL 4
REMARK VINA RESULT: -9.255569640      1.904      4.684
REMARK  9 active torsions:
REMARK  status: ('A' for Active; 'I' for Inactive)
REMARK    1  A    between atoms: C1_2  and  C2_3 
REMARK       I    between atoms: C1_2  and  N3_19 
REMARK    2  A    between atoms: C2_3  and  N1_4 
REMARK    3  A    between atoms: N1_4  and  C3_7 
REMARK    4  A    between atoms: C3_7  and  C4_8 
REMARK    5  A    between atoms: C4_8  and  C5_9 
REMARK    6  A    between atoms: N3_19  and  C13_21 
REMARK    7  A    between atoms: C16_25  and  C17_26 
REMARK       I    between atoms: C17_26  and  N4_28 
REMARK    8  A    between atoms: N4_28  and  C18_30 
REMARK    9  A    between atoms: C18_30  and  C19_31 
ROOT
HETATM    1  C13 UNL     1      46.524   7.826   8.753  1.00  0.00     0.093 A 
HETATM    2  S1  UNL     1      47.604   9.095   9.105  1.00  0.00    -0.075 SA
HETATM    3  C14 UNL     1      46.555  10.416   8.937  1.00  0.00    -0.008 A 
HETATM    4  C15 UNL     1      45.361   9.834   8.608  1.00  0.00    -0.026 A 
HETATM    5  C16 UNL     1      45.324   8.477   8.500  1.00  0.00     0.073 A 
HETATM    6  C25 UNL     1      44.240  10.850   8.528  1.00  0.00     0.041 C 
HETATM    7  C26 UNL     1      44.456  11.728   9.807  1.00  0.00     0.005 C 
HETATM    8  C27 UNL     1      45.604  12.628   9.490  1.00  0.00     0.005 C 
HETATM    9  C28 UNL     1      46.814  11.884   9.052  1.00  0.00     0.047 C 
ENDROOT
BRANCH   1  10
HETATM   10  N3  UNL     1      46.872   6.449   8.746  1.00  0.00    -0.319 N 
HETATM   11  C1  UNL     1      46.828   5.706   9.978  1.00  0.00     0.248 C 
HETATM   12  O1  UNL     1      46.482   6.308  11.021  1.00  0.00    -0.271 OA
ATOM     13  H3  UNL     1      47.151   5.993   7.877  1.00  0.00     0.169 HD
BRANCH  11  14
HETATM   14  C2  UNL     1      47.170   4.281  10.053  1.00  0.00     0.334 C 
BRANCH  14  15
HETATM   15  N1  UNL     1      46.128   3.449   9.500  1.00  0.00    -0.067 N 
ATOM     16  H12 UNL     1      45.989   3.646   8.509  1.00  0.00     0.277 HD
ATOM     17  H11 UNL     1      46.432   2.478   9.434  1.00  0.00     0.277 HD
BRANCH  15  18
HETATM   18  C3  UNL     1      44.891   3.557  10.228  1.00  0.00     0.237 C 
BRANCH  18  19
HETATM   19  C4  UNL     1      44.504   2.209  10.786  1.00  0.00     0.068 C 
BRANCH  19  20
HETATM   20  C5  UNL     1      43.056   1.959  10.702  1.00  0.00    -0.029 A 
HETATM   21  C6  UNL     1      42.055   2.906  10.739  1.00  0.00     0.096 A 
HETATM   22  N2  UNL     1      40.858   2.303  10.637  1.00  0.00    -0.365 N 
HETATM   23  C7  UNL     1      41.034   0.957  10.531  1.00  0.00     0.042 A 
ATOM     24  H2  UNL     1      39.957   2.780  10.638  1.00  0.00     0.165 HD
HETATM   25  C8  UNL     1      40.141  -0.079  10.406  1.00  0.00     0.030 A 
HETATM   26  C12 UNL     1      42.406   0.750  10.572  1.00  0.00    -0.002 A 
HETATM   27  C9  UNL     1      40.615  -1.366  10.318  1.00  0.00     0.002 A 
HETATM   28  C10 UNL     1      41.978  -1.582  10.357  1.00  0.00     0.001 A 
HETATM   29  C11 UNL     1      42.860  -0.555  10.481  1.00  0.00     0.014 A 
ENDBRANCH  19  20
ENDBRANCH  18  19
ENDBRANCH  15  18
ENDBRANCH  14  15
ENDBRANCH  11  14
ENDBRANCH   1  10
BRANCH   5  30
HETATM   30  C17 UNL     1      44.148   7.661   8.157  1.00  0.00     0.255 C 
HETATM   31  O2  UNL     1      43.309   7.395   9.090  1.00  0.00    -0.268 OA
HETATM   32  N4  UNL     1      43.812   7.106   6.909  1.00  0.00    -0.353 N 
ATOM     33  H4  UNL     1      44.438   7.249   6.116  1.00  0.00     0.163 HD
BRANCH  32  34
HETATM   34  C18 UNL     1      42.582   6.326   6.719  1.00  0.00     0.161 C 
BRANCH  34  35
HETATM   35  C19 UNL     1      41.461   7.100   6.202  1.00  0.00    -0.041 A 
HETATM   36  C20 UNL     1      41.678   8.391   5.776  1.00  0.00     0.009 A 
HETATM   37  C21 UNL     1      40.661   9.189   5.282  1.00  0.00     0.001 A 
HETATM   38  C22 UNL     1      39.393   8.653   5.221  1.00  0.00     0.000 A 
HETATM   39  C23 UNL     1      39.126   7.363   5.637  1.00  0.00     0.001 A 
HETATM   40  C24 UNL     1      40.185   6.596   6.128  1.00  0.00     0.009 A 
ENDBRANCH  34  35
ENDBRANCH  32  34
ENDBRANCH   5  30
TORSDOF 9
ENDMDL
