MODEL 5
REMARK VINA RESULT: -9.064326486      1.343      2.074
REMARK  9 active torsions:
REMARK  status: ('A' for Active; 'I' for Inactive)
REMARK    1  A    between atoms: C1_2  and  C2_3 
REMARK       I    between atoms: C1_2  and  N3_19 
REMARK    2  A    between atoms: C2_3  and  N1_4 
REMARK    3  A    between atoms: N1_4  and  C3_7 
REMARK    4  A    between atoms: C3_7  and  C4_8 
REMARK    5  A    between atoms: C4_8  and  C5_9 
REMARK    6  A    between atoms: N3_19  and  C13_21 
REMARK    7  A    between atoms: C16_25  and  C17_26 
REMARK       I    between atoms: C17_26  and  N4_28 
REMARK    8  A    between atoms: N4_28  and  C18_30 
REMARK    9  A    between atoms: C18_30  and  C19_31 
ROOT
HETATM    1  C13 UNL     1      43.755   8.486   8.667  1.00  0.00     0.093 A 
HETATM    2  S1  UNL     1      44.123  10.138   8.862  1.00  0.00    -0.075 SA
HETATM    3  C14 UNL     1      45.766  10.018   9.260  1.00  0.00    -0.008 A 
HETATM    4  C15 UNL     1      46.004   8.671   9.229  1.00  0.00    -0.026 A 
HETATM    5  C16 UNL     1      44.961   7.849   8.926  1.00  0.00     0.073 A 
HETATM    6  C25 UNL     1      47.469   8.351   9.442  1.00  0.00     0.041 C 
HETATM    7  C26 UNL     1      48.203   9.385   8.524  1.00  0.00     0.005 C 
HETATM    8  C27 UNL     1      48.145  10.686   9.253  1.00  0.00     0.005 C 
HETATM    9  C28 UNL     1      46.759  11.077   9.620  1.00  0.00     0.047 C 
ENDROOT
BRANCH   1  10
HETATM   10  N3  UNL     1      42.475   7.980   8.319  1.00  0.00    -0.319 N 
HETATM   11  C1  UNL     1      42.092   7.928   6.932  1.00  0.00     0.248 C 
HETATM   12  O1  UNL     1      42.911   8.338   6.076  1.00  0.00    -0.271 OA
ATOM     13  H3  UNL     1      41.833   7.658   9.044  1.00  0.00     0.169 HD
BRANCH  11  14
HETATM   14  C2  UNL     1      40.789   7.418   6.491  1.00  0.00     0.334 C 
BRANCH  14  15
HETATM   15  N1  UNL     1      40.909   6.580   5.322  1.00  0.00    -0.067 N 
ATOM     16  H12 UNL     1      40.744   7.114   4.469  1.00  0.00     0.277 HD
ATOM     17  H11 UNL     1      41.880   6.311   5.162  1.00  0.00     0.277 HD
BRANCH  15  18
HETATM   18  C3  UNL     1      40.054   5.423   5.382  1.00  0.00     0.237 C 
BRANCH  18  19
HETATM   19  C4  UNL     1      40.025   4.878   6.789  1.00  0.00     0.068 C 
BRANCH  19  20
HETATM   20  C5  UNL     1      40.836   3.659   6.938  1.00  0.00    -0.029 A 
HETATM   21  C6  UNL     1      42.093   3.439   6.418  1.00  0.00     0.096 A 
HETATM   22  N2  UNL     1      42.517   2.210   6.762  1.00  0.00    -0.365 N 
HETATM   23  C7  UNL     1      41.562   1.593   7.510  1.00  0.00     0.042 A 
ATOM     24  H2  UNL     1      43.416   1.804   6.503  1.00  0.00     0.165 HD
HETATM   25  C8  UNL     1      41.513   0.350   8.093  1.00  0.00     0.030 A 
HETATM   26  C12 UNL     1      40.518   2.501   7.616  1.00  0.00    -0.002 A 
HETATM   27  C9  UNL     1      40.395  -0.012   8.806  1.00  0.00     0.002 A 
HETATM   28  C10 UNL     1      39.352   0.884   8.917  1.00  0.00     0.001 A 
HETATM   29  C11 UNL     1      39.402   2.114   8.340  1.00  0.00     0.014 A 
ENDBRANCH  19  20
ENDBRANCH  18  19
ENDBRANCH  15  18
ENDBRANCH  14  15
ENDBRANCH  11  14
ENDBRANCH   1  10
BRANCH   5  30
HETATM   30  C17 UNL     1      45.005   6.380   8.842  1.00  0.00     0.255 C 
HETATM   31  O2  UNL     1      44.623   5.830   7.748  1.00  0.00    -0.268 OA
HETATM   32  N4  UNL     1      45.410   5.466   9.831  1.00  0.00    -0.353 N 
ATOM     33  H4  UNL     1      45.707   5.818  10.742  1.00  0.00     0.163 HD
BRANCH  32  34
HETATM   34  C18 UNL     1      45.416   4.017   9.586  1.00  0.00     0.161 C 
BRANCH  34  35
HETATM   35  C19 UNL     1      44.337   3.298  10.250  1.00  0.00    -0.041 A 
HETATM   36  C20 UNL     1      43.057   3.798  10.183  1.00  0.00     0.009 A 
HETATM   37  C21 UNL     1      41.984   3.175  10.795  1.00  0.00     0.001 A 
HETATM   38  C22 UNL     1      42.228   2.012  11.492  1.00  0.00     0.000 A 
HETATM   39  C23 UNL     1      43.496   1.470  11.588  1.00  0.00     0.001 A 
HETATM   40  C24 UNL     1      44.546   2.136  10.953  1.00  0.00     0.009 A 
ENDBRANCH  34  35
ENDBRANCH  32  34
ENDBRANCH   5  30
TORSDOF 9
ENDMDL
