MODEL 2
REMARK VINA RESULT: -9.466294584      0.946      1.358
REMARK  9 active torsions:
REMARK  status: ('A' for Active; 'I' for Inactive)
REMARK    1  A    between atoms: C1_2  and  C2_3 
REMARK       I    between atoms: C1_2  and  N3_19 
REMARK    2  A    between atoms: C2_3  and  N1_4 
REMARK    3  A    between atoms: N1_4  and  C3_7 
REMARK    4  A    between atoms: C3_7  and  C4_8 
REMARK    5  A    between atoms: C4_8  and  C5_9 
REMARK    6  A    between atoms: N3_19  and  C13_21 
REMARK    7  A    between atoms: C16_25  and  C17_26 
REMARK       I    between atoms: C17_26  and  N4_28 
REMARK    8  A    between atoms: N4_28  and  C18_30 
REMARK    9  A    between atoms: C18_30  and  C19_31 
ROOT
HETATM    1  C13 UNL     1      44.025   8.055   8.864  1.00  0.00     0.093 A 
HETATM    2  S1  UNL     1      44.141   9.711   8.485  1.00  0.00    -0.075 SA
HETATM    3  C14 UNL     1      45.742  10.000   8.961  1.00  0.00    -0.008 A 
HETATM    4  C15 UNL     1      46.166   8.779   9.411  1.00  0.00    -0.026 A 
HETATM    5  C16 UNL     1      45.279   7.747   9.374  1.00  0.00     0.073 A 
HETATM    6  C25 UNL     1      47.636   8.791   9.777  1.00  0.00     0.041 C 
HETATM    7  C26 UNL     1      48.301   9.557   8.584  1.00  0.00     0.005 C 
HETATM    8  C27 UNL     1      47.997  11.001   8.811  1.00  0.00     0.005 C 
HETATM    9  C28 UNL     1      46.542  11.264   8.966  1.00  0.00     0.047 C 
ENDROOT
BRANCH   1  10
HETATM   10  N3  UNL     1      42.864   7.262   8.666  1.00  0.00    -0.319 N 
HETATM   11  C1  UNL     1      42.722   6.516   7.442  1.00  0.00     0.248 C 
HETATM   12  O1  UNL     1      43.636   6.598   6.589  1.00  0.00    -0.271 OA
ATOM     13  H3  UNL     1      42.139   7.221   9.383  1.00  0.00     0.169 HD
BRANCH  11  14
HETATM   14  C2  UNL     1      41.554   5.672   7.164  1.00  0.00     0.334 C 
BRANCH  14  15
HETATM   15  N1  UNL     1      41.843   4.668   6.168  1.00  0.00    -0.067 N 
ATOM     16  H12 UNL     1      41.040   4.516   5.558  1.00  0.00     0.277 HD
ATOM     17  H11 UNL     1      42.509   5.017   5.479  1.00  0.00     0.277 HD
BRANCH  15  18
HETATM   18  C3  UNL     1      42.297   3.431   6.747  1.00  0.00     0.237 C 
BRANCH  18  19
HETATM   19  C4  UNL     1      41.245   2.364   6.567  1.00  0.00     0.068 C 
BRANCH  19  20
HETATM   20  C5  UNL     1      41.678   1.053   7.079  1.00  0.00    -0.029 A 
HETATM   21  C6  UNL     1      42.693   0.268   6.574  1.00  0.00     0.096 A 
HETATM   22  N2  UNL     1      42.798  -0.858   7.301  1.00  0.00    -0.365 N 
HETATM   23  C7  UNL     1      41.866  -0.847   8.293  1.00  0.00     0.042 A 
ATOM     24  H2  UNL     1      43.472  -1.605   7.134  1.00  0.00     0.165 HD
HETATM   25  C8  UNL     1      41.570  -1.750   9.285  1.00  0.00     0.030 A 
HETATM   26  C12 UNL     1      41.173   0.347   8.150  1.00  0.00    -0.002 A 
HETATM   27  C9  UNL     1      40.554  -1.468  10.167  1.00  0.00     0.002 A 
HETATM   28  C10 UNL     1      39.859  -0.284  10.032  1.00  0.00     0.001 A 
HETATM   29  C11 UNL     1      40.153   0.609   9.050  1.00  0.00     0.014 A 
ENDBRANCH  19  20
ENDBRANCH  18  19
ENDBRANCH  15  18
ENDBRANCH  14  15
ENDBRANCH  11  14
ENDBRANCH   1  10
BRANCH   5  30
HETATM   30  C17 UNL     1      45.533   6.363   9.810  1.00  0.00     0.255 C 
HETATM   31  O2  UNL     1      45.969   6.181  11.003  1.00  0.00    -0.268 OA
HETATM   32  N4  UNL     1      45.367   5.177   9.073  1.00  0.00    -0.353 N 
ATOM     33  H4  UNL     1      45.046   5.233   8.106  1.00  0.00     0.163 HD
BRANCH  32  34
HETATM   34  C18 UNL     1      45.645   3.860   9.660  1.00  0.00     0.161 C 
BRANCH  34  35
HETATM   35  C19 UNL     1      44.484   3.225  10.271  1.00  0.00    -0.041 A 
HETATM   36  C20 UNL     1      44.650   2.048  10.964  1.00  0.00     0.009 A 
HETATM   37  C21 UNL     1      43.593   1.384  11.562  1.00  0.00     0.001 A 
HETATM   38  C22 UNL     1      42.337   1.938  11.448  1.00  0.00     0.000 A 
HETATM   39  C23 UNL     1      42.120   3.119  10.762  1.00  0.00     0.001 A 
HETATM   40  C24 UNL     1      43.218   3.751  10.176  1.00  0.00     0.009 A 
ENDBRANCH  34  35
ENDBRANCH  32  34
ENDBRANCH   5  30
TORSDOF 9
ENDMDL
