MODEL 6
REMARK VINA RESULT: -9.015774146      3.324      7.246
REMARK  9 active torsions:
REMARK  status: ('A' for Active; 'I' for Inactive)
REMARK    1  A    between atoms: C1_2  and  C2_3 
REMARK       I    between atoms: C1_2  and  N3_19 
REMARK    2  A    between atoms: C2_3  and  N1_4 
REMARK    3  A    between atoms: N1_4  and  C3_7 
REMARK    4  A    between atoms: C3_7  and  C4_8 
REMARK    5  A    between atoms: C4_8  and  C5_9 
REMARK    6  A    between atoms: N3_19  and  C13_21 
REMARK    7  A    between atoms: C16_25  and  C17_26 
REMARK       I    between atoms: C17_26  and  N4_28 
REMARK    8  A    between atoms: N4_28  and  C18_30 
REMARK    9  A    between atoms: C18_30  and  C19_31 
ROOT
HETATM    1  C13 UNL     1      39.122   5.601   5.391  1.00  0.00     0.093 A 
HETATM    2  S1  UNL     1      37.825   6.271   4.513  1.00  0.00    -0.075 SA
HETATM    3  C14 UNL     1      37.567   5.026   3.392  1.00  0.00    -0.008 A 
HETATM    4  C15 UNL     1      38.509   4.093   3.730  1.00  0.00    -0.026 A 
HETATM    5  C16 UNL     1      39.339   4.377   4.772  1.00  0.00     0.073 A 
HETATM    6  C25 UNL     1      38.369   2.825   2.912  1.00  0.00     0.041 C 
HETATM    7  C26 UNL     1      36.827   2.551   2.931  1.00  0.00     0.005 C 
HETATM    8  C27 UNL     1      36.232   3.517   1.961  1.00  0.00     0.005 C 
HETATM    9  C28 UNL     1      36.602   4.927   2.254  1.00  0.00     0.047 C 
ENDROOT
BRANCH   1  10
HETATM   10  N3  UNL     1      39.765   6.232   6.488  1.00  0.00    -0.319 N 
HETATM   11  C1  UNL     1      40.963   6.997   6.256  1.00  0.00     0.248 C 
HETATM   12  O1  UNL     1      41.398   7.075   5.084  1.00  0.00    -0.271 OA
ATOM     13  H3  UNL     1      39.383   6.144   7.430  1.00  0.00     0.169 HD
BRANCH  11  14
HETATM   14  C2  UNL     1      41.684   7.680   7.336  1.00  0.00     0.334 C 
BRANCH  14  15
HETATM   15  N1  UNL     1      43.056   7.241   7.426  1.00  0.00    -0.067 N 
ATOM     16  H12 UNL     1      43.556   7.419   6.554  1.00  0.00     0.277 HD
ATOM     17  H11 UNL     1      43.594   7.845   8.049  1.00  0.00     0.277 HD
BRANCH  15  18
HETATM   18  C3  UNL     1      43.171   5.861   7.817  1.00  0.00     0.237 C 
BRANCH  18  19
HETATM   19  C4  UNL     1      43.365   5.764   9.310  1.00  0.00     0.068 C 
BRANCH  19  20
HETATM   20  C5  UNL     1      44.112   4.559   9.705  1.00  0.00    -0.029 A 
HETATM   21  C6  UNL     1      45.449   4.311   9.481  1.00  0.00     0.096 A 
HETATM   22  N2  UNL     1      45.777   3.107   9.983  1.00  0.00    -0.365 N 
HETATM   23  C7  UNL     1      44.677   2.535  10.545  1.00  0.00     0.042 A 
ATOM     24  H2  UNL     1      46.706   2.688   9.948  1.00  0.00     0.165 HD
HETATM   25  C8  UNL     1      44.491   1.330  11.180  1.00  0.00     0.030 A 
HETATM   26  C12 UNL     1      43.644   3.445  10.369  1.00  0.00    -0.002 A 
HETATM   27  C9  UNL     1      43.243   1.011  11.657  1.00  0.00     0.002 A 
HETATM   28  C10 UNL     1      42.210   1.909  11.487  1.00  0.00     0.001 A 
HETATM   29  C11 UNL     1      42.395   3.100  10.859  1.00  0.00     0.014 A 
ENDBRANCH  19  20
ENDBRANCH  18  19
ENDBRANCH  15  18
ENDBRANCH  14  15
ENDBRANCH  11  14
ENDBRANCH   1  10
BRANCH   5  30
HETATM   30  C17 UNL     1      40.414   3.515   5.291  1.00  0.00     0.255 C 
HETATM   31  O2  UNL     1      41.539   3.521   4.673  1.00  0.00    -0.268 OA
HETATM   32  N4  UNL     1      40.375   2.651   6.400  1.00  0.00    -0.353 N 
ATOM     33  H4  UNL     1      39.510   2.568   6.935  1.00  0.00     0.163 HD
BRANCH  32  34
HETATM   34  C18 UNL     1      41.548   1.867   6.807  1.00  0.00     0.161 C 
BRANCH  34  35
HETATM   35  C19 UNL     1      41.268   0.869   7.832  1.00  0.00    -0.041 A 
HETATM   36  C20 UNL     1      42.202  -0.110   8.088  1.00  0.00     0.009 A 
HETATM   37  C21 UNL     1      42.002  -1.095   9.038  1.00  0.00     0.001 A 
HETATM   38  C22 UNL     1      40.818  -1.078   9.744  1.00  0.00     0.000 A 
HETATM   39  C23 UNL     1      39.850  -0.117   9.523  1.00  0.00     0.001 A 
HETATM   40  C24 UNL     1      40.099   0.857   8.552  1.00  0.00     0.009 A 
ENDBRANCH  34  35
ENDBRANCH  32  34
ENDBRANCH   5  30
TORSDOF 9
ENDMDL
