MODEL 5
REMARK VINA RESULT: -9.267986921      3.726      6.621
REMARK  9 active torsions:
REMARK  status: ('A' for Active; 'I' for Inactive)
REMARK    1  A    between atoms: C1_2  and  C2_3 
REMARK       I    between atoms: C1_2  and  N2_13 
REMARK    2  A    between atoms: C2_3  and  C3_4 
REMARK    3  A    between atoms: C3_4  and  N1_5 
REMARK    4  A    between atoms: N1_5  and  C4_7 
REMARK    5  A    between atoms: N2_13  and  C10_15 
REMARK    6  A    between atoms: C12_18  and  C13_19 
REMARK    7  A    between atoms: C19_25  and  C20_26 
REMARK       I    between atoms: C20_26  and  N3_28 
REMARK    8  A    between atoms: N3_28  and  C21_30 
REMARK    9  A    between atoms: C21_30  and  C22_31 
ROOT
HETATM    1  C10 UNL     1      22.888   4.263  57.021  1.00  0.00     0.093 A 
HETATM    2  S1  UNL     1      23.718   5.653  57.614  1.00  0.00    -0.082 SA
HETATM    3  C11 UNL     1      24.380   5.000  59.009  1.00  0.00     0.065 A 
HETATM    4  C12 UNL     1      23.941   3.675  59.007  1.00  0.00    -0.001 A 
HETATM    5  C19 UNL     1      23.170   3.289  57.976  1.00  0.00     0.077 A 
ENDROOT
BRANCH   1   6
HETATM    6  N2  UNL     1      22.099   4.201  55.831  1.00  0.00    -0.320 N 
HETATM    7  C1  UNL     1      20.730   4.563  55.891  1.00  0.00     0.224 C 
HETATM    8  O1  UNL     1      20.276   4.929  57.004  1.00  0.00    -0.273 OA
ATOM      9  H2  UNL     1      22.516   3.901  54.949  1.00  0.00     0.169 HD
BRANCH   7  10
HETATM   10  C2  UNL     1      19.867   4.505  54.664  1.00  0.00     0.122 C 
BRANCH  10  11
HETATM   11  C3  UNL     1      19.645   3.087  54.226  1.00  0.00     0.129 C 
BRANCH  11  12
HETATM   12  N1  UNL     1      19.727   2.957  52.805  1.00  0.00    -0.389 N 
ATOM     13  H1  UNL     1      20.618   3.113  52.332  1.00  0.00     0.159 HD
BRANCH  12  14
HETATM   14  C4  UNL     1      18.583   2.615  52.054  1.00  0.00     0.027 A 
HETATM   15  C5  UNL     1      18.625   1.714  51.039  1.00  0.00     0.029 A 
HETATM   16  C6  UNL     1      17.496   1.386  50.333  1.00  0.00     0.002 A 
HETATM   17  C7  UNL     1      16.300   1.957  50.633  1.00  0.00     0.000 A 
HETATM   18  C8  UNL     1      16.218   2.874  51.655  1.00  0.00     0.002 A 
HETATM   19  C9  UNL     1      17.364   3.191  52.352  1.00  0.00     0.029 A 
ENDBRANCH  12  14
ENDBRANCH  11  12
ENDBRANCH  10  11
ENDBRANCH   7  10
ENDBRANCH   1   6
BRANCH   5  20
HETATM   20  C20 UNL     1      22.624   1.920  57.793  1.00  0.00     0.255 C 
HETATM   21  O2  UNL     1      21.372   1.794  57.705  1.00  0.00    -0.268 OA
HETATM   22  N3  UNL     1      23.343   0.726  57.698  1.00  0.00    -0.353 N 
ATOM     23  H3  UNL     1      24.361   0.752  57.750  1.00  0.00     0.163 HD
BRANCH  22  24
HETATM   24  C21 UNL     1      22.664  -0.576  57.523  1.00  0.00     0.161 C 
BRANCH  24  25
HETATM   25  C22 UNL     1      22.244  -1.128  58.817  1.00  0.00    -0.041 A 
HETATM   26  C23 UNL     1      23.097  -1.069  59.892  1.00  0.00     0.009 A 
HETATM   27  C24 UNL     1      22.651  -1.608  61.098  1.00  0.00     0.001 A 
HETATM   28  C25 UNL     1      21.401  -2.184  61.220  1.00  0.00     0.000 A 
HETATM   29  C26 UNL     1      20.553  -2.240  60.140  1.00  0.00     0.001 A 
HETATM   30  C27 UNL     1      21.001  -1.704  58.952  1.00  0.00     0.009 A 
ENDBRANCH  24  25
ENDBRANCH  22  24
ENDBRANCH   5  20
BRANCH   4  31
HETATM   31  C13 UNL     1      24.305   2.894  60.239  1.00  0.00    -0.024 A 
HETATM   32  C14 UNL     1      25.635   2.571  60.493  1.00  0.00     0.012 A 
HETATM   33  C15 UNL     1      25.970   1.847  61.615  1.00  0.00     0.001 A 
HETATM   34  C16 UNL     1      25.017   1.421  62.513  1.00  0.00     0.000 A 
HETATM   35  C17 UNL     1      23.701   1.746  62.252  1.00  0.00     0.001 A 
HETATM   36  C18 UNL     1      23.360   2.471  61.132  1.00  0.00     0.012 A 
ENDBRANCH   4  31
TORSDOF 9
ENDMDL
