MODEL 1
REMARK VINA RESULT: -9.790035741      0.000      0.000
REMARK  9 active torsions:
REMARK  status: ('A' for Active; 'I' for Inactive)
REMARK    1  A    between atoms: C1_2  and  C2_3 
REMARK       I    between atoms: C1_2  and  N2_13 
REMARK    2  A    between atoms: C2_3  and  C3_4 
REMARK    3  A    between atoms: C3_4  and  N1_5 
REMARK    4  A    between atoms: N1_5  and  C4_7 
REMARK    5  A    between atoms: N2_13  and  C10_15 
REMARK    6  A    between atoms: C12_18  and  C13_19 
REMARK    7  A    between atoms: C19_25  and  C20_26 
REMARK       I    between atoms: C20_26  and  N3_28 
REMARK    8  A    between atoms: N3_28  and  C21_30 
REMARK    9  A    between atoms: C21_30  and  C22_31 
ROOT
HETATM    1  C10 UNL     1      23.231   5.420  57.588  1.00  0.00     0.093 A 
HETATM    2  S1  UNL     1      22.954   6.539  56.307  1.00  0.00    -0.082 SA
HETATM    3  C11 UNL     1      24.158   7.653  56.655  1.00  0.00     0.065 A 
HETATM    4  C12 UNL     1      24.782   7.138  57.792  1.00  0.00    -0.001 A 
HETATM    5  C19 UNL     1      24.306   5.978  58.276  1.00  0.00     0.077 A 
ENDROOT
BRANCH   1   6
HETATM    6  N2  UNL     1      22.483   4.227  57.837  1.00  0.00    -0.320 N 
HETATM    7  C1  UNL     1      22.499   3.190  56.871  1.00  0.00     0.224 C 
HETATM    8  O1  UNL     1      23.184   3.373  55.835  1.00  0.00    -0.273 OA
ATOM      9  H2  UNL     1      21.945   4.124  58.697  1.00  0.00     0.169 HD
BRANCH   7  10
HETATM   10  C2  UNL     1      21.721   1.924  57.093  1.00  0.00     0.122 C 
BRANCH  10  11
HETATM   11  C3  UNL     1      22.044   1.317  58.426  1.00  0.00     0.129 C 
BRANCH  11  12
HETATM   12  N1  UNL     1      20.881   1.208  59.249  1.00  0.00    -0.389 N 
ATOM     13  H1  UNL     1      20.192   1.960  59.256  1.00  0.00     0.159 HD
BRANCH  12  14
HETATM   14  C4  UNL     1      20.680   0.064  60.051  1.00  0.00     0.027 A 
HETATM   15  C5  UNL     1      20.045   0.121  61.250  1.00  0.00     0.029 A 
HETATM   16  C6  UNL     1      19.848  -1.006  62.004  1.00  0.00     0.002 A 
HETATM   17  C7  UNL     1      20.284  -2.217  61.569  1.00  0.00     0.000 A 
HETATM   18  C8  UNL     1      20.931  -2.316  60.358  1.00  0.00     0.002 A 
HETATM   19  C9  UNL     1      21.120  -1.169  59.615  1.00  0.00     0.029 A 
ENDBRANCH  12  14
ENDBRANCH  11  12
ENDBRANCH  10  11
ENDBRANCH   7  10
ENDBRANCH   1   6
BRANCH   5  20
HETATM   20  C20 UNL     1      24.848   5.270  59.463  1.00  0.00     0.255 C 
HETATM   21  O2  UNL     1      24.557   5.725  60.603  1.00  0.00    -0.268 OA
HETATM   22  N3  UNL     1      25.657   4.130  59.475  1.00  0.00    -0.353 N 
ATOM     23  H3  UNL     1      25.924   3.700  58.589  1.00  0.00     0.163 HD
BRANCH  22  24
HETATM   24  C21 UNL     1      26.134   3.531  60.739  1.00  0.00     0.161 C 
BRANCH  24  25
HETATM   25  C22 UNL     1      25.360   2.330  61.078  1.00  0.00    -0.041 A 
HETATM   26  C23 UNL     1      24.136   2.459  61.691  1.00  0.00     0.009 A 
HETATM   27  C24 UNL     1      23.442   1.289  61.993  1.00  0.00     0.001 A 
HETATM   28  C25 UNL     1      23.954   0.041  61.693  1.00  0.00     0.000 A 
HETATM   29  C26 UNL     1      25.177  -0.080  61.080  1.00  0.00     0.001 A 
HETATM   30  C27 UNL     1      25.857   1.081  60.785  1.00  0.00     0.009 A 
ENDBRANCH  24  25
ENDBRANCH  22  24
ENDBRANCH   5  20
BRANCH   4  31
HETATM   31  C13 UNL     1      25.836   8.030  58.386  1.00  0.00    -0.024 A 
HETATM   32  C14 UNL     1      25.582   9.388  58.564  1.00  0.00     0.012 A 
HETATM   33  C15 UNL     1      26.548  10.209  59.098  1.00  0.00     0.001 A 
HETATM   34  C16 UNL     1      27.784   9.727  59.469  1.00  0.00     0.000 A 
HETATM   35  C17 UNL     1      28.026   8.380  59.288  1.00  0.00     0.001 A 
HETATM   36  C18 UNL     1      27.063   7.553  58.755  1.00  0.00     0.012 A 
ENDBRANCH   4  31
TORSDOF 9
ENDMDL
