MODEL 3
REMARK VINA RESULT: -9.308315865      4.199      7.576
REMARK  9 active torsions:
REMARK  status: ('A' for Active; 'I' for Inactive)
REMARK    1  A    between atoms: C1_2  and  C2_3 
REMARK       I    between atoms: C1_2  and  N2_13 
REMARK    2  A    between atoms: C2_3  and  C3_4 
REMARK    3  A    between atoms: C3_4  and  N1_5 
REMARK    4  A    between atoms: N1_5  and  C4_7 
REMARK    5  A    between atoms: N2_13  and  C10_15 
REMARK    6  A    between atoms: C12_18  and  C13_19 
REMARK    7  A    between atoms: C19_25  and  C20_26 
REMARK       I    between atoms: C20_26  and  N3_28 
REMARK    8  A    between atoms: N3_28  and  C21_30 
REMARK    9  A    between atoms: C21_30  and  C22_31 
ROOT
HETATM    1  C10 UNL     1      21.369  -0.840  57.520  1.00  0.00     0.093 A 
HETATM    2  S1  UNL     1      21.170  -2.129  58.645  1.00  0.00    -0.082 SA
HETATM    3  C11 UNL     1      22.087  -1.528  59.914  1.00  0.00     0.065 A 
HETATM    4  C12 UNL     1      22.556  -0.300  59.444  1.00  0.00    -0.001 A 
HETATM    5  C19 UNL     1      22.182   0.061  58.204  1.00  0.00     0.077 A 
ENDROOT
BRANCH   1   6
HETATM    6  N2  UNL     1      20.816  -0.782  56.203  1.00  0.00    -0.320 N 
HETATM    7  C1  UNL     1      19.531  -0.212  56.020  1.00  0.00     0.224 C 
HETATM    8  O1  UNL     1      18.939   0.222  57.039  1.00  0.00    -0.273 OA
ATOM      9  H2  UNL     1      21.339  -1.145  55.406  1.00  0.00     0.169 HD
BRANCH   7  10
HETATM   10  C2  UNL     1      18.913  -0.139  54.654  1.00  0.00     0.122 C 
BRANCH  10  11
HETATM   11  C3  UNL     1      17.430   0.077  54.742  1.00  0.00     0.129 C 
BRANCH  11  12
HETATM   12  N1  UNL     1      17.037   1.287  54.090  1.00  0.00    -0.389 N 
ATOM     13  H1  UNL     1      16.654   2.057  54.638  1.00  0.00     0.159 HD
BRANCH  12  14
HETATM   14  C4  UNL     1      17.175   1.420  52.692  1.00  0.00     0.027 A 
HETATM   15  C5  UNL     1      16.423   0.704  51.818  1.00  0.00     0.029 A 
HETATM   16  C6  UNL     1      16.564   0.862  50.463  1.00  0.00     0.002 A 
HETATM   17  C7  UNL     1      17.465   1.746  49.958  1.00  0.00     0.000 A 
HETATM   18  C8  UNL     1      18.244   2.491  50.813  1.00  0.00     0.002 A 
HETATM   19  C9  UNL     1      18.087   2.316  52.172  1.00  0.00     0.029 A 
ENDBRANCH  12  14
ENDBRANCH  11  12
ENDBRANCH  10  11
ENDBRANCH   7  10
ENDBRANCH   1   6
BRANCH   5  20
HETATM   20  C20 UNL     1      22.566   1.334  57.542  1.00  0.00     0.255 C 
HETATM   21  O2  UNL     1      23.165   1.262  56.434  1.00  0.00    -0.268 OA
HETATM   22  N3  UNL     1      22.335   2.633  58.002  1.00  0.00    -0.353 N 
ATOM     23  H3  UNL     1      21.846   2.768  58.887  1.00  0.00     0.163 HD
BRANCH  22  24
HETATM   24  C21 UNL     1      22.782   3.816  57.237  1.00  0.00     0.161 C 
BRANCH  24  25
HETATM   25  C22 UNL     1      23.636   4.682  58.060  1.00  0.00    -0.041 A 
HETATM   26  C23 UNL     1      23.797   6.004  57.718  1.00  0.00     0.009 A 
HETATM   27  C24 UNL     1      24.619   6.783  58.530  1.00  0.00     0.001 A 
HETATM   28  C25 UNL     1      25.254   6.258  59.640  1.00  0.00     0.000 A 
HETATM   29  C26 UNL     1      25.089   4.936  59.975  1.00  0.00     0.001 A 
HETATM   30  C27 UNL     1      24.275   4.173  59.167  1.00  0.00     0.009 A 
ENDBRANCH  24  25
ENDBRANCH  22  24
ENDBRANCH   5  20
BRANCH   4  31
HETATM   31  C13 UNL     1      23.520   0.395  60.364  1.00  0.00    -0.024 A 
HETATM   32  C14 UNL     1      23.045   1.247  61.358  1.00  0.00     0.012 A 
HETATM   33  C15 UNL     1      23.926   1.893  62.196  1.00  0.00     0.001 A 
HETATM   34  C16 UNL     1      25.288   1.724  62.083  1.00  0.00     0.000 A 
HETATM   35  C17 UNL     1      25.749   0.878  61.095  1.00  0.00     0.001 A 
HETATM   36  C18 UNL     1      24.873   0.228  60.254  1.00  0.00     0.012 A 
ENDBRANCH   4  31
TORSDOF 9
ENDMDL
