MODEL 4
REMARK VINA RESULT: -9.296364002      1.315      1.718
REMARK  9 active torsions:
REMARK  status: ('A' for Active; 'I' for Inactive)
REMARK    1  A    between atoms: C1_2  and  C2_3 
REMARK       I    between atoms: C1_2  and  N2_13 
REMARK    2  A    between atoms: C2_3  and  C3_4 
REMARK    3  A    between atoms: C3_4  and  N1_5 
REMARK    4  A    between atoms: N1_5  and  C4_7 
REMARK    5  A    between atoms: N2_13  and  C10_15 
REMARK    6  A    between atoms: C12_18  and  C13_19 
REMARK    7  A    between atoms: C19_25  and  C20_26 
REMARK       I    between atoms: C20_26  and  N3_28 
REMARK    8  A    between atoms: N3_28  and  C21_30 
REMARK    9  A    between atoms: C21_30  and  C22_31 
ROOT
HETATM    1  C10 UNL     1      23.167   5.469  57.563  1.00  0.00     0.093 A 
HETATM    2  S1  UNL     1      22.936   6.601  56.285  1.00  0.00    -0.082 SA
HETATM    3  C11 UNL     1      24.166   7.680  56.651  1.00  0.00     0.065 A 
HETATM    4  C12 UNL     1      24.763   7.143  57.792  1.00  0.00    -0.001 A 
HETATM    5  C19 UNL     1      24.250   5.994  58.266  1.00  0.00     0.077 A 
ENDROOT
BRANCH   1   6
HETATM    6  N2  UNL     1      22.384   4.297  57.798  1.00  0.00    -0.320 N 
HETATM    7  C1  UNL     1      22.606   3.148  56.997  1.00  0.00     0.224 C 
HETATM    8  O1  UNL     1      23.495   3.220  56.114  1.00  0.00    -0.273 OA
ATOM      9  H2  UNL     1      21.676   4.286  58.532  1.00  0.00     0.169 HD
BRANCH   7  10
HETATM   10  C2  UNL     1      21.799   1.899  57.209  1.00  0.00     0.122 C 
BRANCH  10  11
HETATM   11  C3  UNL     1      22.689   0.701  57.366  1.00  0.00     0.129 C 
BRANCH  11  12
HETATM   12  N1  UNL     1      22.206  -0.414  56.613  1.00  0.00    -0.389 N 
ATOM     13  H1  UNL     1      22.612  -0.623  55.700  1.00  0.00     0.159 HD
BRANCH  12  14
HETATM   14  C4  UNL     1      21.173  -1.226  57.125  1.00  0.00     0.027 A 
HETATM   15  C5  UNL     1      20.127  -1.635  56.362  1.00  0.00     0.029 A 
HETATM   16  C6  UNL     1      19.142  -2.438  56.877  1.00  0.00     0.002 A 
HETATM   17  C7  UNL     1      19.187  -2.847  58.172  1.00  0.00     0.000 A 
HETATM   18  C8  UNL     1      20.232  -2.453  58.977  1.00  0.00     0.002 A 
HETATM   19  C9  UNL     1      21.212  -1.645  58.439  1.00  0.00     0.029 A 
ENDBRANCH  12  14
ENDBRANCH  11  12
ENDBRANCH  10  11
ENDBRANCH   7  10
ENDBRANCH   1   6
BRANCH   5  20
HETATM   20  C20 UNL     1      24.760   5.266  59.455  1.00  0.00     0.255 C 
HETATM   21  O2  UNL     1      24.474   5.727  60.594  1.00  0.00    -0.268 OA
HETATM   22  N3  UNL     1      25.531   4.101  59.469  1.00  0.00    -0.353 N 
ATOM     23  H3  UNL     1      25.792   3.665  58.585  1.00  0.00     0.163 HD
BRANCH  22  24
HETATM   24  C21 UNL     1      25.979   3.484  60.736  1.00  0.00     0.161 C 
BRANCH  24  25
HETATM   25  C22 UNL     1      25.175   2.297  61.056  1.00  0.00    -0.041 A 
HETATM   26  C23 UNL     1      23.911   2.450  61.574  1.00  0.00     0.009 A 
HETATM   27  C24 UNL     1      23.190   1.293  61.862  1.00  0.00     0.001 A 
HETATM   28  C25 UNL     1      23.715   0.033  61.640  1.00  0.00     0.000 A 
HETATM   29  C26 UNL     1      24.980  -0.111  61.123  1.00  0.00     0.001 A 
HETATM   30  C27 UNL     1      25.686   1.038  60.841  1.00  0.00     0.009 A 
ENDBRANCH  24  25
ENDBRANCH  22  24
ENDBRANCH   5  20
BRANCH   4  31
HETATM   31  C13 UNL     1      25.835   8.003  58.402  1.00  0.00    -0.024 A 
HETATM   32  C14 UNL     1      25.618   9.367  58.578  1.00  0.00     0.012 A 
HETATM   33  C15 UNL     1      26.602  10.159  59.126  1.00  0.00     0.001 A 
HETATM   34  C16 UNL     1      27.817   9.641  59.514  1.00  0.00     0.000 A 
HETATM   35  C17 UNL     1      28.022   8.287  59.334  1.00  0.00     0.001 A 
HETATM   36  C18 UNL     1      27.042   7.489  58.787  1.00  0.00     0.012 A 
ENDBRANCH   4  31
TORSDOF 9
ENDMDL
