MODEL 2
REMARK VINA RESULT: -9.712101861      4.405      7.779
REMARK  9 active torsions:
REMARK  status: ('A' for Active; 'I' for Inactive)
REMARK    1  A    between atoms: C1_2  and  C2_3 
REMARK       I    between atoms: C1_2  and  N2_13 
REMARK    2  A    between atoms: C2_3  and  C3_4 
REMARK    3  A    between atoms: C3_4  and  N1_5 
REMARK    4  A    between atoms: N1_5  and  C4_7 
REMARK    5  A    between atoms: N2_13  and  C10_15 
REMARK    6  A    between atoms: C12_18  and  C13_19 
REMARK    7  A    between atoms: C19_25  and  C20_26 
REMARK       I    between atoms: C20_26  and  N3_28 
REMARK    8  A    between atoms: N3_28  and  C21_30 
REMARK    9  A    between atoms: C21_30  and  C22_31 
ROOT
HETATM    1  C10 UNL     1      20.968  -0.486  57.042  1.00  0.00     0.093 A 
HETATM    2  S1  UNL     1      20.514  -1.803  58.057  1.00  0.00    -0.082 SA
HETATM    3  C11 UNL     1      21.353  -1.378  59.445  1.00  0.00     0.065 A 
HETATM    4  C12 UNL     1      21.997  -0.188  59.104  1.00  0.00    -0.001 A 
HETATM    5  C19 UNL     1      21.796   0.279  57.860  1.00  0.00     0.077 A 
ENDROOT
BRANCH   1   6
HETATM    6  N2  UNL     1      20.565  -0.295  55.684  1.00  0.00    -0.320 N 
HETATM    7  C1  UNL     1      19.436   0.516  55.408  1.00  0.00     0.224 C 
HETATM    8  O1  UNL     1      18.843   1.036  56.385  1.00  0.00    -0.273 OA
ATOM      9  H2  UNL     1      21.083  -0.736  54.924  1.00  0.00     0.169 HD
BRANCH   7  10
HETATM   10  C2  UNL     1      18.977   0.735  53.995  1.00  0.00     0.122 C 
BRANCH  10  11
HETATM   11  C3  UNL     1      19.254   2.140  53.548  1.00  0.00     0.129 C 
BRANCH  11  12
HETATM   12  N1  UNL     1      19.077   2.288  52.137  1.00  0.00    -0.389 N 
ATOM     13  H1  UNL     1      19.886   2.457  51.539  1.00  0.00     0.159 HD
BRANCH  12  14
HETATM   14  C4  UNL     1      17.789   2.201  51.568  1.00  0.00     0.027 A 
HETATM   15  C5  UNL     1      17.494   1.328  50.571  1.00  0.00     0.029 A 
HETATM   16  C6  UNL     1      16.231   1.251  50.044  1.00  0.00     0.002 A 
HETATM   17  C7  UNL     1      15.235   2.049  50.510  1.00  0.00     0.000 A 
HETATM   18  C8  UNL     1      15.494   2.945  51.522  1.00  0.00     0.002 A 
HETATM   19  C9  UNL     1      16.772   3.008  52.037  1.00  0.00     0.029 A 
ENDBRANCH  12  14
ENDBRANCH  11  12
ENDBRANCH  10  11
ENDBRANCH   7  10
ENDBRANCH   1   6
BRANCH   5  20
HETATM   20  C20 UNL     1      22.381   1.534  57.322  1.00  0.00     0.255 C 
HETATM   21  O2  UNL     1      23.158   1.443  56.332  1.00  0.00    -0.268 OA
HETATM   22  N3  UNL     1      22.169   2.835  57.784  1.00  0.00    -0.353 N 
ATOM     23  H3  UNL     1      21.544   2.986  58.576  1.00  0.00     0.163 HD
BRANCH  22  24
HETATM   24  C21 UNL     1      22.827   3.999  57.153  1.00  0.00     0.161 C 
BRANCH  24  25
HETATM   25  C22 UNL     1      23.700   4.692  58.110  1.00  0.00    -0.041 A 
HETATM   26  C23 UNL     1      23.964   6.031  57.944  1.00  0.00     0.009 A 
HETATM   27  C24 UNL     1      24.799   6.642  58.878  1.00  0.00     0.001 A 
HETATM   28  C25 UNL     1      25.345   5.940  59.935  1.00  0.00     0.000 A 
HETATM   29  C26 UNL     1      25.076   4.602  60.095  1.00  0.00     0.001 A 
HETATM   30  C27 UNL     1      24.251   4.005  59.167  1.00  0.00     0.009 A 
ENDBRANCH  24  25
ENDBRANCH  22  24
ENDBRANCH   5  20
BRANCH   4  31
HETATM   31  C13 UNL     1      22.929   0.344  60.158  1.00  0.00    -0.024 A 
HETATM   32  C14 UNL     1      22.462   1.244  61.112  1.00  0.00     0.012 A 
HETATM   33  C15 UNL     1      23.315   1.740  62.072  1.00  0.00     0.001 A 
HETATM   34  C16 UNL     1      24.641   1.371  62.123  1.00  0.00     0.000 A 
HETATM   35  C17 UNL     1      25.094   0.478  61.172  1.00  0.00     0.001 A 
HETATM   36  C18 UNL     1      24.245  -0.022  60.209  1.00  0.00     0.012 A 
ENDBRANCH   4  31
TORSDOF 9
ENDMDL
