MODEL 9
REMARK VINA RESULT: -6.524465082      4.310      7.977
REMARK  5 active torsions:
REMARK  status: ('A' for Active; 'I' for Inactive)
REMARK    1  A    between atoms: C1_2  and  C2_4 
REMARK    2  A    between atoms: C2_4  and  C3_5 
REMARK    3  A    between atoms: C3_5  and  C4_6 
REMARK    4  A    between atoms: C4_6  and  C5_7 
REMARK    5  A    between atoms: C5_7  and  C6_8 
ROOT
HETATM    1  C6  UNL     1       8.956 -19.461   5.964  1.00  0.00     0.072 C 
HETATM    2  S1  UNL     1       9.049 -18.037   7.120  1.00  0.00    -0.160 SA
HETATM    3  C7  UNL     1       7.661 -17.058   6.424  1.00  0.00     0.101 C 
HETATM    4  C8  UNL     1       7.373 -17.795   5.164  1.00  0.00     0.119 C 
HETATM    5  N1  UNL     1       5.916 -17.764   4.975  1.00  0.00    -0.336 N 
ATOM      6  H1  UNL     1       5.380 -17.163   4.350  1.00  0.00     0.164 HD
HETATM    7  C9  UNL     1       5.421 -18.762   5.859  1.00  0.00     0.316 C 
HETATM    8  O3  UNL     1       4.212 -18.846   6.221  1.00  0.00    -0.247 OA
HETATM    9  N2  UNL     1       6.513 -19.618   6.248  1.00  0.00    -0.335 N 
ATOM     10  H2  UNL     1       6.513 -20.328   6.981  1.00  0.00     0.164 HD
HETATM   11  C10 UNL     1       7.598 -19.259   5.387  1.00  0.00     0.123 C 
ENDROOT
BRANCH   1  12
HETATM   12  C5  UNL     1       9.134 -20.749   6.685  1.00  0.00     0.017 C 
BRANCH  12  13
HETATM   13  C4  UNL     1      10.548 -20.815   7.206  1.00  0.00     0.002 C 
BRANCH  13  14
HETATM   14  C3  UNL     1      10.710 -21.788   8.336  1.00  0.00     0.010 C 
BRANCH  14  15
HETATM   15  C2  UNL     1      12.022 -22.527   8.257  1.00  0.00     0.113 C 
BRANCH  15  16
HETATM   16  C1  UNL     1      11.873 -23.887   7.711  1.00  0.00     0.172 C 
HETATM   17  O1  UNL     1      11.118 -24.728   8.239  1.00  0.00    -0.648 OA
HETATM   18  O2  UNL     1      12.580 -24.246   6.590  1.00  0.00    -0.648 OA
ENDBRANCH  15  16
ENDBRANCH  14  15
ENDBRANCH  13  14
ENDBRANCH  12  13
ENDBRANCH   1  12
TORSDOF 5
ENDMDL
