MODEL 4
REMARK VINA RESULT: -7.351253376      0.987      1.291
REMARK  5 active torsions:
REMARK  status: ('A' for Active; 'I' for Inactive)
REMARK    1  A    between atoms: C1_2  and  C2_4 
REMARK    2  A    between atoms: C2_4  and  C3_5 
REMARK    3  A    between atoms: C3_5  and  C4_6 
REMARK    4  A    between atoms: C4_6  and  C5_7 
REMARK    5  A    between atoms: C5_7  and  C6_8 
ROOT
HETATM    1  C6  UNL     1       5.612 -18.653   4.170  1.00  0.00     0.072 C 
HETATM    2  S1  UNL     1       5.131 -19.158   5.869  1.00  0.00    -0.160 SA
HETATM    3  C7  UNL     1       6.819 -19.404   6.545  1.00  0.00     0.101 C 
HETATM    4  C8  UNL     1       7.653 -19.319   5.317  1.00  0.00     0.119 C 
HETATM    5  N1  UNL     1       8.897 -18.632   5.691  1.00  0.00    -0.336 N 
ATOM      6  H1  UNL     1       9.809 -19.048   5.875  1.00  0.00     0.164 HD
HETATM    7  C9  UNL     1       8.542 -17.255   5.738  1.00  0.00     0.316 C 
HETATM    8  O3  UNL     1       9.239 -16.367   6.308  1.00  0.00    -0.247 OA
HETATM    9  N2  UNL     1       7.293 -17.076   5.044  1.00  0.00    -0.335 N 
ATOM     10  H2  UNL     1       6.707 -16.240   5.029  1.00  0.00     0.164 HD
HETATM   11  C10 UNL     1       7.049 -18.319   4.379  1.00  0.00     0.123 C 
ENDROOT
BRANCH   1  12
HETATM   12  C5  UNL     1       4.779 -17.519   3.692  1.00  0.00     0.017 C 
BRANCH  12  13
HETATM   13  C4  UNL     1       5.243 -17.131   2.310  1.00  0.00     0.002 C 
BRANCH  13  14
HETATM   14  C3  UNL     1       4.160 -16.504   1.484  1.00  0.00     0.010 C 
BRANCH  14  15
HETATM   15  C2  UNL     1       2.818 -17.142   1.740  1.00  0.00     0.113 C 
BRANCH  15  16
HETATM   16  C1  UNL     1       2.368 -17.980   0.615  1.00  0.00     0.172 C 
HETATM   17  O1  UNL     1       3.173 -18.479  -0.197  1.00  0.00    -0.648 OA
HETATM   18  O2  UNL     1       1.026 -18.224   0.449  1.00  0.00    -0.648 OA
ENDBRANCH  15  16
ENDBRANCH  14  15
ENDBRANCH  13  14
ENDBRANCH  12  13
ENDBRANCH   1  12
TORSDOF 5
ENDMDL
