MODEL 7
REMARK VINA RESULT: -6.849737569      1.629      2.081
REMARK  5 active torsions:
REMARK  status: ('A' for Active; 'I' for Inactive)
REMARK    1  A    between atoms: C1_2  and  C2_4 
REMARK    2  A    between atoms: C2_4  and  C3_5 
REMARK    3  A    between atoms: C3_5  and  C4_6 
REMARK    4  A    between atoms: C4_6  and  C5_7 
REMARK    5  A    between atoms: C5_7  and  C6_8 
ROOT
HETATM    1  C6  UNL     1       6.387 -18.178   5.561  1.00  0.00     0.072 C 
HETATM    2  S1  UNL     1       7.512 -16.744   5.788  1.00  0.00    -0.160 SA
HETATM    3  C7  UNL     1       8.591 -17.475   7.080  1.00  0.00     0.101 C 
HETATM    4  C8  UNL     1       7.844 -18.711   7.436  1.00  0.00     0.119 C 
HETATM    5  N1  UNL     1       8.845 -19.755   7.699  1.00  0.00    -0.336 N 
ATOM      6  H1  UNL     1       9.170 -20.094   8.605  1.00  0.00     0.164 HD
HETATM    7  C9  UNL     1       9.259 -20.185   6.409  1.00  0.00     0.316 C 
HETATM    8  O3  UNL     1      10.314 -20.849   6.192  1.00  0.00    -0.247 OA
HETATM    9  N2  UNL     1       8.291 -19.738   5.440  1.00  0.00    -0.335 N 
ATOM     10  H2  UNL     1       8.377 -19.759   4.423  1.00  0.00     0.164 HD
HETATM   11  C10 UNL     1       7.183 -19.258   6.208  1.00  0.00     0.123 C 
ENDROOT
BRANCH   1  12
HETATM   12  C5  UNL     1       6.093 -18.406   4.122  1.00  0.00     0.017 C 
BRANCH  12  13
HETATM   13  C4  UNL     1       4.840 -17.648   3.762  1.00  0.00     0.002 C 
BRANCH  13  14
HETATM   14  C3  UNL     1       4.484 -17.762   2.309  1.00  0.00     0.010 C 
BRANCH  14  15
HETATM   15  C2  UNL     1       3.078 -17.291   2.037  1.00  0.00     0.113 C 
BRANCH  15  16
HETATM   16  C1  UNL     1       2.461 -17.985   0.894  1.00  0.00     0.172 C 
HETATM   17  O1  UNL     1       3.087 -18.191  -0.166  1.00  0.00    -0.648 OA
HETATM   18  O2  UNL     1       1.163 -18.422   0.989  1.00  0.00    -0.648 OA
ENDBRANCH  15  16
ENDBRANCH  14  15
ENDBRANCH  13  14
ENDBRANCH  12  13
ENDBRANCH   1  12
TORSDOF 5
ENDMDL
