MODEL 8
REMARK VINA RESULT: -6.667490537      4.169      7.915
REMARK  5 active torsions:
REMARK  status: ('A' for Active; 'I' for Inactive)
REMARK    1  A    between atoms: C1_2  and  C2_4 
REMARK    2  A    between atoms: C2_4  and  C3_5 
REMARK    3  A    between atoms: C3_5  and  C4_6 
REMARK    4  A    between atoms: C4_6  and  C5_7 
REMARK    5  A    between atoms: C5_7  and  C6_8 
ROOT
HETATM    1  C6  UNL     1       8.882 -19.026   6.080  1.00  0.00     0.072 C 
HETATM    2  S1  UNL     1       8.709 -17.203   6.217  1.00  0.00    -0.160 SA
HETATM    3  C7  UNL     1       7.129 -17.032   5.298  1.00  0.00     0.101 C 
HETATM    4  C8  UNL     1       6.965 -18.393   4.721  1.00  0.00     0.119 C 
HETATM    5  N1  UNL     1       5.529 -18.702   4.757  1.00  0.00    -0.336 N 
ATOM      6  H1  UNL     1       4.862 -18.662   3.986  1.00  0.00     0.164 HD
HETATM    7  C9  UNL     1       5.277 -19.071   6.107  1.00  0.00     0.316 C 
HETATM    8  O3  UNL     1       4.123 -19.118   6.621  1.00  0.00    -0.247 OA
HETATM    9  N2  UNL     1       6.534 -19.366   6.747  1.00  0.00    -0.335 N 
ATOM     10  H2  UNL     1       6.702 -19.515   7.743  1.00  0.00     0.164 HD
HETATM   11  C10 UNL     1       7.496 -19.406   5.689  1.00  0.00     0.123 C 
ENDROOT
BRANCH   1  12
HETATM   12  C5  UNL     1       9.345 -19.617   7.364  1.00  0.00     0.017 C 
BRANCH  12  13
HETATM   13  C4  UNL     1      10.082 -20.899   7.063  1.00  0.00     0.002 C 
BRANCH  13  14
HETATM   14  C3  UNL     1      10.568 -21.596   8.299  1.00  0.00     0.010 C 
BRANCH  14  15
HETATM   15  C2  UNL     1      11.931 -22.210   8.098  1.00  0.00     0.113 C 
BRANCH  15  16
HETATM   16  C1  UNL     1      11.860 -23.631   7.720  1.00  0.00     0.172 C 
HETATM   17  O1  UNL     1      12.611 -24.119   6.851  1.00  0.00    -0.648 OA
HETATM   18  O2  UNL     1      10.946 -24.451   8.337  1.00  0.00    -0.648 OA
ENDBRANCH  15  16
ENDBRANCH  14  15
ENDBRANCH  13  14
ENDBRANCH  12  13
ENDBRANCH   1  12
TORSDOF 5
ENDMDL
