MODEL 10
REMARK VINA RESULT: -6.442127540      3.767      7.733
REMARK  5 active torsions:
REMARK  status: ('A' for Active; 'I' for Inactive)
REMARK    1  A    between atoms: C1_2  and  C2_4 
REMARK    2  A    between atoms: C2_4  and  C3_5 
REMARK    3  A    between atoms: C3_5  and  C4_6 
REMARK    4  A    between atoms: C4_6  and  C5_7 
REMARK    5  A    between atoms: C5_7  and  C6_8 
ROOT
HETATM    1  C6  UNL     1       8.182 -18.972   6.479  1.00  0.00     0.072 C 
HETATM    2  S1  UNL     1       6.532 -18.871   7.280  1.00  0.00    -0.160 SA
HETATM    3  C7  UNL     1       5.818 -17.556   6.217  1.00  0.00     0.101 C 
HETATM    4  C8  UNL     1       7.012 -17.099   5.458  1.00  0.00     0.119 C 
HETATM    5  N1  UNL     1       6.557 -16.786   4.095  1.00  0.00    -0.336 N 
ATOM      6  H1  UNL     1       6.369 -15.867   3.695  1.00  0.00     0.164 HD
HETATM    7  C9  UNL     1       6.440 -18.053   3.459  1.00  0.00     0.316 C 
HETATM    8  O3  UNL     1       5.796 -18.247   2.388  1.00  0.00    -0.247 OA
HETATM    9  N2  UNL     1       7.162 -19.028   4.236  1.00  0.00    -0.335 N 
ATOM     10  H2  UNL     1       7.146 -20.043   4.126  1.00  0.00     0.164 HD
HETATM   11  C10 UNL     1       7.907 -18.270   5.194  1.00  0.00     0.123 C 
ENDROOT
BRANCH   1  12
HETATM   12  C5  UNL     1       8.618 -20.386   6.329  1.00  0.00     0.017 C 
BRANCH  12  13
HETATM   13  C4  UNL     1      10.068 -20.486   6.735  1.00  0.00     0.002 C 
BRANCH  13  14
HETATM   14  C3  UNL     1      10.277 -21.342   7.948  1.00  0.00     0.010 C 
BRANCH  14  15
HETATM   15  C2  UNL     1      11.675 -21.903   8.005  1.00  0.00     0.113 C 
BRANCH  15  16
HETATM   16  C1  UNL     1      11.705 -23.363   7.815  1.00  0.00     0.172 C 
HETATM   17  O1  UNL     1      12.627 -23.925   7.188  1.00  0.00    -0.648 OA
HETATM   18  O2  UNL     1      10.697 -24.136   8.338  1.00  0.00    -0.648 OA
ENDBRANCH  15  16
ENDBRANCH  14  15
ENDBRANCH  13  14
ENDBRANCH  12  13
ENDBRANCH   1  12
TORSDOF 5
ENDMDL
