MODEL 3
REMARK VINA RESULT: -7.446900172      1.071      1.088
REMARK  5 active torsions:
REMARK  status: ('A' for Active; 'I' for Inactive)
REMARK    1  A    between atoms: C1_2  and  C2_4 
REMARK    2  A    between atoms: C2_4  and  C3_5 
REMARK    3  A    between atoms: C3_5  and  C4_6 
REMARK    4  A    between atoms: C4_6  and  C5_7 
REMARK    5  A    between atoms: C5_7  and  C6_8 
ROOT
HETATM    1  C6  UNL     1       5.511 -18.834   4.651  1.00  0.00     0.072 C 
HETATM    2  S1  UNL     1       5.221 -19.027   6.455  1.00  0.00    -0.160 SA
HETATM    3  C7  UNL     1       6.976 -19.116   6.982  1.00  0.00     0.101 C 
HETATM    4  C8  UNL     1       7.679 -19.243   5.678  1.00  0.00     0.119 C 
HETATM    5  N1  UNL     1       8.928 -18.477   5.789  1.00  0.00    -0.336 N 
ATOM      6  H1  UNL     1       9.869 -18.837   5.948  1.00  0.00     0.164 HD
HETATM    7  C9  UNL     1       8.531 -17.122   5.623  1.00  0.00     0.316 C 
HETATM    8  O3  UNL     1       9.249 -16.133   5.947  1.00  0.00    -0.247 OA
HETATM    9  N2  UNL     1       7.212 -17.094   5.043  1.00  0.00    -0.335 N 
ATOM     10  H2  UNL     1       6.598 -16.286   4.940  1.00  0.00     0.164 HD
HETATM   11  C10 UNL     1       6.948 -18.443   4.644  1.00  0.00     0.123 C 
ENDROOT
BRANCH   1  12
HETATM   12  C5  UNL     1       4.593 -17.821   4.067  1.00  0.00     0.017 C 
BRANCH  12  13
HETATM   13  C4  UNL     1       4.771 -17.819   2.569  1.00  0.00     0.002 C 
BRANCH  13  14
HETATM   14  C3  UNL     1       4.985 -16.446   2.007  1.00  0.00     0.010 C 
BRANCH  14  15
HETATM   15  C2  UNL     1       3.890 -16.055   1.047  1.00  0.00     0.113 C 
BRANCH  15  16
HETATM   16  C1  UNL     1       2.893 -17.123   0.861  1.00  0.00     0.172 C 
HETATM   17  O1  UNL     1       1.905 -17.237   1.614  1.00  0.00    -0.648 OA
HETATM   18  O2  UNL     1       3.048 -18.022  -0.166  1.00  0.00    -0.648 OA
ENDBRANCH  15  16
ENDBRANCH  14  15
ENDBRANCH  13  14
ENDBRANCH  12  13
ENDBRANCH   1  12
TORSDOF 5
ENDMDL
