MODEL 1
REMARK VINA RESULT: -7.549581299      0.000      0.000
REMARK  5 active torsions:
REMARK  status: ('A' for Active; 'I' for Inactive)
REMARK    1  A    between atoms: C1_2  and  C2_4 
REMARK    2  A    between atoms: C2_4  and  C3_5 
REMARK    3  A    between atoms: C3_5  and  C4_6 
REMARK    4  A    between atoms: C4_6  and  C5_7 
REMARK    5  A    between atoms: C5_7  and  C6_8 
ROOT
HETATM    1  C6  UNL     1       6.088 -18.515   4.192  1.00  0.00     0.072 C 
HETATM    2  S1  UNL     1       4.908 -18.263   5.576  1.00  0.00    -0.160 SA
HETATM    3  C7  UNL     1       5.941 -18.969   6.918  1.00  0.00     0.101 C 
HETATM    4  C8  UNL     1       7.051 -19.592   6.150  1.00  0.00     0.119 C 
HETATM    5  N1  UNL     1       8.278 -19.396   6.936  1.00  0.00    -0.336 N 
ATOM      6  H1  UNL     1       8.755 -20.076   7.528  1.00  0.00     0.164 HD
HETATM    7  C9  UNL     1       8.649 -18.047   6.686  1.00  0.00     0.316 C 
HETATM    8  O3  UNL     1       9.467 -17.397   7.399  1.00  0.00    -0.247 OA
HETATM    9  N2  UNL     1       7.945 -17.582   5.518  1.00  0.00    -0.335 N 
ATOM     10  H2  UNL     1       7.883 -16.624   5.172  1.00  0.00     0.164 HD
HETATM   11  C10 UNL     1       7.350 -18.752   4.947  1.00  0.00     0.123 C 
ENDROOT
BRANCH   1  12
HETATM   12  C5  UNL     1       6.120 -17.331   3.293  1.00  0.00     0.017 C 
BRANCH  12  13
HETATM   13  C4  UNL     1       4.731 -17.105   2.749  1.00  0.00     0.002 C 
BRANCH  13  14
HETATM   14  C3  UNL     1       4.726 -16.340   1.459  1.00  0.00     0.010 C 
BRANCH  14  15
HETATM   15  C2  UNL     1       3.334 -16.183   0.904  1.00  0.00     0.113 C 
BRANCH  15  16
HETATM   16  C1  UNL     1       2.663 -17.475   0.687  1.00  0.00     0.172 C 
HETATM   17  O1  UNL     1       1.595 -17.767   1.262  1.00  0.00    -0.648 OA
HETATM   18  O2  UNL     1       3.221 -18.391  -0.172  1.00  0.00    -0.648 OA
ENDBRANCH  15  16
ENDBRANCH  14  15
ENDBRANCH  13  14
ENDBRANCH  12  13
ENDBRANCH   1  12
TORSDOF 5
ENDMDL
