MODEL 1
REMARK VINA RESULT: -7.002966006      0.000      0.000
REMARK  11 active torsions:
REMARK  status: ('A' for Active; 'I' for Inactive)
REMARK    1  A    between atoms: C3_6  and  C4_7 
REMARK    2  A    between atoms: C4_7  and  C5_8 
REMARK    3  A    between atoms: C5_8  and  C6_9 
REMARK    4  A    between atoms: C6_9  and  C7_10 
REMARK    5  A    between atoms: C7_10  and  C8_11 
REMARK       I    between atoms: C8_11  and  N3_13 
REMARK    6  A    between atoms: N3_13  and  C9_15 
REMARK    7  A    between atoms: C9_15  and  C10_16 
REMARK    8  A    between atoms: C10_16  and  C11_17 
REMARK    9  A    between atoms: C11_17  and  C12_18 
REMARK   10  A    between atoms: C12_18  and  C13_19 
REMARK   11  A    between atoms: C13_19  and  C14_20 
ROOT
HETATM    1  C5  UNL     1      27.354 -78.748   7.396  1.00  0.00     0.002 C 
ENDROOT
BRANCH   1   2
HETATM    2  C4  UNL     1      27.238 -80.031   8.183  1.00  0.00     0.017 C 
BRANCH   2   3
HETATM    3  C3  UNL     1      25.788 -80.467   8.312  1.00  0.00     0.072 C 
HETATM    4  C2  UNL     1      25.638 -81.519   9.365  1.00  0.00     0.121 C 
HETATM    5  N2  UNL     1      26.853 -81.926   9.973  1.00  0.00    -0.357 N 
HETATM    6  C16 UNL     1      24.758 -81.095  10.462  1.00  0.00     0.117 C 
HETATM    7  C1  UNL     1      26.666 -82.099  11.228  1.00  0.00     0.184 C 
ATOM      8  H2  UNL     1      27.739 -82.061   9.486  1.00  0.00     0.162 HD
HETATM    9  N1  UNL     1      27.660 -82.515  12.194  1.00  0.00    -0.064 NA
HETATM   10  N4  UNL     1      25.320 -81.818  11.588  1.00  0.00    -0.357 N 
ATOM     11  H4  UNL     1      24.848 -82.072  12.456  1.00  0.00     0.162 HD
HETATM   12  C15 UNL     1      24.961 -79.623  10.765  1.00  0.00     0.101 C 
HETATM   13  S1  UNL     1      24.929 -79.006   9.029  1.00  0.00    -0.160 SA
ENDBRANCH   2   3
ENDBRANCH   1   2
BRANCH   1  14
HETATM   14  C6  UNL     1      28.377 -77.818   7.966  1.00  0.00     0.009 C 
BRANCH  14  15
HETATM   15  C7  UNL     1      28.004 -76.381   7.666  1.00  0.00     0.103 C 
BRANCH  15  16
HETATM   16  C8  UNL     1      27.700 -75.657   8.938  1.00  0.00     0.217 C 
HETATM   17  O1  UNL     1      28.337 -74.576   9.156  1.00  0.00    -0.274 OA
HETATM   18  N3  UNL     1      26.757 -76.126   9.872  1.00  0.00    -0.361 N 
ATOM     19  H3  UNL     1      26.243 -76.990   9.696  1.00  0.00     0.162 HD
BRANCH  18  20
HETATM   20  C9  UNL     1      26.520 -75.364  11.100  1.00  0.00     0.122 C 
BRANCH  20  21
HETATM   21  C10 UNL     1      25.671 -76.135  12.050  1.00  0.00     0.020 C 
BRANCH  21  22
HETATM   22  C11 UNL     1      24.980 -75.203  13.019  1.00  0.00     0.002 C 
BRANCH  22  23
HETATM   23  C12 UNL     1      25.738 -75.106  14.306  1.00  0.00     0.007 C 
BRANCH  23  24
HETATM   24  C13 UNL     1      24.816 -75.247  15.472  1.00  0.00     0.069 C 
BRANCH  24  25
HETATM   25  C14 UNL     1      23.544 -75.913  15.167  1.00  0.00     0.231 C 
HETATM   26  O2  UNL     1      22.495 -75.491  15.570  1.00  0.00    -0.307 OA
ENDBRANCH  24  25
ENDBRANCH  23  24
ENDBRANCH  22  23
ENDBRANCH  21  22
ENDBRANCH  20  21
ENDBRANCH  18  20
ENDBRANCH  15  16
ENDBRANCH  14  15
ENDBRANCH   1  14
TORSDOF 11
ENDMDL
