MODEL 3
REMARK VINA RESULT: -6.927586209      3.058      5.893
REMARK  11 active torsions:
REMARK  status: ('A' for Active; 'I' for Inactive)
REMARK    1  A    between atoms: C3_6  and  C4_7 
REMARK    2  A    between atoms: C4_7  and  C5_8 
REMARK    3  A    between atoms: C5_8  and  C6_9 
REMARK    4  A    between atoms: C6_9  and  C7_10 
REMARK    5  A    between atoms: C7_10  and  C8_11 
REMARK       I    between atoms: C8_11  and  N3_13 
REMARK    6  A    between atoms: N3_13  and  C9_15 
REMARK    7  A    between atoms: C9_15  and  C10_16 
REMARK    8  A    between atoms: C10_16  and  C11_17 
REMARK    9  A    between atoms: C11_17  and  C12_18 
REMARK   10  A    between atoms: C12_18  and  C13_19 
REMARK   11  A    between atoms: C13_19  and  C14_20 
ROOT
HETATM    1  C5  UNL     1      26.941 -75.643  10.421  1.00  0.00     0.002 C 
ENDROOT
BRANCH   1   2
HETATM    2  C4  UNL     1      25.752 -75.627  11.351  1.00  0.00     0.017 C 
BRANCH   2   3
HETATM    3  C3  UNL     1      25.216 -77.030  11.583  1.00  0.00     0.072 C 
HETATM    4  C2  UNL     1      25.096 -77.320  13.046  1.00  0.00     0.121 C 
HETATM    5  N2  UNL     1      25.546 -76.277  13.896  1.00  0.00    -0.357 N 
HETATM    6  C16 UNL     1      23.711 -77.603  13.450  1.00  0.00     0.117 C 
HETATM    7  C1  UNL     1      24.756 -76.172  14.899  1.00  0.00     0.184 C 
ATOM      8  H2  UNL     1      26.372 -75.701  13.734  1.00  0.00     0.162 HD
HETATM    9  N1  UNL     1      24.875 -75.228  15.989  1.00  0.00    -0.064 NA
HETATM   10  N4  UNL     1      23.698 -77.119  14.819  1.00  0.00    -0.357 N 
ATOM     11  H4  UNL     1      23.064 -77.399  15.566  1.00  0.00     0.162 HD
HETATM   12  C15 UNL     1      22.745 -76.722  12.683  1.00  0.00     0.101 C 
HETATM   13  S1  UNL     1      23.471 -76.958  11.006  1.00  0.00    -0.160 SA
ENDBRANCH   2   3
ENDBRANCH   1   2
BRANCH   1  14
HETATM   14  C6  UNL     1      26.972 -76.859   9.552  1.00  0.00     0.009 C 
BRANCH  14  15
HETATM   15  C7  UNL     1      27.988 -76.685   8.442  1.00  0.00     0.103 C 
BRANCH  15  16
HETATM   16  C8  UNL     1      28.166 -77.974   7.707  1.00  0.00     0.217 C 
HETATM   17  O1  UNL     1      29.347 -78.269   7.334  1.00  0.00    -0.274 OA
HETATM   18  N3  UNL     1      27.094 -78.842   7.425  1.00  0.00    -0.361 N 
ATOM     19  H3  UNL     1      26.149 -78.607   7.728  1.00  0.00     0.162 HD
BRANCH  18  20
HETATM   20  C9  UNL     1      27.348 -80.084   6.693  1.00  0.00     0.122 C 
BRANCH  20  21
HETATM   21  C10 UNL     1      26.776 -81.253   7.414  1.00  0.00     0.020 C 
BRANCH  21  22
HETATM   22  C11 UNL     1      26.841 -81.037   8.909  1.00  0.00     0.002 C 
BRANCH  22  23
HETATM   23  C12 UNL     1      26.519 -82.298   9.649  1.00  0.00     0.007 C 
BRANCH  23  24
HETATM   24  C13 UNL     1      26.900 -82.176  11.088  1.00  0.00     0.069 C 
BRANCH  24  25
HETATM   25  C14 UNL     1      25.800 -81.793  11.980  1.00  0.00     0.231 C 
HETATM   26  O2  UNL     1      25.608 -80.651  12.297  1.00  0.00    -0.307 OA
ENDBRANCH  24  25
ENDBRANCH  23  24
ENDBRANCH  22  23
ENDBRANCH  21  22
ENDBRANCH  20  21
ENDBRANCH  18  20
ENDBRANCH  15  16
ENDBRANCH  14  15
ENDBRANCH   1  14
TORSDOF 11
ENDMDL
