MODEL 2
REMARK VINA RESULT: -6.932574471      2.160      3.041
REMARK  11 active torsions:
REMARK  status: ('A' for Active; 'I' for Inactive)
REMARK    1  A    between atoms: C3_6  and  C4_7 
REMARK    2  A    between atoms: C4_7  and  C5_8 
REMARK    3  A    between atoms: C5_8  and  C6_9 
REMARK    4  A    between atoms: C6_9  and  C7_10 
REMARK    5  A    between atoms: C7_10  and  C8_11 
REMARK       I    between atoms: C8_11  and  N3_13 
REMARK    6  A    between atoms: N3_13  and  C9_15 
REMARK    7  A    between atoms: C9_15  and  C10_16 
REMARK    8  A    between atoms: C10_16  and  C11_17 
REMARK    9  A    between atoms: C11_17  and  C12_18 
REMARK   10  A    between atoms: C12_18  and  C13_19 
REMARK   11  A    between atoms: C13_19  and  C14_20 
ROOT
HETATM    1  C5  UNL     1      25.956 -77.184   8.655  1.00  0.00     0.002 C 
ENDROOT
BRANCH   1   2
HETATM    2  C4  UNL     1      25.507 -78.623   8.584  1.00  0.00     0.017 C 
BRANCH   2   3
HETATM    3  C3  UNL     1      26.563 -79.498   7.930  1.00  0.00     0.072 C 
HETATM    4  C2  UNL     1      27.043 -80.553   8.876  1.00  0.00     0.121 C 
HETATM    5  N2  UNL     1      26.473 -80.491  10.173  1.00  0.00    -0.357 N 
HETATM    6  C16 UNL     1      26.779 -81.912   8.382  1.00  0.00     0.117 C 
HETATM    7  C1  UNL     1      26.231 -81.677  10.591  1.00  0.00     0.184 C 
ATOM      8  H2  UNL     1      26.284 -79.633  10.693  1.00  0.00     0.162 HD
HETATM    9  N1  UNL     1      25.651 -82.034  11.868  1.00  0.00    -0.064 NA
HETATM   10  N4  UNL     1      26.602 -82.647   9.621  1.00  0.00    -0.357 N 
ATOM     11  H4  UNL     1      26.720 -83.649   9.766  1.00  0.00     0.162 HD
HETATM   12  C15 UNL     1      25.443 -81.965   7.667  1.00  0.00     0.101 C 
HETATM   13  S1  UNL     1      25.646 -80.445   6.647  1.00  0.00    -0.160 SA
ENDBRANCH   2   3
ENDBRANCH   1   2
BRANCH   1  14
HETATM   14  C6  UNL     1      26.743 -76.890   9.891  1.00  0.00     0.009 C 
BRANCH  14  15
HETATM   15  C7  UNL     1      25.989 -75.916  10.773  1.00  0.00     0.103 C 
BRANCH  15  16
HETATM   16  C8  UNL     1      24.956 -76.645  11.570  1.00  0.00     0.217 C 
HETATM   17  O1  UNL     1      23.736 -76.372  11.325  1.00  0.00    -0.274 OA
HETATM   18  N3  UNL     1      25.286 -77.596  12.554  1.00  0.00    -0.361 N 
ATOM     19  H3  UNL     1      26.263 -77.819  12.747  1.00  0.00     0.162 HD
BRANCH  18  20
HETATM   20  C9  UNL     1      24.217 -78.263  13.298  1.00  0.00     0.122 C 
BRANCH  20  21
HETATM   21  C10 UNL     1      24.260 -77.894  14.739  1.00  0.00     0.020 C 
BRANCH  21  22
HETATM   22  C11 UNL     1      23.029 -77.103  15.120  1.00  0.00     0.002 C 
BRANCH  22  23
HETATM   23  C12 UNL     1      23.278 -75.632  15.008  1.00  0.00     0.007 C 
BRANCH  23  24
HETATM   24  C13 UNL     1      24.617 -75.279  15.567  1.00  0.00     0.069 C 
BRANCH  24  25
HETATM   25  C14 UNL     1      25.489 -74.542  14.644  1.00  0.00     0.231 C 
HETATM   26  O2  UNL     1      26.429 -75.062  14.108  1.00  0.00    -0.307 OA
ENDBRANCH  24  25
ENDBRANCH  23  24
ENDBRANCH  22  23
ENDBRANCH  21  22
ENDBRANCH  20  21
ENDBRANCH  18  20
ENDBRANCH  15  16
ENDBRANCH  14  15
ENDBRANCH   1  14
TORSDOF 11
ENDMDL
