MODEL 5
REMARK VINA RESULT: -10.198142898      3.463      7.084
REMARK  3 active torsions:
REMARK  status: ('A' for Active; 'I' for Inactive)
REMARK    1  A    between atoms: C4_5  and  C5_6 
REMARK    2  A    between atoms: C8_15  and  C9_16 
REMARK    3  A    between atoms: C9_16  and  C10_17 
ROOT
HETATM    1  C5  UNL     1      22.802  10.757  44.419  1.00  0.00     0.075 A 
HETATM    2  C6  UNL     1      23.549  11.559  45.236  1.00  0.00     0.138 A 
HETATM    3  N1  UNL     1      22.986  12.420  46.137  1.00  0.00    -0.196 N 
ATOM      4  H1  UNL     1      23.562  13.010  46.737  1.00  0.00     0.183 HD
HETATM    5  C7  UNL     1      21.656  12.458  46.200  1.00  0.00     0.719 A 
HETATM    6  N2  UNL     1      20.843  13.213  46.995  1.00  0.00    -0.129 N 
ATOM      7  H2  UNL     1      21.130  13.896  47.696  1.00  0.00     0.205 HD
HETATM    8  N3  UNL     1      19.630  12.881  46.674  1.00  0.00    -0.272 N 
ATOM      9  H3  UNL     1      18.795  13.280  47.104  1.00  0.00     0.189 HD
HETATM   10  C8  UNL     1      19.604  11.950  45.710  1.00  0.00     0.141 A 
HETATM   11  N5  UNL     1      20.895  11.685  45.414  1.00  0.00    -0.070 N 
HETATM   12  N6  UNL     1      21.460  10.843  44.533  1.00  0.00    -0.276 N 
ATOM     13  H6  UNL     1      20.866  10.260  43.942  1.00  0.00     0.188 HD
ENDROOT
BRANCH  10  14
HETATM   14  C9  UNL     1      18.437  11.323  45.084  1.00  0.00     0.119 C 
BRANCH  14  15
HETATM   15  C10 UNL     1      18.483  11.326  43.608  1.00  0.00    -0.050 A 
HETATM   16  C11 UNL     1      18.217  12.453  42.864  1.00  0.00     0.010 A 
HETATM   17  C12 UNL     1      18.273  12.406  41.492  1.00  0.00     0.031 A 
HETATM   18  C13 UNL     1      18.597  11.229  40.812  1.00  0.00     0.042 A 
HETATM   19  N4  UNL     1      18.648  11.194  39.467  1.00  0.00    -0.365 N 
HETATM   20  C17 UNL     1      18.865  10.094  41.560  1.00  0.00    -0.009 A 
HETATM   21  C14 UNL     1      18.961  10.061  38.810  1.00  0.00     0.088 A 
ATOM     22  H4  UNL     1      18.448  12.041  38.936  1.00  0.00     0.165 HD
HETATM   23  C15 UNL     1      19.234   8.914  39.507  1.00  0.00     0.018 A 
HETATM   24  C16 UNL     1      19.182   8.942  40.884  1.00  0.00     0.015 A 
HETATM   25  C18 UNL     1      18.805  10.157  42.944  1.00  0.00     0.021 A 
ENDBRANCH  14  15
ENDBRANCH  10  14
BRANCH   1  26
HETATM   26  C4  UNL     1      23.422   9.844  43.463  1.00  0.00    -0.006 A 
HETATM   27  C3  UNL     1      22.621   9.080  42.601  1.00  0.00     0.017 A 
HETATM   28  C2  UNL     1      23.119   8.209  41.686  1.00  0.00     0.043 A 
HETATM   29  C1  UNL     1      24.482   8.050  41.579  1.00  0.00     0.116 A 
HETATM   30  F1  UNL     1      25.058   7.203  40.694  1.00  0.00    -0.206 F 
HETATM   31  C20 UNL     1      25.296   8.796  42.424  1.00  0.00     0.043 A 
HETATM   32  C19 UNL     1      24.762   9.681  43.353  1.00  0.00     0.017 A 
ENDBRANCH   1  26
TORSDOF 3
ENDMDL
