MODEL 2
REMARK VINA RESULT: -11.108163282      0.805      1.439
REMARK  3 active torsions:
REMARK  status: ('A' for Active; 'I' for Inactive)
REMARK    1  A    between atoms: C4_5  and  C5_6 
REMARK    2  A    between atoms: C8_15  and  C9_16 
REMARK    3  A    between atoms: C9_16  and  C10_17 
ROOT
HETATM    1  C5  UNL     1      18.213  12.051  41.258  1.00  0.00     0.075 A 
HETATM    2  C6  UNL     1      17.859  12.896  40.244  1.00  0.00     0.138 A 
HETATM    3  N1  UNL     1      17.882  12.520  38.930  1.00  0.00    -0.196 N 
ATOM      4  H1  UNL     1      17.614  13.167  38.189  1.00  0.00     0.183 HD
HETATM    5  C7  UNL     1      18.269  11.275  38.655  1.00  0.00     0.719 A 
HETATM    6  N2  UNL     1      18.384  10.644  37.451  1.00  0.00    -0.129 N 
ATOM      7  H2  UNL     1      18.186  11.036  36.530  1.00  0.00     0.205 HD
HETATM    8  N3  UNL     1      18.797   9.443  37.720  1.00  0.00    -0.272 N 
ATOM      9  H3  UNL     1      18.975   8.728  37.014  1.00  0.00     0.189 HD
HETATM   10  C8  UNL     1      18.960   9.254  39.037  1.00  0.00     0.141 A 
HETATM   11  N5  UNL     1      18.622  10.422  39.626  1.00  0.00    -0.070 N 
HETATM   12  N6  UNL     1      18.595  10.803  40.913  1.00  0.00    -0.276 N 
ATOM     13  H6  UNL     1      18.866  10.140  41.640  1.00  0.00     0.188 HD
ENDROOT
BRANCH  10  14
HETATM   14  C9  UNL     1      19.408   8.043  39.731  1.00  0.00     0.119 C 
BRANCH  14  15
HETATM   15  C10 UNL     1      20.430   8.298  40.765  1.00  0.00    -0.050 A 
HETATM   16  C11 UNL     1      20.101   8.611  42.065  1.00  0.00     0.010 A 
HETATM   17  C12 UNL     1      21.089   8.840  42.993  1.00  0.00     0.031 A 
HETATM   18  C13 UNL     1      22.443   8.764  42.656  1.00  0.00     0.042 A 
HETATM   19  N4  UNL     1      23.402   8.990  43.573  1.00  0.00    -0.365 N 
HETATM   20  C17 UNL     1      22.775   8.448  41.347  1.00  0.00    -0.009 A 
HETATM   21  C14 UNL     1      24.708   8.917  43.250  1.00  0.00     0.088 A 
ATOM     22  H4  UNL     1      23.136   9.220  44.530  1.00  0.00     0.165 HD
HETATM   23  C15 UNL     1      25.083   8.608  41.969  1.00  0.00     0.018 A 
HETATM   24  C16 UNL     1      24.107   8.376  41.025  1.00  0.00     0.015 A 
HETATM   25  C18 UNL     1      21.767   8.221  40.423  1.00  0.00     0.021 A 
ENDBRANCH  14  15
ENDBRANCH  10  14
BRANCH   1  26
HETATM   26  C4  UNL     1      18.182  12.472  42.656  1.00  0.00    -0.006 A 
HETATM   27  C3  UNL     1      18.534  11.568  43.669  1.00  0.00     0.017 A 
HETATM   28  C2  UNL     1      18.531  11.880  44.991  1.00  0.00     0.043 A 
HETATM   29  C1  UNL     1      18.165  13.148  45.383  1.00  0.00     0.116 A 
HETATM   30  F1  UNL     1      18.135  13.539  46.678  1.00  0.00    -0.206 F 
HETATM   31  C20 UNL     1      17.811  14.061  44.395  1.00  0.00     0.043 A 
HETATM   32  C19 UNL     1      17.823  13.717  43.049  1.00  0.00     0.017 A 
ENDBRANCH   1  26
TORSDOF 3
ENDMDL
