MODEL 4
REMARK VINA RESULT: -10.829043089      2.652      6.642
REMARK  3 active torsions:
REMARK  status: ('A' for Active; 'I' for Inactive)
REMARK    1  A    between atoms: C4_5  and  C5_6 
REMARK    2  A    between atoms: C8_15  and  C9_16 
REMARK    3  A    between atoms: C9_16  and  C10_17 
ROOT
HETATM    1  C5  UNL     1      23.894   9.156  43.109  1.00  0.00     0.075 A 
HETATM    2  C6  UNL     1      24.550   8.942  41.929  1.00  0.00     0.138 A 
HETATM    3  N1  UNL     1      23.893   8.678  40.760  1.00  0.00    -0.196 N 
ATOM      4  H1  UNL     1      24.402   8.520  39.890  1.00  0.00     0.183 HD
HETATM    5  C7  UNL     1      22.561   8.634  40.800  1.00  0.00     0.719 A 
HETATM    6  N2  UNL     1      21.667   8.395  39.798  1.00  0.00    -0.129 N 
ATOM      7  H2  UNL     1      21.877   8.203  38.818  1.00  0.00     0.205 HD
HETATM    8  N3  UNL     1      20.494   8.462  40.350  1.00  0.00    -0.272 N 
ATOM      9  H3  UNL     1      19.617   8.326  39.846  1.00  0.00     0.189 HD
HETATM   10  C8  UNL     1      20.572   8.731  41.660  1.00  0.00     0.141 A 
HETATM   11  N5  UNL     1      21.889   8.840  41.940  1.00  0.00    -0.070 N 
HETATM   12  N6  UNL     1      22.546   9.099  43.083  1.00  0.00    -0.276 N 
ATOM     13  H6  UNL     1      22.019   9.254  43.942  1.00  0.00     0.188 HD
ENDROOT
BRANCH  10  14
HETATM   14  C9  UNL     1      19.477   8.885  42.622  1.00  0.00     0.119 C 
BRANCH  14  15
HETATM   15  C10 UNL     1      19.014  10.279  42.774  1.00  0.00    -0.050 A 
HETATM   16  C11 UNL     1      18.788  11.103  41.694  1.00  0.00     0.010 A 
HETATM   17  C12 UNL     1      18.358  12.394  41.887  1.00  0.00     0.031 A 
HETATM   18  C13 UNL     1      18.137  12.909  43.166  1.00  0.00     0.042 A 
HETATM   19  N4  UNL     1      17.715  14.176  43.343  1.00  0.00    -0.365 N 
HETATM   20  C17 UNL     1      18.364  12.080  44.254  1.00  0.00    -0.009 A 
HETATM   21  C14 UNL     1      17.501  14.674  44.576  1.00  0.00     0.088 A 
ATOM     22  H4  UNL     1      17.554  14.768  42.529  1.00  0.00     0.165 HD
HETATM   23  C15 UNL     1      17.712  13.892  45.680  1.00  0.00     0.018 A 
HETATM   24  C16 UNL     1      18.145  12.595  45.508  1.00  0.00     0.015 A 
HETATM   25  C18 UNL     1      18.798  10.781  44.044  1.00  0.00     0.021 A 
ENDBRANCH  14  15
ENDBRANCH  10  14
BRANCH   1  26
HETATM   26  C4  UNL     1      24.614   9.436  44.348  1.00  0.00    -0.006 A 
HETATM   27  C3  UNL     1      24.103  10.372  45.260  1.00  0.00     0.017 A 
HETATM   28  C2  UNL     1      24.712  10.689  46.433  1.00  0.00     0.043 A 
HETATM   29  C1  UNL     1      25.895  10.071  46.766  1.00  0.00     0.116 A 
HETATM   30  F1  UNL     1      26.564  10.331  47.914  1.00  0.00    -0.206 F 
HETATM   31  C20 UNL     1      26.421   9.141  45.877  1.00  0.00     0.043 A 
HETATM   32  C19 UNL     1      25.779   8.833  44.683  1.00  0.00     0.017 A 
ENDBRANCH   1  26
TORSDOF 3
ENDMDL
