MODEL 3
REMARK VINA RESULT: -10.976686222      2.327      6.027
REMARK  3 active torsions:
REMARK  status: ('A' for Active; 'I' for Inactive)
REMARK    1  A    between atoms: C4_5  and  C5_6 
REMARK    2  A    between atoms: C8_15  and  C9_16 
REMARK    3  A    between atoms: C9_16  and  C10_17 
ROOT
HETATM    1  C5  UNL     1      23.581   8.981  41.898  1.00  0.00     0.075 A 
HETATM    2  C6  UNL     1      24.362   8.839  40.785  1.00  0.00     0.138 A 
HETATM    3  N1  UNL     1      23.842   8.568  39.550  1.00  0.00    -0.196 N 
ATOM      4  H1  UNL     1      24.443   8.466  38.732  1.00  0.00     0.183 HD
HETATM    5  C7  UNL     1      22.518   8.444  39.456  1.00  0.00     0.719 A 
HETATM    6  N2  UNL     1      21.744   8.180  38.364  1.00  0.00    -0.129 N 
ATOM      7  H2  UNL     1      22.061   8.028  37.407  1.00  0.00     0.205 HD
HETATM    8  N3  UNL     1      20.520   8.161  38.797  1.00  0.00    -0.272 N 
ATOM      9  H3  UNL     1      19.707   7.988  38.205  1.00  0.00     0.189 HD
HETATM   10  C8  UNL     1      20.451   8.398  40.114  1.00  0.00     0.141 A 
HETATM   11  N5  UNL     1      21.725   8.578  40.527  1.00  0.00    -0.070 N 
HETATM   12  N6  UNL     1      22.248   8.844  41.735  1.00  0.00    -0.276 N 
ATOM     13  H6  UNL     1      21.630   8.944  42.540  1.00  0.00     0.188 HD
ENDROOT
BRANCH  10  14
HETATM   14  C9  UNL     1      19.260   8.460  40.964  1.00  0.00     0.119 C 
BRANCH  14  15
HETATM   15  C10 UNL     1      18.921   9.826  41.411  1.00  0.00    -0.050 A 
HETATM   16  C11 UNL     1      18.616  10.837  40.527  1.00  0.00     0.010 A 
HETATM   17  C12 UNL     1      18.307  12.093  40.991  1.00  0.00     0.031 A 
HETATM   18  C13 UNL     1      18.292  12.386  42.357  1.00  0.00     0.042 A 
HETATM   19  N4  UNL     1      17.988  13.620  42.801  1.00  0.00    -0.365 N 
HETATM   20  C17 UNL     1      18.598  11.369  43.248  1.00  0.00    -0.009 A 
HETATM   21  C14 UNL     1      17.972  13.904  44.118  1.00  0.00     0.088 A 
ATOM     22  H4  UNL     1      17.765  14.353  42.128  1.00  0.00     0.165 HD
HETATM   23  C15 UNL     1      18.268  12.931  45.035  1.00  0.00     0.018 A 
HETATM   24  C16 UNL     1      18.581  11.665  44.589  1.00  0.00     0.015 A 
HETATM   25  C18 UNL     1      18.908  10.107  42.765  1.00  0.00     0.021 A 
ENDBRANCH  14  15
ENDBRANCH  10  14
BRANCH   1  26
HETATM   26  C4  UNL     1      24.156   9.269  43.208  1.00  0.00    -0.006 A 
HETATM   27  C3  UNL     1      23.556  10.223  44.044  1.00  0.00     0.017 A 
HETATM   28  C2  UNL     1      24.028  10.549  45.275  1.00  0.00     0.043 A 
HETATM   29  C1  UNL     1      25.157   9.921  45.751  1.00  0.00     0.116 A 
HETATM   30  F1  UNL     1      25.692  10.188  46.965  1.00  0.00    -0.206 F 
HETATM   31  C20 UNL     1      25.769   8.973  44.940  1.00  0.00     0.043 A 
HETATM   32  C19 UNL     1      25.267   8.657  43.684  1.00  0.00     0.017 A 
ENDBRANCH   1  26
TORSDOF 3
ENDMDL
