MODEL 1
REMARK VINA RESULT: -11.355260135      0.000      0.000
REMARK  3 active torsions:
REMARK  status: ('A' for Active; 'I' for Inactive)
REMARK    1  A    between atoms: C4_5  and  C5_6 
REMARK    2  A    between atoms: C8_15  and  C9_16 
REMARK    3  A    between atoms: C9_16  and  C10_17 
ROOT
HETATM    1  C5  UNL     1      18.317  11.905  41.431  1.00  0.00     0.075 A 
HETATM    2  C6  UNL     1      17.801  12.748  40.487  1.00  0.00     0.138 A 
HETATM    3  N1  UNL     1      17.754  12.425  39.159  1.00  0.00    -0.196 N 
ATOM      4  H1  UNL     1      17.365  13.069  38.471  1.00  0.00     0.183 HD
HETATM    5  C7  UNL     1      18.238  11.237  38.799  1.00  0.00     0.719 A 
HETATM    6  N2  UNL     1      18.316  10.667  37.562  1.00  0.00    -0.129 N 
ATOM      7  H2  UNL     1      18.006  11.071  36.678  1.00  0.00     0.205 HD
HETATM    8  N3  UNL     1      18.865   9.504  37.744  1.00  0.00    -0.272 N 
ATOM      9  H3  UNL     1      19.055   8.839  36.994  1.00  0.00     0.189 HD
HETATM   10  C8  UNL     1      19.152   9.284  39.034  1.00  0.00     0.141 A 
HETATM   11  N5  UNL     1      18.751  10.388  39.699  1.00  0.00    -0.070 N 
HETATM   12  N6  UNL     1      18.791  10.716  41.001  1.00  0.00    -0.276 N 
ATOM     13  H6  UNL     1      19.183  10.058  41.674  1.00  0.00     0.188 HD
ENDROOT
BRANCH  10  14
HETATM   14  C9  UNL     1      19.772   8.100  39.636  1.00  0.00     0.119 C 
BRANCH  14  15
HETATM   15  C10 UNL     1      21.155   8.327  40.100  1.00  0.00    -0.050 A 
HETATM   16  C11 UNL     1      22.219   8.416  39.231  1.00  0.00     0.010 A 
HETATM   17  C12 UNL     1      23.489   8.627  39.712  1.00  0.00     0.031 A 
HETATM   18  C13 UNL     1      23.743   8.758  41.080  1.00  0.00     0.042 A 
HETATM   19  N4  UNL     1      24.991   8.965  41.540  1.00  0.00    -0.365 N 
HETATM   20  C17 UNL     1      22.671   8.668  41.956  1.00  0.00    -0.009 A 
HETATM   21  C14 UNL     1      25.237   9.091  42.858  1.00  0.00     0.088 A 
ATOM     22  H4  UNL     1      25.764   9.028  40.878  1.00  0.00     0.165 HD
HETATM   23  C15 UNL     1      24.210   9.009  43.760  1.00  0.00     0.018 A 
HETATM   24  C16 UNL     1      22.929   8.797  43.298  1.00  0.00     0.015 A 
HETATM   25  C18 UNL     1      21.396   8.454  41.456  1.00  0.00     0.021 A 
ENDBRANCH  14  15
ENDBRANCH  10  14
BRANCH   1  26
HETATM   26  C4  UNL     1      18.359  12.268  42.845  1.00  0.00    -0.006 A 
HETATM   27  C3  UNL     1      18.793  11.334  43.797  1.00  0.00     0.017 A 
HETATM   28  C2  UNL     1      18.860  11.592  45.128  1.00  0.00     0.043 A 
HETATM   29  C1  UNL     1      18.487  12.833  45.594  1.00  0.00     0.116 A 
HETATM   30  F1  UNL     1      18.524  13.170  46.904  1.00  0.00    -0.206 F 
HETATM   31  C20 UNL     1      18.053  13.775  44.668  1.00  0.00     0.043 A 
HETATM   32  C19 UNL     1      17.993  13.486  43.310  1.00  0.00     0.017 A 
ENDBRANCH   1  26
TORSDOF 3
ENDMDL
