MODEL 5
REMARK VINA RESULT: -9.612718403      2.423      7.657
REMARK  3 active torsions:
REMARK  status: ('A' for Active; 'I' for Inactive)
REMARK    1  A    between atoms: C2_2  and  C3_3 
REMARK    2  A    between atoms: C2_2  and  C12_14 
REMARK    3  A    between atoms: C16_22  and  C17_23 
ROOT
HETATM    1  C12 UNL     1      19.827  82.520   0.090  1.00  0.00     0.128 A 
HETATM    2  N2  UNL     1      19.505  81.613  -0.828  1.00  0.00    -0.285 N 
ATOM      3  H2  UNL     1      18.563  81.330  -1.096  1.00  0.00     0.188 HD
HETATM    4  N3  UNL     1      20.632  81.150  -1.325  1.00  0.00    -0.283 N 
ATOM      5  H3  UNL     1      20.707  80.439  -2.052  1.00  0.00     0.188 HD
HETATM    6  C13 UNL     1      21.676  81.766  -0.719  1.00  0.00     0.143 A 
HETATM    7  C14 UNL     1      23.047  81.657  -0.859  1.00  0.00     0.054 A 
HETATM    8  C15 UNL     1      23.844  82.456  -0.062  1.00  0.00     0.036 A 
HETATM    9  C16 UNL     1      23.301  83.336   0.847  1.00  0.00     0.061 A 
HETATM   10  N6  UNL     1      21.966  83.383   0.924  1.00  0.00    -0.290 N 
ATOM     11  H6  UNL     1      21.541  84.029   1.590  1.00  0.00     0.187 HD
HETATM   12  N7  UNL     1      21.162  82.629   0.172  1.00  0.00    -0.224 N 
ENDROOT
BRANCH   1  13
HETATM   13  C2  UNL     1      18.873  83.297   0.903  1.00  0.00     0.085 C 
HETATM   14  C1  UNL     1      17.579  83.401   0.088  1.00  0.00     0.023 C 
BRANCH  13  15
HETATM   15  C3  UNL     1      18.593  82.656   2.212  1.00  0.00    -0.046 A 
HETATM   16  C4  UNL     1      18.148  81.374   2.367  1.00  0.00     0.010 A 
HETATM   17  C5  UNL     1      17.914  80.862   3.642  1.00  0.00     0.031 A 
HETATM   18  C6  UNL     1      18.119  81.625   4.784  1.00  0.00     0.042 A 
HETATM   19  N1  UNL     1      17.896  81.145   6.023  1.00  0.00    -0.365 N 
HETATM   20  C10 UNL     1      18.569  82.926   4.624  1.00  0.00    -0.009 A 
HETATM   21  C7  UNL     1      18.102  81.904   7.130  1.00  0.00     0.088 A 
ATOM     22  H1  UNL     1      17.565  80.187   6.133  1.00  0.00     0.165 HD
HETATM   23  C8  UNL     1      18.549  83.204   7.028  1.00  0.00     0.018 A 
HETATM   24  C9  UNL     1      18.774  83.688   5.758  1.00  0.00     0.015 A 
HETATM   25  C11 UNL     1      18.793  83.406   3.350  1.00  0.00     0.021 A 
ENDBRANCH  13  15
ENDBRANCH   1  13
BRANCH   9  26
HETATM   26  C17 UNL     1      24.132  84.180   1.691  1.00  0.00     0.026 A 
HETATM   27  C18 UNL     1      25.472  84.452   1.523  1.00  0.00     0.122 A 
HETATM   28  N4  UNL     1      25.843  85.272   2.522  1.00  0.00    -0.310 N 
HETATM   29  N5  UNL     1      24.822  85.538   3.313  1.00  0.00    -0.307 N 
ATOM     30  H4  UNL     1      26.786  85.640   2.651  1.00  0.00     0.186 HD
HETATM   31  C19 UNL     1      24.864  86.398   4.503  1.00  0.00     0.177 C 
HETATM   32  C20 UNL     1      23.762  84.876   2.820  1.00  0.00     0.124 A 
ENDBRANCH   9  26
TORSDOF 3
ENDMDL
