MODEL 4
REMARK VINA RESULT: -9.681168785      3.456      6.565
REMARK  3 active torsions:
REMARK  status: ('A' for Active; 'I' for Inactive)
REMARK    1  A    between atoms: C2_2  and  C3_3 
REMARK    2  A    between atoms: C2_2  and  C12_14 
REMARK    3  A    between atoms: C16_22  and  C17_23 
ROOT
HETATM    1  C12 UNL     1      19.776  82.284   1.735  1.00  0.00     0.128 A 
HETATM    2  N2  UNL     1      20.976  81.882   2.146  1.00  0.00    -0.285 N 
ATOM      3  H2  UNL     1      21.246  81.662   3.104  1.00  0.00     0.188 HD
HETATM    4  N3  UNL     1      21.748  81.822   1.082  1.00  0.00    -0.283 N 
ATOM      5  H3  UNL     1      22.729  81.545   1.080  1.00  0.00     0.188 HD
HETATM    6  C13 UNL     1      21.034  82.188  -0.011  1.00  0.00     0.143 A 
HETATM    7  C14 UNL     1      21.352  82.299  -1.352  1.00  0.00     0.054 A 
HETATM    8  C15 UNL     1      20.359  82.710  -2.219  1.00  0.00     0.036 A 
HETATM    9  C16 UNL     1      19.089  83.003  -1.774  1.00  0.00     0.061 A 
HETATM   10  N6  UNL     1      18.860  82.871  -0.462  1.00  0.00    -0.290 N 
ATOM     11  H6  UNL     1      17.926  83.082  -0.109  1.00  0.00     0.187 HD
HETATM   12  N7  UNL     1      19.792  82.478   0.408  1.00  0.00    -0.224 N 
ENDROOT
BRANCH   1  13
HETATM   13  C2  UNL     1      18.597  82.489   2.597  1.00  0.00     0.085 C 
HETATM   14  C1  UNL     1      18.236  81.121   3.188  1.00  0.00     0.023 C 
BRANCH  13  15
HETATM   15  C3  UNL     1      18.858  83.456   3.691  1.00  0.00    -0.046 A 
HETATM   16  C4  UNL     1      19.349  84.718   3.509  1.00  0.00     0.010 A 
HETATM   17  C5  UNL     1      19.560  85.554   4.604  1.00  0.00     0.031 A 
HETATM   18  C6  UNL     1      19.285  85.142   5.901  1.00  0.00     0.042 A 
HETATM   19  N1  UNL     1      19.484  85.937   6.970  1.00  0.00    -0.365 N 
HETATM   20  C10 UNL     1      18.788  83.860   6.083  1.00  0.00    -0.009 A 
HETATM   21  C7  UNL     1      19.209  85.519   8.232  1.00  0.00     0.088 A 
ATOM     22  H1  UNL     1      19.850  86.878   6.827  1.00  0.00     0.165 HD
HETATM   23  C8  UNL     1      18.713  84.255   8.471  1.00  0.00     0.018 A 
HETATM   24  C9  UNL     1      18.512  83.447   7.372  1.00  0.00     0.015 A 
HETATM   25  C11 UNL     1      18.588  83.055   4.982  1.00  0.00     0.021 A 
ENDBRANCH  13  15
ENDBRANCH   1  13
BRANCH   9  26
HETATM   26  C17 UNL     1      18.038  83.437  -2.680  1.00  0.00     0.026 A 
HETATM   27  C18 UNL     1      18.197  84.135  -3.857  1.00  0.00     0.122 A 
HETATM   28  N4  UNL     1      16.972  84.328  -4.378  1.00  0.00    -0.310 N 
HETATM   29  N5  UNL     1      16.046  83.796  -3.604  1.00  0.00    -0.307 N 
ATOM     30  H4  UNL     1      16.785  84.820  -5.252  1.00  0.00     0.186 HD
HETATM   31  C19 UNL     1      14.599  83.819  -3.864  1.00  0.00     0.177 C 
HETATM   32  C20 UNL     1      16.679  83.244  -2.557  1.00  0.00     0.124 A 
ENDBRANCH   9  26
TORSDOF 3
ENDMDL
