MODEL 1
REMARK VINA RESULT: -11.897904984      0.000      0.000
REMARK  3 active torsions:
REMARK  status: ('A' for Active; 'I' for Inactive)
REMARK    1  A    between atoms: C2_2  and  C3_3 
REMARK    2  A    between atoms: C2_2  and  C12_14 
REMARK    3  A    between atoms: C16_22  and  C17_23 
ROOT
HETATM    1  C12 UNL     1      19.057  85.237   6.872  1.00  0.00     0.128 A 
HETATM    2  N2  UNL     1      18.801  85.242   8.178  1.00  0.00    -0.285 N 
ATOM      3  H2  UNL     1      18.944  86.020   8.821  1.00  0.00     0.188 HD
HETATM    4  N3  UNL     1      18.329  84.052   8.483  1.00  0.00    -0.283 N 
ATOM      5  H3  UNL     1      18.042  83.752   9.414  1.00  0.00     0.188 HD
HETATM    6  C13 UNL     1      18.284  83.288   7.364  1.00  0.00     0.143 A 
HETATM    7  C14 UNL     1      17.880  81.987   7.125  1.00  0.00     0.054 A 
HETATM    8  C15 UNL     1      17.970  81.510   5.832  1.00  0.00     0.036 A 
HETATM    9  C16 UNL     1      18.444  82.296   4.805  1.00  0.00     0.061 A 
HETATM   10  N6  UNL     1      18.815  83.543   5.116  1.00  0.00    -0.290 N 
ATOM     11  H6  UNL     1      19.168  84.144   4.372  1.00  0.00     0.187 HD
HETATM   12  N7  UNL     1      18.745  84.041   6.353  1.00  0.00    -0.224 N 
ENDROOT
BRANCH   1  13
HETATM   13  C2  UNL     1      19.602  86.369   6.100  1.00  0.00     0.085 C 
HETATM   14  C1  UNL     1      19.415  87.625   6.961  1.00  0.00     0.023 C 
BRANCH  13  15
HETATM   15  C3  UNL     1      21.038  86.192   5.774  1.00  0.00    -0.046 A 
HETATM   16  C4  UNL     1      22.044  86.160   6.697  1.00  0.00     0.010 A 
HETATM   17  C5  UNL     1      23.366  85.988   6.290  1.00  0.00     0.031 A 
HETATM   18  C6  UNL     1      23.705  85.847   4.951  1.00  0.00     0.042 A 
HETATM   19  N1  UNL     1      24.977  85.681   4.541  1.00  0.00    -0.365 N 
HETATM   20  C10 UNL     1      22.682  85.881   4.016  1.00  0.00    -0.009 A 
HETATM   21  C7  UNL     1      25.292  85.544   3.228  1.00  0.00     0.088 A 
ATOM     22  H1  UNL     1      25.724  85.657   5.236  1.00  0.00     0.165 HD
HETATM   23  C8  UNL     1      24.314  85.570   2.255  1.00  0.00     0.018 A 
HETATM   24  C9  UNL     1      23.015  85.741   2.682  1.00  0.00     0.015 A 
HETATM   25  C11 UNL     1      21.384  86.052   4.447  1.00  0.00     0.021 A 
ENDBRANCH  13  15
ENDBRANCH   1  13
BRANCH   9  26
HETATM   26  C17 UNL     1      18.542  81.801   3.441  1.00  0.00     0.026 A 
HETATM   27  C18 UNL     1      19.539  82.076   2.531  1.00  0.00     0.122 A 
HETATM   28  N4  UNL     1      19.240  81.417   1.398  1.00  0.00    -0.310 N 
HETATM   29  N5  UNL     1      18.116  80.741   1.532  1.00  0.00    -0.307 N 
ATOM     30  H4  UNL     1      19.806  81.437   0.549  1.00  0.00     0.186 HD
HETATM   31  C19 UNL     1      17.490  79.909   0.495  1.00  0.00     0.177 C 
HETATM   32  C20 UNL     1      17.671  80.963   2.780  1.00  0.00     0.124 A 
ENDBRANCH   9  26
TORSDOF 3
ENDMDL
