MODEL 2
REMARK VINA RESULT: -11.546756888      0.815      1.446
REMARK  3 active torsions:
REMARK  status: ('A' for Active; 'I' for Inactive)
REMARK    1  A    between atoms: C2_2  and  C3_3 
REMARK    2  A    between atoms: C2_2  and  C12_14 
REMARK    3  A    between atoms: C16_22  and  C17_23 
ROOT
HETATM    1  C12 UNL     1      18.895  85.209   6.792  1.00  0.00     0.128 A 
HETATM    2  N2  UNL     1      18.770  85.205   8.117  1.00  0.00    -0.285 N 
ATOM      3  H2  UNL     1      18.892  86.003   8.740  1.00  0.00     0.188 HD
HETATM    4  N3  UNL     1      18.458  83.977   8.471  1.00  0.00    -0.283 N 
ATOM      5  H3  UNL     1      18.298  83.662   9.427  1.00  0.00     0.188 HD
HETATM    6  C13 UNL     1      18.384  83.197   7.365  1.00  0.00     0.143 A 
HETATM    7  C14 UNL     1      18.099  81.857   7.172  1.00  0.00     0.054 A 
HETATM    8  C15 UNL     1      18.111  81.374   5.879  1.00  0.00     0.036 A 
HETATM    9  C16 UNL     1      18.396  82.191   4.807  1.00  0.00     0.061 A 
HETATM   10  N6  UNL     1      18.661  83.475   5.075  1.00  0.00    -0.290 N 
ATOM     11  H6  UNL     1      18.874  84.099   4.297  1.00  0.00     0.187 HD
HETATM   12  N7  UNL     1      18.661  83.980   6.310  1.00  0.00    -0.224 N 
ENDROOT
BRANCH   1  13
HETATM   13  C2  UNL     1      19.237  86.381   5.965  1.00  0.00     0.085 C 
HETATM   14  C1  UNL     1      19.732  87.471   6.924  1.00  0.00     0.023 C 
BRANCH  13  15
HETATM   15  C3  UNL     1      20.289  86.078   4.963  1.00  0.00    -0.046 A 
HETATM   16  C4  UNL     1      20.045  85.651   3.689  1.00  0.00     0.010 A 
HETATM   17  C5  UNL     1      21.104  85.392   2.821  1.00  0.00     0.031 A 
HETATM   18  C6  UNL     1      22.426  85.555   3.212  1.00  0.00     0.042 A 
HETATM   19  N1  UNL     1      23.460  85.309   2.385  1.00  0.00    -0.365 N 
HETATM   20  C10 UNL     1      22.671  85.988   4.506  1.00  0.00    -0.009 A 
HETATM   21  C7  UNL     1      24.747  85.473   2.784  1.00  0.00     0.088 A 
ATOM     22  H1  UNL     1      23.272  84.991   1.435  1.00  0.00     0.165 HD
HETATM   23  C8  UNL     1      25.048  85.902   4.059  1.00  0.00     0.018 A 
HETATM   24  C9  UNL     1      23.985  86.151   4.899  1.00  0.00     0.015 A 
HETATM   25  C11 UNL     1      21.604  86.237   5.344  1.00  0.00     0.021 A 
ENDBRANCH  13  15
ENDBRANCH   1  13
BRANCH   9  26
HETATM   26  C17 UNL     1      18.410  81.690   3.442  1.00  0.00     0.026 A 
HETATM   27  C18 UNL     1      19.277  82.056   2.436  1.00  0.00     0.122 A 
HETATM   28  N4  UNL     1      18.940  81.353   1.340  1.00  0.00    -0.310 N 
HETATM   29  N5  UNL     1      17.913  80.563   1.589  1.00  0.00    -0.307 N 
ATOM     30  H4  UNL     1      19.413  81.421   0.439  1.00  0.00     0.186 HD
HETATM   31  C19 UNL     1      17.281  79.654   0.622  1.00  0.00     0.177 C 
HETATM   32  C20 UNL     1      17.573  80.755   2.874  1.00  0.00     0.124 A 
ENDBRANCH   9  26
TORSDOF 3
ENDMDL
