MODEL 3
REMARK VINA RESULT: -9.927271329      1.157      6.092
REMARK  3 active torsions:
REMARK  status: ('A' for Active; 'I' for Inactive)
REMARK    1  A    between atoms: C2_2  and  C3_3 
REMARK    2  A    between atoms: C2_2  and  C12_14 
REMARK    3  A    between atoms: C16_22  and  C17_23 
ROOT
HETATM    1  C12 UNL     1      18.722  83.972   7.105  1.00  0.00     0.128 A 
HETATM    2  N2  UNL     1      17.798  84.415   7.953  1.00  0.00    -0.285 N 
ATOM      3  H2  UNL     1      16.974  83.906   8.272  1.00  0.00     0.188 HD
HETATM    4  N3  UNL     1      18.148  85.633   8.303  1.00  0.00    -0.283 N 
ATOM      5  H3  UNL     1      17.633  86.233   8.946  1.00  0.00     0.188 HD
HETATM    6  C13 UNL     1      19.301  85.967   7.673  1.00  0.00     0.143 A 
HETATM    7  C14 UNL     1      20.088  87.104   7.683  1.00  0.00     0.054 A 
HETATM    8  C15 UNL     1      21.228  87.108   6.904  1.00  0.00     0.036 A 
HETATM    9  C16 UNL     1      21.580  86.020   6.136  1.00  0.00     0.061 A 
HETATM   10  N6  UNL     1      20.768  84.958   6.180  1.00  0.00    -0.290 N 
ATOM     11  H6  UNL     1      21.008  84.140   5.620  1.00  0.00     0.187 HD
HETATM   12  N7  UNL     1      19.657  84.915   6.919  1.00  0.00    -0.224 N 
ENDROOT
BRANCH   1  13
HETATM   13  C2  UNL     1      18.730  82.646   6.458  1.00  0.00     0.085 C 
HETATM   14  C1  UNL     1      17.519  81.880   7.003  1.00  0.00     0.023 C 
BRANCH  13  15
HETATM   15  C3  UNL     1      18.643  82.738   4.980  1.00  0.00    -0.046 A 
HETATM   16  C4  UNL     1      18.911  83.865   4.256  1.00  0.00     0.010 A 
HETATM   17  C5  UNL     1      18.801  83.850   2.867  1.00  0.00     0.031 A 
HETATM   18  C6  UNL     1      18.419  82.708   2.177  1.00  0.00     0.042 A 
HETATM   19  N1  UNL     1      18.308  82.677   0.835  1.00  0.00    -0.365 N 
HETATM   20  C10 UNL     1      18.146  81.565   2.914  1.00  0.00    -0.009 A 
HETATM   21  C7  UNL     1      17.933  81.551   0.175  1.00  0.00     0.088 A 
ATOM     22  H1  UNL     1      18.510  83.522   0.300  1.00  0.00     0.165 HD
HETATM   23  C8  UNL     1      17.650  80.387   0.858  1.00  0.00     0.018 A 
HETATM   24  C9  UNL     1      17.767  80.426   2.231  1.00  0.00     0.015 A 
HETATM   25  C11 UNL     1      18.265  81.608   4.287  1.00  0.00     0.021 A 
ENDBRANCH  13  15
ENDBRANCH   1  13
BRANCH   9  26
HETATM   26  C17 UNL     1      22.778  86.017   5.312  1.00  0.00     0.026 A 
HETATM   27  C18 UNL     1      24.076  86.190   5.739  1.00  0.00     0.122 A 
HETATM   28  N4  UNL     1      24.868  86.115   4.655  1.00  0.00    -0.310 N 
HETATM   29  N5  UNL     1      24.154  85.905   3.567  1.00  0.00    -0.307 N 
ATOM     30  H4  UNL     1      25.884  86.208   4.672  1.00  0.00     0.186 HD
HETATM   31  C19 UNL     1      24.690  85.769   2.205  1.00  0.00     0.177 C 
HETATM   32  C20 UNL     1      22.868  85.841   3.949  1.00  0.00     0.124 A 
ENDBRANCH   9  26
TORSDOF 3
ENDMDL
