MODEL 4
REMARK VINA RESULT: -9.344502110      1.662      4.721
REMARK  4 active torsions:
REMARK  status: ('A' for Active; 'I' for Inactive)
REMARK    1  A    between atoms: C2_2  and  N1_4 
REMARK    2  A    between atoms: N1_4  and  C4_6 
REMARK    3  A    between atoms: C8_14  and  C9_15 
REMARK    4  A    between atoms: C9_15  and  C11_17 
ROOT
HETATM    1  C4  UNL     1      18.489  84.700   7.032  1.00  0.00     0.116 A 
HETATM    2  C5  UNL     1      18.109  83.761   7.965  1.00  0.00     0.053 A 
HETATM    3  C6  UNL     1      17.914  82.446   7.606  1.00  0.00     0.056 A 
HETATM    4  C7  UNL     1      18.122  82.125   6.261  1.00  0.00     0.143 A 
HETATM    5  N2  UNL     1      18.005  80.942   5.637  1.00  0.00    -0.283 N 
ATOM      6  H2  UNL     1      17.738  80.054   6.059  1.00  0.00     0.188 HD
HETATM    7  N3  UNL     1      18.303  81.154   4.371  1.00  0.00    -0.285 N 
ATOM      8  H3  UNL     1      18.301  80.437   3.646  1.00  0.00     0.188 HD
HETATM    9  C8  UNL     1      18.608  82.444   4.170  1.00  0.00     0.128 A 
HETATM   10  N6  UNL     1      18.493  83.066   5.380  1.00  0.00    -0.223 N 
HETATM   11  N7  UNL     1      18.671  84.319   5.756  1.00  0.00    -0.276 N 
ATOM     12  H7  UNL     1      18.952  85.013   5.063  1.00  0.00     0.189 HD
ENDROOT
BRANCH   9  13
HETATM   13  C9  UNL     1      18.974  83.019   2.883  1.00  0.00     0.088 C 
HETATM   14  C10 UNL     1      18.279  84.356   2.598  1.00  0.00     0.023 C 
BRANCH  13  15
HETATM   15  C11 UNL     1      20.409  83.110   2.592  1.00  0.00    -0.018 A 
HETATM   16  C12 UNL     1      21.122  82.198   1.797  1.00  0.00     0.098 A 
HETATM   17  N4  UNL     1      22.386  82.585   1.747  1.00  0.00    -0.351 N 
HETATM   18  C13 UNL     1      22.590  83.704   2.456  1.00  0.00     0.115 A 
ATOM     19  H4  UNL     1      23.116  82.093   1.232  1.00  0.00     0.166 HD
HETATM   20  N5  UNL     1      23.656  84.469   2.711  1.00  0.00    -0.352 N 
HETATM   21  C17 UNL     1      21.350  84.036   2.988  1.00  0.00     0.016 A 
HETATM   22  C14 UNL     1      23.553  85.569   3.484  1.00  0.00     0.089 A 
ATOM     23  H5  UNL     1      24.561  84.217   2.314  1.00  0.00     0.166 HD
HETATM   24  C15 UNL     1      22.352  85.957   4.046  1.00  0.00     0.018 A 
HETATM   25  C16 UNL     1      21.241  85.160   3.779  1.00  0.00     0.017 A 
ENDBRANCH  13  15
ENDBRANCH   9  13
BRANCH   1  26
HETATM   26  N1  UNL     1      18.674  86.049   7.448  1.00  0.00    -0.371 N 
ATOM     27  H1  UNL     1      17.960  86.470   8.042  1.00  0.00     0.161 HD
BRANCH  26  28
HETATM   28  C2  UNL     1      19.795  86.841   7.084  1.00  0.00     0.075 C 
HETATM   29  C1  UNL     1      19.670  88.300   7.480  1.00  0.00     0.031 C 
HETATM   30  C3  UNL     1      21.122  86.335   7.588  1.00  0.00     0.031 C 
ENDBRANCH  26  28
ENDBRANCH   1  26
TORSDOF 4
ENDMDL
