MODEL 1
REMARK VINA RESULT: -10.351883476      0.000      0.000
REMARK  4 active torsions:
REMARK  status: ('A' for Active; 'I' for Inactive)
REMARK    1  A    between atoms: C2_2  and  N1_4 
REMARK    2  A    between atoms: N1_4  and  C4_6 
REMARK    3  A    between atoms: C8_14  and  C9_15 
REMARK    4  A    between atoms: C9_15  and  C11_17 
ROOT
HETATM    1  C4  UNL     1      18.593  82.249   5.070  1.00  0.00     0.116 A 
HETATM    2  C5  UNL     1      17.844  81.480   5.933  1.00  0.00     0.053 A 
HETATM    3  C6  UNL     1      17.481  81.958   7.173  1.00  0.00     0.056 A 
HETATM    4  C7  UNL     1      17.910  83.249   7.498  1.00  0.00     0.143 A 
HETATM    5  N2  UNL     1      17.709  83.958   8.619  1.00  0.00    -0.283 N 
ATOM      6  H2  UNL     1      17.190  83.660   9.445  1.00  0.00     0.188 HD
HETATM    7  N3  UNL     1      18.314  85.116   8.446  1.00  0.00    -0.285 N 
ATOM      8  H3  UNL     1      18.336  85.870   9.133  1.00  0.00     0.188 HD
HETATM    9  C8  UNL     1      18.896  85.165   7.239  1.00  0.00     0.128 A 
HETATM   10  N6  UNL     1      18.638  83.970   6.632  1.00  0.00    -0.223 N 
HETATM   11  N7  UNL     1      18.970  83.482   5.450  1.00  0.00    -0.276 N 
ATOM     12  H7  UNL     1      19.525  84.053   4.813  1.00  0.00     0.189 HD
ENDROOT
BRANCH   9  13
HETATM   13  C9  UNL     1      19.657  86.298   6.730  1.00  0.00     0.088 C 
HETATM   14  C10 UNL     1      19.247  87.634   7.360  1.00  0.00     0.023 C 
BRANCH  13  15
HETATM   15  C11 UNL     1      21.117  86.154   6.724  1.00  0.00    -0.018 A 
HETATM   16  C12 UNL     1      21.928  86.185   7.870  1.00  0.00     0.098 A 
HETATM   17  N4  UNL     1      23.186  86.023   7.497  1.00  0.00    -0.351 N 
HETATM   18  C13 UNL     1      23.296  85.882   6.169  1.00  0.00     0.115 A 
ATOM     19  H4  UNL     1      23.977  86.007   8.142  1.00  0.00     0.166 HD
HETATM   20  N5  UNL     1      24.318  85.698   5.328  1.00  0.00    -0.352 N 
HETATM   21  C17 UNL     1      21.997  85.965   5.680  1.00  0.00     0.016 A 
HETATM   22  C14 UNL     1      24.115  85.590   4.000  1.00  0.00     0.089 A 
ATOM     23  H5  UNL     1      25.268  85.639   5.698  1.00  0.00     0.166 HD
HETATM   24  C15 UNL     1      22.851  85.663   3.446  1.00  0.00     0.018 A 
HETATM   25  C16 UNL     1      21.786  85.855   4.322  1.00  0.00     0.017 A 
ENDBRANCH  13  15
ENDBRANCH   9  13
BRANCH   1  26
HETATM   26  N1  UNL     1      18.949  81.712   3.801  1.00  0.00    -0.371 N 
ATOM     27  H1  UNL     1      19.800  81.154   3.738  1.00  0.00     0.161 HD
BRANCH  26  28
HETATM   28  C2  UNL     1      18.188  81.908   2.618  1.00  0.00     0.075 C 
HETATM   29  C1  UNL     1      18.584  83.143   1.830  1.00  0.00     0.031 C 
HETATM   30  C3  UNL     1      18.174  80.737   1.670  1.00  0.00     0.031 C 
ENDBRANCH  26  28
ENDBRANCH   1  26
TORSDOF 4
ENDMDL
