MODEL 2
REMARK VINA RESULT: -9.861295892      1.179      1.813
REMARK  4 active torsions:
REMARK  status: ('A' for Active; 'I' for Inactive)
REMARK    1  A    between atoms: C2_2  and  N1_4 
REMARK    2  A    between atoms: N1_4  and  C4_6 
REMARK    3  A    between atoms: C8_14  and  C9_15 
REMARK    4  A    between atoms: C9_15  and  C11_17 
ROOT
HETATM    1  C4  UNL     1      18.082  81.875   5.146  1.00  0.00     0.116 A 
HETATM    2  C5  UNL     1      17.749  81.098   6.232  1.00  0.00     0.053 A 
HETATM    3  C6  UNL     1      17.754  81.624   7.506  1.00  0.00     0.056 A 
HETATM    4  C7  UNL     1      18.111  82.970   7.628  1.00  0.00     0.143 A 
HETATM    5  N2  UNL     1      18.203  83.733   8.728  1.00  0.00    -0.283 N 
ATOM      6  H2  UNL     1      18.019  83.443   9.688  1.00  0.00     0.188 HD
HETATM    7  N3  UNL     1      18.580  84.929   8.326  1.00  0.00    -0.285 N 
ATOM      8  H3  UNL     1      18.735  85.728   8.941  1.00  0.00     0.188 HD
HETATM    9  C8  UNL     1      18.730  84.951   6.993  1.00  0.00     0.128 A 
HETATM   10  N6  UNL     1      18.430  83.697   6.546  1.00  0.00    -0.223 N 
HETATM   11  N7  UNL     1      18.416  83.163   5.338  1.00  0.00    -0.276 N 
ATOM     12  H7  UNL     1      18.664  83.740   4.535  1.00  0.00     0.189 HD
ENDROOT
BRANCH   9  13
HETATM   13  C9  UNL     1      19.148  86.115   6.224  1.00  0.00     0.088 C 
HETATM   14  C10 UNL     1      19.500  87.324   7.099  1.00  0.00     0.023 C 
BRANCH  13  15
HETATM   15  C11 UNL     1      20.182  85.891   5.209  1.00  0.00    -0.018 A 
HETATM   16  C12 UNL     1      19.931  85.684   3.843  1.00  0.00     0.098 A 
HETATM   17  N4  UNL     1      21.088  85.520   3.224  1.00  0.00    -0.351 N 
HETATM   18  C13 UNL     1      22.121  85.599   4.075  1.00  0.00     0.115 A 
ATOM     19  H4  UNL     1      21.183  85.353   2.222  1.00  0.00     0.166 HD
HETATM   20  N5  UNL     1      23.448  85.504   3.947  1.00  0.00    -0.352 N 
HETATM   21  C17 UNL     1      21.555  85.832   5.323  1.00  0.00     0.016 A 
HETATM   22  C14 UNL     1      24.260  85.630   5.016  1.00  0.00     0.089 A 
ATOM     23  H5  UNL     1      23.853  85.334   3.026  1.00  0.00     0.166 HD
HETATM   24  C15 UNL     1      23.765  85.862   6.286  1.00  0.00     0.018 A 
HETATM   25  C16 UNL     1      22.382  85.961   6.418  1.00  0.00     0.017 A 
ENDBRANCH  13  15
ENDBRANCH   9  13
BRANCH   1  26
HETATM   26  N1  UNL     1      18.069  81.288   3.849  1.00  0.00    -0.371 N 
ATOM     27  H1  UNL     1      17.725  80.332   3.758  1.00  0.00     0.161 HD
BRANCH  26  28
HETATM   28  C2  UNL     1      18.506  81.956   2.675  1.00  0.00     0.075 C 
HETATM   29  C1  UNL     1      20.012  81.955   2.492  1.00  0.00     0.031 C 
HETATM   30  C3  UNL     1      17.883  81.464   1.394  1.00  0.00     0.031 C 
ENDBRANCH  26  28
ENDBRANCH   1  26
TORSDOF 4
ENDMDL
