MODEL 5
REMARK VINA RESULT: -9.315265820      2.280      6.280
REMARK  4 active torsions:
REMARK  status: ('A' for Active; 'I' for Inactive)
REMARK    1  A    between atoms: C2_2  and  N1_4 
REMARK    2  A    between atoms: N1_4  and  C4_6 
REMARK    3  A    between atoms: C8_14  and  C9_15 
REMARK    4  A    between atoms: C9_15  and  C11_17 
ROOT
HETATM    1  C4  UNL     1      23.415  85.231   2.837  1.00  0.00     0.116 A 
HETATM    2  C5  UNL     1      24.333  85.632   3.781  1.00  0.00     0.053 A 
HETATM    3  C6  UNL     1      23.935  85.969   5.056  1.00  0.00     0.056 A 
HETATM    4  C7  UNL     1      22.567  85.881   5.330  1.00  0.00     0.143 A 
HETATM    5  N2  UNL     1      21.905  86.146   6.467  1.00  0.00    -0.283 N 
ATOM      6  H2  UNL     1      22.309  86.464   7.348  1.00  0.00     0.188 HD
HETATM    7  N3  UNL     1      20.631  85.916   6.223  1.00  0.00    -0.285 N 
ATOM      8  H3  UNL     1      19.878  86.032   6.903  1.00  0.00     0.188 HD
HETATM    9  C8  UNL     1      20.461  85.509   4.957  1.00  0.00     0.128 A 
HETATM   10  N6  UNL     1      21.701  85.487   4.385  1.00  0.00    -0.223 N 
HETATM   11  N7  UNL     1      22.114  85.170   3.171  1.00  0.00    -0.276 N 
ATOM     12  H7  UNL     1      21.432  84.875   2.473  1.00  0.00     0.189 HD
ENDROOT
BRANCH   9  13
HETATM   13  C9  UNL     1      19.176  85.179   4.356  1.00  0.00     0.088 C 
HETATM   14  C10 UNL     1      19.034  85.685   2.915  1.00  0.00     0.023 C 
BRANCH  13  15
HETATM   15  C11 UNL     1      18.747  83.781   4.459  1.00  0.00    -0.018 A 
HETATM   16  C12 UNL     1      18.664  82.889   3.377  1.00  0.00     0.098 A 
HETATM   17  N4  UNL     1      18.247  81.718   3.831  1.00  0.00    -0.351 N 
HETATM   18  C13 UNL     1      18.037  81.746   5.154  1.00  0.00     0.115 A 
ATOM     19  H4  UNL     1      18.102  80.895   3.245  1.00  0.00     0.166 HD
HETATM   20  N5  UNL     1      17.625  80.849   6.055  1.00  0.00    -0.352 N 
HETATM   21  C17 UNL     1      18.350  83.040   5.552  1.00  0.00     0.016 A 
HETATM   22  C14 UNL     1      17.506  81.176   7.358  1.00  0.00     0.089 A 
ATOM     23  H5  UNL     1      17.399  79.901   5.753  1.00  0.00     0.166 HD
HETATM   24  C15 UNL     1      17.799  82.444   7.822  1.00  0.00     0.018 A 
HETATM   25  C16 UNL     1      18.228  83.379   6.882  1.00  0.00     0.017 A 
ENDBRANCH  13  15
ENDBRANCH   9  13
BRANCH   1  26
HETATM   26  N1  UNL     1      23.871  84.897   1.530  1.00  0.00    -0.371 N 
ATOM     27  H1  UNL     1      23.188  84.881   0.773  1.00  0.00     0.161 HD
BRANCH  26  28
HETATM   28  C2  UNL     1      25.221  84.585   1.221  1.00  0.00     0.075 C 
HETATM   29  C1  UNL     1      25.392  83.287   0.454  1.00  0.00     0.031 C 
HETATM   30  C3  UNL     1      25.969  85.663   0.480  1.00  0.00     0.031 C 
ENDBRANCH  26  28
ENDBRANCH   1  26
TORSDOF 4
ENDMDL
