MODEL 3
REMARK VINA RESULT: -9.668659112      1.873      6.639
REMARK  4 active torsions:
REMARK  status: ('A' for Active; 'I' for Inactive)
REMARK    1  A    between atoms: C2_2  and  N1_4 
REMARK    2  A    between atoms: N1_4  and  C4_6 
REMARK    3  A    between atoms: C8_14  and  C9_15 
REMARK    4  A    between atoms: C9_15  and  C11_17 
ROOT
HETATM    1  C4  UNL     1      22.314  85.842   4.939  1.00  0.00     0.116 A 
HETATM    2  C5  UNL     1      23.524  85.679   4.305  1.00  0.00     0.053 A 
HETATM    3  C6  UNL     1      23.620  84.948   3.141  1.00  0.00     0.056 A 
HETATM    4  C7  UNL     1      22.435  84.392   2.649  1.00  0.00     0.143 A 
HETATM    5  N2  UNL     1      22.233  83.643   1.555  1.00  0.00    -0.283 N 
ATOM      6  H2  UNL     1      22.937  83.350   0.878  1.00  0.00     0.188 HD
HETATM    7  N3  UNL     1      20.947  83.361   1.525  1.00  0.00    -0.285 N 
ATOM      8  H3  UNL     1      20.491  82.800   0.804  1.00  0.00     0.188 HD
HETATM    9  C8  UNL     1      20.320  83.912   2.574  1.00  0.00     0.128 A 
HETATM   10  N6  UNL     1      21.273  84.573   3.294  1.00  0.00    -0.223 N 
HETATM   11  N7  UNL     1      21.214  85.278   4.409  1.00  0.00    -0.276 N 
ATOM     12  H7  UNL     1      20.316  85.397   4.879  1.00  0.00     0.189 HD
ENDROOT
BRANCH   9  13
HETATM   13  C9  UNL     1      18.895  83.786   2.850  1.00  0.00     0.088 C 
HETATM   14  C10 UNL     1      18.058  83.511   1.595  1.00  0.00     0.023 C 
BRANCH  13  15
HETATM   15  C11 UNL     1      18.518  82.874   3.935  1.00  0.00    -0.018 A 
HETATM   16  C12 UNL     1      18.195  81.518   3.763  1.00  0.00     0.098 A 
HETATM   17  N4  UNL     1      17.908  81.003   4.947  1.00  0.00    -0.351 N 
HETATM   18  C13 UNL     1      18.012  81.915   5.923  1.00  0.00     0.115 A 
ATOM     19  H4  UNL     1      17.641  80.030   5.098  1.00  0.00     0.166 HD
HETATM   20  N5  UNL     1      17.832  81.893   7.247  1.00  0.00    -0.352 N 
HETATM   21  C17 UNL     1      18.394  83.092   5.290  1.00  0.00     0.016 A 
HETATM   22  C14 UNL     1      18.016  83.002   7.992  1.00  0.00     0.089 A 
ATOM     23  H5  UNL     1      17.552  81.023   7.702  1.00  0.00     0.166 HD
HETATM   24  C15 UNL     1      18.395  84.206   7.429  1.00  0.00     0.018 A 
HETATM   25  C16 UNL     1      18.582  84.228   6.049  1.00  0.00     0.017 A 
ENDBRANCH  13  15
ENDBRANCH   9  13
BRANCH   1  26
HETATM   26  N1  UNL     1      22.263  86.601   6.143  1.00  0.00    -0.371 N 
ATOM     27  H1  UNL     1      22.909  87.383   6.245  1.00  0.00     0.161 HD
BRANCH  26  28
HETATM   28  C2  UNL     1      21.366  86.331   7.210  1.00  0.00     0.075 C 
HETATM   29  C1  UNL     1      22.053  86.019   8.526  1.00  0.00     0.031 C 
HETATM   30  C3  UNL     1      20.339  87.404   7.465  1.00  0.00     0.031 C 
ENDBRANCH  26  28
ENDBRANCH   1  26
TORSDOF 4
ENDMDL
