MODEL 3
REMARK VINA RESULT: -5.556084865      1.024      1.561
REMARK  5 active torsions:
REMARK  status: ('A' for Active; 'I' for Inactive)
REMARK    1  A    between atoms: C2_2  and  C3_3 
REMARK    2  A    between atoms: C2_2  and  N2_11 
REMARK    3  A    between atoms: C3_3  and  C4_4 
REMARK    4  A    between atoms: C4_4  and  O1_5 
REMARK    5  A    between atoms: O1_5  and  C5_6 
REMARK       I    between atoms: C5_6  and  N1_8 
ROOT
HETATM    1  C4  UNL     1     -99.645  39.031  25.541  1.00  0.00     0.182 C 
ENDROOT
BRANCH   1   2
HETATM    2  C3  UNL     1     -98.980  38.765  26.847  1.00  0.00     0.062 C 
BRANCH   2   3
HETATM    3  C2  UNL     1     -98.941  37.304  27.214  1.00  0.00     0.220 C 
HETATM    4  C1  UNL     1     -98.028  37.154  28.440  1.00  0.00     0.043 C 
BRANCH   3   5
HETATM    5  N2  UNL     1    -100.202  36.776  27.610  1.00  0.00     0.084 N 
HETATM    6  C8  UNL     1    -100.234  35.364  27.835  1.00  0.00     0.309 C 
HETATM    7  C9  UNL     1    -100.586  37.428  28.860  1.00  0.00     0.309 C 
ENDBRANCH   3   5
ENDBRANCH   2   3
ENDBRANCH   1   2
BRANCH   1   8
HETATM    8  O1  UNL     1    -101.030  39.143  25.591  1.00  0.00    -0.304 OA
BRANCH   8   9
HETATM    9  C5  UNL     1    -101.874  39.398  24.548  1.00  0.00     0.362 C 
HETATM   10  O2  UNL     1    -101.362  39.531  23.406  1.00  0.00    -0.238 OA
HETATM   11  N1  UNL     1    -103.264  39.501  24.784  1.00  0.00    -0.337 N 
HETATM   12  C6  UNL     1    -103.794  39.338  26.118  1.00  0.00     0.154 C 
HETATM   13  C7  UNL     1    -104.154  39.771  23.686  1.00  0.00     0.154 C 
ENDBRANCH   8   9
ENDBRANCH   1   8
TORSDOF 5
ENDMDL
