MODEL 11
REMARK VINA RESULT: -5.034580622      1.654      5.167
REMARK  5 active torsions:
REMARK  status: ('A' for Active; 'I' for Inactive)
REMARK    1  A    between atoms: C2_2  and  C3_3 
REMARK    2  A    between atoms: C2_2  and  N2_11 
REMARK    3  A    between atoms: C3_3  and  C4_4 
REMARK    4  A    between atoms: C4_4  and  O1_5 
REMARK    5  A    between atoms: O1_5  and  C5_6 
REMARK       I    between atoms: C5_6  and  N1_8 
ROOT
HETATM    1  C4  UNL     1    -102.233  38.149  26.938  1.00  0.00     0.182 C 
ENDROOT
BRANCH   1   2
HETATM    2  C3  UNL     1    -102.440  39.556  26.497  1.00  0.00     0.062 C 
BRANCH   2   3
HETATM    3  C2  UNL     1    -101.903  39.839  25.117  1.00  0.00     0.220 C 
HETATM    4  C1  UNL     1    -100.551  39.122  24.987  1.00  0.00     0.043 C 
BRANCH   3   5
HETATM    5  N2  UNL     1    -102.712  39.322  24.067  1.00  0.00     0.084 N 
HETATM    6  C8  UNL     1    -104.072  39.764  24.063  1.00  0.00     0.309 C 
HETATM    7  C9  UNL     1    -102.114  39.734  22.799  1.00  0.00     0.309 C 
ENDBRANCH   3   5
ENDBRANCH   2   3
ENDBRANCH   1   2
BRANCH   1   8
HETATM    8  O1  UNL     1    -101.465  37.994  28.087  1.00  0.00    -0.304 OA
BRANCH   8   9
HETATM    9  C5  UNL     1    -100.381  37.178  28.249  1.00  0.00     0.362 C 
HETATM   10  O2  UNL     1    -100.592  35.938  28.305  1.00  0.00    -0.238 OA
HETATM   11  N1  UNL     1     -99.090  37.743  28.346  1.00  0.00    -0.337 N 
HETATM   12  C6  UNL     1     -98.911  39.175  28.274  1.00  0.00     0.154 C 
HETATM   13  C7  UNL     1     -97.948  36.885  28.518  1.00  0.00     0.154 C 
ENDBRANCH   8   9
ENDBRANCH   1   8
TORSDOF 5
ENDMDL
