MODEL 4
REMARK VINA RESULT: -5.463413214      1.204      1.665
REMARK  5 active torsions:
REMARK  status: ('A' for Active; 'I' for Inactive)
REMARK    1  A    between atoms: C2_2  and  C3_3 
REMARK    2  A    between atoms: C2_2  and  N2_11 
REMARK    3  A    between atoms: C3_3  and  C4_4 
REMARK    4  A    between atoms: C4_4  and  O1_5 
REMARK    5  A    between atoms: O1_5  and  C5_6 
REMARK       I    between atoms: C5_6  and  N1_8 
ROOT
HETATM    1  C4  UNL     1     -99.445  38.994  25.917  1.00  0.00     0.182 C 
ENDROOT
BRANCH   1   2
HETATM    2  C3  UNL     1     -99.242  37.583  26.348  1.00  0.00     0.062 C 
BRANCH   2   3
HETATM    3  C2  UNL     1     -98.798  37.451  27.782  1.00  0.00     0.220 C 
HETATM    4  C1  UNL     1     -98.680  38.866  28.367  1.00  0.00     0.043 C 
BRANCH   3   5
HETATM    5  N2  UNL     1     -99.731  36.770  28.613  1.00  0.00     0.084 N 
HETATM    6  C8  UNL     1    -100.867  37.538  29.022  1.00  0.00     0.309 C 
HETATM    7  C9  UNL     1    -100.228  35.613  27.872  1.00  0.00     0.309 C 
ENDBRANCH   3   5
ENDBRANCH   2   3
ENDBRANCH   1   2
BRANCH   1   8
HETATM    8  O1  UNL     1    -100.372  39.176  24.896  1.00  0.00    -0.304 OA
BRANCH   8   9
HETATM    9  C5  UNL     1    -101.701  39.460  25.031  1.00  0.00     0.362 C 
HETATM   10  O2  UNL     1    -102.175  39.476  26.197  1.00  0.00    -0.238 OA
HETATM   11  N1  UNL     1    -102.480  39.720  23.881  1.00  0.00    -0.337 N 
HETATM   12  C6  UNL     1    -101.879  39.687  22.568  1.00  0.00     0.154 C 
HETATM   13  C7  UNL     1    -103.880  40.018  24.022  1.00  0.00     0.154 C 
ENDBRANCH   8   9
ENDBRANCH   1   8
TORSDOF 5
ENDMDL
