MODEL 8
REMARK VINA RESULT: -5.203047785      1.626      5.762
REMARK  5 active torsions:
REMARK  status: ('A' for Active; 'I' for Inactive)
REMARK    1  A    between atoms: C2_2  and  C3_3 
REMARK    2  A    between atoms: C2_2  and  N2_11 
REMARK    3  A    between atoms: C3_3  and  C4_4 
REMARK    4  A    between atoms: C4_4  and  O1_5 
REMARK    5  A    between atoms: O1_5  and  C5_6 
REMARK       I    between atoms: C5_6  and  N1_8 
ROOT
HETATM    1  C4  UNL     1    -100.816  39.234  25.560  1.00  0.00     0.182 C 
ENDROOT
BRANCH   1   2
HETATM    2  C3  UNL     1    -102.165  39.860  25.468  1.00  0.00     0.062 C 
BRANCH   2   3
HETATM    3  C2  UNL     1    -102.978  39.364  24.300  1.00  0.00     0.220 C 
HETATM    4  C1  UNL     1    -104.456  39.377  24.720  1.00  0.00     0.043 C 
BRANCH   3   5
HETATM    5  N2  UNL     1    -102.901  40.197  23.149  1.00  0.00     0.084 N 
HETATM    6  C8  UNL     1    -101.956  39.790  22.156  1.00  0.00     0.309 C 
HETATM    7  C9  UNL     1    -104.220  40.212  22.520  1.00  0.00     0.309 C 
ENDBRANCH   3   5
ENDBRANCH   2   3
ENDBRANCH   1   2
BRANCH   1   8
HETATM    8  O1  UNL     1    -100.228  39.274  26.819  1.00  0.00    -0.304 OA
BRANCH   8   9
HETATM    9  C5  UNL     1     -99.105  38.609  27.225  1.00  0.00     0.362 C 
HETATM   10  O2  UNL     1     -98.007  38.966  26.724  1.00  0.00    -0.238 OA
HETATM   11  N1  UNL     1     -99.215  37.566  28.172  1.00  0.00    -0.337 N 
HETATM   12  C6  UNL     1    -100.504  37.201  28.712  1.00  0.00     0.154 C 
HETATM   13  C7  UNL     1     -98.033  36.866  28.599  1.00  0.00     0.154 C 
ENDBRANCH   8   9
ENDBRANCH   1   8
TORSDOF 5
ENDMDL
