MODEL 2
REMARK VINA RESULT: -6.099211198      0.609      1.613
REMARK  5 active torsions:
REMARK  status: ('A' for Active; 'I' for Inactive)
REMARK    1  A    between atoms: C2_2  and  C3_3 
REMARK    2  A    between atoms: C2_2  and  N3_13 
REMARK    3  A    between atoms: C3_3  and  C4_4 
REMARK    4  A    between atoms: C4_4  and  O1_5 
REMARK    5  A    between atoms: O1_5  and  C5_6 
ROOT
HETATM    1  O1  UNL     1      54.342  -3.739 -55.112  1.00  0.00    -0.322 OA
ENDROOT
BRANCH   1   2
HETATM    2  C4  UNL     1      54.895  -4.752 -55.874  1.00  0.00     0.181 C 
BRANCH   2   3
HETATM    3  C3  UNL     1      55.552  -4.279 -57.144  1.00  0.00     0.062 C 
BRANCH   3   4
HETATM    4  C2  UNL     1      56.998  -4.737 -57.142  1.00  0.00     0.220 C 
HETATM    5  C1  UNL     1      57.657  -4.588 -58.474  1.00  0.00     0.043 C 
BRANCH   4   6
HETATM    6  N3  UNL     1      57.759  -4.143 -56.072  1.00  0.00     0.084 N 
HETATM    7  C9  UNL     1      59.032  -4.852 -55.995  1.00  0.00     0.309 C 
HETATM    8  C10 UNL     1      58.027  -2.751 -56.266  1.00  0.00     0.309 C 
ENDBRANCH   4   6
ENDBRANCH   3   4
ENDBRANCH   2   3
ENDBRANCH   1   2
BRANCH   1   9
HETATM    9  C5  UNL     1      54.056  -3.773 -53.777  1.00  0.00     0.225 A 
HETATM   10  N1  UNL     1      52.875  -4.108 -53.229  1.00  0.00    -0.331 N 
HETATM   11  C6  UNL     1      52.949  -4.032 -51.883  1.00  0.00     0.109 A 
ATOM     12  H1  UNL     1      52.043  -4.380 -53.754  1.00  0.00     0.168 HD
HETATM   13  C7  UNL     1      54.236  -3.631 -51.578  1.00  0.00     0.111 A 
HETATM   14  N2  UNL     1      54.876  -3.485 -52.766  1.00  0.00    -0.326 N 
HETATM   15  C8  UNL     1      56.254  -3.073 -52.864  1.00  0.00     0.159 C 
ENDBRANCH   1   9
TORSDOF 5
ENDMDL
