MODEL 9
REMARK VINA RESULT: -5.383026443      1.525      5.688
REMARK  5 active torsions:
REMARK  status: ('A' for Active; 'I' for Inactive)
REMARK    1  A    between atoms: C2_2  and  C3_3 
REMARK    2  A    between atoms: C2_2  and  N3_13 
REMARK    3  A    between atoms: C3_3  and  C4_4 
REMARK    4  A    between atoms: C4_4  and  O1_5 
REMARK    5  A    between atoms: O1_5  and  C5_6 
ROOT
HETATM    1  O1  UNL     1      57.076  -2.852 -55.121  1.00  0.00    -0.322 OA
ENDROOT
BRANCH   1   2
HETATM    2  C4  UNL     1      56.529  -3.153 -53.887  1.00  0.00     0.181 C 
BRANCH   2   3
HETATM    3  C3  UNL     1      55.022  -3.160 -53.867  1.00  0.00     0.062 C 
BRANCH   3   4
HETATM    4  C2  UNL     1      54.558  -3.908 -52.631  1.00  0.00     0.220 C 
HETATM    5  C1  UNL     1      54.962  -3.236 -51.359  1.00  0.00     0.043 C 
BRANCH   4   6
HETATM    6  N3  UNL     1      53.153  -4.222 -52.676  1.00  0.00     0.084 N 
HETATM    7  C9  UNL     1      52.988  -5.366 -53.565  1.00  0.00     0.309 C 
HETATM    8  C10 UNL     1      52.602  -4.558 -51.398  1.00  0.00     0.309 C 
ENDBRANCH   4   6
ENDBRANCH   3   4
ENDBRANCH   2   3
ENDBRANCH   1   2
BRANCH   1   9
HETATM    9  C5  UNL     1      56.988  -3.593 -56.265  1.00  0.00     0.225 A 
HETATM   10  N1  UNL     1      55.969  -3.576 -57.142  1.00  0.00    -0.331 N 
HETATM   11  C6  UNL     1      56.215  -4.432 -58.157  1.00  0.00     0.109 A 
ATOM     12  H1  UNL     1      55.131  -2.999 -57.053  1.00  0.00     0.168 HD
HETATM   13  C7  UNL     1      57.444  -5.009 -57.899  1.00  0.00     0.111 A 
HETATM   14  N2  UNL     1      57.878  -4.466 -56.735  1.00  0.00    -0.326 N 
HETATM   15  C8  UNL     1      59.139  -4.822 -56.131  1.00  0.00     0.159 C 
ENDBRANCH   1   9
TORSDOF 5
ENDMDL
