MODEL 8
REMARK VINA RESULT: -5.509529227      1.347      5.169
REMARK  5 active torsions:
REMARK  status: ('A' for Active; 'I' for Inactive)
REMARK    1  A    between atoms: C2_2  and  C3_3 
REMARK    2  A    between atoms: C2_2  and  N3_13 
REMARK    3  A    between atoms: C3_3  and  C4_4 
REMARK    4  A    between atoms: C4_4  and  O1_5 
REMARK    5  A    between atoms: O1_5  and  C5_6 
ROOT
HETATM    1  O1  UNL     1      54.902  -4.506 -56.597  1.00  0.00    -0.322 OA
ENDROOT
BRANCH   1   2
HETATM    2  C4  UNL     1      54.312  -4.658 -55.356  1.00  0.00     0.181 C 
BRANCH   2   3
HETATM    3  C3  UNL     1      54.251  -3.391 -54.543  1.00  0.00     0.062 C 
BRANCH   3   4
HETATM    4  C2  UNL     1      55.132  -3.558 -53.319  1.00  0.00     0.220 C 
HETATM    5  C1  UNL     1      56.521  -3.051 -53.529  1.00  0.00     0.043 C 
BRANCH   4   6
HETATM    6  N3  UNL     1      54.519  -3.031 -52.127  1.00  0.00     0.084 N 
HETATM    7  C9  UNL     1      53.492  -3.979 -51.708  1.00  0.00     0.309 C 
HETATM    8  C10 UNL     1      55.438  -2.851 -51.044  1.00  0.00     0.309 C 
ENDBRANCH   4   6
ENDBRANCH   3   4
ENDBRANCH   2   3
ENDBRANCH   1   2
BRANCH   1   9
HETATM    9  C5  UNL     1      56.227  -4.631 -56.902  1.00  0.00     0.225 A 
HETATM   10  N1  UNL     1      57.072  -5.547 -56.397  1.00  0.00    -0.331 N 
HETATM   11  C6  UNL     1      58.306  -5.378 -56.918  1.00  0.00     0.109 A 
ATOM     12  H1  UNL     1      56.817  -6.266 -55.718  1.00  0.00     0.168 HD
HETATM   13  C7  UNL     1      58.226  -4.306 -57.788  1.00  0.00     0.111 A 
HETATM   14  N2  UNL     1      56.938  -3.883 -57.745  1.00  0.00    -0.326 N 
HETATM   15  C8  UNL     1      56.457  -2.770 -58.526  1.00  0.00     0.159 C 
ENDBRANCH   1   9
TORSDOF 5
ENDMDL
