MODEL 7
REMARK VINA RESULT: -5.513716220      1.261      5.606
REMARK  5 active torsions:
REMARK  status: ('A' for Active; 'I' for Inactive)
REMARK    1  A    between atoms: C2_2  and  C3_3 
REMARK    2  A    between atoms: C2_2  and  N3_13 
REMARK    3  A    between atoms: C3_3  and  C4_4 
REMARK    4  A    between atoms: C4_4  and  O1_5 
REMARK    5  A    between atoms: O1_5  and  C5_6 
ROOT
HETATM    1  O1  UNL     1      55.134  -3.752 -56.353  1.00  0.00    -0.322 OA
ENDROOT
BRANCH   1   2
HETATM    2  C4  UNL     1      54.493  -4.502 -55.384  1.00  0.00     0.181 C 
BRANCH   2   3
HETATM    3  C3  UNL     1      54.610  -3.938 -53.992  1.00  0.00     0.062 C 
BRANCH   3   4
HETATM    4  C2  UNL     1      53.279  -4.113 -53.285  1.00  0.00     0.220 C 
HETATM    5  C1  UNL     1      52.730  -5.496 -53.412  1.00  0.00     0.043 C 
BRANCH   4   6
HETATM    6  N3  UNL     1      53.317  -3.649 -51.921  1.00  0.00     0.084 N 
HETATM    7  C9  UNL     1      52.747  -4.700 -51.086  1.00  0.00     0.309 C 
HETATM    8  C10 UNL     1      54.639  -3.365 -51.452  1.00  0.00     0.309 C 
ENDBRANCH   4   6
ENDBRANCH   3   4
ENDBRANCH   2   3
ENDBRANCH   1   2
BRANCH   1   9
HETATM    9  C5  UNL     1      56.257  -4.093 -57.051  1.00  0.00     0.225 A 
HETATM   10  N1  UNL     1      56.289  -4.700 -58.251  1.00  0.00    -0.331 N 
HETATM   11  C6  UNL     1      57.567  -4.885 -58.644  1.00  0.00     0.109 A 
ATOM     12  H1  UNL     1      55.467  -4.980 -58.786  1.00  0.00     0.168 HD
HETATM   13  C7  UNL     1      58.369  -4.369 -57.642  1.00  0.00     0.111 A 
HETATM   14  N2  UNL     1      57.525  -3.897 -56.691  1.00  0.00    -0.326 N 
HETATM   15  C8  UNL     1      57.989  -3.276 -55.475  1.00  0.00     0.159 C 
ENDBRANCH   1   9
TORSDOF 5
ENDMDL
