MODEL 3
REMARK VINA RESULT: -5.987879361      1.387      2.419
REMARK  5 active torsions:
REMARK  status: ('A' for Active; 'I' for Inactive)
REMARK    1  A    between atoms: C2_2  and  C3_3 
REMARK    2  A    between atoms: C2_2  and  N3_13 
REMARK    3  A    between atoms: C3_3  and  C4_4 
REMARK    4  A    between atoms: C4_4  and  O1_5 
REMARK    5  A    between atoms: O1_5  and  C5_6 
ROOT
HETATM    1  O1  UNL     1      54.469  -5.309 -54.857  1.00  0.00    -0.322 OA
ENDROOT
BRANCH   1   2
HETATM    2  C4  UNL     1      54.804  -4.526 -55.947  1.00  0.00     0.181 C 
BRANCH   2   3
HETATM    3  C3  UNL     1      56.157  -4.835 -56.534  1.00  0.00     0.062 C 
BRANCH   3   4
HETATM    4  C2  UNL     1      56.993  -3.569 -56.517  1.00  0.00     0.220 C 
HETATM    5  C1  UNL     1      58.070  -3.597 -55.482  1.00  0.00     0.043 C 
BRANCH   4   6
HETATM    6  N3  UNL     1      57.483  -3.219 -57.825  1.00  0.00     0.084 N 
HETATM    7  C9  UNL     1      57.963  -4.444 -58.456  1.00  0.00     0.309 C 
HETATM    8  C10 UNL     1      56.487  -2.634 -58.671  1.00  0.00     0.309 C 
ENDBRANCH   4   6
ENDBRANCH   3   4
ENDBRANCH   2   3
ENDBRANCH   1   2
BRANCH   1   9
HETATM    9  C5  UNL     1      53.800  -4.915 -53.733  1.00  0.00     0.225 A 
HETATM   10  N1  UNL     1      52.587  -5.346 -53.343  1.00  0.00    -0.331 N 
HETATM   11  C6  UNL     1      52.232  -4.748 -52.186  1.00  0.00     0.109 A 
ATOM     12  H1  UNL     1      52.018  -6.026 -53.848  1.00  0.00     0.168 HD
HETATM   13  C7  UNL     1      53.273  -3.905 -51.839  1.00  0.00     0.111 A 
HETATM   14  N2  UNL     1      54.207  -4.042 -52.813  1.00  0.00    -0.326 N 
HETATM   15  C8  UNL     1      55.453  -3.316 -52.805  1.00  0.00     0.159 C 
ENDBRANCH   1   9
TORSDOF 5
ENDMDL
