MODEL 14
REMARK VINA RESULT: -6.458153699      4.814      8.508
REMARK  8 active torsions:
REMARK  status: ('A' for Active; 'I' for Inactive)
REMARK    1  A    between atoms: O1_2  and  C2_3 
REMARK    2  A    between atoms: C3_5  and  C4_6 
REMARK    3  A    between atoms: C4_6  and  N1_7 
REMARK    4  A    between atoms: N1_7  and  S1_9 
REMARK    5  A    between atoms: S1_9  and  C5_12 
REMARK    6  A    between atoms: C14_21  and  O5_22 
REMARK    7  A    between atoms: C15_24  and  O6_25 
REMARK    8  A    between atoms: C16_27  and  O7_28 
ROOT
HETATM    1  C4  UNL     1      -9.140  18.158  21.693  1.00  0.00     0.167 C 
ENDROOT
BRANCH   1   2
HETATM    2  C3  UNL     1      -7.670  18.339  21.847  1.00  0.00     0.174 C 
HETATM    3  O2  UNL     1      -7.429  18.928  23.083  1.00  0.00    -0.349 OA
HETATM    4  C2  UNL     1      -6.207  18.612  23.622  1.00  0.00     0.290 C 
HETATM    5  C16 UNL     1      -5.192  18.419  22.546  1.00  0.00     0.204 C 
HETATM    6  C15 UNL     1      -5.482  17.102  21.858  1.00  0.00     0.183 C 
HETATM    7  C14 UNL     1      -6.987  17.005  21.703  1.00  0.00     0.180 C 
BRANCH   4   8
HETATM    8  O1  UNL     1      -5.828  19.551  24.572  1.00  0.00    -0.363 OA
HETATM    9  C1  UNL     1      -6.598  20.706  24.519  1.00  0.00     0.204 C 
ENDBRANCH   4   8
BRANCH   5  10
HETATM   10  O7  UNL     1      -3.889  18.420  23.036  1.00  0.00    -0.388 OA
ATOM     11  H7  UNL     1      -3.632  19.267  23.381  1.00  0.00     0.210 HD
ENDBRANCH   5  10
BRANCH   6  12
HETATM   12  O6  UNL     1      -5.105  16.025  22.684  1.00  0.00    -0.390 OA
ATOM     13  H6  UNL     1      -5.551  16.161  23.512  1.00  0.00     0.210 HD
ENDBRANCH   6  12
BRANCH   7  14
HETATM   14  O5  UNL     1      -7.289  16.538  20.410  1.00  0.00    -0.390 OA
ATOM     15  H5  UNL     1      -7.662  15.671  20.516  1.00  0.00     0.210 HD
ENDBRANCH   7  14
ENDBRANCH   1   2
BRANCH   1  16
HETATM   16  N1  UNL     1      -9.736  17.271  22.620  1.00  0.00    -0.313 N 
ATOM     17  H1  UNL     1      -9.284  16.404  22.910  1.00  0.00     0.172 HD
BRANCH  16  18
HETATM   18  S1  UNL     1     -11.274  17.749  23.227  1.00  0.00     0.259 S 
HETATM   19  O3  UNL     1     -12.376  17.382  22.255  1.00  0.00    -0.200 OA
HETATM   20  O4  UNL     1     -11.254  19.279  23.172  1.00  0.00    -0.200 OA
BRANCH  18  21
HETATM   21  C5  UNL     1     -11.589  17.259  24.844  1.00  0.00     0.091 A 
HETATM   22  C6  UNL     1     -11.028  17.997  25.898  1.00  0.00    -0.038 A 
HETATM   23  C7  UNL     1     -10.174  19.167  25.569  1.00  0.00     0.050 C 
HETATM   24  C8  UNL     1     -11.285  17.616  27.200  1.00  0.00     0.015 A 
HETATM   25  C9  UNL     1     -12.083  16.522  27.466  1.00  0.00    -0.061 A 
HETATM   26  C10 UNL     1     -12.343  16.136  28.876  1.00  0.00     0.048 C 
HETATM   27  C11 UNL     1     -12.628  15.806  26.422  1.00  0.00     0.015 A 
HETATM   28  C12 UNL     1     -12.382  16.173  25.093  1.00  0.00    -0.038 A 
HETATM   29  C13 UNL     1     -12.991  15.403  24.027  1.00  0.00     0.050 C 
ENDBRANCH  18  21
ENDBRANCH  16  18
ENDBRANCH   1  16
TORSDOF 8
ENDMDL
