MODEL 13
REMARK VINA RESULT: -6.476278881      4.791      8.537
REMARK  8 active torsions:
REMARK  status: ('A' for Active; 'I' for Inactive)
REMARK    1  A    between atoms: O1_2  and  C2_3 
REMARK    2  A    between atoms: C3_5  and  C4_6 
REMARK    3  A    between atoms: C4_6  and  N1_7 
REMARK    4  A    between atoms: N1_7  and  S1_9 
REMARK    5  A    between atoms: S1_9  and  C5_12 
REMARK    6  A    between atoms: C14_21  and  O5_22 
REMARK    7  A    between atoms: C15_24  and  O6_25 
REMARK    8  A    between atoms: C16_27  and  O7_28 
ROOT
HETATM    1  C4  UNL     1      -9.111  18.164  21.712  1.00  0.00     0.167 C 
ENDROOT
BRANCH   1   2
HETATM    2  C3  UNL     1      -7.641  18.345  21.866  1.00  0.00     0.174 C 
HETATM    3  O2  UNL     1      -7.401  18.940  23.100  1.00  0.00    -0.349 OA
HETATM    4  C2  UNL     1      -6.179  18.627  23.642  1.00  0.00     0.290 C 
HETATM    5  C16 UNL     1      -5.163  18.428  22.568  1.00  0.00     0.204 C 
HETATM    6  C15 UNL     1      -5.453  17.108  21.886  1.00  0.00     0.183 C 
HETATM    7  C14 UNL     1      -6.958  17.010  21.730  1.00  0.00     0.180 C 
BRANCH   4   8
HETATM    8  O1  UNL     1      -5.802  19.570  24.588  1.00  0.00    -0.363 OA
HETATM    9  C1  UNL     1      -6.591  20.713  24.548  1.00  0.00     0.204 C 
ENDBRANCH   4   8
BRANCH   5  10
HETATM   10  O7  UNL     1      -3.861  18.431  23.060  1.00  0.00    -0.388 OA
ATOM     11  H7  UNL     1      -3.715  17.748  23.704  1.00  0.00     0.210 HD
ENDBRANCH   5  10
BRANCH   6  12
HETATM   12  O6  UNL     1      -5.078  16.035  22.718  1.00  0.00    -0.390 OA
ATOM     13  H6  UNL     1      -4.137  15.943  22.621  1.00  0.00     0.210 HD
ENDBRANCH   6  12
BRANCH   7  14
HETATM   14  O5  UNL     1      -7.258  16.537  20.439  1.00  0.00    -0.390 OA
ATOM     15  H5  UNL     1      -8.189  16.346  20.431  1.00  0.00     0.210 HD
ENDBRANCH   7  14
ENDBRANCH   1   2
BRANCH   1  16
HETATM   16  N1  UNL     1      -9.709  17.288  22.647  1.00  0.00    -0.313 N 
ATOM     17  H1  UNL     1      -9.263  16.420  22.941  1.00  0.00     0.172 HD
BRANCH  16  18
HETATM   18  S1  UNL     1     -11.240  17.782  23.257  1.00  0.00     0.259 S 
HETATM   19  O3  UNL     1     -12.354  17.376  22.315  1.00  0.00    -0.200 OA
HETATM   20  O4  UNL     1     -11.228  19.309  23.147  1.00  0.00    -0.200 OA
BRANCH  18  21
HETATM   21  C5  UNL     1     -11.532  17.350  24.896  1.00  0.00     0.091 A 
HETATM   22  C6  UNL     1     -12.277  16.193  25.170  1.00  0.00    -0.038 A 
HETATM   23  C7  UNL     1     -12.794  15.395  24.029  1.00  0.00     0.050 C 
HETATM   24  C8  UNL     1     -12.506  15.834  26.483  1.00  0.00     0.015 A 
HETATM   25  C9  UNL     1     -12.010  16.601  27.517  1.00  0.00    -0.061 A 
HETATM   26  C10 UNL     1     -12.271  16.191  28.919  1.00  0.00     0.048 C 
HETATM   27  C11 UNL     1     -11.279  17.735  27.234  1.00  0.00     0.015 A 
HETATM   28  C12 UNL     1     -11.033  18.120  25.910  1.00  0.00    -0.038 A 
HETATM   29  C13 UNL     1     -10.244  19.309  25.659  1.00  0.00     0.050 C 
ENDBRANCH  18  21
ENDBRANCH  16  18
ENDBRANCH   1  16
TORSDOF 8
ENDMDL
