MODEL 1
REMARK VINA RESULT: -6.834530573      0.000      0.000
REMARK  8 active torsions:
REMARK  status: ('A' for Active; 'I' for Inactive)
REMARK    1  A    between atoms: O1_2  and  C2_3 
REMARK    2  A    between atoms: C3_5  and  C4_6 
REMARK    3  A    between atoms: C4_6  and  N1_7 
REMARK    4  A    between atoms: N1_7  and  S1_9 
REMARK    5  A    between atoms: S1_9  and  C5_12 
REMARK    6  A    between atoms: C14_21  and  O5_22 
REMARK    7  A    between atoms: C15_24  and  O6_25 
REMARK    8  A    between atoms: C16_27  and  O7_28 
ROOT
HETATM    1  C4  UNL     1      -5.684  19.851  24.094  1.00  0.00     0.167 C 
ENDROOT
BRANCH   1   2
HETATM    2  C3  UNL     1      -6.314  18.806  23.240  1.00  0.00     0.174 C 
HETATM    3  O2  UNL     1      -6.957  19.438  22.180  1.00  0.00    -0.349 OA
HETATM    4  C2  UNL     1      -7.041  18.672  21.044  1.00  0.00     0.290 C 
HETATM    5  C16 UNL     1      -7.166  17.227  21.392  1.00  0.00     0.204 C 
HETATM    6  C15 UNL     1      -5.820  16.745  21.889  1.00  0.00     0.183 C 
HETATM    7  C14 UNL     1      -5.259  17.839  22.777  1.00  0.00     0.180 C 
BRANCH   4   8
HETATM    8  O1  UNL     1      -8.057  19.128  20.215  1.00  0.00    -0.363 OA
HETATM    9  C1  UNL     1      -7.934  20.478  19.911  1.00  0.00     0.204 C 
ENDBRANCH   4   8
BRANCH   5  10
HETATM   10  O7  UNL     1      -7.576  16.453  20.310  1.00  0.00    -0.388 OA
ATOM     11  H7  UNL     1      -8.521  16.402  20.237  1.00  0.00     0.210 HD
ENDBRANCH   5  10
BRANCH   6  12
HETATM   12  O6  UNL     1      -4.919  16.615  20.815  1.00  0.00    -0.390 OA
ATOM     13  H6  UNL     1      -4.222  16.048  21.124  1.00  0.00     0.210 HD
ENDBRANCH   6  12
BRANCH   7  14
HETATM   14  O5  UNL     1      -4.713  17.257  23.937  1.00  0.00    -0.390 OA
ATOM     15  H5  UNL     1      -5.424  17.182  24.563  1.00  0.00     0.210 HD
ENDBRANCH   7  14
ENDBRANCH   1   2
BRANCH   1  16
HETATM   16  N1  UNL     1      -4.367  20.211  23.728  1.00  0.00    -0.313 N 
ATOM     17  H1  UNL     1      -4.124  20.491  22.778  1.00  0.00     0.172 HD
BRANCH  16  18
HETATM   18  S1  UNL     1      -3.198  20.148  24.990  1.00  0.00     0.259 S 
HETATM   19  O3  UNL     1      -3.621  19.172  26.068  1.00  0.00    -0.200 OA
HETATM   20  O4  UNL     1      -3.304  21.507  25.685  1.00  0.00    -0.200 OA
BRANCH  18  21
HETATM   21  C5  UNL     1      -1.579  19.926  24.456  1.00  0.00     0.091 A 
HETATM   22  C6  UNL     1      -0.568  19.747  25.413  1.00  0.00    -0.038 A 
HETATM   23  C7  UNL     1      -0.940  19.767  26.851  1.00  0.00     0.050 C 
HETATM   24  C8  UNL     1       0.733  19.557  24.991  1.00  0.00     0.015 A 
HETATM   25  C9  UNL     1       1.040  19.545  23.646  1.00  0.00    -0.061 A 
HETATM   26  C10 UNL     1       2.448  19.339  23.222  1.00  0.00     0.048 C 
HETATM   27  C11 UNL     1       0.037  19.722  22.717  1.00  0.00     0.015 A 
HETATM   28  C12 UNL     1      -1.290  19.916  23.119  1.00  0.00    -0.038 A 
HETATM   29  C13 UNL     1      -2.314  20.078  22.108  1.00  0.00     0.050 C 
ENDBRANCH  18  21
ENDBRANCH  16  18
ENDBRANCH   1  16
TORSDOF 8
ENDMDL
