MODEL 2
REMARK VINA RESULT: -6.794052779      0.050      1.697
REMARK  8 active torsions:
REMARK  status: ('A' for Active; 'I' for Inactive)
REMARK    1  A    between atoms: O1_2  and  C2_3 
REMARK    2  A    between atoms: C3_5  and  C4_6 
REMARK    3  A    between atoms: C4_6  and  N1_7 
REMARK    4  A    between atoms: N1_7  and  S1_9 
REMARK    5  A    between atoms: S1_9  and  C5_12 
REMARK    6  A    between atoms: C14_21  and  O5_22 
REMARK    7  A    between atoms: C15_24  and  O6_25 
REMARK    8  A    between atoms: C16_27  and  O7_28 
ROOT
HETATM    1  C4  UNL     1      -5.656  19.868  24.092  1.00  0.00     0.167 C 
ENDROOT
BRANCH   1   2
HETATM    2  C3  UNL     1      -6.290  18.829  23.235  1.00  0.00     0.174 C 
HETATM    3  O2  UNL     1      -6.922  19.466  22.172  1.00  0.00    -0.349 OA
HETATM    4  C2  UNL     1      -7.007  18.701  21.035  1.00  0.00     0.290 C 
HETATM    5  C16 UNL     1      -7.147  17.256  21.382  1.00  0.00     0.204 C 
HETATM    6  C15 UNL     1      -5.807  16.763  21.886  1.00  0.00     0.183 C 
HETATM    7  C14 UNL     1      -5.241  17.852  22.777  1.00  0.00     0.180 C 
BRANCH   4   8
HETATM    8  O1  UNL     1      -8.015  19.166  20.201  1.00  0.00    -0.363 OA
HETATM    9  C1  UNL     1      -7.883  20.516  19.905  1.00  0.00     0.204 C 
ENDBRANCH   4   8
BRANCH   5  10
HETATM   10  O7  UNL     1      -7.558  16.486  20.298  1.00  0.00    -0.388 OA
ATOM     11  H7  UNL     1      -8.193  15.825  20.542  1.00  0.00     0.210 HD
ENDBRANCH   5  10
BRANCH   6  12
HETATM   12  O6  UNL     1      -4.902  16.626  20.816  1.00  0.00    -0.390 OA
ATOM     13  H6  UNL     1      -5.258  15.945  20.257  1.00  0.00     0.210 HD
ENDBRANCH   6  12
BRANCH   7  14
HETATM   14  O5  UNL     1      -4.706  17.265  23.940  1.00  0.00    -0.390 OA
ATOM     15  H5  UNL     1      -3.864  16.900  23.695  1.00  0.00     0.210 HD
ENDBRANCH   7  14
ENDBRANCH   1   2
BRANCH   1  16
HETATM   16  N1  UNL     1      -4.328  20.206  23.742  1.00  0.00    -0.313 N 
ATOM     17  H1  UNL     1      -4.066  20.465  22.791  1.00  0.00     0.172 HD
BRANCH  16  18
HETATM   18  S1  UNL     1      -3.181  20.151  25.024  1.00  0.00     0.259 S 
HETATM   19  O3  UNL     1      -3.627  19.190  26.106  1.00  0.00    -0.200 OA
HETATM   20  O4  UNL     1      -3.292  21.519  25.702  1.00  0.00    -0.200 OA
BRANCH  18  21
HETATM   21  C5  UNL     1      -1.555  19.916  24.520  1.00  0.00     0.091 A 
HETATM   22  C6  UNL     1      -1.261  19.932  23.147  1.00  0.00    -0.038 A 
HETATM   23  C7  UNL     1      -2.373  20.141  22.186  1.00  0.00     0.050 C 
HETATM   24  C8  UNL     1       0.045  19.754  22.735  1.00  0.00     0.015 A 
HETATM   25  C9  UNL     1       1.052  19.562  23.659  1.00  0.00    -0.061 A 
HETATM   26  C10 UNL     1       2.447  19.374  23.187  1.00  0.00     0.048 C 
HETATM   27  C11 UNL     1       0.750  19.549  25.004  1.00  0.00     0.015 A 
HETATM   28  C12 UNL     1      -0.567  19.727  25.447  1.00  0.00    -0.038 A 
HETATM   29  C13 UNL     1      -0.835  19.725  26.870  1.00  0.00     0.050 C 
ENDBRANCH  18  21
ENDBRANCH  16  18
ENDBRANCH   1  16
TORSDOF 8
ENDMDL
