MODEL 8
REMARK VINA RESULT: -6.620023373      1.445      1.929
REMARK  8 active torsions:
REMARK  status: ('A' for Active; 'I' for Inactive)
REMARK    1  A    between atoms: O1_2  and  C2_3 
REMARK    2  A    between atoms: C3_5  and  C4_6 
REMARK    3  A    between atoms: C4_6  and  N1_7 
REMARK    4  A    between atoms: N1_7  and  S1_9 
REMARK    5  A    between atoms: S1_9  and  C5_12 
REMARK    6  A    between atoms: C14_21  and  O5_22 
REMARK    7  A    between atoms: C15_24  and  O6_25 
REMARK    8  A    between atoms: C16_27  and  O7_28 
ROOT
HETATM    1  C4  UNL     1      -5.642  20.247  23.606  1.00  0.00     0.167 C 
ENDROOT
BRANCH   1   2
HETATM    2  C3  UNL     1      -6.265  19.076  22.930  1.00  0.00     0.174 C 
HETATM    3  O2  UNL     1      -7.011  19.540  21.852  1.00  0.00    -0.349 OA
HETATM    4  C2  UNL     1      -7.125  18.637  20.824  1.00  0.00     0.290 C 
HETATM    5  C16 UNL     1      -7.144  17.241  21.349  1.00  0.00     0.204 C 
HETATM    6  C15 UNL     1      -5.742  16.891  21.802  1.00  0.00     0.183 C 
HETATM    7  C14 UNL     1      -5.188  18.112  22.510  1.00  0.00     0.180 C 
BRANCH   4   8
HETATM    8  O1  UNL     1      -8.218  18.937  20.022  1.00  0.00    -0.363 OA
HETATM    9  C1  UNL     1      -9.061  19.879  20.597  1.00  0.00     0.204 C 
ENDBRANCH   4   8
BRANCH   5  10
HETATM   10  O7  UNL     1      -7.577  16.320  20.399  1.00  0.00    -0.388 OA
ATOM     11  H7  UNL     1      -8.496  16.102  20.499  1.00  0.00     0.210 HD
ENDBRANCH   5  10
BRANCH   6  12
HETATM   12  O6  UNL     1      -4.907  16.676  20.688  1.00  0.00    -0.390 OA
ATOM     13  H6  UNL     1      -5.487  16.522  19.951  1.00  0.00     0.210 HD
ENDBRANCH   6  12
BRANCH   7  14
HETATM   14  O5  UNL     1      -4.533  17.705  23.689  1.00  0.00    -0.390 OA
ATOM     15  H5  UNL     1      -3.617  17.929  23.580  1.00  0.00     0.210 HD
ENDBRANCH   7  14
ENDBRANCH   1   2
BRANCH   1  16
HETATM   16  N1  UNL     1      -5.392  20.080  24.988  1.00  0.00    -0.313 N 
ATOM     17  H1  UNL     1      -5.857  19.359  25.541  1.00  0.00     0.172 HD
BRANCH  16  18
HETATM   18  S1  UNL     1      -4.254  21.170  25.678  1.00  0.00     0.259 S 
HETATM   19  O3  UNL     1      -4.862  21.920  26.844  1.00  0.00    -0.200 OA
HETATM   20  O4  UNL     1      -4.069  22.259  24.618  1.00  0.00    -0.200 OA
BRANCH  18  21
HETATM   21  C5  UNL     1      -2.720  20.477  26.029  1.00  0.00     0.091 A 
HETATM   22  C6  UNL     1      -2.409  20.156  27.360  1.00  0.00    -0.038 A 
HETATM   23  C7  UNL     1      -3.417  20.441  28.412  1.00  0.00     0.050 C 
HETATM   24  C8  UNL     1      -1.183  19.589  27.648  1.00  0.00     0.015 A 
HETATM   25  C9  UNL     1      -0.272  19.340  26.643  1.00  0.00    -0.061 A 
HETATM   26  C10 UNL     1       1.038  18.729  26.982  1.00  0.00     0.048 C 
HETATM   27  C11 UNL     1      -0.590  19.659  25.340  1.00  0.00     0.015 A 
HETATM   28  C12 UNL     1      -1.827  20.234  25.022  1.00  0.00    -0.038 A 
HETATM   29  C13 UNL     1      -2.126  20.535  23.637  1.00  0.00     0.050 C 
ENDBRANCH  18  21
ENDBRANCH  16  18
ENDBRANCH   1  16
TORSDOF 8
ENDMDL
