MODEL 3
REMARK VINA RESULT: -8.374288714      1.359      1.531
REMARK  7 active torsions:
REMARK  status: ('A' for Active; 'I' for Inactive)
REMARK    1  A    between atoms: C3_5  and  C4_6 
REMARK    2  A    between atoms: C4_6  and  C5_7 
REMARK    3  A    between atoms: C10_12  and  O2_13 
REMARK    4  A    between atoms: O2_13  and  C11_14 
REMARK    5  A    between atoms: C11_14  and  C12_15 
REMARK    6  A    between atoms: N2_20  and  C14_22 
REMARK    7  A    between atoms: C18_26  and  C19_27 
ROOT
HETATM    1  C1  UNL     1     -20.013   7.859  -5.778  1.00  0.00     0.161 C 
HETATM    2  N1  UNL     1     -19.653   8.803  -4.699  1.00  0.00    -0.298 N 
HETATM    3  C2  UNL     1     -19.746  10.196  -4.851  1.00  0.00     0.266 C 
HETATM    4  O1  UNL     1     -20.146  10.775  -5.927  1.00  0.00    -0.266 OA
HETATM    5  C3  UNL     1     -19.362  10.982  -3.709  1.00  0.00     0.077 C 
HETATM    6  S1  UNL     1     -18.283   9.814  -2.808  1.00  0.00    -0.048 SA
HETATM    7  C13 UNL     1     -19.193   8.360  -3.446  1.00  0.00     0.154 C 
HETATM    8  N2  UNL     1     -19.311   7.302  -2.781  1.00  0.00    -0.336 N 
ATOM      9  H2  UNL     1     -18.856   7.253  -1.870  1.00  0.00     0.168 HD
ENDROOT
BRANCH   5  10
HETATM   10  C4  UNL     1     -19.639  12.185  -3.297  1.00  0.00     0.038 C 
BRANCH  10  11
HETATM   11  C5  UNL     1     -19.158  12.767  -2.053  1.00  0.00    -0.001 A 
HETATM   12  C6  UNL     1     -19.900  12.718  -0.903  1.00  0.00     0.014 A 
HETATM   13  C7  UNL     1     -19.500  13.267   0.297  1.00  0.00     0.001 A 
HETATM   14  C8  UNL     1     -18.291  13.904   0.362  1.00  0.00     0.003 A 
HETATM   15  C9  UNL     1     -17.518  13.966  -0.799  1.00  0.00     0.037 A 
HETATM   16  C10 UNL     1     -17.917  13.418  -1.998  1.00  0.00     0.079 A 
BRANCH  16  17
HETATM   17  O2  UNL     1     -17.203  13.451  -3.162  1.00  0.00    -0.340 OA
BRANCH  17  18
HETATM   18  C11 UNL     1     -15.909  12.949  -3.291  1.00  0.00     0.288 C 
BRANCH  18  19
HETATM   19  C12 UNL     1     -15.068  13.662  -4.282  1.00  0.00     0.198 C 
HETATM   20  O3  UNL     1     -15.212  14.905  -4.506  1.00  0.00    -0.646 OA
HETATM   21  O4  UNL     1     -14.090  13.003  -5.007  1.00  0.00    -0.646 OA
ENDBRANCH  18  19
ENDBRANCH  17  18
ENDBRANCH  16  17
ENDBRANCH  10  11
ENDBRANCH   5  10
BRANCH   8  22
HETATM   22  C14 UNL     1     -20.036   6.179  -3.222  1.00  0.00     0.035 A 
HETATM   23  C15 UNL     1     -21.366   5.941  -2.971  1.00  0.00     0.029 A 
HETATM   24  C16 UNL     1     -21.990   4.817  -3.462  1.00  0.00     0.003 A 
HETATM   25  C17 UNL     1     -21.330   3.877  -4.222  1.00  0.00     0.018 A 
HETATM   26  C18 UNL     1     -19.999   4.090  -4.489  1.00  0.00     0.043 A 
HETATM   27  C20 UNL     1     -19.381   5.219  -3.994  1.00  0.00     0.048 A 
BRANCH  26  28
HETATM   28  C19 UNL     1     -19.222   3.155  -5.286  1.00  0.00     0.209 C 
HETATM   29  O5  UNL     1     -18.801   3.466  -6.426  1.00  0.00    -0.644 OA
HETATM   30  O6  UNL     1     -18.957   1.906  -4.747  1.00  0.00    -0.644 OA
ENDBRANCH  26  28
ENDBRANCH   8  22
TORSDOF 7
ENDMDL
