MODEL 1
REMARK VINA RESULT: -8.585912439      0.000      0.000
REMARK  7 active torsions:
REMARK  status: ('A' for Active; 'I' for Inactive)
REMARK    1  A    between atoms: C3_5  and  C4_6 
REMARK    2  A    between atoms: C4_6  and  C5_7 
REMARK    3  A    between atoms: C10_12  and  O2_13 
REMARK    4  A    between atoms: O2_13  and  C11_14 
REMARK    5  A    between atoms: C11_14  and  C12_15 
REMARK    6  A    between atoms: N2_20  and  C14_22 
REMARK    7  A    between atoms: C18_26  and  C19_27 
ROOT
HETATM    1  C1  UNL     1     -20.037   8.082  -5.155  1.00  0.00     0.161 C 
HETATM    2  N1  UNL     1     -19.660   8.783  -3.910  1.00  0.00    -0.298 N 
HETATM    3  C2  UNL     1     -19.727  10.180  -3.779  1.00  0.00     0.266 C 
HETATM    4  O1  UNL     1     -20.114  10.971  -4.714  1.00  0.00    -0.266 OA
HETATM    5  C3  UNL     1     -19.329  10.712  -2.503  1.00  0.00     0.077 C 
HETATM    6  S1  UNL     1     -18.274   9.367  -1.858  1.00  0.00    -0.048 SA
HETATM    7  C13 UNL     1     -19.211   8.088  -2.772  1.00  0.00     0.154 C 
HETATM    8  N2  UNL     1     -19.350   6.921  -2.333  1.00  0.00    -0.336 N 
ATOM      9  H2  UNL     1     -18.896   6.681  -1.451  1.00  0.00     0.168 HD
ENDROOT
BRANCH   5  10
HETATM   10  C4  UNL     1     -19.583  11.813  -1.857  1.00  0.00     0.038 C 
BRANCH  10  11
HETATM   11  C5  UNL     1     -18.597  12.588  -1.118  1.00  0.00    -0.001 A 
HETATM   12  C6  UNL     1     -18.238  12.258   0.162  1.00  0.00     0.014 A 
HETATM   13  C7  UNL     1     -17.322  12.967   0.912  1.00  0.00     0.001 A 
HETATM   14  C8  UNL     1     -16.727  14.068   0.361  1.00  0.00     0.003 A 
HETATM   15  C9  UNL     1     -17.079  14.423  -0.942  1.00  0.00     0.037 A 
HETATM   16  C10 UNL     1     -17.993  13.716  -1.692  1.00  0.00     0.079 A 
BRANCH  16  17
HETATM   17  O2  UNL     1     -18.375  14.018  -2.968  1.00  0.00    -0.340 OA
BRANCH  17  18
HETATM   18  C11 UNL     1     -17.478  14.265  -4.007  1.00  0.00     0.288 C 
BRANCH  18  19
HETATM   19  C12 UNL     1     -17.450  15.670  -4.477  1.00  0.00     0.198 C 
HETATM   20  O3  UNL     1     -17.873  16.624  -3.750  1.00  0.00    -0.646 OA
HETATM   21  O4  UNL     1     -16.963  16.005  -5.728  1.00  0.00    -0.646 OA
ENDBRANCH  18  19
ENDBRANCH  17  18
ENDBRANCH  16  17
ENDBRANCH  10  11
ENDBRANCH   5  10
BRANCH   8  22
HETATM   22  C14 UNL     1     -20.096   5.924  -2.988  1.00  0.00     0.035 A 
HETATM   23  C15 UNL     1     -21.461   5.779  -2.924  1.00  0.00     0.029 A 
HETATM   24  C16 UNL     1     -22.101   4.777  -3.617  1.00  0.00     0.003 A 
HETATM   25  C17 UNL     1     -21.423   3.873  -4.404  1.00  0.00     0.018 A 
HETATM   26  C18 UNL     1     -20.058   3.995  -4.487  1.00  0.00     0.043 A 
HETATM   27  C20 UNL     1     -19.423   5.002  -3.790  1.00  0.00     0.048 A 
BRANCH  26  28
HETATM   28  C19 UNL     1     -19.259   3.088  -5.296  1.00  0.00     0.209 C 
HETATM   29  O5  UNL     1     -18.840   3.427  -6.429  1.00  0.00    -0.644 OA
HETATM   30  O6  UNL     1     -18.972   1.836  -4.778  1.00  0.00    -0.644 OA
ENDBRANCH  26  28
ENDBRANCH   8  22
TORSDOF 7
ENDMDL
