MODEL 2
REMARK VINA RESULT: -8.567216921      1.630      2.904
REMARK  7 active torsions:
REMARK  status: ('A' for Active; 'I' for Inactive)
REMARK    1  A    between atoms: C3_5  and  C4_6 
REMARK    2  A    between atoms: C4_6  and  C5_7 
REMARK    3  A    between atoms: C10_12  and  O2_13 
REMARK    4  A    between atoms: O2_13  and  C11_14 
REMARK    5  A    between atoms: C11_14  and  C12_15 
REMARK    6  A    between atoms: N2_20  and  C14_22 
REMARK    7  A    between atoms: C18_26  and  C19_27 
ROOT
HETATM    1  C1  UNL     1     -20.051   8.079  -5.370  1.00  0.00     0.161 C 
HETATM    2  N1  UNL     1     -19.576   8.848  -4.199  1.00  0.00    -0.298 N 
HETATM    3  C2  UNL     1     -19.646  10.249  -4.137  1.00  0.00     0.266 C 
HETATM    4  O1  UNL     1     -20.119  10.987  -5.077  1.00  0.00    -0.266 OA
HETATM    5  C3  UNL     1     -19.146  10.852  -2.930  1.00  0.00     0.077 C 
HETATM    6  S1  UNL     1     -18.027   9.549  -2.307  1.00  0.00    -0.048 SA
HETATM    7  C13 UNL     1     -19.025   8.218  -3.069  1.00  0.00     0.154 C 
HETATM    8  N2  UNL     1     -19.115   7.075  -2.559  1.00  0.00    -0.336 N 
ATOM      9  H2  UNL     1     -18.586   6.885  -1.708  1.00  0.00     0.168 HD
ENDROOT
BRANCH   5  10
HETATM   10  C4  UNL     1     -19.356  11.985  -2.324  1.00  0.00     0.038 C 
BRANCH  10  11
HETATM   11  C5  UNL     1     -18.541  13.179  -2.493  1.00  0.00    -0.001 A 
HETATM   12  C6  UNL     1     -18.148  13.610  -3.733  1.00  0.00     0.014 A 
HETATM   13  C7  UNL     1     -17.363  14.723  -3.948  1.00  0.00     0.001 A 
HETATM   14  C8  UNL     1     -16.940  15.453  -2.871  1.00  0.00     0.003 A 
HETATM   15  C9  UNL     1     -17.327  15.030  -1.599  1.00  0.00     0.037 A 
HETATM   16  C10 UNL     1     -18.112  13.919  -1.382  1.00  0.00     0.079 A 
BRANCH  16  17
HETATM   17  O2  UNL     1     -18.519  13.460  -0.161  1.00  0.00    -0.340 OA
BRANCH  17  18
HETATM   18  C11 UNL     1     -17.642  13.090   0.858  1.00  0.00     0.288 C 
BRANCH  18  19
HETATM   19  C12 UNL     1     -16.904  11.829   0.609  1.00  0.00     0.198 C 
HETATM   20  O3  UNL     1     -17.365  10.703   0.981  1.00  0.00    -0.646 OA
HETATM   21  O4  UNL     1     -15.681  11.822  -0.038  1.00  0.00    -0.646 OA
ENDBRANCH  18  19
ENDBRANCH  17  18
ENDBRANCH  16  17
ENDBRANCH  10  11
ENDBRANCH   5  10
BRANCH   8  22
HETATM   22  C14 UNL     1     -19.903   6.040  -3.095  1.00  0.00     0.035 A 
HETATM   23  C15 UNL     1     -21.258   5.895  -2.913  1.00  0.00     0.029 A 
HETATM   24  C16 UNL     1     -21.944   4.853  -3.494  1.00  0.00     0.003 A 
HETATM   25  C17 UNL     1     -21.325   3.908  -4.281  1.00  0.00     0.018 A 
HETATM   26  C18 UNL     1     -19.971   4.029  -4.480  1.00  0.00     0.043 A 
HETATM   27  C20 UNL     1     -19.290   5.075  -3.894  1.00  0.00     0.048 A 
BRANCH  26  28
HETATM   28  C19 UNL     1     -19.233   3.080  -5.298  1.00  0.00     0.209 C 
HETATM   29  O5  UNL     1     -18.837   3.385  -6.449  1.00  0.00    -0.644 OA
HETATM   30  O6  UNL     1     -18.978   1.825  -4.768  1.00  0.00    -0.644 OA
ENDBRANCH  26  28
ENDBRANCH   8  22
TORSDOF 7
ENDMDL
