MODEL 2
REMARK VINA RESULT: -7.190080133      3.835      7.880
REMARK  7 active torsions:
REMARK  status: ('A' for Active; 'I' for Inactive)
REMARK    1  A    between atoms: C1_2  and  C2_3 
REMARK       I    between atoms: C1_2  and  N1_9 
REMARK    2  A    between atoms: N1_9  and  O2_10 
REMARK    3  A    between atoms: N1_9  and  C8_12 
REMARK    4  A    between atoms: C8_12  and  C9_13 
REMARK    5  A    between atoms: C9_13  and  C10_14 
REMARK    6  A    between atoms: C10_14  and  C11_15 
REMARK    7  A    between atoms: C10_14  and  P1_23 
ROOT
HETATM    1  C9  UNL     1      18.495  22.819 -14.821  1.00  0.00     0.046 C 
ENDROOT
BRANCH   1   2
HETATM    2  C8  UNL     1      18.615  23.077 -16.292  1.00  0.00     0.161 C 
BRANCH   2   3
HETATM    3  N1  UNL     1      18.621  21.754 -16.940  1.00  0.00    -0.225 N 
HETATM    4  C1  UNL     1      19.032  21.602 -18.266  1.00  0.00     0.277 C 
HETATM    5  O1  UNL     1      19.398  22.670 -18.870  1.00  0.00    -0.265 OA
BRANCH   4   6
HETATM    6  C2  UNL     1      19.066  20.350 -18.964  1.00  0.00     0.034 A 
HETATM    7  C3  UNL     1      18.035  19.730 -19.615  1.00  0.00     0.017 A 
HETATM    8  C4  UNL     1      18.184  18.504 -20.266  1.00  0.00     0.001 A 
HETATM    9  C5  UNL     1      19.380  17.847 -20.290  1.00  0.00     0.000 A 
HETATM   10  C6  UNL     1      20.435  18.451 -19.642  1.00  0.00     0.001 A 
HETATM   11  C7  UNL     1      20.289  19.656 -19.003  1.00  0.00     0.017 A 
ENDBRANCH   4   6
BRANCH   3  12
HETATM   12  O2  UNL     1      18.203  20.757 -16.139  1.00  0.00    -0.285 OA
ATOM     13  H2  UNL     1      17.392  20.757 -15.643  1.00  0.00     0.245 HD
ENDBRANCH   3  12
ENDBRANCH   2   3
ENDBRANCH   1   2
BRANCH   1  14
HETATM   14  C10 UNL     1      19.611  23.516 -14.039  1.00  0.00     0.150 C 
BRANCH  14  15
HETATM   15  C11 UNL     1      19.058  24.043 -12.762  1.00  0.00    -0.039 A 
HETATM   16  C12 UNL     1      19.157  25.406 -12.452  1.00  0.00     0.010 A 
HETATM   17  C13 UNL     1      18.668  25.964 -11.312  1.00  0.00     0.026 A 
HETATM   18  C14 UNL     1      18.034  25.156 -10.395  1.00  0.00     0.055 A 
HETATM   19 CL1  UNL     1      17.409  25.880  -8.930  1.00  0.00    -0.083 Cl
HETATM   20  C15 UNL     1      17.915  23.797 -10.663  1.00  0.00     0.056 A 
HETATM   21 CL2  UNL     1      17.099  22.817  -9.461  1.00  0.00    -0.083 Cl
HETATM   22  C16 UNL     1      18.419  23.273 -11.823  1.00  0.00     0.033 A 
ENDBRANCH  14  15
BRANCH  14  23
HETATM   23  P1  UNL     1      20.949  22.557 -13.888  1.00  0.00     0.268 P 
HETATM   24  O3  UNL     1      21.320  23.182 -12.431  1.00  0.00    -0.639 OA
HETATM   25  O4  UNL     1      21.645  23.188 -15.260  1.00  0.00    -0.639 OA
HETATM   26  O5  UNL     1      20.080  21.151 -13.941  1.00  0.00    -0.639 OA
ENDBRANCH  14  23
ENDBRANCH   1  14
TORSDOF 7
ENDMDL
