MODEL 3
REMARK VINA RESULT: -7.051398613      4.048      7.919
REMARK  7 active torsions:
REMARK  status: ('A' for Active; 'I' for Inactive)
REMARK    1  A    between atoms: C1_2  and  C2_3 
REMARK       I    between atoms: C1_2  and  N1_9 
REMARK    2  A    between atoms: N1_9  and  O2_10 
REMARK    3  A    between atoms: N1_9  and  C8_12 
REMARK    4  A    between atoms: C8_12  and  C9_13 
REMARK    5  A    between atoms: C9_13  and  C10_14 
REMARK    6  A    between atoms: C10_14  and  C11_15 
REMARK    7  A    between atoms: C10_14  and  P1_23 
ROOT
HETATM    1  C9  UNL     1      18.471  22.865 -14.738  1.00  0.00     0.046 C 
ENDROOT
BRANCH   1   2
HETATM    2  C8  UNL     1      18.561  23.131 -16.210  1.00  0.00     0.161 C 
BRANCH   2   3
HETATM    3  N1  UNL     1      18.583  21.810 -16.863  1.00  0.00    -0.225 N 
HETATM    4  C1  UNL     1      18.990  21.669 -18.191  1.00  0.00     0.277 C 
HETATM    5  O1  UNL     1      19.337  22.744 -18.793  1.00  0.00    -0.265 OA
BRANCH   4   6
HETATM    6  C2  UNL     1      19.038  20.421 -18.894  1.00  0.00     0.034 A 
HETATM    7  C3  UNL     1      18.018  19.799 -19.562  1.00  0.00     0.017 A 
HETATM    8  C4  UNL     1      18.181  18.576 -20.216  1.00  0.00     0.001 A 
HETATM    9  C5  UNL     1      19.379  17.924 -20.226  1.00  0.00     0.000 A 
HETATM   10  C6  UNL     1      20.423  18.529 -19.562  1.00  0.00     0.001 A 
HETATM   11  C7  UNL     1      20.263  19.731 -18.919  1.00  0.00     0.017 A 
ENDBRANCH   4   6
BRANCH   3  12
HETATM   12  O2  UNL     1      18.182  20.805 -16.063  1.00  0.00    -0.285 OA
ATOM     13  H2  UNL     1      17.773  20.913 -15.212  1.00  0.00     0.245 HD
ENDBRANCH   3  12
ENDBRANCH   2   3
ENDBRANCH   1   2
BRANCH   1  14
HETATM   14  C10 UNL     1      19.586  23.582 -13.972  1.00  0.00     0.150 C 
BRANCH  14  15
HETATM   15  C11 UNL     1      19.011  24.230 -12.763  1.00  0.00    -0.039 A 
HETATM   16  C12 UNL     1      18.209  23.500 -11.877  1.00  0.00     0.010 A 
HETATM   17  C13 UNL     1      17.656  24.019 -10.746  1.00  0.00     0.026 A 
HETATM   18  C14 UNL     1      17.889  25.341 -10.439  1.00  0.00     0.055 A 
HETATM   19 CL1  UNL     1      17.175  26.002  -8.986  1.00  0.00    -0.083 Cl
HETATM   20  C15 UNL     1      18.680  26.102 -11.293  1.00  0.00     0.056 A 
HETATM   21 CL2  UNL     1      18.943  27.778 -10.852  1.00  0.00    -0.083 Cl
HETATM   22  C16 UNL     1      19.219  25.543 -12.420  1.00  0.00     0.033 A 
ENDBRANCH  14  15
BRANCH  14  23
HETATM   23  P1  UNL     1      20.879  22.590 -13.697  1.00  0.00     0.268 P 
HETATM   24  O3  UNL     1      21.153  23.238 -12.228  1.00  0.00    -0.639 OA
HETATM   25  O4  UNL     1      21.699  23.170 -15.022  1.00  0.00    -0.639 OA
HETATM   26  O5  UNL     1      19.976  21.208 -13.788  1.00  0.00    -0.639 OA
ENDBRANCH  14  23
ENDBRANCH   1  14
TORSDOF 7
ENDMDL
