MODEL 1
REMARK VINA RESULT: -7.269327065      0.000      0.000
REMARK  7 active torsions:
REMARK  status: ('A' for Active; 'I' for Inactive)
REMARK    1  A    between atoms: C1_2  and  C2_3 
REMARK       I    between atoms: C1_2  and  N1_9 
REMARK    2  A    between atoms: N1_9  and  O2_10 
REMARK    3  A    between atoms: N1_9  and  C8_12 
REMARK    4  A    between atoms: C8_12  and  C9_13 
REMARK    5  A    between atoms: C9_13  and  C10_14 
REMARK    6  A    between atoms: C10_14  and  C11_15 
REMARK    7  A    between atoms: C10_14  and  P1_23 
ROOT
HETATM    1  C9  UNL     1      20.913  22.802 -14.790  1.00  0.00     0.046 C 
ENDROOT
BRANCH   1   2
HETATM    2  C8  UNL     1      21.240  22.436 -13.375  1.00  0.00     0.161 C 
BRANCH   2   3
HETATM    3  N1  UNL     1      19.949  22.278 -12.684  1.00  0.00    -0.225 N 
HETATM    4  C1  UNL     1      19.363  23.343 -11.996  1.00  0.00     0.277 C 
HETATM    5  O1  UNL     1      20.011  24.447 -12.006  1.00  0.00    -0.265 OA
BRANCH   4   6
HETATM    6  C2  UNL     1      18.111  23.267 -11.302  1.00  0.00     0.034 A 
HETATM    7  C3  UNL     1      17.836  22.581 -10.150  1.00  0.00     0.017 A 
HETATM    8  C4  UNL     1      16.572  22.579  -9.558  1.00  0.00     0.001 A 
HETATM    9  C5  UNL     1      15.526  23.267 -10.101  1.00  0.00     0.000 A 
HETATM   10  C6  UNL     1      15.777  23.966 -11.261  1.00  0.00     0.001 A 
HETATM   11  C7  UNL     1      17.020  23.969 -11.843  1.00  0.00     0.017 A 
ENDBRANCH   4   6
BRANCH   3  12
HETATM   12  O2  UNL     1      19.427  21.042 -12.791  1.00  0.00    -0.285 OA
ATOM     13  H2  UNL     1      19.631  20.310 -12.221  1.00  0.00     0.245 HD
ENDBRANCH   3  12
ENDBRANCH   2   3
ENDBRANCH   1   2
BRANCH   1  14
HETATM   14  C10 UNL     1      22.060  22.443 -15.739  1.00  0.00     0.150 C 
BRANCH  14  15
HETATM   15  C11 UNL     1      21.580  21.445 -16.732  1.00  0.00    -0.039 A 
HETATM   16  C12 UNL     1      22.298  20.263 -16.958  1.00  0.00     0.010 A 
HETATM   17  C13 UNL     1      21.918  19.299 -17.840  1.00  0.00     0.026 A 
HETATM   18  C14 UNL     1      20.761  19.478 -18.563  1.00  0.00     0.055 A 
HETATM   19 CL1  UNL     1      20.279  18.236 -19.697  1.00  0.00    -0.083 Cl
HETATM   20  C15 UNL     1      20.018  20.638 -18.370  1.00  0.00     0.056 A 
HETATM   21 CL2  UNL     1      18.554  20.813 -19.317  1.00  0.00    -0.083 Cl
HETATM   22  C16 UNL     1      20.432  21.584 -17.472  1.00  0.00     0.033 A 
ENDBRANCH  14  15
BRANCH  14  23
HETATM   23  P1  UNL     1      22.774  23.789 -16.378  1.00  0.00     0.268 P 
HETATM   24  O3  UNL     1      23.654  24.048 -15.033  1.00  0.00    -0.639 OA
HETATM   25  O4  UNL     1      21.315  24.562 -16.574  1.00  0.00    -0.639 OA
HETATM   26  O5  UNL     1      23.474  22.957 -17.625  1.00  0.00    -0.639 OA
ENDBRANCH  14  23
ENDBRANCH   1  14
TORSDOF 7
ENDMDL
