MODEL 1
REMARK VINA RESULT: -7.079001741      0.000      0.000
REMARK  9 active torsions:
REMARK  status: ('A' for Active; 'I' for Inactive)
REMARK    1  A    between atoms: C1_2  and  C2_3 
REMARK       I    between atoms: C1_2  and  N4_17 
REMARK    2  A    between atoms: C7_8  and  C8_9 
REMARK    3  A    between atoms: C8_9  and  N1_10 
REMARK    4  A    between atoms: N4_17  and  O2_18 
REMARK    5  A    between atoms: N4_17  and  C11_20 
REMARK    6  A    between atoms: C11_20  and  C12_21 
REMARK    7  A    between atoms: C12_21  and  C13_22 
REMARK    8  A    between atoms: C13_22  and  C14_23 
REMARK    9  A    between atoms: C13_22  and  P1_31 
ROOT
HETATM    1  O1  UNL     1      38.814  22.444  26.985  1.00  0.00    -0.265 OA
HETATM    2  C1  UNL     1      39.856  23.039  27.365  1.00  0.00     0.277 C 
HETATM    3  N4  UNL     1      41.105  22.396  27.371  1.00  0.00    -0.225 N 
ENDROOT
BRANCH   3   4
HETATM    4  O2  UNL     1      42.189  23.069  27.794  1.00  0.00    -0.285 OA
ATOM      5  H2  UNL     1      43.040  22.858  27.427  1.00  0.00     0.245 HD
ENDBRANCH   3   4
BRANCH   3   6
HETATM    6  C11 UNL     1      41.267  21.003  26.902  1.00  0.00     0.161 C 
BRANCH   6   7
HETATM    7  C12 UNL     1      42.258  20.949  25.809  1.00  0.00     0.046 C 
BRANCH   7   8
HETATM    8  C13 UNL     1      41.746  20.599  24.429  1.00  0.00     0.150 C 
BRANCH   8   9
HETATM    9  C14 UNL     1      40.964  21.756  23.935  1.00  0.00    -0.039 A 
HETATM   10  C15 UNL     1      41.480  23.033  23.917  1.00  0.00     0.010 A 
HETATM   11  C16 UNL     1      40.769  24.141  23.463  1.00  0.00     0.026 A 
HETATM   12  C17 UNL     1      39.480  23.985  22.999  1.00  0.00     0.055 A 
HETATM   13 CL1  UNL     1      38.594  25.394  22.426  1.00  0.00    -0.083 Cl
HETATM   14  C18 UNL     1      38.939  22.730  23.002  1.00  0.00     0.056 A 
HETATM   15 CL2  UNL     1      37.314  22.474  22.427  1.00  0.00    -0.083 Cl
HETATM   16  C19 UNL     1      39.659  21.639  23.458  1.00  0.00     0.033 A 
ENDBRANCH   8   9
BRANCH   8  17
HETATM   17  P1  UNL     1      42.840  19.909  23.421  1.00  0.00     0.268 P 
HETATM   18  O3  UNL     1      42.437  18.380  24.010  1.00  0.00    -0.639 OA
HETATM   19  O4  UNL     1      42.243  20.419  22.051  1.00  0.00    -0.639 OA
HETATM   20  O5  UNL     1      44.120  20.728  24.152  1.00  0.00    -0.639 OA
ENDBRANCH   8  17
ENDBRANCH   7   8
ENDBRANCH   6   7
ENDBRANCH   3   6
BRANCH   2  21
HETATM   21  C2  UNL     1      39.747  24.424  27.797  1.00  0.00     0.042 A 
HETATM   22  C3  UNL     1      39.719  25.387  26.809  1.00  0.00     0.018 A 
HETATM   23  C4  UNL     1      39.618  26.711  27.109  1.00  0.00     0.001 A 
HETATM   24  C5  UNL     1      39.538  27.110  28.421  1.00  0.00     0.001 A 
HETATM   25  C6  UNL     1      39.563  26.169  29.421  1.00  0.00     0.010 A 
HETATM   26  C7  UNL     1      39.670  24.807  29.103  1.00  0.00    -0.023 A 
BRANCH  26  27
HETATM   27  C8  UNL     1      39.695  23.857  30.220  1.00  0.00     0.189 C 
BRANCH  27  28
HETATM   28  N1  UNL     1      38.419  23.558  30.809  1.00  0.00    -0.283 N 
HETATM   29  C9  UNL     1      38.228  23.224  32.114  1.00  0.00     0.201 A 
HETATM   30  N2  UNL     1      36.939  23.018  32.372  1.00  0.00    -0.346 N 
HETATM   31  C10 UNL     1      36.279  23.224  31.209  1.00  0.00     0.198 A 
ATOM     32  H2  UNL     1      36.530  22.756  33.269  1.00  0.00     0.167 HD
HETATM   33  N3  UNL     1      37.208  23.546  30.302  1.00  0.00    -0.293 N 
ATOM     34  H3  UNL     1      36.999  23.758  29.326  1.00  0.00     0.188 HD
ENDBRANCH  27  28
ENDBRANCH  26  27
ENDBRANCH   2  21
TORSDOF 9
ENDMDL
