MODEL 4
REMARK VINA RESULT: -6.829005624      1.497      2.151
REMARK  9 active torsions:
REMARK  status: ('A' for Active; 'I' for Inactive)
REMARK    1  A    between atoms: C1_2  and  C2_3 
REMARK       I    between atoms: C1_2  and  N4_17 
REMARK    2  A    between atoms: C7_8  and  C8_9 
REMARK    3  A    between atoms: C8_9  and  N1_10 
REMARK    4  A    between atoms: N4_17  and  O2_18 
REMARK    5  A    between atoms: N4_17  and  C11_20 
REMARK    6  A    between atoms: C11_20  and  C12_21 
REMARK    7  A    between atoms: C12_21  and  C13_22 
REMARK    8  A    between atoms: C13_22  and  C14_23 
REMARK    9  A    between atoms: C13_22  and  P1_31 
ROOT
HETATM    1  O1  UNL     1      38.606  22.447  26.703  1.00  0.00    -0.265 OA
HETATM    2  C1  UNL     1      39.697  23.065  26.818  1.00  0.00     0.277 C 
HETATM    3  N4  UNL     1      40.902  22.519  26.346  1.00  0.00    -0.225 N 
ENDROOT
BRANCH   3   4
HETATM    4  O2  UNL     1      42.043  23.212  26.498  1.00  0.00    -0.285 OA
ATOM      5  H2  UNL     1      42.018  24.061  26.924  1.00  0.00     0.245 HD
ENDBRANCH   3   4
BRANCH   3   6
HETATM    6  C11 UNL     1      40.948  21.206  25.665  1.00  0.00     0.161 C 
BRANCH   6   7
HETATM    7  C12 UNL     1      41.056  21.398  24.206  1.00  0.00     0.046 C 
BRANCH   7   8
HETATM    8  C13 UNL     1      39.770  21.371  23.408  1.00  0.00     0.150 C 
BRANCH   8   9
HETATM    9  C14 UNL     1      39.358  22.774  23.178  1.00  0.00    -0.039 A 
HETATM   10  C15 UNL     1      38.035  23.136  23.047  1.00  0.00     0.010 A 
HETATM   11  C16 UNL     1      37.616  24.445  22.826  1.00  0.00     0.026 A 
HETATM   12  C17 UNL     1      38.549  25.457  22.729  1.00  0.00     0.055 A 
HETATM   13 CL1  UNL     1      38.004  27.107  22.451  1.00  0.00    -0.083 Cl
HETATM   14  C18 UNL     1      39.870  25.131  22.855  1.00  0.00     0.056 A 
HETATM   15 CL2  UNL     1      41.092  26.369  22.741  1.00  0.00    -0.083 Cl
HETATM   16  C19 UNL     1      40.270  23.824  23.074  1.00  0.00     0.033 A 
ENDBRANCH   8   9
BRANCH   8  17
HETATM   17  P1  UNL     1      39.745  20.332  22.140  1.00  0.00     0.268 P 
HETATM   18  O3  UNL     1      38.320  19.638  22.720  1.00  0.00    -0.639 OA
HETATM   19  O4  UNL     1      39.696  21.396  20.974  1.00  0.00    -0.639 OA
HETATM   20  O5  UNL     1      41.211  19.638  22.600  1.00  0.00    -0.639 OA
ENDBRANCH   8  17
ENDBRANCH   7   8
ENDBRANCH   6   7
ENDBRANCH   3   6
BRANCH   2  21
HETATM   21  C2  UNL     1      39.689  24.377  27.446  1.00  0.00     0.042 A 
HETATM   22  C3  UNL     1      39.711  25.473  26.608  1.00  0.00     0.018 A 
HETATM   23  C4  UNL     1      39.704  26.744  27.097  1.00  0.00     0.001 A 
HETATM   24  C5  UNL     1      39.673  26.953  28.454  1.00  0.00     0.001 A 
HETATM   25  C6  UNL     1      39.651  25.878  29.308  1.00  0.00     0.010 A 
HETATM   26  C7  UNL     1      39.660  24.572  28.795  1.00  0.00    -0.023 A 
BRANCH  26  27
HETATM   27  C8  UNL     1      39.639  23.471  29.763  1.00  0.00     0.189 C 
BRANCH  27  28
HETATM   28  N1  UNL     1      38.467  23.394  30.591  1.00  0.00    -0.283 N 
HETATM   29  C9  UNL     1      38.480  23.374  31.952  1.00  0.00     0.201 A 
HETATM   30  N2  UNL     1      37.244  23.314  32.442  1.00  0.00    -0.346 N 
HETATM   31  C10 UNL     1      36.411  23.296  31.375  1.00  0.00     0.198 A 
ATOM     32  H2  UNL     1      36.978  23.287  33.426  1.00  0.00     0.167 HD
HETATM   33  N3  UNL     1      37.190  23.347  30.289  1.00  0.00    -0.293 N 
ATOM     34  H3  UNL     1      36.832  23.347  29.334  1.00  0.00     0.188 HD
ENDBRANCH  27  28
ENDBRANCH  26  27
ENDBRANCH   2  21
TORSDOF 9
ENDMDL
