MODEL 2
REMARK VINA RESULT: -6.972489415      0.529      1.251
REMARK  9 active torsions:
REMARK  status: ('A' for Active; 'I' for Inactive)
REMARK    1  A    between atoms: C1_2  and  C2_3 
REMARK       I    between atoms: C1_2  and  N4_17 
REMARK    2  A    between atoms: C7_8  and  C8_9 
REMARK    3  A    between atoms: C8_9  and  N1_10 
REMARK    4  A    between atoms: N4_17  and  O2_18 
REMARK    5  A    between atoms: N4_17  and  C11_20 
REMARK    6  A    between atoms: C11_20  and  C12_21 
REMARK    7  A    between atoms: C12_21  and  C13_22 
REMARK    8  A    between atoms: C13_22  and  C14_23 
REMARK    9  A    between atoms: C13_22  and  P1_31 
ROOT
HETATM    1  O1  UNL     1      38.948  22.368  27.071  1.00  0.00    -0.265 OA
HETATM    2  C1  UNL     1      39.990  23.002  27.382  1.00  0.00     0.277 C 
HETATM    3  N4  UNL     1      41.258  22.397  27.334  1.00  0.00    -0.225 N 
ENDROOT
BRANCH   3   4
HETATM    4  O2  UNL     1      42.341  23.110  27.684  1.00  0.00    -0.285 OA
ATOM      5  H2  UNL     1      42.249  24.040  27.858  1.00  0.00     0.245 HD
ENDBRANCH   3   4
BRANCH   3   6
HETATM    6  C11 UNL     1      41.436  20.999  26.886  1.00  0.00     0.161 C 
BRANCH   6   7
HETATM    7  C12 UNL     1      42.366  20.950  25.741  1.00  0.00     0.046 C 
BRANCH   7   8
HETATM    8  C13 UNL     1      41.786  20.573  24.395  1.00  0.00     0.150 C 
BRANCH   8   9
HETATM    9  C14 UNL     1      40.898  21.678  23.966  1.00  0.00    -0.039 A 
HETATM   10  C15 UNL     1      39.567  21.475  23.675  1.00  0.00     0.010 A 
HETATM   11  C16 UNL     1      38.708  22.492  23.265  1.00  0.00     0.026 A 
HETATM   12  C17 UNL     1      39.183  23.780  23.135  1.00  0.00     0.055 A 
HETATM   13 CL1  UNL     1      38.086  25.055  22.618  1.00  0.00    -0.083 Cl
HETATM   14  C18 UNL     1      40.500  24.015  23.417  1.00  0.00     0.056 A 
HETATM   15 CL2  UNL     1      41.154  25.623  23.270  1.00  0.00    -0.083 Cl
HETATM   16  C19 UNL     1      41.341  22.992  23.823  1.00  0.00     0.033 A 
ENDBRANCH   8   9
BRANCH   8  17
HETATM   17  P1  UNL     1      42.853  19.963  23.309  1.00  0.00     0.268 P 
HETATM   18  O3  UNL     1      42.507  18.396  23.832  1.00  0.00    -0.639 OA
HETATM   19  O4  UNL     1      42.188  20.530  21.993  1.00  0.00    -0.639 OA
HETATM   20  O5  UNL     1      44.144  20.773  24.030  1.00  0.00    -0.639 OA
ENDBRANCH   8  17
ENDBRANCH   7   8
ENDBRANCH   6   7
ENDBRANCH   3   6
BRANCH   2  21
HETATM   21  C2  UNL     1      39.863  24.392  27.791  1.00  0.00     0.042 A 
HETATM   22  C3  UNL     1      39.834  25.339  26.788  1.00  0.00     0.018 A 
HETATM   23  C4  UNL     1      39.715  26.667  27.065  1.00  0.00     0.001 A 
HETATM   24  C5  UNL     1      39.619  27.086  28.370  1.00  0.00     0.001 A 
HETATM   25  C6  UNL     1      39.645  26.162  29.385  1.00  0.00     0.010 A 
HETATM   26  C7  UNL     1      39.769  24.796  29.090  1.00  0.00    -0.023 A 
BRANCH  26  27
HETATM   27  C8  UNL     1      39.794  23.864  30.222  1.00  0.00     0.189 C 
BRANCH  27  28
HETATM   28  N1  UNL     1      38.517  23.576  30.816  1.00  0.00    -0.283 N 
HETATM   29  C9  UNL     1      38.322  23.300  32.134  1.00  0.00     0.201 A 
HETATM   30  N2  UNL     1      37.033  23.089  32.393  1.00  0.00    -0.346 N 
HETATM   31  C10 UNL     1      36.379  23.231  31.217  1.00  0.00     0.198 A 
ATOM     32  H2  UNL     1      36.622  22.864  33.299  1.00  0.00     0.167 HD
HETATM   33  N3  UNL     1      37.310  23.523  30.302  1.00  0.00    -0.293 N 
ATOM     34  H3  UNL     1      37.106  23.686  29.316  1.00  0.00     0.188 HD
ENDBRANCH  27  28
ENDBRANCH  26  27
ENDBRANCH   2  21
TORSDOF 9
ENDMDL
