MODEL 1
REMARK VINA RESULT: -5.386881503      0.000      0.000
REMARK  3 active torsions:
REMARK  status: ('A' for Active; 'I' for Inactive)
REMARK    1  A    between atoms: C4_5  and  O2_6 
REMARK    2  A    between atoms: C5_8  and  O3_9 
REMARK    3  A    between atoms: C6_11  and  O4_12 
ROOT
HETATM    1  C1  UNL     1      23.365  12.327 -20.472  1.00  0.00     0.042 C 
HETATM    2  C2  UNL     1      22.179  11.830 -19.698  1.00  0.00     0.148 C 
HETATM    3  O1  UNL     1      21.197  12.794 -19.523  1.00  0.00    -0.381 OA
HETATM    4  C3  UNL     1      20.081  12.226 -18.963  1.00  0.00     0.202 C 
HETATM    5  C4  UNL     1      20.350  11.710 -17.567  1.00  0.00     0.173 C 
HETATM    6  C5  UNL     1      21.479  10.692 -17.658  1.00  0.00     0.180 C 
HETATM    7  C6  UNL     1      22.650  11.423 -18.309  1.00  0.00     0.178 C 
ENDROOT
BRANCH   5   8
HETATM    8  O2  UNL     1      19.221  11.131 -17.035  1.00  0.00    -0.391 OA
ATOM      9  H2  UNL     1      18.460  11.679 -17.186  1.00  0.00     0.210 HD
ENDBRANCH   5   8
BRANCH   6  10
HETATM   10  O3  UNL     1      21.813  10.184 -16.413  1.00  0.00    -0.390 OA
ATOM     11  H3  UNL     1      21.395  10.669 -15.711  1.00  0.00     0.210 HD
ENDBRANCH   6  10
BRANCH   7  12
HETATM   12  O4  UNL     1      22.931  12.569 -17.546  1.00  0.00    -0.390 OA
ATOM     13  H4  UNL     1      23.671  12.403 -16.976  1.00  0.00     0.210 HD
ENDBRANCH   7  12
TORSDOF 3
ENDMDL
