MODEL 12
REMARK VINA RESULT: -3.723297968      4.451      6.058
REMARK  3 active torsions:
REMARK  status: ('A' for Active; 'I' for Inactive)
REMARK    1  A    between atoms: C4_5  and  O2_6 
REMARK    2  A    between atoms: C5_8  and  O3_9 
REMARK    3  A    between atoms: C6_11  and  O4_12 
ROOT
HETATM    1  C1  UNL     1      20.412  13.312 -22.970  1.00  0.00     0.042 C 
HETATM    2  C2  UNL     1      21.597  12.656 -23.615  1.00  0.00     0.148 C 
HETATM    3  O1  UNL     1      21.336  11.370 -24.064  1.00  0.00    -0.381 OA
HETATM    4  C3  UNL     1      22.403  10.903 -24.788  1.00  0.00     0.202 C 
HETATM    5  C4  UNL     1      23.642  10.754 -23.934  1.00  0.00     0.173 C 
HETATM    6  C5  UNL     1      23.960  12.117 -23.335  1.00  0.00     0.180 C 
HETATM    7  C6  UNL     1      22.706  12.542 -22.577  1.00  0.00     0.178 C 
ENDROOT
BRANCH   5   8
HETATM    8  O2  UNL     1      24.701  10.300 -24.687  1.00  0.00    -0.391 OA
ATOM      9  H2  UNL     1      24.783  10.802 -25.489  1.00  0.00     0.210 HD
ENDBRANCH   5   8
BRANCH   6  10
HETATM   10  O3  UNL     1      25.072  12.068 -22.511  1.00  0.00    -0.390 OA
ATOM     11  H3  UNL     1      25.535  12.898 -22.495  1.00  0.00     0.210 HD
ENDBRANCH   6  10
BRANCH   7  12
HETATM   12  O4  UNL     1      22.389  11.535 -21.650  1.00  0.00    -0.390 OA
ATOM     13  H4  UNL     1      23.041  10.845 -21.689  1.00  0.00     0.210 HD
ENDBRANCH   7  12
TORSDOF 3
ENDMDL
