MODEL 10
REMARK VINA RESULT: -3.726636622      3.006      5.258
REMARK  3 active torsions:
REMARK  status: ('A' for Active; 'I' for Inactive)
REMARK    1  A    between atoms: C4_5  and  O2_6 
REMARK    2  A    between atoms: C5_8  and  O3_9 
REMARK    3  A    between atoms: C6_11  and  O4_12 
ROOT
HETATM    1  C1  UNL     1      16.985  11.140 -16.598  1.00  0.00     0.042 C 
HETATM    2  C2  UNL     1      17.569  11.860 -17.778  1.00  0.00     0.148 C 
HETATM    3  O1  UNL     1      18.948  12.000 -17.707  1.00  0.00    -0.381 OA
HETATM    4  C3  UNL     1      19.427  12.508 -18.888  1.00  0.00     0.202 C 
HETATM    5  C4  UNL     1      18.923  13.911 -19.143  1.00  0.00     0.173 C 
HETATM    6  C5  UNL     1      17.401  13.862 -19.161  1.00  0.00     0.180 C 
HETATM    7  C6  UNL     1      16.987  13.266 -17.819  1.00  0.00     0.178 C 
ENDROOT
BRANCH   5   8
HETATM    8  O2  UNL     1      19.404  14.391 -20.339  1.00  0.00    -0.391 OA
ATOM      9  H2  UNL     1      18.891  15.134 -20.634  1.00  0.00     0.210 HD
ENDBRANCH   5   8
BRANCH   6  10
HETATM   10  O3  UNL     1      16.850  15.116 -19.363  1.00  0.00    -0.390 OA
ATOM     11  H3  UNL     1      16.055  15.237 -18.857  1.00  0.00     0.210 HD
ENDBRANCH   6  10
BRANCH   7  12
HETATM   12  O4  UNL     1      17.553  14.046 -16.797  1.00  0.00    -0.390 OA
ATOM     13  H4  UNL     1      17.780  14.904 -17.136  1.00  0.00     0.210 HD
ENDBRANCH   7  12
TORSDOF 3
ENDMDL
