MODEL 15
REMARK VINA RESULT: -3.679073333      5.298      6.670
REMARK  3 active torsions:
REMARK  status: ('A' for Active; 'I' for Inactive)
REMARK    1  A    between atoms: C4_5  and  O2_6 
REMARK    2  A    between atoms: C5_8  and  O3_9 
REMARK    3  A    between atoms: C6_11  and  O4_12 
ROOT
HETATM    1  C1  UNL     1      20.212  11.793 -25.183  1.00  0.00     0.042 C 
HETATM    2  C2  UNL     1      21.401  11.708 -24.273  1.00  0.00     0.148 C 
HETATM    3  O1  UNL     1      21.796  12.940 -23.771  1.00  0.00    -0.381 OA
HETATM    4  C3  UNL     1      22.771  12.766 -22.821  1.00  0.00     0.202 C 
HETATM    5  C4  UNL     1      24.035  12.182 -23.411  1.00  0.00     0.173 C 
HETATM    6  C5  UNL     1      23.674  10.850 -24.055  1.00  0.00     0.180 C 
HETATM    7  C6  UNL     1      22.577  11.161 -25.069  1.00  0.00     0.178 C 
ENDROOT
BRANCH   5   8
HETATM    8  O2  UNL     1      24.989  12.002 -22.436  1.00  0.00    -0.391 OA
ATOM      9  H2  UNL     1      25.360  12.836 -22.171  1.00  0.00     0.210 HD
ENDBRANCH   5   8
BRANCH   6  10
HETATM   10  O3  UNL     1      24.774  10.253 -24.648  1.00  0.00    -0.390 OA
ATOM     11  H3  UNL     1      24.518   9.571 -25.259  1.00  0.00     0.210 HD
ENDBRANCH   6  10
BRANCH   7  12
HETATM   12  O4  UNL     1      23.058  12.146 -25.948  1.00  0.00    -0.390 OA
ATOM     13  H4  UNL     1      23.323  11.745 -26.767  1.00  0.00     0.210 HD
ENDBRANCH   7  12
TORSDOF 3
ENDMDL
