MODEL 5
REMARK VINA RESULT: -7.340516463      3.843      6.760
REMARK  8 active torsions:
REMARK  status: ('A' for Active; 'I' for Inactive)
REMARK    1  A    between atoms: O1_1  and  C1_3 
REMARK    2  A    between atoms: C1_3  and  C2_4 
REMARK    3  A    between atoms: C3_5  and  O2_6 
REMARK    4  A    between atoms: C4_8  and  O3_9 
REMARK    5  A    between atoms: C5_11  and  O4_12 
REMARK    6  A    between atoms: C6_14  and  N1_15 
REMARK    7  A    between atoms: N1_15  and  C7_18 
REMARK    8  A    between atoms: C7_18  and  C8_19 
ROOT
HETATM    1  C2  UNL     1      20.440  21.926  39.783  1.00  0.00     0.074 C 
HETATM    2  C3  UNL     1      21.884  21.716  39.444  1.00  0.00     0.157 C 
HETATM    3  C4  UNL     1      21.891  20.302  38.902  1.00  0.00     0.178 C 
HETATM    4  C5  UNL     1      20.467  19.991  38.493  1.00  0.00     0.180 C 
HETATM    5  C6  UNL     1      19.716  21.320  38.642  1.00  0.00     0.225 C 
ENDROOT
BRANCH   5   6
HETATM    6  N1  UNL     1      19.751  22.067  37.427  1.00  0.00    -0.068 N 
ATOM      7  H12 UNL     1      19.151  22.892  37.455  1.00  0.00     0.277 HD
ATOM      8  H11 UNL     1      20.639  22.548  37.286  1.00  0.00     0.277 HD
BRANCH   6   9
HETATM    9  C7  UNL     1      19.421  21.176  36.341  1.00  0.00     0.237 C 
BRANCH   9  10
HETATM   10  C8  UNL     1      18.095  21.457  35.705  1.00  0.00     0.011 C 
HETATM   11  C9  UNL     1      18.362  22.100  34.364  1.00  0.00     0.006 C 
HETATM   12  C10 UNL     1      17.706  21.358  33.229  1.00  0.00     0.000 C 
HETATM   13  C11 UNL     1      18.023  19.897  33.246  1.00  0.00     0.000 C 
HETATM   14  C12 UNL     1      17.805  19.239  34.575  1.00  0.00     0.000 C 
HETATM   15  C13 UNL     1      17.231  20.243  35.530  1.00  0.00     0.006 C 
ENDBRANCH   9  10
ENDBRANCH   6   9
ENDBRANCH   5   6
BRANCH   1  16
HETATM   16  C1  UNL     1      20.088  23.337  40.099  1.00  0.00     0.173 C 
BRANCH  16  17
HETATM   17  O1  UNL     1      20.888  23.822  41.132  1.00  0.00    -0.400 OA
ATOM     18  H1  UNL     1      21.591  24.359  40.785  1.00  0.00     0.209 HD
ENDBRANCH  16  17
ENDBRANCH   1  16
BRANCH   4  19
HETATM   19  O4  UNL     1      19.882  19.061  39.366  1.00  0.00    -0.391 OA
ATOM     20  H4  UNL     1      19.688  19.456  40.208  1.00  0.00     0.210 HD
ENDBRANCH   4  19
BRANCH   2  21
HETATM   21  O2  UNL     1      22.621  21.774  40.617  1.00  0.00    -0.392 OA
ATOM     22  H2  UNL     1      22.099  21.402  41.318  1.00  0.00     0.210 HD
ENDBRANCH   2  21
BRANCH   3  23
HETATM   23  O3  UNL     1      22.772  20.202  37.825  1.00  0.00    -0.390 OA
ATOM     24  H3  UNL     1      23.555  19.731  38.085  1.00  0.00     0.210 HD
ENDBRANCH   3  23
TORSDOF 8
ENDMDL
