MODEL 11
REMARK VINA RESULT: -7.007222187      1.538      3.018
REMARK  8 active torsions:
REMARK  status: ('A' for Active; 'I' for Inactive)
REMARK    1  A    between atoms: O1_1  and  C1_3 
REMARK    2  A    between atoms: C1_3  and  C2_4 
REMARK    3  A    between atoms: C3_5  and  O2_6 
REMARK    4  A    between atoms: C4_8  and  O3_9 
REMARK    5  A    between atoms: C5_11  and  O4_12 
REMARK    6  A    between atoms: C6_14  and  N1_15 
REMARK    7  A    between atoms: N1_15  and  C7_18 
REMARK    8  A    between atoms: C7_18  and  C8_19 
ROOT
HETATM    1  C2  UNL     1      18.275  20.867  34.097  1.00  0.00     0.074 C 
HETATM    2  C3  UNL     1      17.090  20.243  33.425  1.00  0.00     0.157 C 
HETATM    3  C4  UNL     1      17.401  18.764  33.519  1.00  0.00     0.178 C 
HETATM    4  C5  UNL     1      18.416  18.608  34.630  1.00  0.00     0.180 C 
HETATM    5  C6  UNL     1      18.515  19.997  35.272  1.00  0.00     0.225 C 
ENDROOT
BRANCH   5   6
HETATM    6  N1  UNL     1      17.579  20.136  36.340  1.00  0.00    -0.068 N 
ATOM      7  H12 UNL     1      16.913  20.892  36.183  1.00  0.00     0.277 HD
ATOM      8  H11 UNL     1      16.909  19.367  36.378  1.00  0.00     0.277 HD
BRANCH   6   9
HETATM    9  C7  UNL     1      18.318  20.291  37.569  1.00  0.00     0.237 C 
BRANCH   9  10
HETATM   10  C8  UNL     1      19.763  20.630  37.372  1.00  0.00     0.011 C 
HETATM   11  C9  UNL     1      19.926  22.104  37.659  1.00  0.00     0.006 C 
HETATM   12  C10 UNL     1      20.965  22.374  38.716  1.00  0.00     0.000 C 
HETATM   13  C11 UNL     1      20.742  21.563  39.952  1.00  0.00     0.000 C 
HETATM   14  C12 UNL     1      20.537  20.101  39.696  1.00  0.00     0.000 C 
HETATM   15  C13 UNL     1      20.702  19.833  38.229  1.00  0.00     0.006 C 
ENDBRANCH   9  10
ENDBRANCH   6   9
ENDBRANCH   5   6
BRANCH   1  16
HETATM   16  C1  UNL     1      18.118  22.318  34.387  1.00  0.00     0.173 C 
BRANCH  16  17
HETATM   17  O1  UNL     1      16.777  22.632  34.604  1.00  0.00    -0.400 OA
ATOM     18  H1  UNL     1      16.693  23.513  34.950  1.00  0.00     0.209 HD
ENDBRANCH  16  17
ENDBRANCH   1  16
BRANCH   4  19
HETATM   19  O4  UNL     1      19.679  18.274  34.118  1.00  0.00    -0.391 OA
ATOM     20  H4  UNL     1      20.183  19.053  33.914  1.00  0.00     0.210 HD
ENDBRANCH   4  19
BRANCH   2  21
HETATM   21  O2  UNL     1      17.082  20.641  32.097  1.00  0.00    -0.392 OA
ATOM     22  H2  UNL     1      16.210  20.501  31.747  1.00  0.00     0.210 HD
ENDBRANCH   2  21
BRANCH   3  23
HETATM   23  O3  UNL     1      16.236  18.041  33.775  1.00  0.00    -0.390 OA
ATOM     24  H3  UNL     1      16.199  17.270  33.221  1.00  0.00     0.210 HD
ENDBRANCH   3  23
TORSDOF 8
ENDMDL
