MODEL 10
REMARK VINA RESULT: -7.007725518      4.016      6.458
REMARK  8 active torsions:
REMARK  status: ('A' for Active; 'I' for Inactive)
REMARK    1  A    between atoms: O1_1  and  C1_3 
REMARK    2  A    between atoms: C1_3  and  C2_4 
REMARK    3  A    between atoms: C3_5  and  O2_6 
REMARK    4  A    between atoms: C4_8  and  O3_9 
REMARK    5  A    between atoms: C5_11  and  O4_12 
REMARK    6  A    between atoms: C6_14  and  N1_15 
REMARK    7  A    between atoms: N1_15  and  C7_18 
REMARK    8  A    between atoms: C7_18  and  C8_19 
ROOT
HETATM    1  C2  UNL     1      21.480  21.061  38.773  1.00  0.00     0.074 C 
HETATM    2  C3  UNL     1      20.857  20.567  40.043  1.00  0.00     0.157 C 
HETATM    3  C4  UNL     1      20.195  21.813  40.590  1.00  0.00     0.178 C 
HETATM    4  C5  UNL     1      20.035  22.764  39.424  1.00  0.00     0.180 C 
HETATM    5  C6  UNL     1      20.446  21.947  38.192  1.00  0.00     0.225 C 
ENDROOT
BRANCH   5   6
HETATM    6  N1  UNL     1      19.320  21.283  37.620  1.00  0.00    -0.068 N 
ATOM      7  H12 UNL     1      19.294  20.288  37.845  1.00  0.00     0.277 HD
ATOM      8  H11 UNL     1      18.440  21.547  38.063  1.00  0.00     0.277 HD
BRANCH   6   9
HETATM    9  C7  UNL     1      19.324  21.531  36.198  1.00  0.00     0.237 C 
BRANCH   9  10
HETATM   10  C8  UNL     1      17.966  21.494  35.570  1.00  0.00     0.011 C 
HETATM   11  C9  UNL     1      18.091  22.082  34.184  1.00  0.00     0.006 C 
HETATM   12  C10 UNL     1      17.591  21.146  33.115  1.00  0.00     0.000 C 
HETATM   13  C11 UNL     1      18.197  19.783  33.225  1.00  0.00     0.000 C 
HETATM   14  C12 UNL     1      18.123  19.190  34.599  1.00  0.00     0.000 C 
HETATM   15  C13 UNL     1      17.363  20.122  35.495  1.00  0.00     0.006 C 
ENDBRANCH   9  10
ENDBRANCH   6   9
ENDBRANCH   5   6
BRANCH   1  16
HETATM   16  C1  UNL     1      21.986  19.983  37.882  1.00  0.00     0.173 C 
BRANCH  16  17
HETATM   17  O1  UNL     1      23.366  19.840  38.020  1.00  0.00    -0.400 OA
ATOM     18  H1  UNL     1      23.625  19.967  38.925  1.00  0.00     0.209 HD
ENDBRANCH  16  17
ENDBRANCH   1  16
BRANCH   4  19
HETATM   19  O4  UNL     1      20.913  23.853  39.535  1.00  0.00    -0.391 OA
ATOM     20  H4  UNL     1      20.501  24.657  39.242  1.00  0.00     0.210 HD
ENDBRANCH   4  19
BRANCH   2  21
HETATM   21  O2  UNL     1      21.870  20.157  40.896  1.00  0.00    -0.392 OA
ATOM     22  H2  UNL     1      21.755  19.231  41.076  1.00  0.00     0.210 HD
ENDBRANCH   2  21
BRANCH   3  23
HETATM   23  O3  UNL     1      18.967  21.493  41.169  1.00  0.00    -0.390 OA
ATOM     24  H3  UNL     1      18.385  22.243  41.141  1.00  0.00     0.210 HD
ENDBRANCH   3  23
TORSDOF 8
ENDMDL
