MODEL 9
REMARK VINA RESULT: -7.014963350      3.550      6.455
REMARK  8 active torsions:
REMARK  status: ('A' for Active; 'I' for Inactive)
REMARK    1  A    between atoms: O1_1  and  C1_3 
REMARK    2  A    between atoms: C1_3  and  C2_4 
REMARK    3  A    between atoms: C3_5  and  O2_6 
REMARK    4  A    between atoms: C4_8  and  O3_9 
REMARK    5  A    between atoms: C5_11  and  O4_12 
REMARK    6  A    between atoms: C6_14  and  N1_15 
REMARK    7  A    between atoms: N1_15  and  C7_18 
REMARK    8  A    between atoms: C7_18  and  C8_19 
ROOT
HETATM    1  C2  UNL     1      20.818  22.347  39.181  1.00  0.00     0.074 C 
HETATM    2  C3  UNL     1      21.440  20.993  39.341  1.00  0.00     0.157 C 
HETATM    3  C4  UNL     1      20.249  20.122  39.679  1.00  0.00     0.178 C 
HETATM    4  C5  UNL     1      19.021  20.870  39.206  1.00  0.00     0.180 C 
HETATM    5  C6  UNL     1      19.568  22.076  38.433  1.00  0.00     0.225 C 
ENDROOT
BRANCH   5   6
HETATM    6  N1  UNL     1      19.736  21.766  37.051  1.00  0.00    -0.068 N 
ATOM      7  H12 UNL     1      19.703  22.593  36.454  1.00  0.00     0.277 HD
ATOM      8  H11 UNL     1      20.687  21.472  36.826  1.00  0.00     0.277 HD
BRANCH   6   9
HETATM    9  C7  UNL     1      18.748  20.779  36.687  1.00  0.00     0.237 C 
BRANCH   9  10
HETATM   10  C8  UNL     1      17.669  21.300  35.789  1.00  0.00     0.011 C 
HETATM   11  C9  UNL     1      18.342  21.969  34.614  1.00  0.00     0.006 C 
HETATM   12  C10 UNL     1      17.886  21.406  33.293  1.00  0.00     0.000 C 
HETATM   13  C11 UNL     1      17.984  19.914  33.247  1.00  0.00     0.000 C 
HETATM   14  C12 UNL     1      17.360  19.224  34.422  1.00  0.00     0.000 C 
HETATM   15  C13 UNL     1      16.714  20.249  35.306  1.00  0.00     0.006 C 
ENDBRANCH   9  10
ENDBRANCH   6   9
ENDBRANCH   5   6
BRANCH   1  16
HETATM   16  C1  UNL     1      21.722  23.367  38.586  1.00  0.00     0.173 C 
BRANCH  16  17
HETATM   17  O1  UNL     1      23.041  22.916  38.590  1.00  0.00    -0.400 OA
ATOM     18  H1  UNL     1      23.149  22.195  37.980  1.00  0.00     0.209 HD
ENDBRANCH  16  17
ENDBRANCH   1  16
BRANCH   4  19
HETATM   19  O4  UNL     1      18.274  21.352  40.291  1.00  0.00    -0.391 OA
ATOM     20  H4  UNL     1      17.507  20.814  40.446  1.00  0.00     0.210 HD
ENDBRANCH   4  19
BRANCH   2  21
HETATM   21  O2  UNL     1      22.313  21.038  40.418  1.00  0.00    -0.392 OA
ATOM     22  H2  UNL     1      22.059  20.363  41.036  1.00  0.00     0.210 HD
ENDBRANCH   2  21
BRANCH   3  23
HETATM   23  O3  UNL     1      20.368  18.878  39.059  1.00  0.00    -0.390 OA
ATOM     24  H3  UNL     1      20.734  18.244  39.664  1.00  0.00     0.210 HD
ENDBRANCH   3  23
TORSDOF 8
ENDMDL
