MODEL 17
REMARK VINA RESULT: -6.845043084      1.683      3.296
REMARK  8 active torsions:
REMARK  status: ('A' for Active; 'I' for Inactive)
REMARK    1  A    between atoms: O1_1  and  C1_3 
REMARK    2  A    between atoms: C1_3  and  C2_4 
REMARK    3  A    between atoms: C3_5  and  O2_6 
REMARK    4  A    between atoms: C4_8  and  O3_9 
REMARK    5  A    between atoms: C5_11  and  O4_12 
REMARK    6  A    between atoms: C6_14  and  N1_15 
REMARK    7  A    between atoms: N1_15  and  C7_18 
REMARK    8  A    between atoms: C7_18  and  C8_19 
ROOT
HETATM    1  C2  UNL     1      18.336  20.525  34.244  1.00  0.00     0.074 C 
HETATM    2  C3  UNL     1      17.367  20.404  33.108  1.00  0.00     0.157 C 
HETATM    3  C4  UNL     1      17.252  18.904  32.932  1.00  0.00     0.178 C 
HETATM    4  C5  UNL     1      17.718  18.283  34.231  1.00  0.00     0.180 C 
HETATM    5  C6  UNL     1      17.909  19.466  35.188  1.00  0.00     0.225 C 
ENDROOT
BRANCH   5   6
HETATM    6  N1  UNL     1      16.711  19.737  35.913  1.00  0.00    -0.068 N 
ATOM      7  H12 UNL     1      16.323  20.657  35.703  1.00  0.00     0.277 HD
ATOM      8  H11 UNL     1      15.921  19.177  35.591  1.00  0.00     0.277 HD
BRANCH   6   9
HETATM    9  C7  UNL     1      16.984  19.556  37.319  1.00  0.00     0.237 C 
BRANCH   9  10
HETATM   10  C8  UNL     1      17.325  20.823  38.040  1.00  0.00     0.011 C 
HETATM   11  C9  UNL     1      16.980  20.623  39.496  1.00  0.00     0.006 C 
HETATM   12  C10 UNL     1      18.151  20.882  40.407  1.00  0.00     0.000 C 
HETATM   13  C11 UNL     1      19.372  20.126  39.991  1.00  0.00     0.000 C 
HETATM   14  C12 UNL     1      19.718  20.273  38.539  1.00  0.00     0.000 C 
HETATM   15  C13 UNL     1      18.761  21.237  37.904  1.00  0.00     0.006 C 
ENDBRANCH   9  10
ENDBRANCH   6   9
ENDBRANCH   5   6
BRANCH   1  16
HETATM   16  C1  UNL     1      18.441  21.896  34.813  1.00  0.00     0.173 C 
BRANCH  16  17
HETATM   17  O1  UNL     1      17.243  22.588  34.647  1.00  0.00    -0.400 OA
ATOM     18  H1  UNL     1      17.255  23.088  33.840  1.00  0.00     0.209 HD
ENDBRANCH  16  17
ENDBRANCH   1  16
BRANCH   4  19
HETATM   19  O4  UNL     1      18.960  17.648  34.071  1.00  0.00    -0.391 OA
ATOM     20  H4  UNL     1      19.478  18.073  33.398  1.00  0.00     0.210 HD
ENDBRANCH   4  19
BRANCH   2  21
HETATM   21  O2  UNL     1      17.944  20.968  31.980  1.00  0.00    -0.392 OA
ATOM     22  H2  UNL     1      18.679  20.428  31.717  1.00  0.00     0.210 HD
ENDBRANCH   2  21
BRANCH   3  23
HETATM   23  O3  UNL     1      15.937  18.552  32.632  1.00  0.00    -0.390 OA
ATOM     24  H3  UNL     1      15.772  18.659  31.702  1.00  0.00     0.210 HD
ENDBRANCH   3  23
TORSDOF 8
ENDMDL
