MODEL 2
REMARK VINA RESULT: -11.201194995      0.756      1.198
REMARK  12 active torsions:
REMARK  status: ('A' for Active; 'I' for Inactive)
REMARK    1  A    between atoms: C2_2  and  C10_17 
REMARK    2  A    between atoms: N1_3  and  N2_5 
REMARK    3  A    between atoms: N2_5  and  C3_7 
REMARK    4  A    between atoms: C13_20  and  C14_21 
REMARK    5  A    between atoms: C18_25  and  S2_26 
REMARK    6  A    between atoms: S2_26  and  N4_29 
REMARK       I    between atoms: N4_29  and  C19_31 
REMARK    7  A    between atoms: C19_31  and  C20_33 
REMARK    8  A    between atoms: C20_33  and  C21_34 
REMARK    9  A    between atoms: C21_34  and  C22_35 
REMARK   10  A    between atoms: C22_35  and  C23_36 
REMARK   11  A    between atoms: C23_36  and  C24_37 
REMARK   12  A    between atoms: C24_37  and  C25_38 
ROOT
HETATM    1  C14 UNL     1      22.478  48.359   1.675  1.00  0.00    -0.001 A 
HETATM    2  C15 UNL     1      22.937  47.712   0.552  1.00  0.00     0.014 A 
HETATM    3  C16 UNL     1      22.103  46.920  -0.216  1.00  0.00     0.002 A 
HETATM    4  C17 UNL     1      20.790  46.797   0.184  1.00  0.00     0.025 A 
HETATM    5  C18 UNL     1      20.309  47.435   1.304  1.00  0.00     0.080 A 
HETATM    6  C31 UNL     1      21.168  48.231   2.066  1.00  0.00     0.039 A 
ENDROOT
BRANCH   1   7
HETATM    7  C13 UNL     1      23.374  49.219   2.488  1.00  0.00     0.086 A 
HETATM    8  C12 UNL     1      23.246  49.486   3.827  1.00  0.00     0.041 A 
HETATM    9  C11 UNL     1      24.291  50.324   4.158  1.00  0.00     0.042 A 
HETATM   10  C10 UNL     1      25.025  50.544   3.013  1.00  0.00     0.099 A 
HETATM   11  O4  UNL     1      24.422  49.857   2.063  1.00  0.00    -0.308 OA
BRANCH  10  12
HETATM   12  C2  UNL     1      26.221  51.361   2.839  1.00  0.00     0.056 C 
HETATM   13  C1  UNL     1      26.829  51.978   4.074  1.00  0.00     0.072 C 
HETATM   14  N1  UNL     1      26.774  51.598   1.751  1.00  0.00    -0.300 N 
ATOM     15  H1  UNL     1      27.600  52.195   1.797  1.00  0.00     0.186 HD
BRANCH  14  16
HETATM   16  N2  UNL     1      26.428  51.166   0.508  1.00  0.00    -0.279 N 
ATOM     17  H2  UNL     1      25.442  51.098   0.256  1.00  0.00     0.189 HD
BRANCH  16  18
HETATM   18  C3  UNL     1      27.439  50.803  -0.461  1.00  0.00     0.164 A 
HETATM   19  N3  UNL     1      28.433  51.528  -0.931  1.00  0.00    -0.334 N 
HETATM   20  C4  UNL     1      29.250  51.022  -1.821  1.00  0.00     0.051 A 
ATOM     21  H3  UNL     1      28.567  52.484  -0.601  1.00  0.00     0.168 HD
HETATM   22  C5  UNL     1      30.346  51.693  -2.403  1.00  0.00     0.031 A 
HETATM   23  C9  UNL     1      29.022  49.736  -2.225  1.00  0.00     0.035 A 
HETATM   24  C6  UNL     1      31.107  51.047  -3.316  1.00  0.00     0.002 A 
HETATM   25  C7  UNL     1      30.914  49.745  -3.756  1.00  0.00     0.002 A 
HETATM   26  C8  UNL     1      29.832  49.098  -3.175  1.00  0.00     0.021 A 
HETATM   27  S1  UNL     1      27.644  49.327  -1.301  1.00  0.00    -0.051 SA
ENDBRANCH  16  18
ENDBRANCH  14  16
ENDBRANCH  10  12
ENDBRANCH   1   7
BRANCH   5  28
HETATM   28  S2  UNL     1      18.622  47.231   1.734  1.00  0.00     0.265 S 
HETATM   29  O1  UNL     1      18.500  45.888   2.411  1.00  0.00    -0.200 OA
HETATM   30  O2  UNL     1      18.219  48.279   2.700  1.00  0.00    -0.200 OA
BRANCH  28  31
HETATM   31  N4  UNL     1      17.636  47.236   0.297  1.00  0.00    -0.250 N 
HETATM   32  C19 UNL     1      17.431  48.403  -0.474  1.00  0.00     0.231 C 
HETATM   33  O3  UNL     1      18.008  49.445  -0.064  1.00  0.00    -0.273 OA
ATOM     34  H4  UNL     1      17.190  46.367   0.003  1.00  0.00     0.181 HD
BRANCH  32  35
HETATM   35  C20 UNL     1      16.587  48.410  -1.702  1.00  0.00     0.103 C 
BRANCH  35  36
HETATM   36  C21 UNL     1      17.292  47.885  -2.908  1.00  0.00     0.009 C 
BRANCH  36  37
HETATM   37  C22 UNL     1      18.650  48.491  -3.136  1.00  0.00     0.001 C 
BRANCH  37  38
HETATM   38  C23 UNL     1      19.678  47.368  -3.204  1.00  0.00     0.005 C 
BRANCH  38  39
HETATM   39  C24 UNL     1      18.995  46.013  -3.069  1.00  0.00     0.038 C 
BRANCH  39  40
HETATM   40  C25 UNL     1      19.447  45.111  -4.157  1.00  0.00    -0.058 A 
HETATM   41  C26 UNL     1      20.685  44.536  -4.163  1.00  0.00     0.007 A 
HETATM   42  C27 UNL     1      21.095  43.688  -5.199  1.00  0.00     0.001 A 
HETATM   43  C28 UNL     1      20.244  43.414  -6.251  1.00  0.00     0.000 A 
HETATM   44  C29 UNL     1      18.994  44.005  -6.231  1.00  0.00     0.001 A 
HETATM   45  C30 UNL     1      18.587  44.840  -5.213  1.00  0.00     0.007 A 
ENDBRANCH  39  40
ENDBRANCH  38  39
ENDBRANCH  37  38
ENDBRANCH  36  37
ENDBRANCH  35  36
ENDBRANCH  32  35
ENDBRANCH  28  31
ENDBRANCH   5  28
TORSDOF 12
ENDMDL
