MODEL 1
REMARK VINA RESULT: -11.625598567      0.000      0.000
REMARK  12 active torsions:
REMARK  status: ('A' for Active; 'I' for Inactive)
REMARK    1  A    between atoms: C2_2  and  C10_17 
REMARK    2  A    between atoms: N1_3  and  N2_5 
REMARK    3  A    between atoms: N2_5  and  C3_7 
REMARK    4  A    between atoms: C13_20  and  C14_21 
REMARK    5  A    between atoms: C18_25  and  S2_26 
REMARK    6  A    between atoms: S2_26  and  N4_29 
REMARK       I    between atoms: N4_29  and  C19_31 
REMARK    7  A    between atoms: C19_31  and  C20_33 
REMARK    8  A    between atoms: C20_33  and  C21_34 
REMARK    9  A    between atoms: C21_34  and  C22_35 
REMARK   10  A    between atoms: C22_35  and  C23_36 
REMARK   11  A    between atoms: C23_36  and  C24_37 
REMARK   12  A    between atoms: C24_37  and  C25_38 
ROOT
HETATM    1  C14 UNL     1      22.745  48.509   1.556  1.00  0.00    -0.001 A 
HETATM    2  C15 UNL     1      23.310  47.888   0.467  1.00  0.00     0.014 A 
HETATM    3  C16 UNL     1      22.576  47.037  -0.339  1.00  0.00     0.002 A 
HETATM    4  C17 UNL     1      21.253  46.829  -0.013  1.00  0.00     0.025 A 
HETATM    5  C18 UNL     1      20.667  47.440   1.072  1.00  0.00     0.080 A 
HETATM    6  C31 UNL     1      21.427  48.297   1.873  1.00  0.00     0.039 A 
ENDROOT
BRANCH   1   7
HETATM    7  C13 UNL     1      23.534  49.432   2.410  1.00  0.00     0.086 A 
HETATM    8  C12 UNL     1      23.232  49.804   3.695  1.00  0.00     0.041 A 
HETATM    9  C11 UNL     1      24.233  50.667   4.095  1.00  0.00     0.042 A 
HETATM   10  C10 UNL     1      25.113  50.797   3.043  1.00  0.00     0.099 A 
HETATM   11  O4  UNL     1      24.635  50.035   2.078  1.00  0.00    -0.308 OA
BRANCH  10  12
HETATM   12  C2  UNL     1      26.329  51.599   2.965  1.00  0.00     0.056 C 
HETATM   13  C1  UNL     1      26.987  51.995   4.263  1.00  0.00     0.072 C 
HETATM   14  N1  UNL     1      26.862  51.991   1.912  1.00  0.00    -0.300 N 
ATOM     15  H1  UNL     1      27.706  52.551   2.027  1.00  0.00     0.186 HD
BRANCH  14  16
HETATM   16  N2  UNL     1      26.471  51.772   0.628  1.00  0.00    -0.279 N 
ATOM     17  H2  UNL     1      25.526  52.026   0.339  1.00  0.00     0.189 HD
BRANCH  16  18
HETATM   18  C3  UNL     1      27.377  51.184  -0.335  1.00  0.00     0.164 A 
HETATM   19  N3  UNL     1      28.506  51.668  -0.812  1.00  0.00    -0.334 N 
HETATM   20  C4  UNL     1      29.191  50.984  -1.694  1.00  0.00     0.051 A 
ATOM     21  H3  UNL     1      28.846  52.575  -0.493  1.00  0.00     0.168 HD
HETATM   22  C5  UNL     1      30.407  51.392  -2.282  1.00  0.00     0.031 A 
HETATM   23  C9  UNL     1      28.686  49.775  -2.082  1.00  0.00     0.035 A 
HETATM   24  C6  UNL     1      31.008  50.584  -3.185  1.00  0.00     0.002 A 
HETATM   25  C7  UNL     1      30.534  49.350  -3.610  1.00  0.00     0.002 A 
HETATM   26  C8  UNL     1      29.337  48.964  -3.024  1.00  0.00     0.021 A 
HETATM   27  S1  UNL     1      27.253  49.690  -1.157  1.00  0.00    -0.051 SA
ENDBRANCH  16  18
ENDBRANCH  14  16
ENDBRANCH  10  12
ENDBRANCH   1   7
BRANCH   5  28
HETATM   28  S2  UNL     1      18.976  47.127   1.407  1.00  0.00     0.265 S 
HETATM   29  O1  UNL     1      18.927  45.965   2.370  1.00  0.00    -0.200 OA
HETATM   30  O2  UNL     1      18.366  48.305   2.066  1.00  0.00    -0.200 OA
BRANCH  28  31
HETATM   31  N4  UNL     1      18.149  46.683  -0.061  1.00  0.00    -0.250 N 
HETATM   32  C19 UNL     1      17.913  47.609  -1.104  1.00  0.00     0.231 C 
HETATM   33  O3  UNL     1      18.338  48.778  -0.911  1.00  0.00    -0.273 OA
ATOM     34  H4  UNL     1      17.824  45.723  -0.172  1.00  0.00     0.181 HD
BRANCH  32  35
HETATM   35  C20 UNL     1      17.204  47.232  -2.359  1.00  0.00     0.103 C 
BRANCH  35  36
HETATM   36  C21 UNL     1      17.985  47.538  -3.594  1.00  0.00     0.009 C 
BRANCH  36  37
HETATM   37  C22 UNL     1      19.349  46.904  -3.629  1.00  0.00     0.001 C 
BRANCH  37  38
HETATM   38  C23 UNL     1      19.179  45.391  -3.710  1.00  0.00     0.005 C 
BRANCH  38  39
HETATM   39  C24 UNL     1      20.510  44.723  -4.031  1.00  0.00     0.038 C 
BRANCH  39  40
HETATM   40  C25 UNL     1      20.328  43.743  -5.131  1.00  0.00    -0.058 A 
HETATM   41  C26 UNL     1      20.305  44.114  -6.444  1.00  0.00     0.007 A 
HETATM   42  C27 UNL     1      20.132  43.175  -7.468  1.00  0.00     0.001 A 
HETATM   43  C28 UNL     1      19.977  41.837  -7.167  1.00  0.00     0.000 A 
HETATM   44  C29 UNL     1      20.001  41.478  -5.831  1.00  0.00     0.001 A 
HETATM   45  C30 UNL     1      20.172  42.399  -4.820  1.00  0.00     0.007 A 
ENDBRANCH  39  40
ENDBRANCH  38  39
ENDBRANCH  37  38
ENDBRANCH  36  37
ENDBRANCH  35  36
ENDBRANCH  32  35
ENDBRANCH  28  31
ENDBRANCH   5  28
TORSDOF 12
ENDMDL
