MODEL 3
REMARK VINA RESULT: -11.192519532      1.546      2.788
REMARK  12 active torsions:
REMARK  status: ('A' for Active; 'I' for Inactive)
REMARK    1  A    between atoms: C2_2  and  C10_17 
REMARK    2  A    between atoms: N1_3  and  N2_5 
REMARK    3  A    between atoms: N2_5  and  C3_7 
REMARK    4  A    between atoms: C13_20  and  C14_21 
REMARK    5  A    between atoms: C18_25  and  S2_26 
REMARK    6  A    between atoms: S2_26  and  N4_29 
REMARK       I    between atoms: N4_29  and  C19_31 
REMARK    7  A    between atoms: C19_31  and  C20_33 
REMARK    8  A    between atoms: C20_33  and  C21_34 
REMARK    9  A    between atoms: C21_34  and  C22_35 
REMARK   10  A    between atoms: C22_35  and  C23_36 
REMARK   11  A    between atoms: C23_36  and  C24_37 
REMARK   12  A    between atoms: C24_37  and  C25_38 
ROOT
HETATM    1  C14 UNL     1      22.273  48.236   1.614  1.00  0.00    -0.001 A 
HETATM    2  C15 UNL     1      22.722  47.551   0.510  1.00  0.00     0.014 A 
HETATM    3  C16 UNL     1      21.872  46.765  -0.246  1.00  0.00     0.002 A 
HETATM    4  C17 UNL     1      20.553  46.689   0.146  1.00  0.00     0.025 A 
HETATM    5  C18 UNL     1      20.082  47.366   1.247  1.00  0.00     0.080 A 
HETATM    6  C31 UNL     1      20.958  48.155   1.997  1.00  0.00     0.039 A 
ENDROOT
BRANCH   1   7
HETATM    7  C13 UNL     1      23.188  49.090   2.414  1.00  0.00     0.086 A 
HETATM    8  C12 UNL     1      23.085  49.351   3.756  1.00  0.00     0.041 A 
HETATM    9  C11 UNL     1      24.139  50.184   4.072  1.00  0.00     0.042 A 
HETATM   10  C10 UNL     1      24.853  50.406   2.915  1.00  0.00     0.099 A 
HETATM   11  O4  UNL     1      24.231  49.724   1.973  1.00  0.00    -0.308 OA
BRANCH  10  12
HETATM   12  C2  UNL     1      26.049  51.219   2.723  1.00  0.00     0.056 C 
HETATM   13  C1  UNL     1      26.592  51.953   3.923  1.00  0.00     0.072 C 
HETATM   14  N1  UNL     1      26.652  51.361   1.645  1.00  0.00    -0.300 N 
ATOM     15  H1  UNL     1      27.470  51.971   1.674  1.00  0.00     0.186 HD
BRANCH  14  16
HETATM   16  N2  UNL     1      26.370  50.813   0.432  1.00  0.00    -0.279 N 
ATOM     17  H2  UNL     1      25.408  50.561   0.206  1.00  0.00     0.189 HD
BRANCH  16  18
HETATM   18  C3  UNL     1      27.416  50.583  -0.541  1.00  0.00     0.164 A 
HETATM   19  N3  UNL     1      28.297  51.433  -1.025  1.00  0.00    -0.334 N 
HETATM   20  C4  UNL     1      29.170  51.036  -1.917  1.00  0.00     0.051 A 
ATOM     21  H3  UNL     1      28.300  52.402  -0.705  1.00  0.00     0.168 HD
HETATM   22  C5  UNL     1      30.159  51.846  -2.513  1.00  0.00     0.031 A 
HETATM   23  C9  UNL     1      29.119  49.727  -2.307  1.00  0.00     0.035 A 
HETATM   24  C6  UNL     1      30.997  51.302  -3.426  1.00  0.00     0.002 A 
HETATM   25  C7  UNL     1      30.983  49.982  -3.852  1.00  0.00     0.002 A 
HETATM   26  C8  UNL     1      30.004  49.198  -3.258  1.00  0.00     0.021 A 
HETATM   27  S1  UNL     1      27.817  49.141  -1.370  1.00  0.00    -0.051 SA
ENDBRANCH  16  18
ENDBRANCH  14  16
ENDBRANCH  10  12
ENDBRANCH   1   7
BRANCH   5  28
HETATM   28  S2  UNL     1      18.388  47.219   1.668  1.00  0.00     0.265 S 
HETATM   29  O1  UNL     1      18.299  46.213   2.790  1.00  0.00    -0.200 OA
HETATM   30  O2  UNL     1      17.878  48.518   2.166  1.00  0.00    -0.200 OA
BRANCH  28  31
HETATM   31  N4  UNL     1      17.482  46.629   0.301  1.00  0.00    -0.250 N 
HETATM   32  C19 UNL     1      17.432  45.257  -0.035  1.00  0.00     0.231 C 
HETATM   33  O3  UNL     1      18.080  44.480   0.714  1.00  0.00    -0.273 OA
ATOM     34  H4  UNL     1      16.970  47.297  -0.276  1.00  0.00     0.181 HD
BRANCH  32  35
HETATM   35  C20 UNL     1      16.660  44.750  -1.204  1.00  0.00     0.103 C 
BRANCH  35  36
HETATM   36  C21 UNL     1      17.327  43.614  -1.906  1.00  0.00     0.009 C 
BRANCH  36  37
HETATM   37  C22 UNL     1      16.962  43.494  -3.361  1.00  0.00     0.001 C 
BRANCH  37  38
HETATM   38  C23 UNL     1      18.179  43.867  -4.200  1.00  0.00     0.005 C 
BRANCH  38  39
HETATM   39  C24 UNL     1      17.878  45.087  -5.060  1.00  0.00     0.038 C 
BRANCH  39  40
HETATM   40  C25 UNL     1      18.127  46.325  -4.280  1.00  0.00    -0.058 A 
HETATM   41  C26 UNL     1      17.130  47.201  -3.962  1.00  0.00     0.007 A 
HETATM   42  C27 UNL     1      17.384  48.364  -3.225  1.00  0.00     0.001 A 
HETATM   43  C28 UNL     1      18.665  48.654  -2.801  1.00  0.00     0.000 A 
HETATM   44  C29 UNL     1      19.665  47.757  -3.133  1.00  0.00     0.001 A 
HETATM   45  C30 UNL     1      19.419  46.611  -3.857  1.00  0.00     0.007 A 
ENDBRANCH  39  40
ENDBRANCH  38  39
ENDBRANCH  37  38
ENDBRANCH  36  37
ENDBRANCH  35  36
ENDBRANCH  32  35
ENDBRANCH  28  31
ENDBRANCH   5  28
TORSDOF 12
ENDMDL
