MODEL 3
REMARK VINA RESULT: -6.383373880      3.625      5.752
REMARK  3 active torsions:
REMARK  status: ('A' for Active; 'I' for Inactive)
REMARK    1  A    between atoms: C2_3  and  O1_4 
REMARK    2  A    between atoms: N2_6  and  C3_7 
REMARK    3  A    between atoms: C3_7  and  C4_8 
ROOT
HETATM    1  N1  UNL     1      34.667   6.957   6.985  1.00  0.00    -0.092 NA
HETATM    2  C1  UNL     1      35.039   5.596   6.923  1.00  0.00     0.165 A 
HETATM    3  C2  UNL     1      34.806   4.753   8.016  1.00  0.00     0.177 A 
HETATM    4  N2  UNL     1      35.151   3.451   7.984  1.00  0.00    -0.274 N 
HETATM    5  C10 UNL     1      35.731   2.974   6.868  1.00  0.00     0.331 A 
HETATM    6  O2  UNL     1      36.064   1.767   6.808  1.00  0.00    -0.246 OA
HETATM    7  N3  UNL     1      35.962   3.774   5.806  1.00  0.00    -0.274 N 
ATOM      8  H3  UNL     1      36.402   3.370   4.980  1.00  0.00     0.173 HD
HETATM    9  C11 UNL     1      35.639   5.071   5.786  1.00  0.00     0.278 A 
HETATM   10  O3  UNL     1      35.858   5.815   4.789  1.00  0.00    -0.266 OA
ENDROOT
BRANCH   4  11
HETATM   11  C3  UNL     1      34.876   2.664   9.137  1.00  0.00     0.174 C 
BRANCH  11  12
HETATM   12  C4  UNL     1      35.971   2.445  10.074  1.00  0.00    -0.040 A 
HETATM   13  C5  UNL     1      36.301   1.145  10.403  1.00  0.00     0.009 A 
HETATM   14  C6  UNL     1      37.323   0.811  11.281  1.00  0.00     0.001 A 
HETATM   15  C7  UNL     1      38.051   1.832  11.855  1.00  0.00     0.000 A 
HETATM   16  C8  UNL     1      37.723   3.126  11.528  1.00  0.00     0.001 A 
HETATM   17  C9  UNL     1      36.703   3.459  10.652  1.00  0.00     0.009 A 
ENDBRANCH  11  12
ENDBRANCH   4  11
BRANCH   3  18
HETATM   18  O1  UNL     1      34.198   5.356   9.124  1.00  0.00    -0.344 OA
ATOM     19  H1  UNL     1      33.381   4.963   9.406  1.00  0.00     0.219 HD
ENDBRANCH   3  18
TORSDOF 3
ENDMDL
