MODEL 14
REMARK VINA RESULT: -6.047367478      0.680      2.307
REMARK  3 active torsions:
REMARK  status: ('A' for Active; 'I' for Inactive)
REMARK    1  A    between atoms: C2_3  and  O1_4 
REMARK    2  A    between atoms: N2_6  and  C3_7 
REMARK    3  A    between atoms: C3_7  and  C4_8 
ROOT
HETATM    1  N1  UNL     1      34.400   2.693   9.041  1.00  0.00    -0.092 NA
HETATM    2  C1  UNL     1      35.524   2.509   9.876  1.00  0.00     0.165 A 
HETATM    3  C2  UNL     1      36.482   3.522   9.999  1.00  0.00     0.177 A 
HETATM    4  N2  UNL     1      37.563   3.373  10.788  1.00  0.00    -0.274 N 
HETATM    5  C10 UNL     1      37.705   2.218  11.462  1.00  0.00     0.331 A 
HETATM    6  O2  UNL     1      38.701   2.049  12.203  1.00  0.00    -0.246 OA
HETATM    7  N3  UNL     1      36.790   1.232  11.354  1.00  0.00    -0.274 N 
ATOM      8  H3  UNL     1      36.937   0.374  11.884  1.00  0.00     0.173 HD
HETATM    9  C11 UNL     1      35.700   1.329  10.586  1.00  0.00     0.278 A 
HETATM   10  O3  UNL     1      34.848   0.402  10.489  1.00  0.00    -0.266 OA
ENDROOT
BRANCH   4  11
HETATM   11  C3  UNL     1      38.487   4.454  10.858  1.00  0.00     0.174 C 
BRANCH  11  12
HETATM   12  C4  UNL     1      38.221   5.499  11.839  1.00  0.00    -0.040 A 
HETATM   13  C5  UNL     1      37.904   6.762  11.380  1.00  0.00     0.009 A 
HETATM   14  C6  UNL     1      37.630   7.836  12.216  1.00  0.00     0.001 A 
HETATM   15  C7  UNL     1      37.674   7.631  13.579  1.00  0.00     0.000 A 
HETATM   16  C8  UNL     1      37.989   6.373  14.036  1.00  0.00     0.001 A 
HETATM   17  C9  UNL     1      38.263   5.302  13.202  1.00  0.00     0.009 A 
ENDBRANCH  11  12
ENDBRANCH   4  11
BRANCH   3  18
HETATM   18  O1  UNL     1      36.234   4.680   9.252  1.00  0.00    -0.344 OA
ATOM     19  H1  UNL     1      37.002   5.106   8.890  1.00  0.00     0.219 HD
ENDBRANCH   3  18
TORSDOF 3
ENDMDL
