MODEL 2
REMARK VINA RESULT: -6.390383798      3.695      5.792
REMARK  3 active torsions:
REMARK  status: ('A' for Active; 'I' for Inactive)
REMARK    1  A    between atoms: C2_3  and  O1_4 
REMARK    2  A    between atoms: N2_6  and  C3_7 
REMARK    3  A    between atoms: C3_7  and  C4_8 
ROOT
HETATM    1  N1  UNL     1      34.693   7.002   6.959  1.00  0.00    -0.092 NA
HETATM    2  C1  UNL     1      35.029   5.634   6.871  1.00  0.00     0.165 A 
HETATM    3  C2  UNL     1      34.734   4.767   7.931  1.00  0.00     0.177 A 
HETATM    4  N2  UNL     1      35.044   3.458   7.873  1.00  0.00    -0.274 N 
HETATM    5  C10 UNL     1      35.650   2.995   6.765  1.00  0.00     0.331 A 
HETATM    6  O2  UNL     1      35.951   1.781   6.682  1.00  0.00    -0.246 OA
HETATM    7  N3  UNL     1      35.940   3.817   5.735  1.00  0.00    -0.274 N 
ATOM      8  H3  UNL     1      36.398   3.423   4.914  1.00  0.00     0.173 HD
HETATM    9  C11 UNL     1      35.655   5.123   5.741  1.00  0.00     0.278 A 
HETATM   10  O3  UNL     1      35.929   5.888   4.774  1.00  0.00    -0.266 OA
ENDROOT
BRANCH   4  11
HETATM   11  C3  UNL     1      34.707   2.647   8.993  1.00  0.00     0.174 C 
BRANCH  11  12
HETATM   12  C4  UNL     1      35.780   2.307   9.921  1.00  0.00    -0.040 A 
HETATM   13  C5  UNL     1      36.442   3.337  10.560  1.00  0.00     0.009 A 
HETATM   14  C6  UNL     1      37.477   3.139  11.463  1.00  0.00     0.001 A 
HETATM   15  C7  UNL     1      37.865   1.845  11.739  1.00  0.00     0.000 A 
HETATM   16  C8  UNL     1      37.206   0.820  11.104  1.00  0.00     0.001 A 
HETATM   17  C9  UNL     1      36.173   1.017  10.202  1.00  0.00     0.009 A 
ENDBRANCH  11  12
ENDBRANCH   4  11
BRANCH   3  18
HETATM   18  O1  UNL     1      34.105   5.357   9.034  1.00  0.00    -0.344 OA
ATOM     19  H1  UNL     1      34.008   4.798   9.796  1.00  0.00     0.219 HD
ENDBRANCH   3  18
TORSDOF 3
ENDMDL
