MODEL 4
REMARK VINA RESULT: -6.351201754      4.499      6.743
REMARK  3 active torsions:
REMARK  status: ('A' for Active; 'I' for Inactive)
REMARK    1  A    between atoms: C2_3  and  O1_4 
REMARK    2  A    between atoms: N2_6  and  C3_7 
REMARK    3  A    between atoms: C3_7  and  C4_8 
ROOT
HETATM    1  N1  UNL     1      34.679   6.965   6.870  1.00  0.00    -0.092 NA
HETATM    2  C1  UNL     1      35.318   5.706   6.849  1.00  0.00     0.165 A 
HETATM    3  C2  UNL     1      35.290   4.884   7.981  1.00  0.00     0.177 A 
HETATM    4  N2  UNL     1      35.893   3.679   7.988  1.00  0.00    -0.274 N 
HETATM    5  C10 UNL     1      36.528   3.278   6.873  1.00  0.00     0.331 A 
HETATM    6  O2  UNL     1      37.098   2.163   6.848  1.00  0.00    -0.246 OA
HETATM    7  N3  UNL     1      36.563   4.060   5.773  1.00  0.00    -0.274 N 
ATOM      8  H3  UNL     1      37.055   3.716   4.948  1.00  0.00     0.173 HD
HETATM    9  C11 UNL     1      35.983   5.263   5.713  1.00  0.00     0.278 A 
HETATM   10  O3  UNL     1      36.020   5.989   4.681  1.00  0.00    -0.266 OA
ENDROOT
BRANCH   4  11
HETATM   11  C3  UNL     1      35.814   2.905   9.180  1.00  0.00     0.174 C 
BRANCH  11  12
HETATM   12  C4  UNL     1      34.644   2.050   9.346  1.00  0.00    -0.040 A 
HETATM   13  C5  UNL     1      34.592   1.221  10.449  1.00  0.00     0.009 A 
HETATM   14  C6  UNL     1      33.531   0.365  10.716  1.00  0.00     0.001 A 
HETATM   15  C7  UNL     1      32.473   0.341   9.832  1.00  0.00     0.000 A 
HETATM   16  C8  UNL     1      32.525   1.166   8.735  1.00  0.00     0.001 A 
HETATM   17  C9  UNL     1      33.583   2.021   8.469  1.00  0.00     0.009 A 
ENDBRANCH  11  12
ENDBRANCH   4  11
BRANCH   3  18
HETATM   18  O1  UNL     1      34.602   5.401   9.085  1.00  0.00    -0.344 OA
ATOM     19  H1  UNL     1      34.828   5.018   9.925  1.00  0.00     0.219 HD
ENDBRANCH   3  18
TORSDOF 3
ENDMDL
