MODEL 2
REMARK VINA RESULT: -9.710031618      4.216      7.388
REMARK  4 active torsions:
REMARK  status: ('A' for Active; 'I' for Inactive)
REMARK    1  A    between atoms: C1_2  and  C2_4 
REMARK    2  A    between atoms: C6_8  and  C7_9 
REMARK    3  A    between atoms: N1_16  and  N2_18 
REMARK    4  A    between atoms: N2_18  and  C14_20 
ROOT
HETATM    1  C7  UNL     1     -23.487 -17.266  16.090  1.00  0.00    -0.009 A 
HETATM    2  C8  UNL     1     -23.419 -18.639  16.047  1.00  0.00     0.014 A 
HETATM    3  C9  UNL     1     -22.877 -19.311  14.954  1.00  0.00     0.009 A 
HETATM    4  C10 UNL     1     -22.397 -18.617  13.890  1.00  0.00    -0.046 A 
HETATM    5  C11 UNL     1     -22.454 -17.215  13.907  1.00  0.00    -0.005 A 
HETATM    6  C12 UNL     1     -22.987 -16.567  14.986  1.00  0.00     0.027 A 
HETATM    7  C13 UNL     1     -21.951 -16.440  12.786  1.00  0.00     0.036 C 
HETATM    8  N1  UNL     1     -21.708 -15.194  12.934  1.00  0.00    -0.302 N 
ATOM      9  H1  UNL     1     -21.881 -14.787  13.853  1.00  0.00     0.186 HD
HETATM   10  C21 UNL     1     -21.724 -17.096  11.477  1.00  0.00     0.060 C 
HETATM   11  C22 UNL     1     -22.364 -18.493  11.474  1.00  0.00     0.011 C 
HETATM   12  C23 UNL     1     -21.796 -19.218  12.675  1.00  0.00     0.040 C 
ENDROOT
BRANCH   8  13
HETATM   13  N2  UNL     1     -21.232 -14.361  11.949  1.00  0.00    -0.279 N 
ATOM     14  H2  UNL     1     -21.737 -14.307  11.064  1.00  0.00     0.189 HD
BRANCH  13  15
HETATM   15  C14 UNL     1     -20.041 -13.561  12.122  1.00  0.00     0.164 A 
HETATM   16  N3  UNL     1     -19.581 -12.978  13.204  1.00  0.00    -0.334 N 
HETATM   17  C15 UNL     1     -18.480 -12.290  13.170  1.00  0.00     0.051 A 
ATOM     18  H3  UNL     1     -20.094 -13.066  14.081  1.00  0.00     0.168 HD
HETATM   19  C16 UNL     1     -17.883 -11.621  14.256  1.00  0.00     0.031 A 
HETATM   20  C20 UNL     1     -17.828 -12.203  11.966  1.00  0.00     0.035 A 
HETATM   21  C17 UNL     1     -16.727 -10.929  14.106  1.00  0.00     0.002 A 
HETATM   22  C18 UNL     1     -16.067 -10.837  12.901  1.00  0.00     0.002 A 
HETATM   23  C19 UNL     1     -16.631 -11.482  11.830  1.00  0.00     0.021 A 
HETATM   24  S1  UNL     1     -18.857 -13.124  10.958  1.00  0.00    -0.051 SA
ENDBRANCH  13  15
ENDBRANCH   8  13
BRANCH   1  25
HETATM   25  C6  UNL     1     -24.047 -16.536  17.218  1.00  0.00     0.043 A 
HETATM   26  C5  UNL     1     -23.921 -15.182  17.331  1.00  0.00     0.030 A 
HETATM   27  C4  UNL     1     -24.473 -14.535  18.426  1.00  0.00     0.005 A 
HETATM   28  C3  UNL     1     -25.135 -15.280  19.367  1.00  0.00     0.037 A 
HETATM   29  C2  UNL     1     -25.248 -16.644  19.228  1.00  0.00     0.110 A 
HETATM   30  N4  UNL     1     -24.711 -17.245  18.172  1.00  0.00    -0.350 N 
ATOM     31  H4  UNL     1     -24.797 -18.256  18.074  1.00  0.00     0.166 HD
BRANCH  29  32
HETATM   32  C1  UNL     1     -25.961 -17.387  20.258  1.00  0.00     0.226 C 
HETATM   33  O1  UNL     1     -26.116 -18.623  20.100  1.00  0.00    -0.643 OA
HETATM   34  O2  UNL     1     -26.462 -16.770  21.387  1.00  0.00    -0.643 OA
ENDBRANCH  29  32
ENDBRANCH   1  25
TORSDOF 4
ENDMDL
