MODEL 3
REMARK VINA RESULT: -9.566611902      4.808      8.538
REMARK  4 active torsions:
REMARK  status: ('A' for Active; 'I' for Inactive)
REMARK    1  A    between atoms: C1_2  and  C2_4 
REMARK    2  A    between atoms: C6_8  and  C7_9 
REMARK    3  A    between atoms: N1_16  and  N2_18 
REMARK    4  A    between atoms: N2_18  and  C14_20 
ROOT
HETATM    1  C7  UNL     1     -17.309 -11.104  13.656  1.00  0.00    -0.009 A 
HETATM    2  C8  UNL     1     -18.577 -11.565  13.919  1.00  0.00     0.014 A 
HETATM    3  C9  UNL     1     -19.243 -12.418  13.041  1.00  0.00     0.009 A 
HETATM    4  C10 UNL     1     -18.647 -12.818  11.888  1.00  0.00    -0.046 A 
HETATM    5  C11 UNL     1     -17.353 -12.362  11.594  1.00  0.00    -0.005 A 
HETATM    6  C12 UNL     1     -16.710 -11.526  12.463  1.00  0.00     0.027 A 
HETATM    7  C13 UNL     1     -16.685 -12.767  10.369  1.00  0.00     0.036 C 
HETATM    8  N1  UNL     1     -15.421 -12.623  10.257  1.00  0.00    -0.302 N 
ATOM      9  H1  UNL     1     -14.922 -12.220  11.050  1.00  0.00     0.186 HD
HETATM   10  C21 UNL     1     -17.474 -13.345   9.254  1.00  0.00     0.060 C 
HETATM   11  C22 UNL     1     -18.974 -13.137   9.512  1.00  0.00     0.011 C 
HETATM   12  C23 UNL     1     -19.251 -13.722  10.880  1.00  0.00     0.040 C 
ENDROOT
BRANCH   8  13
HETATM   13  N2  UNL     1     -14.682 -12.969   9.150  1.00  0.00    -0.279 N 
ATOM     14  H2  UNL     1     -14.620 -13.954   8.889  1.00  0.00     0.189 HD
BRANCH  13  15
HETATM   15  C14 UNL     1     -13.991 -11.990   8.344  1.00  0.00     0.164 A 
HETATM   16  N3  UNL     1     -12.981 -12.153   7.521  1.00  0.00    -0.334 N 
HETATM   17  C15 UNL     1     -12.484 -11.144   6.873  1.00  0.00     0.051 A 
ATOM     18  H3  UNL     1     -12.584 -13.083   7.389  1.00  0.00     0.168 HD
HETATM   19  C16 UNL     1     -11.408 -11.186   5.965  1.00  0.00     0.031 A 
HETATM   20  C20 UNL     1     -13.055  -9.914   7.086  1.00  0.00     0.035 A 
HETATM   21  C17 UNL     1     -10.968 -10.065   5.343  1.00  0.00     0.002 A 
HETATM   22  C18 UNL     1     -11.536  -8.828   5.551  1.00  0.00     0.002 A 
HETATM   23  C19 UNL     1     -12.586  -8.764   6.432  1.00  0.00     0.021 A 
HETATM   24  S1  UNL     1     -14.279 -10.302   8.216  1.00  0.00    -0.051 SA
ENDBRANCH  13  15
ENDBRANCH   8  13
BRANCH   1  25
HETATM   25  C6  UNL     1     -16.588 -10.213  14.553  1.00  0.00     0.043 A 
HETATM   26  C5  UNL     1     -15.240 -10.316  14.737  1.00  0.00     0.030 A 
HETATM   27  C4  UNL     1     -14.601  -9.442  15.604  1.00  0.00     0.005 A 
HETATM   28  C3  UNL     1     -15.350  -8.494  16.254  1.00  0.00     0.037 A 
HETATM   29  C2  UNL     1     -16.708  -8.413  16.050  1.00  0.00     0.110 A 
HETATM   30  N4  UNL     1     -17.300  -9.260  15.216  1.00  0.00    -0.350 N 
ATOM     31  H4  UNL     1     -18.307  -9.196  15.068  1.00  0.00     0.166 HD
BRANCH  29  32
HETATM   32  C1  UNL     1     -17.453  -7.388  16.766  1.00  0.00     0.226 C 
HETATM   33  O1  UNL     1     -18.615  -7.662  17.156  1.00  0.00    -0.643 OA
HETATM   34  O2  UNL     1     -16.918  -6.141  17.022  1.00  0.00    -0.643 OA
ENDBRANCH  29  32
ENDBRANCH   1  25
TORSDOF 4
ENDMDL
