MODEL 1
REMARK VINA RESULT: -12.379516996      0.000      0.000
REMARK  4 active torsions:
REMARK  status: ('A' for Active; 'I' for Inactive)
REMARK    1  A    between atoms: C1_2  and  C2_4 
REMARK    2  A    between atoms: C6_8  and  C7_9 
REMARK    3  A    between atoms: N1_16  and  N2_18 
REMARK    4  A    between atoms: N2_18  and  C14_20 
ROOT
HETATM    1  C7  UNL     1     -19.569 -13.926  11.087  1.00  0.00    -0.009 A 
HETATM    2  C8  UNL     1     -19.498 -14.248   9.752  1.00  0.00     0.014 A 
HETATM    3  C9  UNL     1     -18.536 -13.687   8.914  1.00  0.00     0.009 A 
HETATM    4  C10 UNL     1     -17.636 -12.796   9.402  1.00  0.00    -0.046 A 
HETATM    5  C11 UNL     1     -17.686 -12.449  10.761  1.00  0.00    -0.005 A 
HETATM    6  C12 UNL     1     -18.633 -13.006  11.573  1.00  0.00     0.027 A 
HETATM    7  C13 UNL     1     -16.740 -11.497  11.317  1.00  0.00     0.036 C 
HETATM    8  N1  UNL     1     -16.578 -11.429  12.583  1.00  0.00    -0.302 N 
ATOM      9  H1  UNL     1     -17.132 -12.059  13.163  1.00  0.00     0.186 HD
HETATM   10  C21 UNL     1     -15.968 -10.609  10.415  1.00  0.00     0.060 C 
HETATM   11  C22 UNL     1     -16.550 -10.673   8.995  1.00  0.00     0.011 C 
HETATM   12  C23 UNL     1     -16.568 -12.136   8.612  1.00  0.00     0.040 C 
ENDROOT
BRANCH   8  13
HETATM   13  N2  UNL     1     -15.714 -10.571  13.222  1.00  0.00    -0.279 N 
ATOM     14  H2  UNL     1     -14.745 -10.525  12.907  1.00  0.00     0.189 HD
BRANCH  13  15
HETATM   15  C14 UNL     1     -16.130  -9.733  14.324  1.00  0.00     0.164 A 
HETATM   16  N3  UNL     1     -15.401  -8.991  15.124  1.00  0.00    -0.334 N 
HETATM   17  C15 UNL     1     -15.955  -8.296  16.072  1.00  0.00     0.051 A 
ATOM     18  H3  UNL     1     -14.389  -8.959  15.001  1.00  0.00     0.168 HD
HETATM   19  C16 UNL     1     -15.290  -7.464  16.992  1.00  0.00     0.031 A 
HETATM   20  C20 UNL     1     -17.320  -8.373  16.195  1.00  0.00     0.035 A 
HETATM   21  C17 UNL     1     -15.971  -6.782  17.945  1.00  0.00     0.002 A 
HETATM   22  C18 UNL     1     -17.340  -6.854  18.074  1.00  0.00     0.002 A 
HETATM   23  C19 UNL     1     -18.009  -7.659  17.187  1.00  0.00     0.021 A 
HETATM   24  S1  UNL     1     -17.712  -9.452  14.927  1.00  0.00    -0.051 SA
ENDBRANCH  13  15
ENDBRANCH   8  13
BRANCH   1  25
HETATM   25  C6  UNL     1     -20.561 -14.495  11.987  1.00  0.00     0.043 A 
HETATM   26  C5  UNL     1     -20.934 -13.863  13.137  1.00  0.00     0.030 A 
HETATM   27  C4  UNL     1     -21.884 -14.449  13.960  1.00  0.00     0.005 A 
HETATM   28  C3  UNL     1     -22.423 -15.654  13.590  1.00  0.00     0.037 A 
HETATM   29  C2  UNL     1     -22.028 -16.270  12.425  1.00  0.00     0.110 A 
HETATM   30  N4  UNL     1     -21.117 -15.692  11.651  1.00  0.00    -0.350 N 
ATOM     31  H4  UNL     1     -20.828 -16.153  10.788  1.00  0.00     0.166 HD
BRANCH  29  32
HETATM   32  C1  UNL     1     -22.633 -17.549  12.081  1.00  0.00     0.226 C 
HETATM   33  O1  UNL     1     -22.488 -18.508  12.879  1.00  0.00    -0.643 OA
HETATM   34  O2  UNL     1     -23.351 -17.727  10.916  1.00  0.00    -0.643 OA
ENDBRANCH  29  32
ENDBRANCH   1  25
TORSDOF 4
ENDMDL
