MODEL 4
REMARK VINA RESULT: -9.485276071      5.436      9.508
REMARK  4 active torsions:
REMARK  status: ('A' for Active; 'I' for Inactive)
REMARK    1  A    between atoms: C1_2  and  C2_4 
REMARK    2  A    between atoms: C6_8  and  C7_9 
REMARK    3  A    between atoms: N1_16  and  N2_18 
REMARK    4  A    between atoms: N2_18  and  C14_20 
ROOT
HETATM    1  C7  UNL     1     -21.461 -16.865  11.434  1.00  0.00    -0.009 A 
HETATM    2  C8  UNL     1     -21.122 -17.773  10.458  1.00  0.00     0.014 A 
HETATM    3  C9  UNL     1     -21.651 -19.062  10.441  1.00  0.00     0.009 A 
HETATM    4  C10 UNL     1     -22.526 -19.458  11.401  1.00  0.00    -0.046 A 
HETATM    5  C11 UNL     1     -22.890 -18.552  12.409  1.00  0.00    -0.005 A 
HETATM    6  C12 UNL     1     -22.365 -17.291  12.415  1.00  0.00     0.027 A 
HETATM    7  C13 UNL     1     -23.821 -18.942  13.454  1.00  0.00     0.036 C 
HETATM    8  N1  UNL     1     -24.391 -18.045  14.163  1.00  0.00    -0.302 N 
ATOM      9  H1  UNL     1     -24.162 -17.071  13.963  1.00  0.00     0.186 HD
HETATM   10  C21 UNL     1     -24.106 -20.377  13.692  1.00  0.00     0.060 C 
HETATM   11  C22 UNL     1     -23.092 -21.245  12.930  1.00  0.00     0.011 C 
HETATM   12  C23 UNL     1     -23.156 -20.797  11.486  1.00  0.00     0.040 C 
ENDROOT
BRANCH   8  13
HETATM   13  N2  UNL     1     -25.288 -18.292  15.176  1.00  0.00    -0.279 N 
ATOM     14  H2  UNL     1     -26.071 -18.921  14.996  1.00  0.00     0.189 HD
BRANCH  13  15
HETATM   15  C14 UNL     1     -25.162 -17.693  16.485  1.00  0.00     0.164 A 
HETATM   16  N3  UNL     1     -25.819 -17.961  17.588  1.00  0.00    -0.334 N 
HETATM   17  C15 UNL     1     -25.567 -17.312  18.684  1.00  0.00     0.051 A 
ATOM     18  H3  UNL     1     -26.535 -18.688  17.586  1.00  0.00     0.168 HD
HETATM   19  C16 UNL     1     -26.198 -17.504  19.929  1.00  0.00     0.031 A 
HETATM   20  C20 UNL     1     -24.594 -16.345  18.636  1.00  0.00     0.035 A 
HETATM   21  C17 UNL     1     -25.855 -16.765  21.013  1.00  0.00     0.002 A 
HETATM   22  C18 UNL     1     -24.880 -15.793  20.971  1.00  0.00     0.002 A 
HETATM   23  C19 UNL     1     -24.252 -15.590  19.768  1.00  0.00     0.021 A 
HETATM   24  S1  UNL     1     -24.108 -16.440  16.999  1.00  0.00    -0.051 SA
ENDBRANCH  13  15
ENDBRANCH   8  13
BRANCH   1  25
HETATM   25  C6  UNL     1     -20.926 -15.513  11.479  1.00  0.00     0.043 A 
HETATM   26  C5  UNL     1     -21.165 -14.680  12.533  1.00  0.00     0.030 A 
HETATM   27  C4  UNL     1     -20.632 -13.400  12.526  1.00  0.00     0.005 A 
HETATM   28  C3  UNL     1     -19.874 -13.009  11.452  1.00  0.00     0.037 A 
HETATM   29  C2  UNL     1     -19.648 -13.869  10.403  1.00  0.00     0.110 A 
HETATM   30  N4  UNL     1     -20.169 -15.090  10.429  1.00  0.00    -0.350 N 
ATOM     31  H4  UNL     1     -19.999 -15.724   9.648  1.00  0.00     0.166 HD
BRANCH  29  32
HETATM   32  C1  UNL     1     -18.837 -13.400   9.288  1.00  0.00     0.226 C 
HETATM   33  O1  UNL     1     -19.021 -13.919   8.160  1.00  0.00    -0.643 OA
HETATM   34  O2  UNL     1     -17.884 -12.413   9.443  1.00  0.00    -0.643 OA
ENDBRANCH  29  32
ENDBRANCH   1  25
TORSDOF 4
ENDMDL
