MODEL 12
REMARK VINA RESULT: -9.581362347      1.321      1.824
REMARK  11 active torsions:
REMARK  status: ('A' for Active; 'I' for Inactive)
REMARK    1  A    between atoms: N1_1  and  C1_5 
REMARK    2  A    between atoms: C1_5  and  C2_6 
REMARK    3  A    between atoms: C5_9  and  O1_10 
REMARK    4  A    between atoms: O1_10  and  C6_11 
REMARK    5  A    between atoms: C6_11  and  C7_12 
REMARK    6  A    between atoms: C7_12  and  C8_13 
REMARK    7  A    between atoms: C8_13  and  C9_14 
REMARK    8  A    between atoms: C10_16  and  C11_17 
REMARK    9  A    between atoms: N2_24  and  N3_26 
REMARK   10  A    between atoms: N3_26  and  C18_28 
REMARK   11  A    between atoms: C28_43  and  C29_44 
ROOT
HETATM    1  C9  UNL     1     -14.874 -16.085 -48.131  1.00  0.00     0.018 A 
HETATM    2  S1  UNL     1     -16.016 -17.251 -47.522  1.00  0.00    -0.074 SA
HETATM    3  C10 UNL     1     -17.155 -16.175 -46.865  1.00  0.00     0.085 A 
HETATM    4  N5  UNL     1     -16.623 -15.008 -47.138  1.00  0.00    -0.344 N 
ATOM      5  H5  UNL     1     -17.108 -14.158 -46.850  1.00  0.00     0.167 HD
HETATM    6  C28 UNL     1     -15.489 -14.913 -47.767  1.00  0.00     0.123 A 
ENDROOT
BRANCH   3   7
HETATM    7  C11 UNL     1     -18.428 -16.471 -46.162  1.00  0.00    -0.001 A 
HETATM    8  C12 UNL     1     -18.616 -17.714 -45.614  1.00  0.00     0.015 A 
HETATM    9  C13 UNL     1     -19.804 -18.036 -44.941  1.00  0.00     0.009 A 
HETATM   10  C14 UNL     1     -20.792 -17.081 -44.834  1.00  0.00    -0.046 A 
HETATM   11  C15 UNL     1     -20.578 -15.839 -45.393  1.00  0.00    -0.005 A 
HETATM   12  C27 UNL     1     -22.068 -17.365 -44.133  1.00  0.00     0.040 C 
HETATM   13  C16 UNL     1     -19.391 -15.521 -46.065  1.00  0.00     0.028 A 
HETATM   14  C17 UNL     1     -21.583 -14.756 -45.331  1.00  0.00     0.036 C 
HETATM   15  N2  UNL     1     -21.529 -13.758 -46.142  1.00  0.00    -0.302 N 
HETATM   16  C25 UNL     1     -22.622 -14.928 -44.285  1.00  0.00     0.060 C 
ATOM     17  H2  UNL     1     -20.785 -13.709 -46.838  1.00  0.00     0.186 HD
HETATM   18  C26 UNL     1     -23.134 -16.364 -44.451  1.00  0.00     0.011 C 
BRANCH  15  19
HETATM   19  N3  UNL     1     -22.483 -12.746 -46.073  1.00  0.00    -0.279 N 
ATOM     20  H3  UNL     1     -23.468 -12.963 -46.223  1.00  0.00     0.189 HD
BRANCH  19  21
HETATM   21  C18 UNL     1     -22.080 -11.387 -45.790  1.00  0.00     0.164 A 
HETATM   22  N4  UNL     1     -22.793 -10.285 -45.788  1.00  0.00    -0.334 N 
HETATM   23  C19 UNL     1     -22.237  -9.144 -45.508  1.00  0.00     0.051 A 
ATOM     24  H4  UNL     1     -23.788 -10.324 -46.009  1.00  0.00     0.168 HD
HETATM   25  C20 UNL     1     -22.873  -7.895 -45.470  1.00  0.00     0.031 A 
HETATM   26  C24 UNL     1     -20.901  -9.141 -45.218  1.00  0.00     0.035 A 
HETATM   27  C21 UNL     1     -22.211  -6.753 -45.167  1.00  0.00     0.002 A 
HETATM   28  C22 UNL     1     -20.865  -6.748 -44.875  1.00  0.00     0.002 A 
HETATM   29  C23 UNL     1     -20.213  -7.960 -44.903  1.00  0.00     0.021 A 
HETATM   30  S2  UNL     1     -20.515 -10.800 -45.368  1.00  0.00    -0.051 SA
ENDBRANCH  19  21
ENDBRANCH  15  19
ENDBRANCH   3   7
BRANCH   1  31
HETATM   31  C8  UNL     1     -13.574 -16.385 -48.785  1.00  0.00     0.051 C 
BRANCH  31  32
HETATM   32  C7  UNL     1     -12.422 -15.670 -48.168  1.00  0.00     0.032 C 
BRANCH  32  33
HETATM   33  C6  UNL     1     -11.407 -15.065 -49.058  1.00  0.00     0.176 C 
BRANCH  33  34
HETATM   34  O1  UNL     1     -11.892 -14.051 -49.911  1.00  0.00    -0.351 OA
BRANCH  34  35
HETATM   35  C5  UNL     1     -11.249 -12.820 -49.865  1.00  0.00     0.068 A 
HETATM   36  C4  UNL     1     -10.161 -12.517 -50.667  1.00  0.00     0.037 A 
HETATM   37  C3  UNL     1      -9.556 -11.281 -50.586  1.00  0.00     0.011 A 
HETATM   38  C2  UNL     1     -10.024 -10.309 -49.699  1.00  0.00    -0.033 A 
HETATM   39  C31 UNL     1     -11.108 -10.641 -48.914  1.00  0.00     0.011 A 
HETATM   40  C30 UNL     1     -11.724 -11.873 -48.984  1.00  0.00     0.037 A 
BRANCH  38  41
HETATM   41  C1  UNL     1      -9.362  -9.000 -49.630  1.00  0.00     0.268 C 
BRANCH  41  42
HETATM   42  N1  UNL     1      -8.047  -9.056 -50.273  1.00  0.00    -0.075 N 
ATOM     43  H13 UNL     1      -7.306  -9.255 -49.603  1.00  0.00     0.274 HD
ATOM     44  H12 UNL     1      -7.948  -9.883 -50.861  1.00  0.00     0.274 HD
ATOM     45  H11 UNL     1      -7.868  -8.197 -50.793  1.00  0.00     0.274 HD
ENDBRANCH  41  42
ENDBRANCH  38  41
ENDBRANCH  34  35
ENDBRANCH  33  34
ENDBRANCH  32  33
ENDBRANCH  31  32
ENDBRANCH   1  31
BRANCH   6  46
HETATM   46  C29 UNL     1     -14.935 -13.586 -48.138  1.00  0.00     0.228 C 
HETATM   47  O2  UNL     1     -14.488 -12.811 -47.288  1.00  0.00    -0.643 OA
HETATM   48  O3  UNL     1     -14.918 -13.212 -49.458  1.00  0.00    -0.643 OA
ENDBRANCH   6  46
TORSDOF 11
ENDMDL
