MODEL 1
REMARK VINA RESULT: -11.586728712      0.000      0.000
REMARK  11 active torsions:
REMARK  status: ('A' for Active; 'I' for Inactive)
REMARK    1  A    between atoms: N1_1  and  C1_5 
REMARK    2  A    between atoms: C1_5  and  C2_6 
REMARK    3  A    between atoms: C5_9  and  O1_10 
REMARK    4  A    between atoms: O1_10  and  C6_11 
REMARK    5  A    between atoms: C6_11  and  C7_12 
REMARK    6  A    between atoms: C7_12  and  C8_13 
REMARK    7  A    between atoms: C8_13  and  C9_14 
REMARK    8  A    between atoms: C10_16  and  C11_17 
REMARK    9  A    between atoms: N2_24  and  N3_26 
REMARK   10  A    between atoms: N3_26  and  C18_28 
REMARK   11  A    between atoms: C28_43  and  C29_44 
ROOT
HETATM    1  C9  UNL     1     -14.590 -14.124 -47.771  1.00  0.00     0.018 A 
HETATM    2  S1  UNL     1     -16.161 -13.794 -47.093  1.00  0.00    -0.074 SA
HETATM    3  C10 UNL     1     -16.668 -15.395 -46.829  1.00  0.00     0.085 A 
HETATM    4  N5  UNL     1     -15.639 -16.085 -47.259  1.00  0.00    -0.344 N 
ATOM      5  H5  UNL     1     -15.670 -17.104 -47.220  1.00  0.00     0.167 HD
HETATM    6  C28 UNL     1     -14.582 -15.496 -47.736  1.00  0.00     0.123 A 
ENDROOT
BRANCH   3   7
HETATM    7  C11 UNL     1     -17.945 -15.892 -46.261  1.00  0.00    -0.001 A 
HETATM    8  C12 UNL     1     -18.046 -17.209 -45.892  1.00  0.00     0.015 A 
HETATM    9  C13 UNL     1     -19.235 -17.720 -45.352  1.00  0.00     0.009 A 
HETATM   10  C14 UNL     1     -20.314 -16.877 -45.192  1.00  0.00    -0.046 A 
HETATM   11  C15 UNL     1     -20.186 -15.558 -45.570  1.00  0.00    -0.005 A 
HETATM   12  C27 UNL     1     -21.596 -17.362 -44.624  1.00  0.00     0.040 C 
HETATM   13  C16 UNL     1     -18.998 -15.051 -46.110  1.00  0.00     0.028 A 
HETATM   14  C17 UNL     1     -21.292 -14.584 -45.439  1.00  0.00     0.036 C 
HETATM   15  N2  UNL     1     -21.286 -13.485 -46.109  1.00  0.00    -0.302 N 
HETATM   16  C25 UNL     1     -22.369 -14.984 -44.499  1.00  0.00     0.060 C 
ATOM     17  H2  UNL     1     -20.510 -13.278 -46.739  1.00  0.00     0.186 HD
HETATM   18  C26 UNL     1     -22.732 -16.423 -44.884  1.00  0.00     0.011 C 
BRANCH  15  19
HETATM   19  N3  UNL     1     -22.334 -12.577 -45.977  1.00  0.00    -0.279 N 
ATOM     20  H3  UNL     1     -23.299 -12.897 -46.067  1.00  0.00     0.189 HD
BRANCH  19  21
HETATM   21  C18 UNL     1     -22.058 -11.184 -45.713  1.00  0.00     0.164 A 
HETATM   22  N4  UNL     1     -22.870 -10.152 -45.724  1.00  0.00    -0.334 N 
HETATM   23  C19 UNL     1     -22.421  -8.961 -45.459  1.00  0.00     0.051 A 
ATOM     24  H4  UNL     1     -23.858 -10.285 -45.942  1.00  0.00     0.168 HD
HETATM   25  C20 UNL     1     -23.170  -7.776 -45.437  1.00  0.00     0.031 A 
HETATM   26  C24 UNL     1     -21.091  -8.831 -45.172  1.00  0.00     0.035 A 
HETATM   27  C21 UNL     1     -22.616  -6.573 -45.150  1.00  0.00     0.002 A 
HETATM   28  C22 UNL     1     -21.277  -6.440 -44.861  1.00  0.00     0.002 A 
HETATM   29  C23 UNL     1     -20.515  -7.587 -44.875  1.00  0.00     0.021 A 
HETATM   30  S2  UNL     1     -20.553 -10.449 -45.302  1.00  0.00    -0.051 SA
ENDBRANCH  19  21
ENDBRANCH  15  19
ENDBRANCH   3   7
BRANCH   1  31
HETATM   31  C8  UNL     1     -13.627 -13.119 -48.290  1.00  0.00     0.051 C 
BRANCH  31  32
HETATM   32  C7  UNL     1     -13.603 -13.036 -49.777  1.00  0.00     0.032 C 
BRANCH  32  33
HETATM   33  C6  UNL     1     -12.295 -13.077 -50.466  1.00  0.00     0.176 C 
BRANCH  33  34
HETATM   34  O1  UNL     1     -11.171 -12.962 -49.620  1.00  0.00    -0.351 OA
BRANCH  34  35
HETATM   35  C5  UNL     1     -10.452 -11.775 -49.676  1.00  0.00     0.068 A 
HETATM   36  C4  UNL     1     -10.755 -10.681 -48.881  1.00  0.00     0.037 A 
HETATM   37  C3  UNL     1     -10.012  -9.524 -48.971  1.00  0.00     0.011 A 
HETATM   38  C2  UNL     1      -8.941  -9.427 -49.863  1.00  0.00    -0.033 A 
HETATM   39  C31 UNL     1      -8.665 -10.531 -50.642  1.00  0.00     0.011 A 
HETATM   40  C30 UNL     1      -9.399 -11.696 -50.561  1.00  0.00     0.037 A 
BRANCH  38  41
HETATM   41  C1  UNL     1      -8.164  -8.183 -49.943  1.00  0.00     0.268 C 
BRANCH  41  42
HETATM   42  N1  UNL     1      -6.749  -8.476 -50.180  1.00  0.00    -0.075 N 
ATOM     43  H13 UNL     1      -6.193  -8.368 -49.333  1.00  0.00     0.274 HD
ATOM     44  H12 UNL     1      -6.590  -9.469 -50.342  1.00  0.00     0.274 HD
ATOM     45  H11 UNL     1      -6.390  -7.904 -50.944  1.00  0.00     0.274 HD
ENDBRANCH  41  42
ENDBRANCH  38  41
ENDBRANCH  34  35
ENDBRANCH  33  34
ENDBRANCH  32  33
ENDBRANCH  31  32
ENDBRANCH   1  31
BRANCH   6  46
HETATM   46  C29 UNL     1     -13.395 -16.287 -48.148  1.00  0.00     0.228 C 
HETATM   47  O2  UNL     1     -12.608 -16.755 -47.320  1.00  0.00    -0.643 OA
HETATM   48  O3  UNL     1     -13.165 -16.503 -49.484  1.00  0.00    -0.643 OA
ENDBRANCH   6  46
TORSDOF 11
ENDMDL
