MODEL 5
REMARK VINA RESULT: -10.136763934      2.986      5.076
REMARK  11 active torsions:
REMARK  status: ('A' for Active; 'I' for Inactive)
REMARK    1  A    between atoms: N1_1  and  C1_5 
REMARK    2  A    between atoms: C1_5  and  C2_6 
REMARK    3  A    between atoms: C5_9  and  O1_10 
REMARK    4  A    between atoms: O1_10  and  C6_11 
REMARK    5  A    between atoms: C6_11  and  C7_12 
REMARK    6  A    between atoms: C7_12  and  C8_13 
REMARK    7  A    between atoms: C8_13  and  C9_14 
REMARK    8  A    between atoms: C10_16  and  C11_17 
REMARK    9  A    between atoms: N2_24  and  N3_26 
REMARK   10  A    between atoms: N3_26  and  C18_28 
REMARK   11  A    between atoms: C28_43  and  C29_44 
ROOT
HETATM    1  C9  UNL     1     -14.615 -14.218 -47.745  1.00  0.00     0.018 A 
HETATM    2  S1  UNL     1     -16.208 -13.862 -47.137  1.00  0.00    -0.074 SA
HETATM    3  C10 UNL     1     -16.703 -15.445 -46.772  1.00  0.00     0.085 A 
HETATM    4  N5  UNL     1     -15.655 -16.151 -47.120  1.00  0.00    -0.344 N 
ATOM      5  H5  UNL     1     -15.674 -17.164 -47.007  1.00  0.00     0.167 HD
HETATM    6  C28 UNL     1     -14.591 -15.584 -47.609  1.00  0.00     0.123 A 
ENDROOT
BRANCH   3   7
HETATM    7  C11 UNL     1     -17.991 -15.918 -46.204  1.00  0.00    -0.001 A 
HETATM    8  C12 UNL     1     -18.110 -17.227 -45.815  1.00  0.00     0.015 A 
HETATM    9  C13 UNL     1     -19.310 -17.715 -45.275  1.00  0.00     0.009 A 
HETATM   10  C14 UNL     1     -20.379 -16.856 -45.137  1.00  0.00    -0.046 A 
HETATM   11  C15 UNL     1     -20.232 -15.545 -45.536  1.00  0.00    -0.005 A 
HETATM   12  C27 UNL     1     -21.671 -17.316 -44.571  1.00  0.00     0.040 C 
HETATM   13  C16 UNL     1     -19.035 -15.061 -46.075  1.00  0.00     0.028 A 
HETATM   14  C17 UNL     1     -21.328 -14.556 -45.430  1.00  0.00     0.036 C 
HETATM   15  N2  UNL     1     -21.303 -13.468 -46.118  1.00  0.00    -0.302 N 
HETATM   16  C25 UNL     1     -22.416 -14.927 -44.491  1.00  0.00     0.060 C 
ATOM     17  H2  UNL     1     -20.521 -13.281 -46.745  1.00  0.00     0.186 HD
HETATM   18  C26 UNL     1     -22.793 -16.368 -44.855  1.00  0.00     0.011 C 
BRANCH  15  19
HETATM   19  N3  UNL     1     -22.341 -12.546 -46.009  1.00  0.00    -0.279 N 
ATOM     20  H3  UNL     1     -23.308 -12.851 -46.123  1.00  0.00     0.189 HD
BRANCH  19  21
HETATM   21  C18 UNL     1     -22.051 -11.157 -45.734  1.00  0.00     0.164 A 
HETATM   22  N4  UNL     1     -22.850 -10.115 -45.755  1.00  0.00    -0.334 N 
HETATM   23  C19 UNL     1     -22.390  -8.931 -45.478  1.00  0.00     0.051 A 
ATOM     24  H4  UNL     1     -23.835 -10.235 -45.990  1.00  0.00     0.168 HD
HETATM   25  C20 UNL     1     -23.125  -7.736 -45.464  1.00  0.00     0.031 A 
HETATM   26  C24 UNL     1     -21.064  -8.819 -45.168  1.00  0.00     0.035 A 
HETATM   27  C21 UNL     1     -22.560  -6.542 -45.163  1.00  0.00     0.002 A 
HETATM   28  C22 UNL     1     -21.224  -6.427 -44.851  1.00  0.00     0.002 A 
HETATM   29  C23 UNL     1     -20.477  -7.584 -44.856  1.00  0.00     0.021 A 
HETATM   30  S2  UNL     1     -20.545 -10.444 -45.295  1.00  0.00    -0.051 SA
ENDBRANCH  19  21
ENDBRANCH  15  19
ENDBRANCH   3   7
BRANCH   1  31
HETATM   31  C8  UNL     1     -13.649 -13.240 -48.309  1.00  0.00     0.051 C 
BRANCH  31  32
HETATM   32  C7  UNL     1     -13.491 -13.350 -49.786  1.00  0.00     0.032 C 
BRANCH  32  33
HETATM   33  C6  UNL     1     -14.639 -13.829 -50.586  1.00  0.00     0.176 C 
BRANCH  33  34
HETATM   34  O1  UNL     1     -14.369 -14.945 -51.407  1.00  0.00    -0.351 OA
BRANCH  34  35
HETATM   35  C5  UNL     1     -15.459 -15.641 -51.913  1.00  0.00     0.068 A 
HETATM   36  C4  UNL     1     -15.776 -16.927 -51.509  1.00  0.00     0.037 A 
HETATM   37  C3  UNL     1     -16.869 -17.578 -52.039  1.00  0.00     0.011 A 
HETATM   38  C2  UNL     1     -17.680 -16.958 -52.993  1.00  0.00    -0.033 A 
HETATM   39  C31 UNL     1     -17.339 -15.678 -53.376  1.00  0.00     0.011 A 
HETATM   40  C30 UNL     1     -16.248 -15.014 -52.854  1.00  0.00     0.037 A 
BRANCH  38  41
HETATM   41  C1  UNL     1     -18.839 -17.672 -53.545  1.00  0.00     0.268 C 
BRANCH  41  42
HETATM   42  N1  UNL     1     -20.046 -17.360 -52.778  1.00  0.00    -0.075 N 
ATOM     43  H13 UNL     1     -19.828 -16.872 -51.909  1.00  0.00     0.274 HD
ATOM     44  H12 UNL     1     -20.602 -16.631 -53.225  1.00  0.00     0.274 HD
ATOM     45  H11 UNL     1     -20.592 -18.205 -52.611  1.00  0.00     0.274 HD
ENDBRANCH  41  42
ENDBRANCH  38  41
ENDBRANCH  34  35
ENDBRANCH  33  34
ENDBRANCH  32  33
ENDBRANCH  31  32
ENDBRANCH   1  31
BRANCH   6  46
HETATM   46  C29 UNL     1     -13.383 -16.385 -47.928  1.00  0.00     0.228 C 
HETATM   47  O2  UNL     1     -12.424 -16.449 -47.154  1.00  0.00    -0.643 OA
HETATM   48  O3  UNL     1     -13.330 -17.074 -49.114  1.00  0.00    -0.643 OA
ENDBRANCH   6  46
TORSDOF 11
ENDMDL
