MODEL 2
REMARK VINA RESULT: -10.985094802      0.606      1.127
REMARK  11 active torsions:
REMARK  status: ('A' for Active; 'I' for Inactive)
REMARK    1  A    between atoms: N1_1  and  C1_5 
REMARK    2  A    between atoms: C1_5  and  C2_6 
REMARK    3  A    between atoms: C5_9  and  O1_10 
REMARK    4  A    between atoms: O1_10  and  C6_11 
REMARK    5  A    between atoms: C6_11  and  C7_12 
REMARK    6  A    between atoms: C7_12  and  C8_13 
REMARK    7  A    between atoms: C8_13  and  C9_14 
REMARK    8  A    between atoms: C10_16  and  C11_17 
REMARK    9  A    between atoms: N2_24  and  N3_26 
REMARK   10  A    between atoms: N3_26  and  C18_28 
REMARK   11  A    between atoms: C28_43  and  C29_44 
ROOT
HETATM    1  C9  UNL     1     -14.693 -14.215 -47.669  1.00  0.00     0.018 A 
HETATM    2  S1  UNL     1     -16.215 -13.851 -46.902  1.00  0.00    -0.074 SA
HETATM    3  C10 UNL     1     -16.822 -15.433 -46.773  1.00  0.00     0.085 A 
HETATM    4  N5  UNL     1     -15.858 -16.144 -47.306  1.00  0.00    -0.344 N 
ATOM      5  H5  UNL     1     -15.957 -17.157 -47.362  1.00  0.00     0.167 HD
HETATM    6  C28 UNL     1     -14.778 -15.582 -47.764  1.00  0.00     0.123 A 
ENDROOT
BRANCH   3   7
HETATM    7  C11 UNL     1     -18.111 -15.898 -46.205  1.00  0.00    -0.001 A 
HETATM    8  C12 UNL     1     -18.240 -17.209 -45.821  1.00  0.00     0.015 A 
HETATM    9  C13 UNL     1     -19.441 -17.690 -45.281  1.00  0.00     0.009 A 
HETATM   10  C14 UNL     1     -20.505 -16.825 -45.138  1.00  0.00    -0.046 A 
HETATM   11  C15 UNL     1     -20.350 -15.513 -45.532  1.00  0.00    -0.005 A 
HETATM   12  C27 UNL     1     -21.799 -17.279 -44.572  1.00  0.00     0.040 C 
HETATM   13  C16 UNL     1     -19.149 -15.036 -46.071  1.00  0.00     0.028 A 
HETATM   14  C17 UNL     1     -21.438 -14.517 -45.420  1.00  0.00     0.036 C 
HETATM   15  N2  UNL     1     -21.407 -13.427 -46.103  1.00  0.00    -0.302 N 
HETATM   16  C25 UNL     1     -22.527 -14.885 -44.481  1.00  0.00     0.060 C 
ATOM     17  H2  UNL     1     -20.624 -13.243 -46.731  1.00  0.00     0.186 HD
HETATM   18  C26 UNL     1     -22.915 -16.322 -44.850  1.00  0.00     0.011 C 
BRANCH  15  19
HETATM   19  N3  UNL     1     -22.438 -12.498 -45.989  1.00  0.00    -0.279 N 
ATOM     20  H3  UNL     1     -23.408 -12.797 -46.098  1.00  0.00     0.189 HD
BRANCH  19  21
HETATM   21  C18 UNL     1     -22.139 -11.111 -45.715  1.00  0.00     0.164 A 
HETATM   22  N4  UNL     1     -22.936 -10.068 -45.700  1.00  0.00    -0.334 N 
HETATM   23  C19 UNL     1     -22.467  -8.886 -45.432  1.00  0.00     0.051 A 
ATOM     24  H4  UNL     1     -23.930 -10.187 -45.901  1.00  0.00     0.168 HD
HETATM   25  C20 UNL     1     -23.200  -7.692 -45.383  1.00  0.00     0.031 A 
HETATM   26  C24 UNL     1     -21.130  -8.777 -45.168  1.00  0.00     0.035 A 
HETATM   27  C21 UNL     1     -22.624  -6.500 -45.094  1.00  0.00     0.002 A 
HETATM   28  C22 UNL     1     -21.278  -6.388 -44.829  1.00  0.00     0.002 A 
HETATM   29  C23 UNL     1     -20.532  -7.545 -44.869  1.00  0.00     0.021 A 
HETATM   30  S2  UNL     1     -20.617 -10.401 -45.325  1.00  0.00    -0.051 SA
ENDBRANCH  19  21
ENDBRANCH  15  19
ENDBRANCH   3   7
BRANCH   1  31
HETATM   31  C8  UNL     1     -13.681 -13.229 -48.127  1.00  0.00     0.051 C 
BRANCH  31  32
HETATM   32  C7  UNL     1     -13.633 -13.075 -49.608  1.00  0.00     0.032 C 
BRANCH  32  33
HETATM   33  C6  UNL     1     -12.353 -12.684 -50.237  1.00  0.00     0.176 C 
BRANCH  33  34
HETATM   34  O1  UNL     1     -11.699 -11.591 -49.629  1.00  0.00    -0.351 OA
BRANCH  34  35
HETATM   35  C5  UNL     1     -10.397 -11.324 -50.033  1.00  0.00     0.068 A 
HETATM   36  C4  UNL     1      -9.524 -12.318 -50.443  1.00  0.00     0.037 A 
HETATM   37  C3  UNL     1      -8.242 -12.005 -50.836  1.00  0.00     0.011 A 
HETATM   38  C2  UNL     1      -7.793 -10.681 -50.832  1.00  0.00    -0.033 A 
HETATM   39  C31 UNL     1      -8.684  -9.714 -50.419  1.00  0.00     0.011 A 
HETATM   40  C30 UNL     1      -9.971 -10.013 -50.023  1.00  0.00     0.037 A 
BRANCH  38  41
HETATM   41  C1  UNL     1      -6.421 -10.371 -51.254  1.00  0.00     0.268 C 
BRANCH  41  42
HETATM   42  N1  UNL     1      -5.933  -9.171 -50.572  1.00  0.00    -0.075 N 
ATOM     43  H13 UNL     1      -5.823  -8.388 -51.215  1.00  0.00     0.274 HD
ATOM     44  H12 UNL     1      -6.642  -8.768 -49.960  1.00  0.00     0.274 HD
ATOM     45  H11 UNL     1      -5.069  -9.373 -50.069  1.00  0.00     0.274 HD
ENDBRANCH  41  42
ENDBRANCH  38  41
ENDBRANCH  34  35
ENDBRANCH  33  34
ENDBRANCH  32  33
ENDBRANCH  31  32
ENDBRANCH   1  31
BRANCH   6  46
HETATM   46  C29 UNL     1     -13.662 -16.404 -48.295  1.00  0.00     0.228 C 
HETATM   47  O2  UNL     1     -13.528 -16.613 -49.504  1.00  0.00    -0.643 OA
HETATM   48  O3  UNL     1     -12.754 -16.945 -47.419  1.00  0.00    -0.643 OA
ENDBRANCH   6  46
TORSDOF 11
ENDMDL
