MODEL 6
REMARK VINA RESULT: -9.912918161      4.172     13.707
REMARK  11 active torsions:
REMARK  status: ('A' for Active; 'I' for Inactive)
REMARK    1  A    between atoms: N1_1  and  C1_5 
REMARK    2  A    between atoms: C1_5  and  C2_6 
REMARK    3  A    between atoms: C5_9  and  O1_10 
REMARK    4  A    between atoms: O1_10  and  C6_11 
REMARK    5  A    between atoms: C6_11  and  C7_12 
REMARK    6  A    between atoms: C7_12  and  C8_13 
REMARK    7  A    between atoms: C8_13  and  C9_14 
REMARK    8  A    between atoms: C10_16  and  C11_17 
REMARK    9  A    between atoms: N2_24  and  N3_26 
REMARK   10  A    between atoms: N3_26  and  C18_28 
REMARK   11  A    between atoms: C28_43  and  C29_44 
ROOT
HETATM    1  C9  UNL     1     -14.203 -14.015 -48.991  1.00  0.00     0.018 A 
HETATM    2  S1  UNL     1     -13.290 -12.680 -48.343  1.00  0.00    -0.074 SA
HETATM    3  C10 UNL     1     -12.231 -12.436 -49.649  1.00  0.00     0.085 A 
HETATM    4  N5  UNL     1     -12.617 -13.360 -50.495  1.00  0.00    -0.344 N 
ATOM      5  H5  UNL     1     -12.140 -13.447 -51.392  1.00  0.00     0.167 HD
HETATM    6  C28 UNL     1     -13.595 -14.169 -50.212  1.00  0.00     0.123 A 
ENDROOT
BRANCH   3   7
HETATM    7  C11 UNL     1     -11.145 -11.437 -49.801  1.00  0.00    -0.001 A 
HETATM    8  C12 UNL     1     -11.375 -10.136 -49.432  1.00  0.00     0.015 A 
HETATM    9  C13 UNL     1     -10.376  -9.159 -49.561  1.00  0.00     0.009 A 
HETATM   10  C14 UNL     1      -9.147  -9.523 -50.066  1.00  0.00    -0.046 A 
HETATM   11  C15 UNL     1      -8.941 -10.836 -50.430  1.00  0.00    -0.005 A 
HETATM   12  C27 UNL     1      -8.053  -8.533 -50.223  1.00  0.00     0.040 C 
HETATM   13  C16 UNL     1      -9.940 -11.809 -50.301  1.00  0.00     0.028 A 
HETATM   14  C17 UNL     1      -7.656 -11.314 -50.986  1.00  0.00     0.036 C 
HETATM   15  N2  UNL     1      -7.591 -12.420 -51.641  1.00  0.00    -0.302 N 
HETATM   16  C25 UNL     1      -6.495 -10.427 -50.726  1.00  0.00     0.060 C 
ATOM     17  H2  UNL     1      -8.434 -12.978 -51.781  1.00  0.00     0.186 HD
HETATM   18  C26 UNL     1      -6.960  -9.021 -51.122  1.00  0.00     0.011 C 
BRANCH  15  19
HETATM   19  N3  UNL     1      -6.375 -12.858 -52.160  1.00  0.00    -0.279 N 
ATOM     20  H3  UNL     1      -6.043 -12.496 -53.054  1.00  0.00     0.189 HD
BRANCH  19  21
HETATM   21  C18 UNL     1      -5.583 -13.824 -51.434  1.00  0.00     0.164 A 
HETATM   22  N4  UNL     1      -5.480 -14.020 -50.140  1.00  0.00    -0.334 N 
HETATM   23  C19 UNL     1      -4.698 -14.950 -49.677  1.00  0.00     0.051 A 
ATOM     24  H4  UNL     1      -6.016 -13.440 -49.494  1.00  0.00     0.168 HD
HETATM   25  C20 UNL     1      -4.492 -15.268 -48.327  1.00  0.00     0.031 A 
HETATM   26  C24 UNL     1      -4.001 -15.703 -50.580  1.00  0.00     0.035 A 
HETATM   27  C21 UNL     1      -3.653 -16.257 -47.935  1.00  0.00     0.002 A 
HETATM   28  C22 UNL     1      -2.950 -17.017 -48.843  1.00  0.00     0.002 A 
HETATM   29  C23 UNL     1      -3.133 -16.729 -50.177  1.00  0.00     0.021 A 
HETATM   30  S2  UNL     1      -4.514 -15.022 -52.063  1.00  0.00    -0.051 SA
ENDBRANCH  19  21
ENDBRANCH  15  19
ENDBRANCH   3   7
BRANCH   1  31
HETATM   31  C8  UNL     1     -15.280 -14.765 -48.294  1.00  0.00     0.051 C 
BRANCH  31  32
HETATM   32  C7  UNL     1     -15.359 -14.469 -46.836  1.00  0.00     0.032 C 
BRANCH  32  33
HETATM   33  C6  UNL     1     -16.687 -14.470 -46.186  1.00  0.00     0.176 C 
BRANCH  33  34
HETATM   34  O1  UNL     1     -17.622 -13.569 -46.739  1.00  0.00    -0.351 OA
BRANCH  34  35
HETATM   35  C5  UNL     1     -18.957 -13.751 -46.400  1.00  0.00     0.068 A 
HETATM   36  C4  UNL     1     -19.488 -14.995 -46.100  1.00  0.00     0.037 A 
HETATM   37  C3  UNL     1     -20.819 -15.126 -45.769  1.00  0.00     0.011 A 
HETATM   38  C2  UNL     1     -21.662 -14.012 -45.728  1.00  0.00    -0.033 A 
HETATM   39  C31 UNL     1     -21.105 -12.788 -46.032  1.00  0.00     0.011 A 
HETATM   40  C30 UNL     1     -19.774 -12.641 -46.365  1.00  0.00     0.037 A 
BRANCH  38  41
HETATM   41  C1  UNL     1     -23.077 -14.177 -45.374  1.00  0.00     0.268 C 
BRANCH  41  42
HETATM   42  N1  UNL     1     -23.855 -14.581 -46.547  1.00  0.00    -0.075 N 
ATOM     43  H13 UNL     1     -24.830 -14.290 -46.474  1.00  0.00     0.274 HD
ATOM     44  H12 UNL     1     -23.599 -14.045 -47.375  1.00  0.00     0.274 HD
ATOM     45  H11 UNL     1     -23.771 -15.585 -46.703  1.00  0.00     0.274 HD
ENDBRANCH  41  42
ENDBRANCH  38  41
ENDBRANCH  34  35
ENDBRANCH  33  34
ENDBRANCH  32  33
ENDBRANCH  31  32
ENDBRANCH   1  31
BRANCH   6  46
HETATM   46  C29 UNL     1     -14.073 -15.161 -51.208  1.00  0.00     0.228 C 
HETATM   47  O2  UNL     1     -15.152 -15.026 -51.791  1.00  0.00    -0.643 OA
HETATM   48  O3  UNL     1     -13.294 -16.256 -51.489  1.00  0.00    -0.643 OA
ENDBRANCH   6  46
TORSDOF 11
ENDMDL
