MODEL 8
REMARK VINA RESULT: -9.851008268      4.551     11.218
REMARK  11 active torsions:
REMARK  status: ('A' for Active; 'I' for Inactive)
REMARK    1  A    between atoms: N1_1  and  C1_5 
REMARK    2  A    between atoms: C1_5  and  C2_6 
REMARK    3  A    between atoms: C5_9  and  O1_10 
REMARK    4  A    between atoms: O1_10  and  C6_11 
REMARK    5  A    between atoms: C6_11  and  C7_12 
REMARK    6  A    between atoms: C7_12  and  C8_13 
REMARK    7  A    between atoms: C8_13  and  C9_14 
REMARK    8  A    between atoms: C10_16  and  C11_17 
REMARK    9  A    between atoms: N2_24  and  N3_26 
REMARK   10  A    between atoms: N3_26  and  C18_28 
REMARK   11  A    between atoms: C28_43  and  C29_44 
ROOT
HETATM    1  C9  UNL     1     -21.309  -9.093 -45.880  1.00  0.00     0.018 A 
HETATM    2  S1  UNL     1     -20.397 -10.466 -45.316  1.00  0.00    -0.074 SA
HETATM    3  C10 UNL     1     -21.374 -11.702 -45.952  1.00  0.00     0.085 A 
HETATM    4  N5  UNL     1     -22.323 -11.025 -46.551  1.00  0.00    -0.344 N 
ATOM      5  H5  UNL     1     -23.069 -11.528 -47.031  1.00  0.00     0.167 HD
HETATM    6  C28 UNL     1     -22.333  -9.724 -46.543  1.00  0.00     0.123 A 
ENDROOT
BRANCH   3   7
HETATM    7  C11 UNL     1     -21.204 -13.173 -45.858  1.00  0.00    -0.001 A 
HETATM    8  C12 UNL     1     -22.305 -13.962 -45.638  1.00  0.00     0.015 A 
HETATM    9  C13 UNL     1     -22.188 -15.357 -45.542  1.00  0.00     0.009 A 
HETATM   10  C14 UNL     1     -20.943 -15.934 -45.671  1.00  0.00    -0.046 A 
HETATM   11  C15 UNL     1     -19.853 -15.119 -45.891  1.00  0.00    -0.005 A 
HETATM   12  C27 UNL     1     -20.761 -17.404 -45.579  1.00  0.00     0.040 C 
HETATM   13  C16 UNL     1     -19.973 -13.728 -45.986  1.00  0.00     0.028 A 
HETATM   14  C17 UNL     1     -18.481 -15.652 -46.036  1.00  0.00     0.036 C 
HETATM   15  N2  UNL     1     -17.457 -14.888 -45.880  1.00  0.00    -0.302 N 
HETATM   16  C25 UNL     1     -18.403 -17.098 -46.364  1.00  0.00     0.060 C 
ATOM     17  H2  UNL     1     -17.589 -13.902 -45.653  1.00  0.00     0.186 HD
HETATM   18  C26 UNL     1     -19.332 -17.793 -45.362  1.00  0.00     0.011 C 
BRANCH  15  19
HETATM   19  N3  UNL     1     -16.170 -15.402 -46.019  1.00  0.00    -0.279 N 
ATOM     20  H3  UNL     1     -15.834 -16.116 -45.372  1.00  0.00     0.189 HD
BRANCH  19  21
HETATM   21  C18 UNL     1     -15.310 -14.928 -47.079  1.00  0.00     0.164 A 
HETATM   22  N4  UNL     1     -14.662 -13.791 -47.187  1.00  0.00    -0.334 N 
HETATM   23  C19 UNL     1     -13.934 -13.547 -48.235  1.00  0.00     0.051 A 
ATOM     24  H4  UNL     1     -14.731 -13.095 -46.443  1.00  0.00     0.168 HD
HETATM   25  C20 UNL     1     -13.193 -12.382 -48.481  1.00  0.00     0.031 A 
HETATM   26  C24 UNL     1     -13.870 -14.509 -49.204  1.00  0.00     0.035 A 
HETATM   27  C21 UNL     1     -12.460 -12.214 -49.608  1.00  0.00     0.002 A 
HETATM   28  C22 UNL     1     -12.395 -13.181 -50.585  1.00  0.00     0.002 A 
HETATM   29  C23 UNL     1     -13.111 -14.338 -50.371  1.00  0.00     0.021 A 
HETATM   30  S2  UNL     1     -14.876 -15.725 -48.544  1.00  0.00    -0.051 SA
ENDBRANCH  19  21
ENDBRANCH  15  19
ENDBRANCH   3   7
BRANCH   1  31
HETATM   31  C8  UNL     1     -21.015  -7.665 -45.598  1.00  0.00     0.051 C 
BRANCH  31  32
HETATM   32  C7  UNL     1     -21.971  -7.041 -44.642  1.00  0.00     0.032 C 
BRANCH  32  33
HETATM   33  C6  UNL     1     -22.697  -5.823 -45.061  1.00  0.00     0.176 C 
BRANCH  33  34
HETATM   34  O1  UNL     1     -22.731  -5.599 -46.454  1.00  0.00    -0.351 OA
BRANCH  34  35
HETATM   35  C5  UNL     1     -23.791  -4.852 -46.952  1.00  0.00     0.068 A 
HETATM   36  C4  UNL     1     -24.461  -3.909 -46.191  1.00  0.00     0.037 A 
HETATM   37  C3  UNL     1     -25.507  -3.191 -46.729  1.00  0.00     0.011 A 
HETATM   38  C2  UNL     1     -25.914  -3.397 -48.050  1.00  0.00    -0.033 A 
HETATM   39  C31 UNL     1     -25.228  -4.342 -48.782  1.00  0.00     0.011 A 
HETATM   40  C30 UNL     1     -24.179  -5.068 -48.257  1.00  0.00     0.037 A 
BRANCH  38  41
HETATM   41  C1  UNL     1     -27.033  -2.621 -48.601  1.00  0.00     0.268 C 
BRANCH  41  42
HETATM   42  N1  UNL     1     -28.276  -3.392 -48.531  1.00  0.00    -0.075 N 
ATOM     43  H13 UNL     1     -28.098  -4.384 -48.378  1.00  0.00     0.274 HD
ATOM     44  H12 UNL     1     -28.794  -3.197 -47.675  1.00  0.00     0.274 HD
ATOM     45  H11 UNL     1     -28.843  -3.232 -49.363  1.00  0.00     0.274 HD
ENDBRANCH  41  42
ENDBRANCH  38  41
ENDBRANCH  34  35
ENDBRANCH  33  34
ENDBRANCH  32  33
ENDBRANCH  31  32
ENDBRANCH   1  31
BRANCH   6  46
HETATM   46  C29 UNL     1     -23.370  -8.969 -47.289  1.00  0.00     0.228 C 
HETATM   47  O2  UNL     1     -24.212  -8.278 -46.708  1.00  0.00    -0.643 OA
HETATM   48  O3  UNL     1     -23.395  -9.039 -48.659  1.00  0.00    -0.643 OA
ENDBRANCH   6  46
TORSDOF 11
ENDMDL
