MODEL 1
REMARK VINA RESULT: -9.049220525      0.000      0.000
REMARK  10 active torsions:
REMARK  status: ('A' for Active; 'I' for Inactive)
REMARK    1  A    between atoms: N1_2  and  C3_4 
REMARK    2  A    between atoms: N2_7  and  C6_8 
REMARK    3  A    between atoms: C6_8  and  C7_9 
REMARK    4  A    between atoms: C10_12  and  C11_13 
REMARK    5  A    between atoms: C11_13  and  C12_14 
REMARK    6  A    between atoms: C12_14  and  C13_15 
REMARK    7  A    between atoms: C13_15  and  C14_16 
REMARK    8  A    between atoms: C14_16  and  C15_17 
REMARK    9  A    between atoms: C18_20  and  C19_21 
REMARK   10  A    between atoms: C19_21  and  N3_22 
ROOT
HETATM    1  C15 UNL     1      -8.913  12.259  -6.646  1.00  0.00    -0.058 A 
HETATM    2  C16 UNL     1      -9.885  11.304  -6.874  1.00  0.00     0.007 A 
HETATM    3  C17 UNL     1     -10.740  11.371  -7.954  1.00  0.00     0.009 A 
HETATM    4  C18 UNL     1     -10.661  12.409  -8.864  1.00  0.00    -0.040 A 
HETATM    5  C25 UNL     1      -9.691  13.361  -8.636  1.00  0.00     0.009 A 
HETATM    6  C26 UNL     1      -8.822  13.295  -7.540  1.00  0.00     0.007 A 
ENDROOT
BRANCH   1   7
HETATM    7  C14 UNL     1      -8.013  12.113  -5.446  1.00  0.00     0.038 C 
BRANCH   7   8
HETATM    8  C13 UNL     1      -8.771  12.225  -4.168  1.00  0.00     0.005 C 
BRANCH   8   9
HETATM    9  C12 UNL     1      -8.872  13.630  -3.667  1.00  0.00     0.005 C 
BRANCH   9  10
HETATM   10  C11 UNL     1     -10.297  14.109  -3.558  1.00  0.00     0.038 C 
BRANCH  10  11
HETATM   11  C10 UNL     1     -10.615  14.994  -4.723  1.00  0.00    -0.058 A 
HETATM   12  C9  UNL     1      -9.958  16.150  -4.986  1.00  0.00     0.007 A 
HETATM   13  C8  UNL     1     -10.331  16.901  -6.093  1.00  0.00     0.009 A 
HETATM   14  C7  UNL     1     -11.344  16.535  -6.947  1.00  0.00    -0.040 A 
HETATM   15  C28 UNL     1     -12.002  15.360  -6.669  1.00  0.00     0.009 A 
HETATM   16  C27 UNL     1     -11.646  14.590  -5.567  1.00  0.00     0.007 A 
BRANCH  14  17
HETATM   17  C6  UNL     1     -11.683  17.386  -8.101  1.00  0.00     0.161 C 
BRANCH  17  18
HETATM   18  N2  UNL     1     -11.099  16.840  -9.342  1.00  0.00    -0.382 N 
HETATM   19  C5  UNL     1      -9.678  16.907  -9.565  1.00  0.00     0.152 A 
HETATM   20  C4  UNL     1      -9.249  16.319 -10.845  1.00  0.00     0.022 A 
HETATM   21  C3  UNL     1     -10.068  15.772 -11.732  1.00  0.00     0.028 A 
HETATM   22  C30 UNL     1     -11.486  15.746 -11.429  1.00  0.00     0.046 A 
HETATM   23  C29 UNL     1     -11.947  16.250 -10.306  1.00  0.00     0.088 A 
BRANCH  21  24
HETATM   24  N1  UNL     1      -9.554  15.223 -12.958  1.00  0.00    -0.390 N 
HETATM   25  C1  UNL     1     -10.295  15.423 -14.167  1.00  0.00     0.149 C 
HETATM   26  C2  UNL     1      -8.327  14.494 -12.950  1.00  0.00     0.149 C 
ENDBRANCH  21  24
ENDBRANCH  17  18
ENDBRANCH  14  17
ENDBRANCH  10  11
ENDBRANCH   9  10
ENDBRANCH   8   9
ENDBRANCH   7   8
ENDBRANCH   1   7
BRANCH   4  27
HETATM   27  C19 UNL     1     -11.581  12.485 -10.032  1.00  0.00     0.170 C 
BRANCH  27  28
HETATM   28  N3  UNL     1     -11.704  11.259 -10.754  1.00  0.00    -0.323 N 
HETATM   29  C20 UNL     1     -12.768  10.441 -10.719  1.00  0.00     0.185 A 
HETATM   30  N4  UNL     1     -12.481   9.410 -11.534  1.00  0.00    -0.346 N 
HETATM   31  C21 UNL     1     -11.260   9.572 -12.076  1.00  0.00     0.119 A 
ATOM     32  H4  UNL     1     -13.100   8.620 -11.716  1.00  0.00     0.167 HD
HETATM   33  C22 UNL     1     -10.488   8.830 -12.962  1.00  0.00     0.148 A 
HETATM   34  C24 UNL     1     -10.769  10.745 -11.580  1.00  0.00     0.140 A 
HETATM   35  N5  UNL     1     -11.032   7.614 -13.457  1.00  0.00    -0.080 NA
HETATM   36  N6  UNL     1      -9.270   9.273 -13.320  1.00  0.00    -0.339 N 
HETATM   37  C23 UNL     1      -8.791  10.429 -12.829  1.00  0.00     0.183 A 
ATOM     38  H6  UNL     1      -8.704   8.727 -13.971  1.00  0.00     0.167 HD
HETATM   39  N7  UNL     1      -9.536  11.147 -11.973  1.00  0.00    -0.336 N 
ATOM     40  H7  UNL     1      -9.162  12.022 -11.606  1.00  0.00     0.168 HD
ENDBRANCH  27  28
ENDBRANCH   4  27
TORSDOF 10
ENDMDL
