MODEL 3
REMARK VINA RESULT: -8.936359582      3.858      5.664
REMARK  10 active torsions:
REMARK  status: ('A' for Active; 'I' for Inactive)
REMARK    1  A    between atoms: N1_2  and  C3_4 
REMARK    2  A    between atoms: N2_7  and  C6_8 
REMARK    3  A    between atoms: C6_8  and  C7_9 
REMARK    4  A    between atoms: C10_12  and  C11_13 
REMARK    5  A    between atoms: C11_13  and  C12_14 
REMARK    6  A    between atoms: C12_14  and  C13_15 
REMARK    7  A    between atoms: C13_15  and  C14_16 
REMARK    8  A    between atoms: C14_16  and  C15_17 
REMARK    9  A    between atoms: C18_20  and  C19_21 
REMARK   10  A    between atoms: C19_21  and  N3_22 
ROOT
HETATM    1  C15 UNL     1      -9.567  14.487  -8.974  1.00  0.00    -0.058 A 
HETATM    2  C16 UNL     1      -9.257  13.514  -8.044  1.00  0.00     0.007 A 
HETATM    3  C17 UNL     1      -9.924  12.308  -7.993  1.00  0.00     0.009 A 
HETATM    4  C18 UNL     1     -10.944  12.018  -8.881  1.00  0.00    -0.040 A 
HETATM    5  C25 UNL     1     -11.252  12.989  -9.810  1.00  0.00     0.009 A 
HETATM    6  C26 UNL     1     -10.576  14.214  -9.862  1.00  0.00     0.007 A 
ENDROOT
BRANCH   1   7
HETATM    7  C14 UNL     1      -8.788  15.777  -8.970  1.00  0.00     0.038 C 
BRANCH   7   8
HETATM    8  C13 UNL     1      -9.528  16.868  -8.275  1.00  0.00     0.005 C 
BRANCH   8   9
HETATM    9  C12 UNL     1      -9.575  16.692  -6.791  1.00  0.00     0.005 C 
BRANCH   9  10
HETATM   10  C11 UNL     1     -10.915  17.054  -6.203  1.00  0.00     0.038 C 
BRANCH  10  11
HETATM   11  C10 UNL     1     -12.001  16.402  -7.002  1.00  0.00    -0.058 A 
HETATM   12  C9  UNL     1     -12.665  17.022  -8.008  1.00  0.00     0.007 A 
HETATM   13  C8  UNL     1     -13.659  16.330  -8.687  1.00  0.00     0.009 A 
HETATM   14  C7  UNL     1     -14.013  15.035  -8.393  1.00  0.00    -0.040 A 
HETATM   15  C28 UNL     1     -13.330  14.418  -7.371  1.00  0.00     0.009 A 
HETATM   16  C27 UNL     1     -12.330  15.090  -6.676  1.00  0.00     0.007 A 
BRANCH  14  17
HETATM   17  C6  UNL     1     -15.079  14.367  -9.159  1.00  0.00     0.161 C 
BRANCH  17  18
HETATM   18  N2  UNL     1     -16.407  14.712  -8.616  1.00  0.00    -0.382 N 
HETATM   19  C5  UNL     1     -17.164  15.796  -9.187  1.00  0.00     0.152 A 
HETATM   20  C4  UNL     1     -18.469  16.015  -8.539  1.00  0.00     0.022 A 
HETATM   21  C3  UNL     1     -18.933  15.300  -7.524  1.00  0.00     0.028 A 
HETATM   22  C30 UNL     1     -18.105  14.225  -7.009  1.00  0.00     0.046 A 
HETATM   23  C29 UNL     1     -16.928  13.967  -7.534  1.00  0.00     0.088 A 
BRANCH  21  24
HETATM   24  N1  UNL     1     -20.222  15.590  -6.956  1.00  0.00    -0.390 N 
HETATM   25  C1  UNL     1     -21.391  15.376  -7.755  1.00  0.00     0.149 C 
HETATM   26  C2  UNL     1     -20.315  16.083  -5.620  1.00  0.00     0.149 C 
ENDBRANCH  21  24
ENDBRANCH  17  18
ENDBRANCH  14  17
ENDBRANCH  10  11
ENDBRANCH   9  10
ENDBRANCH   8   9
ENDBRANCH   7   8
ENDBRANCH   1   7
BRANCH   4  27
HETATM   27  C19 UNL     1     -11.666  10.717  -8.831  1.00  0.00     0.170 C 
BRANCH  27  28
HETATM   28  N3  UNL     1     -11.209   9.762  -9.790  1.00  0.00    -0.323 N 
HETATM   29  C20 UNL     1     -10.146   8.958  -9.639  1.00  0.00     0.185 A 
HETATM   30  N4  UNL     1     -10.065   8.220 -10.761  1.00  0.00    -0.346 N 
HETATM   31  C21 UNL     1     -11.059   8.549 -11.606  1.00  0.00     0.119 A 
ATOM     32  H4  UNL     1      -9.354   7.512 -10.944  1.00  0.00     0.167 HD
HETATM   33  C22 UNL     1     -11.440   8.113 -12.869  1.00  0.00     0.148 A 
HETATM   34  C24 UNL     1     -11.784   9.528 -10.988  1.00  0.00     0.140 A 
HETATM   35  N5  UNL     1     -10.662   7.094 -13.480  1.00  0.00    -0.080 NA
HETATM   36  N6  UNL     1     -12.514   8.656 -13.468  1.00  0.00    -0.339 N 
HETATM   37  C23 UNL     1     -13.224   9.619 -12.856  1.00  0.00     0.183 A 
ATOM     38  H6  UNL     1     -12.792   8.335 -14.396  1.00  0.00     0.167 HD
HETATM   39  N7  UNL     1     -12.857  10.042 -11.635  1.00  0.00    -0.336 N 
ATOM     40  H7  UNL     1     -13.404  10.774 -11.180  1.00  0.00     0.168 HD
ENDBRANCH  27  28
ENDBRANCH   4  27
TORSDOF 10
ENDMDL
