MODEL 2
REMARK VINA RESULT: -8.986317471      2.618      3.948
REMARK  10 active torsions:
REMARK  status: ('A' for Active; 'I' for Inactive)
REMARK    1  A    between atoms: N1_2  and  C3_4 
REMARK    2  A    between atoms: N2_7  and  C6_8 
REMARK    3  A    between atoms: C6_8  and  C7_9 
REMARK    4  A    between atoms: C10_12  and  C11_13 
REMARK    5  A    between atoms: C11_13  and  C12_14 
REMARK    6  A    between atoms: C12_14  and  C13_15 
REMARK    7  A    between atoms: C13_15  and  C14_16 
REMARK    8  A    between atoms: C14_16  and  C15_17 
REMARK    9  A    between atoms: C18_20  and  C19_21 
REMARK   10  A    between atoms: C19_21  and  N3_22 
ROOT
HETATM    1  C15 UNL     1     -10.099  13.455  -7.242  1.00  0.00    -0.058 A 
HETATM    2  C16 UNL     1      -9.132  13.682  -8.201  1.00  0.00     0.007 A 
HETATM    3  C17 UNL     1      -9.432  13.742  -9.547  1.00  0.00     0.009 A 
HETATM    4  C18 UNL     1     -10.729  13.575  -9.996  1.00  0.00    -0.040 A 
HETATM    5  C25 UNL     1     -11.693  13.348  -9.038  1.00  0.00     0.009 A 
HETATM    6  C26 UNL     1     -11.390  13.287  -7.672  1.00  0.00     0.007 A 
ENDROOT
BRANCH   1   7
HETATM    7  C14 UNL     1      -9.692  13.408  -5.791  1.00  0.00     0.038 C 
BRANCH   7   8
HETATM    8  C13 UNL     1     -10.515  14.327  -4.956  1.00  0.00     0.005 C 
BRANCH   8   9
HETATM    9  C12 UNL     1      -9.744  15.497  -4.435  1.00  0.00     0.005 C 
BRANCH   9  10
HETATM   10  C11 UNL     1     -10.392  16.817  -4.766  1.00  0.00     0.038 C 
BRANCH  10  11
HETATM   11  C10 UNL     1     -10.502  16.957  -6.252  1.00  0.00    -0.058 A 
HETATM   12  C9  UNL     1      -9.442  17.199  -7.062  1.00  0.00     0.007 A 
HETATM   13  C8  UNL     1      -9.651  17.316  -8.430  1.00  0.00     0.009 A 
HETATM   14  C7  UNL     1     -10.888  17.199  -9.018  1.00  0.00    -0.040 A 
HETATM   15  C28 UNL     1     -11.954  16.953  -8.185  1.00  0.00     0.009 A 
HETATM   16  C27 UNL     1     -11.771  16.832  -6.811  1.00  0.00     0.007 A 
BRANCH  14  17
HETATM   17  C6  UNL     1     -11.030  17.335 -10.477  1.00  0.00     0.161 C 
BRANCH  17  18
HETATM   18  N2  UNL     1     -12.211  18.154 -10.813  1.00  0.00    -0.382 N 
HETATM   19  C5  UNL     1     -13.408  17.528 -11.314  1.00  0.00     0.152 A 
HETATM   20  C4  UNL     1     -14.499  18.475 -11.600  1.00  0.00     0.022 A 
HETATM   21  C3  UNL     1     -14.420  19.787 -11.425  1.00  0.00     0.028 A 
HETATM   22  C30 UNL     1     -13.176  20.335 -10.917  1.00  0.00     0.046 A 
HETATM   23  C29 UNL     1     -12.157  19.555 -10.637  1.00  0.00     0.088 A 
BRANCH  21  24
HETATM   24  N1  UNL     1     -15.540  20.633 -11.733  1.00  0.00    -0.390 N 
HETATM   25  C1  UNL     1     -16.041  21.512 -10.719  1.00  0.00     0.149 C 
HETATM   26  C2  UNL     1     -16.132  20.584 -13.032  1.00  0.00     0.149 C 
ENDBRANCH  21  24
ENDBRANCH  17  18
ENDBRANCH  14  17
ENDBRANCH  10  11
ENDBRANCH   9  10
ENDBRANCH   8   9
ENDBRANCH   7   8
ENDBRANCH   1   7
BRANCH   4  27
HETATM   27  C19 UNL     1     -11.058  13.640 -11.447  1.00  0.00     0.170 C 
BRANCH  27  28
HETATM   28  N3  UNL     1     -10.962  12.385 -12.120  1.00  0.00    -0.323 N 
HETATM   29  C20 UNL     1      -9.842  11.875 -12.657  1.00  0.00     0.185 A 
HETATM   30  N4  UNL     1     -10.182  10.687 -13.188  1.00  0.00    -0.346 N 
HETATM   31  C21 UNL     1     -11.491  10.447 -12.991  1.00  0.00     0.119 A 
ATOM     32  H4  UNL     1      -9.539  10.058 -13.670  1.00  0.00     0.167 HD
HETATM   33  C22 UNL     1     -12.344   9.401 -13.322  1.00  0.00     0.148 A 
HETATM   34  C24 UNL     1     -11.983  11.525 -12.313  1.00  0.00     0.140 A 
HETATM   35  N5  UNL     1     -11.795   8.296 -14.027  1.00  0.00    -0.080 NA
HETATM   36  N6  UNL     1     -13.641   9.460 -12.973  1.00  0.00    -0.339 N 
HETATM   37  C23 UNL     1     -14.121  10.524 -12.306  1.00  0.00     0.183 A 
ATOM     38  H6  UNL     1     -14.266   8.692 -13.217  1.00  0.00     0.167 HD
HETATM   39  N7  UNL     1     -13.298  11.535 -11.986  1.00  0.00    -0.336 N 
ATOM     40  H7  UNL     1     -13.675  12.338 -11.480  1.00  0.00     0.168 HD
ENDBRANCH  27  28
ENDBRANCH   4  27
TORSDOF 10
ENDMDL
