MODEL 1
REMARK VINA RESULT: -9.989851874      0.000      0.000
REMARK  7 active torsions:
REMARK  status: ('A' for Active; 'I' for Inactive)
REMARK       I    between atoms: C1_2  and  N1_3 
REMARK    1  A    between atoms: C1_2  and  C17_24 
REMARK    2  A    between atoms: N1_3  and  C2_5 
REMARK    3  A    between atoms: C2_5  and  C3_6 
REMARK    4  A    between atoms: C3_6  and  C4_7 
REMARK    5  A    between atoms: C5_10  and  C6_11 
REMARK    6  A    between atoms: C21_28  and  C22_29 
REMARK    7  A    between atoms: C23_33  and  C24_34 
ROOT
HETATM    1  O1  UNL     1      -4.445   6.944 -16.808  1.00  0.00    -0.268 OA
HETATM    2  C1  UNL     1      -4.913   5.845 -16.448  1.00  0.00     0.251 C 
HETATM    3  N1  UNL     1      -6.275   5.580 -16.437  1.00  0.00    -0.356 N 
ATOM      4  H1  UNL     1      -6.544   4.659 -16.088  1.00  0.00     0.162 HD
ENDROOT
BRANCH   3   5
HETATM    5  C2  UNL     1      -7.344   6.421 -16.845  1.00  0.00     0.135 C 
BRANCH   5   6
HETATM    6  C3  UNL     1      -8.358   5.875 -17.786  1.00  0.00     0.009 C 
HETATM    7  C13 UNL     1      -9.387   6.851 -18.256  1.00  0.00     0.040 C 
HETATM    8  C14 UNL     1     -10.334   6.117 -19.219  1.00  0.00     0.168 C 
HETATM    9  O2  UNL     1      -9.709   5.149 -19.975  1.00  0.00    -0.391 OA
HETATM   10  C15 UNL     1      -8.405   5.508 -20.259  1.00  0.00     0.168 C 
HETATM   11  C16 UNL     1      -7.532   5.525 -19.031  1.00  0.00     0.040 C 
BRANCH   6  12
HETATM   12  C4  UNL     1      -9.065   4.684 -17.233  1.00  0.00     0.158 C 
HETATM   13  N2  UNL     1      -8.283   3.680 -16.594  1.00  0.00    -0.374 N 
HETATM   14  C5  UNL     1      -8.967   2.952 -15.585  1.00  0.00     0.045 C 
ATOM     15  H2  UNL     1      -7.310   3.499 -16.841  1.00  0.00     0.161 HD
HETATM   16  C12 UNL     1      -9.877   3.625 -14.920  1.00  0.00     0.077 C 
HETATM   17  S1  UNL     1      -9.874   5.276 -15.625  1.00  0.00    -0.113 SA
BRANCH  14  18
HETATM   18  C6  UNL     1      -8.690   1.506 -15.286  1.00  0.00    -0.009 A 
HETATM   19  C7  UNL     1      -9.256   0.542 -16.027  1.00  0.00     0.013 A 
HETATM   20  C8  UNL     1      -9.028  -0.776 -15.805  1.00  0.00     0.001 A 
HETATM   21  C9  UNL     1      -8.185  -1.163 -14.786  1.00  0.00     0.000 A 
HETATM   22  C10 UNL     1      -7.593  -0.190 -14.015  1.00  0.00     0.001 A 
HETATM   23  C11 UNL     1      -7.852   1.162 -14.270  1.00  0.00     0.013 A 
ENDBRANCH  14  18
ENDBRANCH   6  12
ENDBRANCH   5   6
ENDBRANCH   3   5
BRANCH   2  24
HETATM   24  C17 UNL     1      -3.903   4.837 -16.048  1.00  0.00     0.032 A 
HETATM   25  C18 UNL     1      -2.597   4.874 -16.477  1.00  0.00     0.017 A 
HETATM   26  C19 UNL     1      -1.644   3.938 -16.072  1.00  0.00     0.002 A 
HETATM   27  C20 UNL     1      -2.015   2.927 -15.198  1.00  0.00     0.015 A 
HETATM   28  C21 UNL     1      -3.296   2.862 -14.755  1.00  0.00     0.011 A 
HETATM   29  C25 UNL     1      -4.240   3.814 -15.182  1.00  0.00     0.032 A 
BRANCH  28  30
HETATM   30  C22 UNL     1      -3.775   1.823 -13.845  1.00  0.00     0.138 A 
HETATM   31  N3  UNL     1      -4.713   2.024 -12.845  1.00  0.00    -0.242 N 
HETATM   32  O3  UNL     1      -4.835   0.861 -12.250  1.00  0.00    -0.213 OA
ATOM     33  H3  UNL     1      -5.204   2.889 -12.620  1.00  0.00     0.196 HD
HETATM   34  C23 UNL     1      -4.097  -0.049 -12.748  1.00  0.00     0.256 A 
HETATM   35  N4  UNL     1      -3.418   0.553 -13.759  1.00  0.00    -0.315 N 
ATOM     36  H4  UNL     1      -2.735   0.094 -14.361  1.00  0.00     0.169 HD
BRANCH  34  37
HETATM   37  C24 UNL     1      -3.962  -1.466 -12.358  1.00  0.00     0.458 C 
HETATM   38  F1  UNL     1      -2.691  -1.744 -11.867  1.00  0.00    -0.163 F 
HETATM   39  F2  UNL     1      -4.781  -1.645 -11.207  1.00  0.00    -0.163 F 
HETATM   40  F3  UNL     1      -4.392  -2.358 -13.284  1.00  0.00    -0.163 F 
ENDBRANCH  34  37
ENDBRANCH  28  30
ENDBRANCH   2  24
TORSDOF 7
ENDMDL
