MODEL 3
REMARK VINA RESULT: -9.825618150      2.177      3.014
REMARK  7 active torsions:
REMARK  status: ('A' for Active; 'I' for Inactive)
REMARK       I    between atoms: C1_2  and  N1_3 
REMARK    1  A    between atoms: C1_2  and  C17_24 
REMARK    2  A    between atoms: N1_3  and  C2_5 
REMARK    3  A    between atoms: C2_5  and  C3_6 
REMARK    4  A    between atoms: C3_6  and  C4_7 
REMARK    5  A    between atoms: C5_10  and  C6_11 
REMARK    6  A    between atoms: C21_28  and  C22_29 
REMARK    7  A    between atoms: C23_33  and  C24_34 
ROOT
HETATM    1  O1  UNL     1      -9.091   5.327 -15.249  1.00  0.00    -0.268 OA
HETATM    2  C1  UNL     1      -8.598   5.514 -16.379  1.00  0.00     0.251 C 
HETATM    3  N1  UNL     1      -9.374   5.735 -17.508  1.00  0.00    -0.356 N 
ATOM      4  H1  UNL     1      -8.863   5.838 -18.384  1.00  0.00     0.162 HD
ENDROOT
BRANCH   3   5
HETATM    5  C2  UNL     1     -10.787   5.836 -17.603  1.00  0.00     0.135 C 
BRANCH   5   6
HETATM    6  C3  UNL     1     -11.534   4.746 -18.287  1.00  0.00     0.009 C 
HETATM    7  C13 UNL     1     -12.933   5.081 -18.688  1.00  0.00     0.040 C 
HETATM    8  C14 UNL     1     -13.536   3.850 -19.383  1.00  0.00     0.168 C 
HETATM    9  O2  UNL     1     -12.620   3.126 -20.115  1.00  0.00    -0.391 OA
HETATM   10  C15 UNL     1     -11.654   3.954 -20.656  1.00  0.00     0.168 C 
HETATM   11  C16 UNL     1     -10.766   4.566 -19.603  1.00  0.00     0.040 C 
BRANCH   6  12
HETATM   12  C4  UNL     1     -11.568   3.489 -17.485  1.00  0.00     0.158 C 
HETATM   13  N2  UNL     1     -10.351   3.037 -16.900  1.00  0.00    -0.374 N 
HETATM   14  C5  UNL     1     -10.514   2.284 -15.708  1.00  0.00     0.045 C 
ATOM     15  H2  UNL     1      -9.437   3.239 -17.305  1.00  0.00     0.161 HD
HETATM   16  C12 UNL     1     -11.538   2.621 -14.960  1.00  0.00     0.077 C 
HETATM   17  S1  UNL     1     -12.352   3.966 -15.828  1.00  0.00    -0.113 SA
BRANCH  14  18
HETATM   18  C6  UNL     1      -9.591   1.165 -15.312  1.00  0.00    -0.009 A 
HETATM   19  C7  UNL     1      -9.535   0.043 -16.044  1.00  0.00     0.013 A 
HETATM   20  C8  UNL     1      -8.711  -0.988 -15.736  1.00  0.00     0.001 A 
HETATM   21  C9  UNL     1      -7.890  -0.902 -14.633  1.00  0.00     0.000 A 
HETATM   22  C10 UNL     1      -7.932   0.241 -13.868  1.00  0.00     0.001 A 
HETATM   23  C11 UNL     1      -8.795   1.287 -14.214  1.00  0.00     0.013 A 
ENDBRANCH  14  18
ENDBRANCH   6  12
ENDBRANCH   5   6
ENDBRANCH   3   5
BRANCH   2  24
HETATM   24  C17 UNL     1      -7.117   5.497 -16.423  1.00  0.00     0.032 A 
HETATM   25  C18 UNL     1      -6.364   6.593 -16.771  1.00  0.00     0.017 A 
HETATM   26  C19 UNL     1      -4.968   6.577 -16.782  1.00  0.00     0.002 A 
HETATM   27  C20 UNL     1      -4.301   5.416 -16.424  1.00  0.00     0.015 A 
HETATM   28  C21 UNL     1      -5.013   4.315 -16.075  1.00  0.00     0.011 A 
HETATM   29  C25 UNL     1      -6.420   4.354 -16.078  1.00  0.00     0.032 A 
BRANCH  28  30
HETATM   30  C22 UNL     1      -4.391   3.047 -15.699  1.00  0.00     0.138 A 
HETATM   31  N3  UNL     1      -3.350   2.445 -16.389  1.00  0.00    -0.242 N 
HETATM   32  O3  UNL     1      -3.114   1.325 -15.747  1.00  0.00    -0.213 OA
ATOM     33  H3  UNL     1      -2.871   2.796 -17.218  1.00  0.00     0.196 HD
HETATM   34  C23 UNL     1      -3.868   1.145 -14.738  1.00  0.00     0.256 A 
HETATM   35  N4  UNL     1      -4.684   2.231 -14.701  1.00  0.00    -0.315 N 
ATOM     36  H4  UNL     1      -5.414   2.392 -14.008  1.00  0.00     0.169 HD
BRANCH  34  37
HETATM   37  C24 UNL     1      -3.901   0.024 -13.778  1.00  0.00     0.458 C 
HETATM   38  F1  UNL     1      -4.603  -1.064 -14.285  1.00  0.00    -0.163 F 
HETATM   39  F2  UNL     1      -2.570  -0.478 -13.703  1.00  0.00    -0.163 F 
HETATM   40  F3  UNL     1      -4.260   0.362 -12.515  1.00  0.00    -0.163 F 
ENDBRANCH  34  37
ENDBRANCH  28  30
ENDBRANCH   2  24
TORSDOF 7
ENDMDL
