MODEL 2
REMARK VINA RESULT: -9.982773208      2.871      4.516
REMARK  7 active torsions:
REMARK  status: ('A' for Active; 'I' for Inactive)
REMARK       I    between atoms: C1_2  and  N1_3 
REMARK    1  A    between atoms: C1_2  and  C17_24 
REMARK    2  A    between atoms: N1_3  and  C2_5 
REMARK    3  A    between atoms: C2_5  and  C3_6 
REMARK    4  A    between atoms: C3_6  and  C4_7 
REMARK    5  A    between atoms: C5_10  and  C6_11 
REMARK    6  A    between atoms: C21_28  and  C22_29 
REMARK    7  A    between atoms: C23_33  and  C24_34 
ROOT
HETATM    1  O1  UNL     1      -6.022   5.491 -16.960  1.00  0.00    -0.268 OA
HETATM    2  C1  UNL     1      -5.889   4.388 -16.393  1.00  0.00     0.251 C 
HETATM    3  N1  UNL     1      -6.966   3.572 -16.082  1.00  0.00    -0.356 N 
ATOM      4  H1  UNL     1      -6.740   2.710 -15.585  1.00  0.00     0.162 HD
ENDROOT
BRANCH   3   5
HETATM    5  C2  UNL     1      -8.343   3.779 -16.362  1.00  0.00     0.135 C 
BRANCH   5   6
HETATM    6  C3  UNL     1      -9.293   2.660 -16.123  1.00  0.00     0.009 C 
HETATM    7  C13 UNL     1      -9.052   1.429 -16.935  1.00  0.00     0.040 C 
HETATM    8  C14 UNL     1     -10.115   0.389 -16.548  1.00  0.00     0.168 C 
HETATM    9  O2  UNL     1     -10.482   0.442 -15.221  1.00  0.00    -0.391 OA
HETATM   10  C15 UNL     1      -9.417   0.826 -14.428  1.00  0.00     0.168 C 
HETATM   11  C16 UNL     1      -9.002   2.253 -14.673  1.00  0.00     0.040 C 
BRANCH   6  12
HETATM   12  C4  UNL     1     -10.715   3.071 -16.313  1.00  0.00     0.158 C 
HETATM   13  N2  UNL     1     -11.476   3.395 -15.154  1.00  0.00    -0.374 N 
HETATM   14  C5  UNL     1     -12.518   4.332 -15.376  1.00  0.00     0.045 C 
ATOM     15  H2  UNL     1     -11.288   2.986 -14.239  1.00  0.00     0.161 HD
HETATM   16  C12 UNL     1     -12.282   5.232 -16.303  1.00  0.00     0.077 C 
HETATM   17  S1  UNL     1     -10.647   4.857 -16.940  1.00  0.00    -0.113 SA
BRANCH  14  18
HETATM   18  C6  UNL     1     -13.816   4.312 -14.618  1.00  0.00    -0.009 A 
HETATM   19  C7  UNL     1     -13.862   3.824 -13.371  1.00  0.00     0.013 A 
HETATM   20  C8  UNL     1     -15.005   3.796 -12.641  1.00  0.00     0.001 A 
HETATM   21  C9  UNL     1     -16.175   4.282 -13.183  1.00  0.00     0.000 A 
HETATM   22  C10 UNL     1     -16.149   4.787 -14.462  1.00  0.00     0.001 A 
HETATM   23  C11 UNL     1     -14.952   4.800 -15.188  1.00  0.00     0.013 A 
ENDBRANCH  14  18
ENDBRANCH   6  12
ENDBRANCH   5   6
ENDBRANCH   3   5
BRANCH   2  24
HETATM   24  C17 UNL     1      -4.488   4.008 -16.091  1.00  0.00     0.032 A 
HETATM   25  C18 UNL     1      -3.411   4.801 -16.407  1.00  0.00     0.017 A 
HETATM   26  C19 UNL     1      -2.097   4.449 -16.092  1.00  0.00     0.002 A 
HETATM   27  C20 UNL     1      -1.856   3.256 -15.429  1.00  0.00     0.015 A 
HETATM   28  C21 UNL     1      -2.897   2.449 -15.102  1.00  0.00     0.011 A 
HETATM   29  C25 UNL     1      -4.212   2.823 -15.435  1.00  0.00     0.032 A 
BRANCH  28  30
HETATM   30  C22 UNL     1      -2.730   1.168 -14.416  1.00  0.00     0.138 A 
HETATM   31  N3  UNL     1      -1.584   0.390 -14.469  1.00  0.00    -0.242 N 
HETATM   32  O3  UNL     1      -1.859  -0.674 -13.753  1.00  0.00    -0.213 OA
ATOM     33  H3  UNL     1      -0.715   0.599 -14.959  1.00  0.00     0.196 HD
HETATM   34  C23 UNL     1      -3.029  -0.666 -13.251  1.00  0.00     0.256 A 
HETATM   35  N4  UNL     1      -3.590   0.498 -13.670  1.00  0.00    -0.315 N 
ATOM     36  H4  UNL     1      -4.535   0.808 -13.442  1.00  0.00     0.169 HD
BRANCH  34  37
HETATM   37  C24 UNL     1      -3.690  -1.670 -12.395  1.00  0.00     0.458 C 
HETATM   38  F1  UNL     1      -4.007  -2.822 -13.107  1.00  0.00    -0.163 F 
HETATM   39  F2  UNL     1      -2.699  -2.136 -11.485  1.00  0.00    -0.163 F 
HETATM   40  F3  UNL     1      -4.715  -1.197 -11.645  1.00  0.00    -0.163 F 
ENDBRANCH  34  37
ENDBRANCH  28  30
ENDBRANCH   2  24
TORSDOF 7
ENDMDL
