MODEL 8
REMARK VINA RESULT: -9.288161850      2.060      4.873
REMARK  7 active torsions:
REMARK  status: ('A' for Active; 'I' for Inactive)
REMARK       I    between atoms: C1_2  and  N1_3 
REMARK    1  A    between atoms: C1_2  and  C17_24 
REMARK    2  A    between atoms: N1_3  and  C2_5 
REMARK    3  A    between atoms: C2_5  and  C3_6 
REMARK    4  A    between atoms: C3_6  and  C4_7 
REMARK    5  A    between atoms: C5_10  and  C6_11 
REMARK    6  A    between atoms: C21_28  and  C22_29 
REMARK    7  A    between atoms: C23_33  and  C24_34 
ROOT
HETATM    1  O1  UNL     1     -11.505   3.353 -14.446  1.00  0.00    -0.268 OA
HETATM    2  C1  UNL     1     -10.636   3.221 -15.331  1.00  0.00     0.251 C 
HETATM    3  N1  UNL     1     -10.188   4.284 -16.103  1.00  0.00    -0.356 N 
ATOM      4  H1  UNL     1      -9.503   4.050 -16.822  1.00  0.00     0.162 HD
ENDROOT
BRANCH   3   5
HETATM    5  C2  UNL     1     -10.558   5.652 -16.025  1.00  0.00     0.135 C 
BRANCH   5   6
HETATM    6  C3  UNL     1      -9.822   6.637 -16.862  1.00  0.00     0.009 C 
HETATM    7  C13 UNL     1     -10.502   7.034 -18.132  1.00  0.00     0.040 C 
HETATM    8  C14 UNL     1      -9.606   8.055 -18.851  1.00  0.00     0.168 C 
HETATM    9  O2  UNL     1      -8.913   8.882 -17.993  1.00  0.00    -0.391 OA
HETATM   10  C15 UNL     1      -9.646   9.131 -16.848  1.00  0.00     0.168 C 
HETATM   11  C16 UNL     1      -9.814   7.901 -15.993  1.00  0.00     0.040 C 
BRANCH   6  12
HETATM   12  C4  UNL     1      -8.442   6.181 -17.196  1.00  0.00     0.158 C 
HETATM   13  N2  UNL     1      -7.770   5.345 -16.260  1.00  0.00    -0.374 N 
HETATM   14  C5  UNL     1      -6.818   4.462 -16.834  1.00  0.00     0.045 C 
ATOM     15  H2  UNL     1      -7.958   5.376 -15.258  1.00  0.00     0.161 HD
HETATM   16  C12 UNL     1      -7.100   4.034 -18.043  1.00  0.00     0.077 C 
HETATM   17  S1  UNL     1      -8.659   4.806 -18.482  1.00  0.00    -0.113 SA
BRANCH  14  18
HETATM   18  C6  UNL     1      -5.560   4.039 -16.128  1.00  0.00    -0.009 A 
HETATM   19  C7  UNL     1      -4.453   4.791 -16.210  1.00  0.00     0.013 A 
HETATM   20  C8  UNL     1      -3.298   4.460 -15.582  1.00  0.00     0.001 A 
HETATM   21  C9  UNL     1      -3.238   3.310 -14.823  1.00  0.00     0.000 A 
HETATM   22  C10 UNL     1      -4.363   2.525 -14.726  1.00  0.00     0.001 A 
HETATM   23  C11 UNL     1      -5.538   2.896 -15.389  1.00  0.00     0.013 A 
ENDBRANCH  14  18
ENDBRANCH   6  12
ENDBRANCH   5   6
ENDBRANCH   3   5
BRANCH   2  24
HETATM   24  C17 UNL     1     -10.108   1.845 -15.487  1.00  0.00     0.032 A 
HETATM   25  C18 UNL     1     -10.660   0.922 -16.344  1.00  0.00     0.017 A 
HETATM   26  C19 UNL     1     -10.138  -0.362 -16.507  1.00  0.00     0.002 A 
HETATM   27  C20 UNL     1      -9.014  -0.733 -15.784  1.00  0.00     0.015 A 
HETATM   28  C21 UNL     1      -8.444   0.153 -14.929  1.00  0.00     0.011 A 
HETATM   29  C25 UNL     1      -8.992   1.441 -14.778  1.00  0.00     0.032 A 
BRANCH  28  30
HETATM   30  C22 UNL     1      -7.268  -0.160 -14.120  1.00  0.00     0.138 A 
HETATM   31  N3  UNL     1      -7.163   0.078 -12.758  1.00  0.00    -0.242 N 
HETATM   32  O3  UNL     1      -5.954  -0.314 -12.433  1.00  0.00    -0.213 OA
ATOM     33  H3  UNL     1      -7.872   0.475 -12.142  1.00  0.00     0.196 HD
HETATM   34  C23 UNL     1      -5.284  -0.774 -13.413  1.00  0.00     0.256 A 
HETATM   35  N4  UNL     1      -6.109  -0.678 -14.488  1.00  0.00    -0.315 N 
ATOM     36  H4  UNL     1      -5.869  -0.961 -15.438  1.00  0.00     0.169 HD
BRANCH  34  37
HETATM   37  C24 UNL     1      -3.909  -1.310 -13.441  1.00  0.00     0.458 C 
HETATM   38  F1  UNL     1      -3.901  -2.700 -13.478  1.00  0.00    -0.163 F 
HETATM   39  F2  UNL     1      -3.371  -0.967 -14.714  1.00  0.00    -0.163 F 
HETATM   40  F3  UNL     1      -3.072  -0.787 -12.512  1.00  0.00    -0.163 F 
ENDBRANCH  34  37
ENDBRANCH  28  30
ENDBRANCH   2  24
TORSDOF 7
ENDMDL
