MODEL 14
REMARK VINA RESULT: -9.141101792      1.804      4.702
REMARK  7 active torsions:
REMARK  status: ('A' for Active; 'I' for Inactive)
REMARK       I    between atoms: C1_2  and  N1_3 
REMARK    1  A    between atoms: C1_2  and  C17_24 
REMARK    2  A    between atoms: N1_3  and  C2_5 
REMARK    3  A    between atoms: C2_5  and  C3_6 
REMARK    4  A    between atoms: C3_6  and  C4_7 
REMARK    5  A    between atoms: C5_10  and  C6_11 
REMARK    6  A    between atoms: C21_28  and  C22_29 
REMARK    7  A    between atoms: C23_33  and  C24_34 
ROOT
HETATM    1  O1  UNL     1     -10.961   4.403 -16.046  1.00  0.00    -0.268 OA
HETATM    2  C1  UNL     1      -9.769   4.212 -15.734  1.00  0.00     0.251 C 
HETATM    3  N1  UNL     1      -8.840   5.241 -15.666  1.00  0.00    -0.356 N 
ATOM      4  H1  UNL     1      -7.886   4.961 -15.436  1.00  0.00     0.162 HD
ENDROOT
BRANCH   3   5
HETATM    5  C2  UNL     1      -9.042   6.630 -15.874  1.00  0.00     0.135 C 
BRANCH   5   6
HETATM    6  C3  UNL     1      -8.217   7.323 -16.900  1.00  0.00     0.009 C 
HETATM    7  C13 UNL     1      -8.939   7.708 -18.150  1.00  0.00     0.040 C 
HETATM    8  C14 UNL     1      -7.938   8.414 -19.079  1.00  0.00     0.168 C 
HETATM    9  O2  UNL     1      -6.996   9.163 -18.406  1.00  0.00    -0.391 OA
HETATM   10  C15 UNL     1      -7.526   9.700 -17.249  1.00  0.00     0.168 C 
HETATM   11  C16 UNL     1      -7.848   8.647 -16.220  1.00  0.00     0.040 C 
BRANCH   6  12
HETATM   12  C4  UNL     1      -7.009   6.537 -17.284  1.00  0.00     0.158 C 
HETATM   13  N2  UNL     1      -6.388   5.736 -16.285  1.00  0.00    -0.374 N 
HETATM   14  C5  UNL     1      -5.710   4.592 -16.782  1.00  0.00     0.045 C 
ATOM     15  H2  UNL     1      -6.428   5.965 -15.291  1.00  0.00     0.161 HD
HETATM   16  C12 UNL     1      -6.232   4.048 -17.856  1.00  0.00     0.077 C 
HETATM   17  S1  UNL     1      -7.660   5.055 -18.268  1.00  0.00    -0.113 SA
BRANCH  14  18
HETATM   18  C6  UNL     1      -4.473   4.029 -16.142  1.00  0.00    -0.009 A 
HETATM   19  C7  UNL     1      -3.906   4.654 -15.101  1.00  0.00     0.013 A 
HETATM   20  C8  UNL     1      -2.797   4.180 -14.481  1.00  0.00     0.001 A 
HETATM   21  C9  UNL     1      -2.214   3.011 -14.922  1.00  0.00     0.000 A 
HETATM   22  C10 UNL     1      -2.780   2.353 -15.989  1.00  0.00     0.001 A 
HETATM   23  C11 UNL     1      -3.925   2.872 -16.606  1.00  0.00     0.013 A 
ENDBRANCH  14  18
ENDBRANCH   6  12
ENDBRANCH   5   6
ENDBRANCH   3   5
BRANCH   2  24
HETATM   24  C17 UNL     1      -9.422   2.805 -15.426  1.00  0.00     0.032 A 
HETATM   25  C18 UNL     1     -10.263   1.750 -15.692  1.00  0.00     0.017 A 
HETATM   26  C19 UNL     1      -9.916   0.424 -15.426  1.00  0.00     0.002 A 
HETATM   27  C20 UNL     1      -8.675   0.146 -14.875  1.00  0.00     0.015 A 
HETATM   28  C21 UNL     1      -7.821   1.163 -14.599  1.00  0.00     0.011 A 
HETATM   29  C25 UNL     1      -8.195   2.493 -14.871  1.00  0.00     0.032 A 
BRANCH  28  30
HETATM   30  C22 UNL     1      -6.501   0.960 -14.004  1.00  0.00     0.138 A 
HETATM   31  N3  UNL     1      -5.717   1.967 -13.463  1.00  0.00    -0.242 N 
HETATM   32  O3  UNL     1      -4.615   1.372 -13.073  1.00  0.00    -0.213 OA
ATOM     33  H3  UNL     1      -5.948   2.958 -13.385  1.00  0.00     0.196 HD
HETATM   34  C23 UNL     1      -4.604   0.119 -13.294  1.00  0.00     0.256 A 
HETATM   35  N4  UNL     1      -5.795  -0.151 -13.888  1.00  0.00    -0.315 N 
ATOM     36  H4  UNL     1      -6.100  -1.074 -14.198  1.00  0.00     0.169 HD
BRANCH  34  37
HETATM   37  C24 UNL     1      -3.557  -0.877 -12.995  1.00  0.00     0.458 C 
HETATM   38  F1  UNL     1      -3.489  -1.158 -11.635  1.00  0.00    -0.163 F 
HETATM   39  F2  UNL     1      -4.010  -2.111 -13.541  1.00  0.00    -0.163 F 
HETATM   40  F3  UNL     1      -2.349  -0.624 -13.557  1.00  0.00    -0.163 F 
ENDBRANCH  34  37
ENDBRANCH  28  30
ENDBRANCH   2  24
TORSDOF 7
ENDMDL
