MODEL 2
REMARK VINA RESULT: -10.020690177      1.255      1.488
REMARK  7 active torsions:
REMARK  status: ('A' for Active; 'I' for Inactive)
REMARK    1  A    between atoms: C4_5  and  C5_6 
REMARK    2  A    between atoms: C4_5  and  C16_28 
REMARK    3  A    between atoms: C5_6  and  N2_7 
REMARK       I    between atoms: N2_7  and  C6_9 
REMARK    4  A    between atoms: C6_9  and  C7_11 
REMARK    5  A    between atoms: C11_15  and  C12_16 
REMARK    6  A    between atoms: C13_20  and  C14_21 
REMARK    7  A    between atoms: C17_31  and  C18_32 
ROOT
HETATM    1  N2  UNL     1      -8.940   4.743 -17.028  1.00  0.00    -0.356 N 
ATOM      2  H2  UNL     1      -8.706   4.025 -17.714  1.00  0.00     0.162 HD
HETATM    3  C6  UNL     1      -8.893   4.399 -15.661  1.00  0.00     0.251 C 
HETATM    4  O1  UNL     1      -9.008   5.258 -14.771  1.00  0.00    -0.268 OA
ENDROOT
BRANCH   1   5
HETATM    5  C5  UNL     1      -9.309   6.079 -17.518  1.00  0.00     0.139 C 
BRANCH   5   6
HETATM    6  C4  UNL     1      -8.140   6.392 -18.514  1.00  0.00     0.028 C 
HETATM    7  C3  UNL     1      -8.256   5.409 -19.589  1.00  0.00     0.048 C 
HETATM    8  C2  UNL     1      -8.398   5.961 -20.973  1.00  0.00     0.273 C 
HETATM    9  N1  UNL     1      -7.406   6.992 -21.142  1.00  0.00     0.084 N 
HETATM   10  C1  UNL     1      -7.364   7.317 -22.556  1.00  0.00     0.309 C 
HETATM   11  C26 UNL     1      -7.758   8.093 -20.302  1.00  0.00     0.273 C 
HETATM   12  C25 UNL     1      -8.574   7.782 -19.105  1.00  0.00     0.048 C 
BRANCH   6  13
HETATM   13  C16 UNL     1      -6.915   6.625 -17.780  1.00  0.00     0.061 A 
HETATM   14  N5  UNL     1      -6.164   5.586 -17.327  1.00  0.00    -0.352 N 
HETATM   15  C17 UNL     1      -5.106   5.807 -16.635  1.00  0.00     0.049 A 
ATOM     16  H5  UNL     1      -6.443   4.629 -17.538  1.00  0.00     0.166 HD
HETATM   17  C24 UNL     1      -4.763   7.112 -16.371  1.00  0.00     0.081 A 
HETATM   18  S1  UNL     1      -6.030   7.948 -17.177  1.00  0.00    -0.085 SA
BRANCH  15  19
HETATM   19  C18 UNL     1      -4.237   4.706 -16.156  1.00  0.00    -0.009 A 
HETATM   20  C19 UNL     1      -3.532   4.836 -15.002  1.00  0.00     0.014 A 
HETATM   21  C20 UNL     1      -2.654   3.840 -14.549  1.00  0.00     0.001 A 
HETATM   22  C21 UNL     1      -2.528   2.705 -15.326  1.00  0.00     0.000 A 
HETATM   23  C22 UNL     1      -3.249   2.587 -16.486  1.00  0.00     0.001 A 
HETATM   24  C23 UNL     1      -4.107   3.586 -16.910  1.00  0.00     0.014 A 
ENDBRANCH  15  19
ENDBRANCH   6  13
ENDBRANCH   5   6
ENDBRANCH   1   5
BRANCH   3  25
HETATM   25  C7  UNL     1      -8.754   2.962 -15.310  1.00  0.00     0.032 A 
HETATM   26  C8  UNL     1      -9.845   2.146 -15.157  1.00  0.00     0.017 A 
HETATM   27  C9  UNL     1      -9.743   0.887 -14.538  1.00  0.00     0.002 A 
HETATM   28  C10 UNL     1      -8.490   0.485 -14.071  1.00  0.00     0.015 A 
HETATM   29  C11 UNL     1      -7.401   1.286 -14.222  1.00  0.00     0.011 A 
HETATM   30  C15 UNL     1      -7.529   2.518 -14.842  1.00  0.00     0.032 A 
BRANCH  29  31
HETATM   31  C12 UNL     1      -6.122   0.944 -13.647  1.00  0.00     0.138 A 
HETATM   32  N3  UNL     1      -5.241   1.810 -13.096  1.00  0.00    -0.242 N 
HETATM   33  O2  UNL     1      -4.234   1.171 -12.606  1.00  0.00    -0.213 OA
ATOM     34  H3  UNL     1      -5.357   2.823 -13.072  1.00  0.00     0.196 HD
HETATM   35  C13 UNL     1      -4.403  -0.130 -12.806  1.00  0.00     0.256 A 
HETATM   36  N4  UNL     1      -5.574  -0.255 -13.450  1.00  0.00    -0.315 N 
ATOM     37  H4  UNL     1      -5.985  -1.140 -13.747  1.00  0.00     0.169 HD
BRANCH  35  38
HETATM   38  C14 UNL     1      -3.485  -1.245 -12.405  1.00  0.00     0.458 C 
HETATM   39  F1  UNL     1      -3.871  -2.415 -13.037  1.00  0.00    -0.163 F 
HETATM   40  F2  UNL     1      -3.455  -1.336 -11.035  1.00  0.00    -0.163 F 
HETATM   41  F3  UNL     1      -2.241  -0.937 -12.900  1.00  0.00    -0.163 F 
ENDBRANCH  35  38
ENDBRANCH  29  31
ENDBRANCH   3  25
TORSDOF 7
ENDMDL
