MODEL 3
REMARK VINA RESULT: -9.868513926      3.100      6.274
REMARK  7 active torsions:
REMARK  status: ('A' for Active; 'I' for Inactive)
REMARK    1  A    between atoms: C4_5  and  C5_6 
REMARK    2  A    between atoms: C4_5  and  C16_28 
REMARK    3  A    between atoms: C5_6  and  N2_7 
REMARK       I    between atoms: N2_7  and  C6_9 
REMARK    4  A    between atoms: C6_9  and  C7_11 
REMARK    5  A    between atoms: C11_15  and  C12_16 
REMARK    6  A    between atoms: C13_20  and  C14_21 
REMARK    7  A    between atoms: C17_31  and  C18_32 
ROOT
HETATM    1  N2  UNL     1     -10.574   4.704 -16.515  1.00  0.00    -0.356 N 
ATOM      2  H2  UNL     1     -10.408   4.914 -15.531  1.00  0.00     0.162 HD
HETATM    3  C6  UNL     1      -9.470   4.711 -17.394  1.00  0.00     0.251 C 
HETATM    4  O1  UNL     1      -9.571   4.310 -18.565  1.00  0.00    -0.268 OA
ENDROOT
BRANCH   1   5
HETATM    5  C5  UNL     1     -11.950   4.410 -16.941  1.00  0.00     0.139 C 
BRANCH   5   6
HETATM    6  C4  UNL     1     -12.426   3.413 -15.830  1.00  0.00     0.028 C 
HETATM    7  C3  UNL     1     -12.523   4.198 -14.601  1.00  0.00     0.048 C 
HETATM    8  C2  UNL     1     -13.859   4.199 -13.926  1.00  0.00     0.273 C 
HETATM    9  N1  UNL     1     -14.324   2.837 -13.863  1.00  0.00     0.084 N 
HETATM   10  C1  UNL     1     -15.467   2.816 -12.968  1.00  0.00     0.309 C 
HETATM   11  C26 UNL     1     -14.619   2.403 -15.193  1.00  0.00     0.273 C 
HETATM   12  C25 UNL     1     -13.892   3.082 -16.290  1.00  0.00     0.048 C 
BRANCH   6  13
HETATM   13  C16 UNL     1     -11.679   2.176 -15.924  1.00  0.00     0.061 A 
HETATM   14  N5  UNL     1     -10.499   2.022 -15.270  1.00  0.00    -0.352 N 
HETATM   15  C17 UNL     1      -9.823   0.939 -15.402  1.00  0.00     0.049 A 
ATOM     16  H5  UNL     1     -10.148   2.771 -14.672  1.00  0.00     0.166 HD
HETATM   17  C24 UNL     1     -10.329  -0.047 -16.216  1.00  0.00     0.081 A 
HETATM   18  S1  UNL     1     -11.793   0.685 -16.738  1.00  0.00    -0.085 SA
BRANCH  15  19
HETATM   19  C18 UNL     1      -8.551   0.713 -14.675  1.00  0.00    -0.009 A 
HETATM   20  C19 UNL     1      -7.761   1.760 -14.324  1.00  0.00     0.014 A 
HETATM   21  C20 UNL     1      -6.524   1.581 -13.690  1.00  0.00     0.001 A 
HETATM   22  C21 UNL     1      -6.128   0.284 -13.427  1.00  0.00     0.000 A 
HETATM   23  C22 UNL     1      -6.937  -0.763 -13.784  1.00  0.00     0.001 A 
HETATM   24  C23 UNL     1      -8.154  -0.557 -14.411  1.00  0.00     0.014 A 
ENDBRANCH  15  19
ENDBRANCH   6  13
ENDBRANCH   5   6
ENDBRANCH   1   5
BRANCH   3  25
HETATM   25  C7  UNL     1      -8.186   5.266 -16.892  1.00  0.00     0.032 A 
HETATM   26  C8  UNL     1      -7.919   6.610 -16.918  1.00  0.00     0.017 A 
HETATM   27  C9  UNL     1      -6.616   7.107 -16.736  1.00  0.00     0.002 A 
HETATM   28  C10 UNL     1      -5.586   6.187 -16.531  1.00  0.00     0.015 A 
HETATM   29  C11 UNL     1      -5.842   4.851 -16.500  1.00  0.00     0.011 A 
HETATM   30  C15 UNL     1      -7.136   4.390 -16.676  1.00  0.00     0.032 A 
BRANCH  29  31
HETATM   31  C12 UNL     1      -4.779   3.878 -16.405  1.00  0.00     0.138 A 
HETATM   32  N3  UNL     1      -3.908   3.556 -17.389  1.00  0.00    -0.242 N 
HETATM   33  O2  UNL     1      -3.038   2.709 -16.954  1.00  0.00    -0.213 OA
ATOM     34  H3  UNL     1      -3.936   3.928 -18.337  1.00  0.00     0.196 HD
HETATM   35  C13 UNL     1      -3.290   2.440 -15.679  1.00  0.00     0.256 A 
HETATM   36  N4  UNL     1      -4.369   3.169 -15.355  1.00  0.00    -0.315 N 
ATOM     37  H4  UNL     1      -4.812   3.179 -14.436  1.00  0.00     0.169 HD
BRANCH  35  38
HETATM   38  C14 UNL     1      -2.538   1.512 -14.773  1.00  0.00     0.458 C 
HETATM   39  F1  UNL     1      -3.000   1.654 -13.476  1.00  0.00    -0.163 F 
HETATM   40  F2  UNL     1      -1.191   1.736 -14.913  1.00  0.00    -0.163 F 
HETATM   41  F3  UNL     1      -2.861   0.232 -15.154  1.00  0.00    -0.163 F 
ENDBRANCH  35  38
ENDBRANCH  29  31
ENDBRANCH   3  25
TORSDOF 7
ENDMDL
