MODEL 1
REMARK VINA RESULT: -10.046426315      0.000      0.000
REMARK  7 active torsions:
REMARK  status: ('A' for Active; 'I' for Inactive)
REMARK    1  A    between atoms: C4_5  and  C5_6 
REMARK    2  A    between atoms: C4_5  and  C16_28 
REMARK    3  A    between atoms: C5_6  and  N2_7 
REMARK       I    between atoms: N2_7  and  C6_9 
REMARK    4  A    between atoms: C6_9  and  C7_11 
REMARK    5  A    between atoms: C11_15  and  C12_16 
REMARK    6  A    between atoms: C13_20  and  C14_21 
REMARK    7  A    between atoms: C17_31  and  C18_32 
ROOT
HETATM    1  N2  UNL     1      -9.120   4.798 -16.660  1.00  0.00    -0.356 N 
ATOM      2  H2  UNL     1      -8.169   4.435 -16.592  1.00  0.00     0.162 HD
HETATM    3  C6  UNL     1     -10.188   3.930 -16.355  1.00  0.00     0.251 C 
HETATM    4  O1  UNL     1     -11.355   4.345 -16.262  1.00  0.00    -0.268 OA
ENDROOT
BRANCH   1   5
HETATM    5  C5  UNL     1      -9.301   6.197 -17.072  1.00  0.00     0.139 C 
BRANCH   5   6
HETATM    6  C4  UNL     1      -8.205   6.353 -18.180  1.00  0.00     0.028 C 
HETATM    7  C3  UNL     1      -8.451   5.279 -19.140  1.00  0.00     0.048 C 
HETATM    8  C2  UNL     1      -8.681   5.703 -20.557  1.00  0.00     0.273 C 
HETATM    9  N1  UNL     1      -7.662   6.661 -20.903  1.00  0.00     0.084 N 
HETATM   10  C1  UNL     1      -7.721   6.847 -22.342  1.00  0.00     0.309 C 
HETATM   11  C26 UNL     1      -7.895   7.854 -20.152  1.00  0.00     0.273 C 
HETATM   12  C25 UNL     1      -8.624   7.701 -18.871  1.00  0.00     0.048 C 
BRANCH   6  13
HETATM   13  C16 UNL     1      -6.914   6.591 -17.569  1.00  0.00     0.061 A 
HETATM   14  N5  UNL     1      -6.136   5.557 -17.157  1.00  0.00    -0.352 N 
HETATM   15  C17 UNL     1      -5.016   5.783 -16.572  1.00  0.00     0.049 A 
ATOM     16  H5  UNL     1      -6.444   4.597 -17.312  1.00  0.00     0.166 HD
HETATM   17  C24 UNL     1      -4.637   7.091 -16.381  1.00  0.00     0.081 A 
HETATM   18  S1  UNL     1      -5.964   7.920 -17.092  1.00  0.00    -0.085 SA
BRANCH  15  19
HETATM   19  C18 UNL     1      -4.118   4.686 -16.142  1.00  0.00    -0.009 A 
HETATM   20  C19 UNL     1      -3.341   4.823 -15.036  1.00  0.00     0.014 A 
HETATM   21  C20 UNL     1      -2.436   3.831 -14.633  1.00  0.00     0.001 A 
HETATM   22  C21 UNL     1      -2.360   2.690 -15.409  1.00  0.00     0.000 A 
HETATM   23  C22 UNL     1      -3.152   2.564 -16.519  1.00  0.00     0.001 A 
HETATM   24  C23 UNL     1      -4.037   3.561 -16.895  1.00  0.00     0.014 A 
ENDBRANCH  15  19
ENDBRANCH   6  13
ENDBRANCH   5   6
ENDBRANCH   1   5
BRANCH   3  25
HETATM   25  C7  UNL     1      -9.886   2.483 -16.200  1.00  0.00     0.032 A 
HETATM   26  C8  UNL     1     -10.781   1.513 -16.572  1.00  0.00     0.017 A 
HETATM   27  C9  UNL     1     -10.635   0.177 -16.155  1.00  0.00     0.002 A 
HETATM   28  C10 UNL     1      -9.548  -0.141 -15.339  1.00  0.00     0.015 A 
HETATM   29  C11 UNL     1      -8.653   0.814 -14.968  1.00  0.00     0.011 A 
HETATM   30  C15 UNL     1      -8.817   2.120 -15.398  1.00  0.00     0.032 A 
BRANCH  29  31
HETATM   31  C12 UNL     1      -7.590   0.534 -14.034  1.00  0.00     0.138 A 
HETATM   32  N3  UNL     1      -7.664  -0.303 -12.973  1.00  0.00    -0.242 N 
HETATM   33  O2  UNL     1      -6.518  -0.387 -12.389  1.00  0.00    -0.213 OA
ATOM     34  H3  UNL     1      -8.507  -0.795 -12.677  1.00  0.00     0.196 HD
HETATM   35  C13 UNL     1      -5.644   0.378 -13.031  1.00  0.00     0.256 A 
HETATM   36  N4  UNL     1      -6.321   0.941 -14.045  1.00  0.00    -0.315 N 
ATOM     37  H4  UNL     1      -5.922   1.587 -14.726  1.00  0.00     0.169 HD
BRANCH  35  38
HETATM   38  C14 UNL     1      -4.196   0.587 -12.705  1.00  0.00     0.458 C 
HETATM   39  F1  UNL     1      -3.832  -0.239 -11.655  1.00  0.00    -0.163 F 
HETATM   40  F2  UNL     1      -3.973   1.920 -12.469  1.00  0.00    -0.163 F 
HETATM   41  F3  UNL     1      -3.475   0.158 -13.794  1.00  0.00    -0.163 F 
ENDBRANCH  35  38
ENDBRANCH  29  31
ENDBRANCH   3  25
TORSDOF 7
ENDMDL
