MODEL 4
REMARK VINA RESULT: -9.861765956      3.874      4.968
REMARK  7 active torsions:
REMARK  status: ('A' for Active; 'I' for Inactive)
REMARK    1  A    between atoms: C4_5  and  C5_6 
REMARK    2  A    between atoms: C4_5  and  C16_28 
REMARK    3  A    between atoms: C5_6  and  N2_7 
REMARK       I    between atoms: N2_7  and  C6_9 
REMARK    4  A    between atoms: C6_9  and  C7_11 
REMARK    5  A    between atoms: C11_15  and  C12_16 
REMARK    6  A    between atoms: C13_20  and  C14_21 
REMARK    7  A    between atoms: C17_31  and  C18_32 
ROOT
HETATM    1  N2  UNL     1      -8.371   4.075 -15.432  1.00  0.00    -0.356 N 
ATOM      2  H2  UNL     1      -7.974   3.564 -16.220  1.00  0.00     0.162 HD
HETATM    3  C6  UNL     1      -8.844   3.335 -14.329  1.00  0.00     0.251 C 
HETATM    4  O1  UNL     1      -9.191   3.892 -13.274  1.00  0.00    -0.268 OA
ENDROOT
BRANCH   1   5
HETATM    5  C5  UNL     1      -8.420   5.542 -15.508  1.00  0.00     0.139 C 
BRANCH   5   6
HETATM    6  C4  UNL     1      -7.532   5.830 -16.766  1.00  0.00     0.028 C 
HETATM    7  C3  UNL     1      -8.250   5.258 -17.903  1.00  0.00     0.048 C 
HETATM    8  C2  UNL     1      -8.575   6.203 -19.018  1.00  0.00     0.273 C 
HETATM    9  N1  UNL     1      -7.387   6.961 -19.316  1.00  0.00     0.084 N 
HETATM   10  C1  UNL     1      -7.628   7.659 -20.567  1.00  0.00     0.309 C 
HETATM   11  C26 UNL     1      -7.118   7.825 -18.210  1.00  0.00     0.273 C 
HETATM   12  C25 UNL     1      -7.632   7.394 -16.889  1.00  0.00     0.048 C 
BRANCH   6  13
HETATM   13  C16 UNL     1      -6.146   5.532 -16.471  1.00  0.00     0.061 A 
HETATM   14  N5  UNL     1      -5.775   4.300 -16.035  1.00  0.00    -0.352 N 
HETATM   15  C17 UNL     1      -4.551   4.063 -15.729  1.00  0.00     0.049 A 
ATOM     16  H5  UNL     1      -6.473   3.560 -15.950  1.00  0.00     0.166 HD
HETATM   17  C24 UNL     1      -3.641   5.086 -15.858  1.00  0.00     0.081 A 
HETATM   18  S1  UNL     1      -4.653   6.349 -16.438  1.00  0.00    -0.085 SA
BRANCH  15  19
HETATM   19  C18 UNL     1      -4.096   2.724 -15.289  1.00  0.00    -0.009 A 
HETATM   20  C19 UNL     1      -4.724   2.082 -14.270  1.00  0.00     0.014 A 
HETATM   21  C20 UNL     1      -4.284   0.842 -13.786  1.00  0.00     0.001 A 
HETATM   22  C21 UNL     1      -3.175   0.282 -14.391  1.00  0.00     0.000 A 
HETATM   23  C22 UNL     1      -2.554   0.939 -15.421  1.00  0.00     0.001 A 
HETATM   24  C23 UNL     1      -3.009   2.165 -15.877  1.00  0.00     0.014 A 
ENDBRANCH  15  19
ENDBRANCH   6  13
ENDBRANCH   5   6
ENDBRANCH   1   5
BRANCH   3  25
HETATM   25  C7  UNL     1      -8.969   1.862 -14.481  1.00  0.00     0.032 A 
HETATM   26  C8  UNL     1      -7.997   1.004 -14.035  1.00  0.00     0.017 A 
HETATM   27  C9  UNL     1      -7.961  -0.343 -14.439  1.00  0.00     0.002 A 
HETATM   28  C10 UNL     1      -8.946  -0.790 -15.322  1.00  0.00     0.015 A 
HETATM   29  C11 UNL     1      -9.916   0.054 -15.767  1.00  0.00     0.011 A 
HETATM   30  C15 UNL     1      -9.932   1.373 -15.347  1.00  0.00     0.032 A 
BRANCH  29  31
HETATM   31  C12 UNL     1     -10.874  -0.354 -16.767  1.00  0.00     0.138 A 
HETATM   32  N3  UNL     1     -12.051   0.257 -17.035  1.00  0.00    -0.242 N 
HETATM   33  O2  UNL     1     -12.632  -0.312 -18.035  1.00  0.00    -0.213 OA
ATOM     34  H3  UNL     1     -12.425   1.053 -16.519  1.00  0.00     0.196 HD
HETATM   35  C13 UNL     1     -11.873  -1.310 -18.471  1.00  0.00     0.256 A 
HETATM   36  N4  UNL     1     -10.791  -1.324 -17.677  1.00  0.00    -0.315 N 
ATOM     37  H4  UNL     1     -10.016  -1.982 -17.758  1.00  0.00     0.169 HD
BRANCH  35  38
HETATM   38  C14 UNL     1     -12.151  -2.243 -19.611  1.00  0.00     0.458 C 
HETATM   39  F1  UNL     1     -11.724  -3.518 -19.283  1.00  0.00    -0.163 F 
HETATM   40  F2  UNL     1     -11.582  -1.742 -20.755  1.00  0.00    -0.163 F 
HETATM   41  F3  UNL     1     -13.517  -2.320 -19.740  1.00  0.00    -0.163 F 
ENDBRANCH  35  38
ENDBRANCH  29  31
ENDBRANCH   3  25
TORSDOF 7
ENDMDL
