MODEL 6
REMARK VINA RESULT: -9.701708783      1.255      1.478
REMARK  7 active torsions:
REMARK  status: ('A' for Active; 'I' for Inactive)
REMARK    1  A    between atoms: C4_5  and  C5_6 
REMARK    2  A    between atoms: C4_5  and  C16_28 
REMARK    3  A    between atoms: C5_6  and  N2_7 
REMARK       I    between atoms: N2_7  and  C6_9 
REMARK    4  A    between atoms: C6_9  and  C7_11 
REMARK    5  A    between atoms: C11_15  and  C12_16 
REMARK    6  A    between atoms: C13_20  and  C14_21 
REMARK    7  A    between atoms: C17_31  and  C18_32 
ROOT
HETATM    1  N2  UNL     1      -8.786   4.516 -15.559  1.00  0.00    -0.356 N 
ATOM      2  H2  UNL     1      -7.808   4.246 -15.667  1.00  0.00     0.162 HD
HETATM    3  C6  UNL     1      -9.732   3.503 -15.298  1.00  0.00     0.251 C 
HETATM    4  O1  UNL     1     -10.906   3.774 -14.998  1.00  0.00    -0.268 OA
ENDROOT
BRANCH   1   5
HETATM    5  C5  UNL     1      -9.131   5.939 -15.684  1.00  0.00     0.139 C 
BRANCH   5   6
HETATM    6  C4  UNL     1      -8.475   6.312 -17.056  1.00  0.00     0.028 C 
HETATM    7  C3  UNL     1      -9.083   5.425 -18.045  1.00  0.00     0.048 C 
HETATM    8  C2  UNL     1      -9.764   6.094 -19.198  1.00  0.00     0.273 C 
HETATM    9  N1  UNL     1      -8.883   7.116 -19.700  1.00  0.00     0.084 N 
HETATM   10  C1  UNL     1      -9.422   7.558 -20.974  1.00  0.00     0.309 C 
HETATM   11  C26 UNL     1      -8.790   8.150 -18.718  1.00  0.00     0.273 C 
HETATM   12  C25 UNL     1      -9.042   7.755 -17.312  1.00  0.00     0.048 C 
BRANCH   6  13
HETATM   13  C16 UNL     1      -7.043   6.458 -16.896  1.00  0.00     0.061 A 
HETATM   14  N5  UNL     1      -6.265   5.393 -16.570  1.00  0.00    -0.352 N 
HETATM   15  C17 UNL     1      -5.004   5.547 -16.383  1.00  0.00     0.049 A 
ATOM     16  H5  UNL     1      -6.684   4.469 -16.474  1.00  0.00     0.166 HD
HETATM   17  C24 UNL     1      -4.477   6.809 -16.522  1.00  0.00     0.081 A 
HETATM   18  S1  UNL     1      -5.884   7.704 -16.936  1.00  0.00    -0.085 SA
BRANCH  15  19
HETATM   19  C18 UNL     1      -4.112   4.407 -16.066  1.00  0.00    -0.009 A 
HETATM   20  C19 UNL     1      -4.619   3.256 -15.554  1.00  0.00     0.014 A 
HETATM   21  C20 UNL     1      -3.800   2.179 -15.187  1.00  0.00     0.001 A 
HETATM   22  C21 UNL     1      -2.438   2.328 -15.366  1.00  0.00     0.000 A 
HETATM   23  C22 UNL     1      -1.942   3.494 -15.887  1.00  0.00     0.001 A 
HETATM   24  C23 UNL     1      -2.774   4.542 -16.240  1.00  0.00     0.014 A 
ENDBRANCH  15  19
ENDBRANCH   6  13
ENDBRANCH   5   6
ENDBRANCH   1   5
BRANCH   3  25
HETATM   25  C7  UNL     1      -9.296   2.090 -15.446  1.00  0.00     0.032 A 
HETATM   26  C8  UNL     1     -10.090   1.148 -16.048  1.00  0.00     0.017 A 
HETATM   27  C9  UNL     1      -9.825  -0.228 -15.922  1.00  0.00     0.002 A 
HETATM   28  C10 UNL     1      -8.725  -0.617 -15.156  1.00  0.00     0.015 A 
HETATM   29  C11 UNL     1      -7.930   0.311 -14.558  1.00  0.00     0.011 A 
HETATM   30  C15 UNL     1      -8.210   1.659 -14.704  1.00  0.00     0.032 A 
BRANCH  29  31
HETATM   31  C12 UNL     1      -6.858  -0.070 -13.668  1.00  0.00     0.138 A 
HETATM   32  N3  UNL     1      -6.927  -0.120 -12.318  1.00  0.00    -0.242 N 
HETATM   33  O2  UNL     1      -5.822  -0.572 -11.832  1.00  0.00    -0.213 OA
ATOM     34  H3  UNL     1      -7.737   0.159 -11.765  1.00  0.00     0.196 HD
HETATM   35  C13 UNL     1      -4.984  -0.840 -12.826  1.00  0.00     0.256 A 
HETATM   36  N4  UNL     1      -5.639  -0.523 -13.955  1.00  0.00    -0.315 N 
ATOM     37  H4  UNL     1      -5.258  -0.617 -14.896  1.00  0.00     0.169 HD
BRANCH  35  38
HETATM   38  C14 UNL     1      -3.590  -1.380 -12.729  1.00  0.00     0.458 C 
HETATM   39  F1  UNL     1      -3.179  -1.372 -11.407  1.00  0.00    -0.163 F 
HETATM   40  F2  UNL     1      -2.770  -0.672 -13.572  1.00  0.00    -0.163 F 
HETATM   41  F3  UNL     1      -3.646  -2.702 -13.102  1.00  0.00    -0.163 F 
ENDBRANCH  35  38
ENDBRANCH  29  31
ENDBRANCH   3  25
TORSDOF 7
ENDMDL
