MODEL 7
REMARK VINA RESULT: -9.656862206      3.984      4.837
REMARK  7 active torsions:
REMARK  status: ('A' for Active; 'I' for Inactive)
REMARK    1  A    between atoms: C4_5  and  C5_6 
REMARK    2  A    between atoms: C4_5  and  C16_28 
REMARK    3  A    between atoms: C5_6  and  N2_7 
REMARK       I    between atoms: N2_7  and  C6_9 
REMARK    4  A    between atoms: C6_9  and  C7_11 
REMARK    5  A    between atoms: C11_15  and  C12_16 
REMARK    6  A    between atoms: C13_20  and  C14_21 
REMARK    7  A    between atoms: C17_31  and  C18_32 
ROOT
HETATM    1  N2  UNL     1      -8.666   4.320 -15.380  1.00  0.00    -0.356 N 
ATOM      2  H2  UNL     1      -7.734   3.926 -15.248  1.00  0.00     0.162 HD
HETATM    3  C6  UNL     1      -9.780   3.489 -15.141  1.00  0.00     0.251 C 
HETATM    4  O1  UNL     1     -10.936   3.943 -15.126  1.00  0.00    -0.268 OA
ENDROOT
BRANCH   1   5
HETATM    5  C5  UNL     1      -8.773   5.721 -15.809  1.00  0.00     0.139 C 
BRANCH   5   6
HETATM    6  C4  UNL     1      -7.856   5.742 -17.079  1.00  0.00     0.028 C 
HETATM    7  C3  UNL     1      -8.534   4.917 -18.076  1.00  0.00     0.048 C 
HETATM    8  C2  UNL     1      -8.845   5.583 -19.380  1.00  0.00     0.273 C 
HETATM    9  N1  UNL     1      -7.662   6.281 -19.813  1.00  0.00     0.084 N 
HETATM   10  C1  UNL     1      -7.881   6.679 -21.193  1.00  0.00     0.309 C 
HETATM   11  C26 UNL     1      -7.436   7.375 -18.922  1.00  0.00     0.273 C 
HETATM   12  C25 UNL     1      -7.978   7.237 -17.550  1.00  0.00     0.048 C 
BRANCH   6  13
HETATM   13  C16 UNL     1      -6.474   5.547 -16.694  1.00  0.00     0.061 A 
HETATM   14  N5  UNL     1      -6.040   4.341 -16.242  1.00  0.00    -0.352 N 
HETATM   15  C17 UNL     1      -4.824   4.195 -15.857  1.00  0.00     0.049 A 
ATOM     16  H5  UNL     1      -6.683   3.550 -16.208  1.00  0.00     0.166 HD
HETATM   17  C24 UNL     1      -3.988   5.286 -15.918  1.00  0.00     0.081 A 
HETATM   18  S1  UNL     1      -5.053   6.474 -16.556  1.00  0.00    -0.085 SA
BRANCH  15  19
HETATM   19  C18 UNL     1      -4.298   2.889 -15.395  1.00  0.00    -0.009 A 
HETATM   20  C19 UNL     1      -4.896   2.228 -14.371  1.00  0.00     0.014 A 
HETATM   21  C20 UNL     1      -4.391   1.020 -13.868  1.00  0.00     0.001 A 
HETATM   22  C21 UNL     1      -3.248   0.516 -14.458  1.00  0.00     0.000 A 
HETATM   23  C22 UNL     1      -2.658   1.192 -15.493  1.00  0.00     0.001 A 
HETATM   24  C23 UNL     1      -3.177   2.384 -15.969  1.00  0.00     0.014 A 
ENDBRANCH  15  19
ENDBRANCH   6  13
ENDBRANCH   5   6
ENDBRANCH   1   5
BRANCH   3  25
HETATM   25  C7  UNL     1      -9.537   2.034 -14.959  1.00  0.00     0.032 A 
HETATM   26  C8  UNL     1      -8.620   1.561 -14.056  1.00  0.00     0.017 A 
HETATM   27  C9  UNL     1      -8.170   0.229 -14.092  1.00  0.00     0.002 A 
HETATM   28  C10 UNL     1      -8.679  -0.609 -15.085  1.00  0.00     0.015 A 
HETATM   29  C11 UNL     1      -9.592  -0.149 -15.984  1.00  0.00     0.011 A 
HETATM   30  C15 UNL     1     -10.023   1.165 -15.921  1.00  0.00     0.032 A 
BRANCH  29  31
HETATM   31  C12 UNL     1     -10.044  -0.962 -17.087  1.00  0.00     0.138 A 
HETATM   32  N3  UNL     1      -9.271  -1.768 -17.850  1.00  0.00    -0.242 N 
HETATM   33  O2  UNL     1      -9.997  -2.412 -18.699  1.00  0.00    -0.213 OA
ATOM     34  H3  UNL     1      -8.258  -1.854 -17.766  1.00  0.00     0.196 HD
HETATM   35  C13 UNL     1     -11.268  -2.067 -18.535  1.00  0.00     0.256 A 
HETATM   36  N4  UNL     1     -11.281  -1.170 -17.537  1.00  0.00    -0.315 N 
ATOM     37  H4  UNL     1     -12.118  -0.713 -17.174  1.00  0.00     0.169 HD
BRANCH  35  38
HETATM   38  C14 UNL     1     -12.458  -2.563 -19.301  1.00  0.00     0.458 C 
HETATM   39  F1  UNL     1     -12.341  -2.197 -20.631  1.00  0.00    -0.163 F 
HETATM   40  F2  UNL     1     -13.605  -2.110 -18.698  1.00  0.00    -0.163 F 
HETATM   41  F3  UNL     1     -12.405  -3.936 -19.278  1.00  0.00    -0.163 F 
ENDBRANCH  35  38
ENDBRANCH  29  31
ENDBRANCH   3  25
TORSDOF 7
ENDMDL
