MODEL 1
REMARK VINA RESULT: -6.379511107      0.000      0.000
REMARK  11 active torsions:
REMARK  status: ('A' for Active; 'I' for Inactive)
REMARK    1  A    between atoms: O1_1  and  C1_3 
REMARK    2  A    between atoms: C1_3  and  C2_4 
REMARK    3  A    between atoms: C3_6  and  O3_7 
REMARK    4  A    between atoms: O3_7  and  C4_8 
REMARK    5  A    between atoms: C5_9  and  O4_10 
REMARK    6  A    between atoms: C6_12  and  O5_13 
REMARK    7  A    between atoms: C8_19  and  C9_20 
REMARK    8  A    between atoms: C9_20  and  O6_21 
REMARK    9  A    between atoms: C10_23  and  O7_24 
REMARK   10  A    between atoms: C11_26  and  O8_27 
REMARK   11  A    between atoms: C12_29  and  O9_30 
ROOT
HETATM    1  O3  UNL     1      19.417  28.748  10.252  1.00  0.00    -0.350 OA
ENDROOT
BRANCH   1   2
HETATM    2  C3  UNL     1      20.021  27.832  11.083  1.00  0.00     0.292 C 
HETATM    3  O2  UNL     1      20.718  26.950  10.262  1.00  0.00    -0.348 OA
HETATM    4  C2  UNL     1      19.932  25.977   9.697  1.00  0.00     0.179 C 
HETATM    5  C12 UNL     1      19.583  25.020  10.813  1.00  0.00     0.180 C 
HETATM    6  C11 UNL     1      18.748  25.763  11.791  1.00  0.00     0.183 C 
HETATM    7  C10 UNL     1      19.018  27.207  11.966  1.00  0.00     0.204 C 
BRANCH   4   8
HETATM    8  C1  UNL     1      18.718  26.504   8.998  1.00  0.00     0.198 C 
BRANCH   8   9
HETATM    9  O1  UNL     1      19.029  26.979   7.729  1.00  0.00    -0.398 OA
ATOM     10  H1  UNL     1      18.320  27.499   7.370  1.00  0.00     0.209 HD
ENDBRANCH   8   9
ENDBRANCH   4   8
BRANCH   5  11
HETATM   11  O9  UNL     1      20.715  24.549  11.465  1.00  0.00    -0.390 OA
ATOM     12  H9  UNL     1      20.654  24.658  12.406  1.00  0.00     0.210 HD
ENDBRANCH   5  11
BRANCH   6  13
HETATM   13  O8  UNL     1      17.399  25.513  11.434  1.00  0.00    -0.390 OA
ATOM     14  H8  UNL     1      17.285  24.650  11.053  1.00  0.00     0.210 HD
ENDBRANCH   6  13
BRANCH   7  15
HETATM   15  O7  UNL     1      19.372  27.400  13.328  1.00  0.00    -0.388 OA
ATOM     16  H7  UNL     1      19.472  26.561  13.764  1.00  0.00     0.210 HD
ENDBRANCH   7  15
ENDBRANCH   1   2
BRANCH   1  17
HETATM   17  C4  UNL     1      19.217  29.990  10.723  1.00  0.00     0.165 C 
HETATM   18  C5  UNL     1      20.287  30.512  11.657  1.00  0.00     0.203 C 
HETATM   19  C6  UNL     1      20.165  32.025  11.818  1.00  0.00     0.350 C 
HETATM   20  N1  UNL     1      18.807  32.479  11.742  1.00  0.00    -0.046 N 
HETATM   21  C7  UNL     1      18.131  32.151  10.514  1.00  0.00     0.244 C 
ATOM     22  H12 UNL     1      18.274  32.137  12.542  1.00  0.00     0.280 HD
ATOM     23  H11 UNL     1      18.760  33.483  11.916  1.00  0.00     0.280 HD
HETATM   24  C8  UNL     1      18.899  31.076   9.732  1.00  0.00     0.067 C 
BRANCH  18  25
HETATM   25  O4  UNL     1      20.121  29.964  12.929  1.00  0.00    -0.389 OA
ATOM     26  H4  UNL     1      19.819  30.632  13.534  1.00  0.00     0.210 HD
ENDBRANCH  18  25
BRANCH  19  27
HETATM   27  O5  UNL     1      20.990  32.697  10.913  1.00  0.00    -0.368 OA
ATOM     28  H5  UNL     1      20.692  33.589  10.773  1.00  0.00     0.212 HD
ENDBRANCH  19  27
BRANCH  24  29
HETATM   29  C9  UNL     1      18.035  30.607   8.604  1.00  0.00     0.173 C 
BRANCH  29  30
HETATM   30  O6  UNL     1      18.872  30.073   7.592  1.00  0.00    -0.400 OA
ATOM     31  H6  UNL     1      18.407  29.367   7.160  1.00  0.00     0.209 HD
ENDBRANCH  29  30
ENDBRANCH  24  29
ENDBRANCH   1  17
TORSDOF 11
ENDMDL
