MODEL 3
REMARK VINA RESULT: -6.078597238      8.262     10.958
REMARK  11 active torsions:
REMARK  status: ('A' for Active; 'I' for Inactive)
REMARK    1  A    between atoms: O1_1  and  C1_3 
REMARK    2  A    between atoms: C1_3  and  C2_4 
REMARK    3  A    between atoms: C3_6  and  O3_7 
REMARK    4  A    between atoms: O3_7  and  C4_8 
REMARK    5  A    between atoms: C5_9  and  O4_10 
REMARK    6  A    between atoms: C6_12  and  O5_13 
REMARK    7  A    between atoms: C8_19  and  C9_20 
REMARK    8  A    between atoms: C9_20  and  O6_21 
REMARK    9  A    between atoms: C10_23  and  O7_24 
REMARK   10  A    between atoms: C11_26  and  O8_27 
REMARK   11  A    between atoms: C12_29  and  O9_30 
ROOT
HETATM    1  O3  UNL     1      12.230  22.799  14.768  1.00  0.00    -0.350 OA
ENDROOT
BRANCH   1   2
HETATM    2  C3  UNL     1      12.899  23.848  15.355  1.00  0.00     0.292 C 
HETATM    3  O2  UNL     1      12.436  25.008  14.740  1.00  0.00    -0.348 OA
HETATM    4  C2  UNL     1      13.020  25.265  13.525  1.00  0.00     0.179 C 
HETATM    5  C12 UNL     1      14.431  25.716  13.825  1.00  0.00     0.180 C 
HETATM    6  C11 UNL     1      15.145  24.565  14.436  1.00  0.00     0.183 C 
HETATM    7  C10 UNL     1      14.356  23.634  15.272  1.00  0.00     0.204 C 
BRANCH   4   8
HETATM    8  C1  UNL     1      12.982  24.110  12.574  1.00  0.00     0.198 C 
BRANCH   8   9
HETATM    9  O1  UNL     1      13.526  24.451  11.340  1.00  0.00    -0.398 OA
ATOM     10  H1  UNL     1      12.935  24.232  10.629  1.00  0.00     0.209 HD
ENDBRANCH   8   9
ENDBRANCH   4   8
BRANCH   5  11
HETATM   11  O9  UNL     1      14.456  26.778  14.720  1.00  0.00    -0.390 OA
ATOM     12  H9  UNL     1      14.878  27.543  14.349  1.00  0.00     0.210 HD
ENDBRANCH   5  11
BRANCH   6  13
HETATM   13  O8  UNL     1      15.805  23.898  13.373  1.00  0.00    -0.390 OA
ATOM     14  H8  UNL     1      15.826  24.422  12.581  1.00  0.00     0.210 HD
ENDBRANCH   6  13
BRANCH   7  15
HETATM   15  O7  UNL     1      14.932  23.655  16.570  1.00  0.00    -0.388 OA
ATOM     16  H7  UNL     1      15.788  24.068  16.545  1.00  0.00     0.210 HD
ENDBRANCH   7  15
ENDBRANCH   1   2
BRANCH   1  17
HETATM   17  C4  UNL     1      11.248  22.207  15.468  1.00  0.00     0.165 C 
HETATM   18  C5  UNL     1      11.438  22.191  16.970  1.00  0.00     0.203 C 
HETATM   19  C6  UNL     1      10.125  21.856  17.671  1.00  0.00     0.350 C 
HETATM   20  N1  UNL     1       9.305  20.961  16.908  1.00  0.00    -0.046 N 
HETATM   21  C7  UNL     1       8.948  21.441  15.599  1.00  0.00     0.244 C 
ATOM     22  H12 UNL     1       9.748  20.045  16.841  1.00  0.00     0.280 HD
ATOM     23  H11 UNL     1       8.467  20.712  17.435  1.00  0.00     0.280 HD
HETATM   24  C8  UNL     1       9.831  22.628  15.187  1.00  0.00     0.067 C 
BRANCH  18  25
HETATM   25  O4  UNL     1      12.343  21.191  17.326  1.00  0.00    -0.389 OA
ATOM     26  H4  UNL     1      13.152  21.581  17.638  1.00  0.00     0.210 HD
ENDBRANCH  18  25
BRANCH  19  27
HETATM   27  O5  UNL     1       9.434  23.016  18.030  1.00  0.00    -0.368 OA
ATOM     28  H5  UNL     1       9.312  23.066  18.971  1.00  0.00     0.212 HD
ENDBRANCH  19  27
BRANCH  24  29
HETATM   29  C9  UNL     1       9.583  22.921  13.741  1.00  0.00     0.173 C 
BRANCH  29  30
HETATM   30  O6  UNL     1      10.168  21.887  12.968  1.00  0.00    -0.400 OA
ATOM     31  H6  UNL     1       9.584  21.685  12.247  1.00  0.00     0.209 HD
ENDBRANCH  29  30
ENDBRANCH  24  29
ENDBRANCH   1  17
TORSDOF 11
ENDMDL
