MODEL 4
REMARK VINA RESULT: -6.054645912      4.930      7.518
REMARK  11 active torsions:
REMARK  status: ('A' for Active; 'I' for Inactive)
REMARK    1  A    between atoms: O1_1  and  C1_3 
REMARK    2  A    between atoms: C1_3  and  C2_4 
REMARK    3  A    between atoms: C3_6  and  O3_7 
REMARK    4  A    between atoms: O3_7  and  C4_8 
REMARK    5  A    between atoms: C5_9  and  O4_10 
REMARK    6  A    between atoms: C6_12  and  O5_13 
REMARK    7  A    between atoms: C8_19  and  C9_20 
REMARK    8  A    between atoms: C9_20  and  O6_21 
REMARK    9  A    between atoms: C10_23  and  O7_24 
REMARK   10  A    between atoms: C11_26  and  O8_27 
REMARK   11  A    between atoms: C12_29  and  O9_30 
ROOT
HETATM    1  O3  UNL     1      15.819  24.054  13.612  1.00  0.00    -0.350 OA
ENDROOT
BRANCH   1   2
HETATM    2  C3  UNL     1      14.942  24.713  14.442  1.00  0.00     0.292 C 
HETATM    3  O2  UNL     1      14.966  24.038  15.660  1.00  0.00    -0.348 OA
HETATM    4  C2  UNL     1      14.194  22.904  15.682  1.00  0.00     0.179 C 
HETATM    5  C12 UNL     1      12.758  23.374  15.711  1.00  0.00     0.180 C 
HETATM    6  C11 UNL     1      12.494  24.075  14.429  1.00  0.00     0.183 C 
HETATM    7  C10 UNL     1      13.616  24.812  13.807  1.00  0.00     0.204 C 
BRANCH   4   8
HETATM    8  C1  UNL     1      14.461  21.963  14.550  1.00  0.00     0.198 C 
BRANCH   8   9
HETATM    9  O1  UNL     1      15.761  21.468  14.597  1.00  0.00    -0.398 OA
ATOM     10  H1  UNL     1      15.830  20.632  14.152  1.00  0.00     0.209 HD
ENDBRANCH   8   9
ENDBRANCH   4   8
BRANCH   5  11
HETATM   11  O9  UNL     1      12.523  24.259  16.756  1.00  0.00    -0.390 OA
ATOM     12  H9  UNL     1      12.594  25.164  16.477  1.00  0.00     0.210 HD
ENDBRANCH   5  11
BRANCH   6  13
HETATM   13  O8  UNL     1      11.942  23.107  13.552  1.00  0.00    -0.390 OA
ATOM     14  H8  UNL     1      11.503  22.408  14.024  1.00  0.00     0.210 HD
ENDBRANCH   6  13
BRANCH   7  15
HETATM   15  O7  UNL     1      13.214  26.172  13.712  1.00  0.00    -0.388 OA
ATOM     16  H7  UNL     1      12.270  26.243  13.785  1.00  0.00     0.210 HD
ENDBRANCH   7  15
ENDBRANCH   1   2
BRANCH   1  17
HETATM   17  C4  UNL     1      16.376  24.748  12.606  1.00  0.00     0.165 C 
HETATM   18  C5  UNL     1      17.662  25.470  12.946  1.00  0.00     0.203 C 
HETATM   19  C6  UNL     1      18.392  25.890  11.673  1.00  0.00     0.350 C 
HETATM   20  N1  UNL     1      17.494  26.213  10.604  1.00  0.00    -0.046 N 
HETATM   21  C7  UNL     1      16.606  25.146  10.221  1.00  0.00     0.244 C 
ATOM     22  H12 UNL     1      16.961  27.053  10.830  1.00  0.00     0.280 HD
ATOM     23  H11 UNL     1      18.014  26.549   9.793  1.00  0.00     0.280 HD
HETATM   24  C8  UNL     1      16.576  24.045  11.291  1.00  0.00     0.067 C 
BRANCH  18  25
HETATM   25  O4  UNL     1      17.380  26.643  13.647  1.00  0.00    -0.389 OA
ATOM     26  H4  UNL     1      18.189  27.052  13.934  1.00  0.00     0.210 HD
ENDBRANCH  18  25
BRANCH  19  27
HETATM   27  O5  UNL     1      19.334  24.932  11.291  1.00  0.00    -0.368 OA
ATOM     28  H5  UNL     1      19.664  24.455  12.044  1.00  0.00     0.212 HD
ENDBRANCH  19  27
BRANCH  24  29
HETATM   29  C9  UNL     1      15.467  23.096  10.959  1.00  0.00     0.173 C 
BRANCH  29  30
HETATM   30  O6  UNL     1      15.791  21.824  11.494  1.00  0.00    -0.400 OA
ATOM     31  H6  UNL     1      14.994  21.422  11.816  1.00  0.00     0.209 HD
ENDBRANCH  29  30
ENDBRANCH  24  29
ENDBRANCH   1  17
TORSDOF 11
ENDMDL
