MODEL 1
REMARK VINA RESULT: -6.815941490      0.000      0.000
REMARK  6 active torsions:
REMARK  status: ('A' for Active; 'I' for Inactive)
REMARK    1  A    between atoms: C2_2  and  C3_3 
REMARK    2  A    between atoms: C2_2  and  C6_8 
REMARK    3  A    between atoms: C3_3  and  C4_4 
REMARK    4  A    between atoms: C4_4  and  C5_5 
REMARK    5  A    between atoms: C15_17  and  O3_18 
REMARK    6  A    between atoms: C22_26  and  O4_27 
ROOT
HETATM    1  C6  UNL     1       2.632  19.801  14.585  1.00  0.00     0.000 C 
HETATM    2  C7  UNL     1       1.923  18.442  14.682  1.00  0.00     0.006 C 
HETATM    3  C8  UNL     1       1.621  18.043  13.247  1.00  0.00     0.006 C 
HETATM    4  C9  UNL     1       2.721  18.758  12.547  1.00  0.00     0.001 C 
HETATM    5  C10 UNL     1       2.701  18.752  11.077  1.00  0.00    -0.005 C 
HETATM    6  C11 UNL     1       2.583  17.299  10.630  1.00  0.00     0.006 C 
HETATM    7  C12 UNL     1       3.371  16.996   9.405  1.00  0.00     0.006 C 
HETATM    8  C13 UNL     1       3.478  18.238   8.568  1.00  0.00    -0.004 C 
HETATM    9  C14 UNL     1       3.940  17.887   7.173  1.00  0.00     0.037 C 
HETATM   10  C15 UNL     1       5.380  17.537   7.101  1.00  0.00     0.118 C 
HETATM   11  C16 UNL     1       6.223  18.075   8.203  1.00  0.00     0.032 C 
HETATM   12  C17 UNL     1       5.731  19.315   8.843  1.00  0.00     0.012 C 
HETATM   13  C18 UNL     1       4.277  19.332   9.196  1.00  0.00    -0.036 C 
HETATM   14  C19 UNL     1       3.717  20.653   8.642  1.00  0.00     0.016 C 
HETATM   15  C20 UNL     1       4.067  19.316  10.667  1.00  0.00     0.001 C 
HETATM   16  C21 UNL     1       4.228  20.682  11.253  1.00  0.00     0.038 C 
HETATM   17  C22 UNL     1       4.000  20.776  12.716  1.00  0.00     0.127 C 
HETATM   18  C23 UNL     1       2.684  20.165  13.167  1.00  0.00    -0.010 C 
HETATM   19  C24 UNL     1       1.586  20.987  12.607  1.00  0.00     0.018 C 
ENDROOT
BRANCH   1  20
HETATM   20  C2  UNL     1       2.022  20.687  15.589  1.00  0.00    -0.013 C 
HETATM   21  C1  UNL     1       2.950  21.337  16.568  1.00  0.00     0.010 C 
BRANCH  20  22
HETATM   22  C3  UNL     1       0.794  20.132  16.275  1.00  0.00     0.015 C 
BRANCH  22  23
HETATM   23  C4  UNL     1      -0.402  21.053  15.994  1.00  0.00     0.113 C 
BRANCH  23  24
HETATM   24  C5  UNL     1      -1.630  20.569  16.594  1.00  0.00     0.172 C 
HETATM   25  O1  UNL     1      -2.688  21.223  16.472  1.00  0.00    -0.648 OA
HETATM   26  O2  UNL     1      -1.667  19.388  17.307  1.00  0.00    -0.648 OA
ENDBRANCH  23  24
ENDBRANCH  22  23
ENDBRANCH  20  22
ENDBRANCH   1  20
BRANCH  17  27
HETATM   27  O4  UNL     1       5.069  20.295  13.471  1.00  0.00    -0.395 OA
ATOM     28  H4  UNL     1       5.215  20.788  14.269  1.00  0.00     0.210 HD
ENDBRANCH  17  27
BRANCH  10  29
HETATM   29  O3  UNL     1       5.496  16.134   7.124  1.00  0.00    -0.396 OA
ATOM     30  H3  UNL     1       5.809  15.874   7.983  1.00  0.00     0.210 HD
ENDBRANCH  10  29
TORSDOF 6
ENDMDL
