MODEL 3
REMARK VINA RESULT: -6.636435082      1.020      1.085
REMARK  6 active torsions:
REMARK  status: ('A' for Active; 'I' for Inactive)
REMARK    1  A    between atoms: C2_2  and  C3_3 
REMARK    2  A    between atoms: C2_2  and  C6_8 
REMARK    3  A    between atoms: C3_3  and  C4_4 
REMARK    4  A    between atoms: C4_4  and  C5_5 
REMARK    5  A    between atoms: C15_17  and  O3_18 
REMARK    6  A    between atoms: C22_26  and  O4_27 
ROOT
HETATM    1  C6  UNL     1       2.757  20.737  14.536  1.00  0.00     0.000 C 
HETATM    2  C7  UNL     1       2.665  19.294  15.056  1.00  0.00     0.006 C 
HETATM    3  C8  UNL     1       2.320  18.450  13.840  1.00  0.00     0.006 C 
HETATM    4  C9  UNL     1       2.924  19.287  12.771  1.00  0.00     0.001 C 
HETATM    5  C10 UNL     1       2.676  18.884  11.378  1.00  0.00    -0.005 C 
HETATM    6  C11 UNL     1       3.070  17.417  11.253  1.00  0.00     0.006 C 
HETATM    7  C12 UNL     1       3.707  17.090   9.949  1.00  0.00     0.006 C 
HETATM    8  C13 UNL     1       3.184  18.023   8.896  1.00  0.00    -0.004 C 
HETATM    9  C14 UNL     1       3.519  17.496   7.520  1.00  0.00     0.037 C 
HETATM   10  C15 UNL     1       4.950  17.656   7.162  1.00  0.00     0.118 C 
HETATM   11  C16 UNL     1       5.677  18.723   7.901  1.00  0.00     0.032 C 
HETATM   12  C17 UNL     1       4.846  19.841   8.401  1.00  0.00     0.012 C 
HETATM   13  C18 UNL     1       3.578  19.450   9.092  1.00  0.00    -0.036 C 
HETATM   14  C19 UNL     1       2.464  20.300   8.458  1.00  0.00     0.016 C 
HETATM   15  C20 UNL     1       3.627  19.754  10.546  1.00  0.00     0.001 C 
HETATM   16  C21 UNL     1       3.329  21.194  10.809  1.00  0.00     0.038 C 
HETATM   17  C22 UNL     1       3.318  21.590  12.239  1.00  0.00     0.127 C 
HETATM   18  C23 UNL     1       2.437  20.706  13.107  1.00  0.00    -0.010 C 
HETATM   19  C24 UNL     1       1.031  20.920  12.693  1.00  0.00     0.018 C 
ENDROOT
BRANCH   1  20
HETATM   20  C2  UNL     1       2.016  21.591  15.477  1.00  0.00    -0.013 C 
HETATM   21  C1  UNL     1       2.737  22.788  16.015  1.00  0.00     0.010 C 
BRANCH  20  22
HETATM   22  C3  UNL     1       1.277  20.853  16.570  1.00  0.00     0.015 C 
BRANCH  22  23
HETATM   23  C4  UNL     1      -0.231  20.904  16.286  1.00  0.00     0.113 C 
BRANCH  23  24
HETATM   24  C5  UNL     1      -0.835  19.587  16.242  1.00  0.00     0.172 C 
HETATM   25  O1  UNL     1      -0.897  18.961  15.161  1.00  0.00    -0.648 OA
HETATM   26  O2  UNL     1      -1.349  18.992  17.376  1.00  0.00    -0.648 OA
ENDBRANCH  23  24
ENDBRANCH  22  23
ENDBRANCH  20  22
ENDBRANCH   1  20
BRANCH  17  27
HETATM   27  O4  UNL     1       4.595  21.725  12.782  1.00  0.00    -0.395 OA
ATOM     28  H4  UNL     1       4.799  21.058  13.427  1.00  0.00     0.210 HD
ENDBRANCH  17  27
BRANCH  10  29
HETATM   29  O3  UNL     1       5.610  16.439   7.416  1.00  0.00    -0.396 OA
ATOM     30  H3  UNL     1       6.110  16.203   6.644  1.00  0.00     0.210 HD
ENDBRANCH  10  29
TORSDOF 6
ENDMDL
