MODEL 2
REMARK VINA RESULT: -6.638786755      2.062      3.467
REMARK  6 active torsions:
REMARK  status: ('A' for Active; 'I' for Inactive)
REMARK    1  A    between atoms: C2_2  and  C3_3 
REMARK    2  A    between atoms: C2_2  and  C6_8 
REMARK    3  A    between atoms: C3_3  and  C4_4 
REMARK    4  A    between atoms: C4_4  and  C5_5 
REMARK    5  A    between atoms: C15_17  and  O3_18 
REMARK    6  A    between atoms: C22_26  and  O4_27 
ROOT
HETATM    1  C6  UNL     1       2.794  19.556  13.237  1.00  0.00     0.000 C 
HETATM    2  C7  UNL     1       3.709  20.776  13.059  1.00  0.00     0.006 C 
HETATM    3  C8  UNL     1       4.663  20.403  11.936  1.00  0.00     0.006 C 
HETATM    4  C9  UNL     1       3.811  19.443  11.187  1.00  0.00     0.001 C 
HETATM    5  C10 UNL     1       4.436  18.714  10.073  1.00  0.00    -0.005 C 
HETATM    6  C11 UNL     1       5.079  19.749   9.157  1.00  0.00     0.006 C 
HETATM    7  C12 UNL     1       4.968  19.405   7.714  1.00  0.00     0.006 C 
HETATM    8  C13 UNL     1       4.913  17.913   7.565  1.00  0.00    -0.004 C 
HETATM    9  C14 UNL     1       5.169  17.523   6.128  1.00  0.00     0.037 C 
HETATM   10  C15 UNL     1       4.021  17.803   5.230  1.00  0.00     0.118 C 
HETATM   11  C16 UNL     1       2.695  17.893   5.900  1.00  0.00     0.032 C 
HETATM   12  C17 UNL     1       2.559  17.135   7.163  1.00  0.00     0.012 C 
HETATM   13  C18 UNL     1       3.685  17.285   8.136  1.00  0.00    -0.036 C 
HETATM   14  C19 UNL     1       4.081  15.859   8.557  1.00  0.00     0.016 C 
HETATM   15  C20 UNL     1       3.267  18.031   9.352  1.00  0.00     0.001 C 
HETATM   16  C21 UNL     1       2.550  17.142  10.314  1.00  0.00     0.038 C 
HETATM   17  C22 UNL     1       2.123  17.789  11.580  1.00  0.00     0.127 C 
HETATM   18  C23 UNL     1       3.243  18.533  12.289  1.00  0.00    -0.010 C 
HETATM   19  C24 UNL     1       4.235  17.533  12.746  1.00  0.00     0.018 C 
ENDROOT
BRANCH   1  20
HETATM   20  C2  UNL     1       2.698  19.286  14.680  1.00  0.00    -0.013 C 
HETATM   21  C1  UNL     1       1.360  18.859  15.199  1.00  0.00     0.010 C 
BRANCH  20  22
HETATM   22  C3  UNL     1       3.332  20.327  15.572  1.00  0.00     0.015 C 
BRANCH  22  23
HETATM   23  C4  UNL     1       2.228  21.125  16.283  1.00  0.00     0.113 C 
BRANCH  23  24
HETATM   24  C5  UNL     1       1.971  22.404  15.651  1.00  0.00     0.172 C 
HETATM   25  O1  UNL     1       0.833  22.664  15.203  1.00  0.00    -0.648 OA
HETATM   26  O2  UNL     1       2.959  23.359  15.530  1.00  0.00    -0.648 OA
ENDBRANCH  23  24
ENDBRANCH  22  23
ENDBRANCH  20  22
ENDBRANCH   1  20
BRANCH  17  27
HETATM   27  O4  UNL     1       0.992  18.591  11.433  1.00  0.00    -0.395 OA
ATOM     28  H4  UNL     1       0.736  19.025  12.238  1.00  0.00     0.210 HD
ENDBRANCH  17  27
BRANCH  10  29
HETATM   29  O3  UNL     1       4.254  19.030   4.582  1.00  0.00    -0.396 OA
ATOM     30  H3  UNL     1       4.913  18.895   3.912  1.00  0.00     0.210 HD
ENDBRANCH  10  29
TORSDOF 6
ENDMDL
