MODEL 4
REMARK VINA RESULT: -6.629801806      1.526      8.062
REMARK  6 active torsions:
REMARK  status: ('A' for Active; 'I' for Inactive)
REMARK    1  A    between atoms: C2_2  and  C3_3 
REMARK    2  A    between atoms: C2_2  and  C6_8 
REMARK    3  A    between atoms: C3_3  and  C4_4 
REMARK    4  A    between atoms: C4_4  and  C5_5 
REMARK    5  A    between atoms: C15_17  and  O3_18 
REMARK    6  A    between atoms: C22_26  and  O4_27 
ROOT
HETATM    1  C6  UNL     1       3.482  18.349   9.795  1.00  0.00     0.000 C 
HETATM    2  C7  UNL     1       2.167  17.790   9.234  1.00  0.00     0.006 C 
HETATM    3  C8  UNL     1       1.323  17.448  10.450  1.00  0.00     0.006 C 
HETATM    4  C9  UNL     1       1.874  18.426  11.424  1.00  0.00     0.001 C 
HETATM    5  C10 UNL     1       1.414  18.322  12.818  1.00  0.00    -0.005 C 
HETATM    6  C11 UNL     1      -0.110  18.327  12.794  1.00  0.00     0.006 C 
HETATM    7  C12 UNL     1      -0.712  19.069  13.935  1.00  0.00     0.006 C 
HETATM    8  C13 UNL     1       0.217  19.001  15.112  1.00  0.00    -0.004 C 
HETATM    9  C14 UNL     1      -0.508  19.414  16.372  1.00  0.00     0.037 C 
HETATM   10  C15 UNL     1      -0.748  20.876  16.459  1.00  0.00     0.118 C 
HETATM   11  C16 UNL     1       0.167  21.722  15.647  1.00  0.00     0.032 C 
HETATM   12  C17 UNL     1       1.501  21.144  15.369  1.00  0.00     0.012 C 
HETATM   13  C18 UNL     1       1.511  19.720  14.914  1.00  0.00    -0.036 C 
HETATM   14  C19 UNL     1       2.548  18.997  15.790  1.00  0.00     0.016 C 
HETATM   15  C20 UNL     1       1.932  19.597  13.494  1.00  0.00     0.001 C 
HETATM   16  C21 UNL     1       3.419  19.652  13.363  1.00  0.00     0.038 C 
HETATM   17  C22 UNL     1       3.941  19.501  11.982  1.00  0.00     0.127 C 
HETATM   18  C23 UNL     1       3.396  18.282  11.256  1.00  0.00    -0.010 C 
HETATM   19  C24 UNL     1       3.916  17.076  11.941  1.00  0.00     0.018 C 
ENDROOT
BRANCH   1  20
HETATM   20  C2  UNL     1       4.582  17.712   9.055  1.00  0.00    -0.013 C 
HETATM   21  C1  UNL     1       5.777  18.563   8.755  1.00  0.00     0.010 C 
BRANCH  20  22
HETATM   22  C3  UNL     1       4.162  16.903   7.849  1.00  0.00     0.015 C 
BRANCH  22  23
HETATM   23  C4  UNL     1       4.567  15.436   8.058  1.00  0.00     0.113 C 
BRANCH  23  24
HETATM   24  C5  UNL     1       5.797  15.094   7.370  1.00  0.00     0.172 C 
HETATM   25  O1  UNL     1       6.161  15.754   6.373  1.00  0.00    -0.648 OA
HETATM   26  O2  UNL     1       6.590  14.047   7.791  1.00  0.00    -0.648 OA
ENDBRANCH  23  24
ENDBRANCH  22  23
ENDBRANCH  20  22
ENDBRANCH   1  20
BRANCH  17  27
HETATM   27  O4  UNL     1       3.802  20.656  11.213  1.00  0.00    -0.395 OA
ATOM     28  H4  UNL     1       3.229  20.539  10.464  1.00  0.00     0.210 HD
ENDBRANCH  17  27
BRANCH  10  29
HETATM   29  O3  UNL     1      -2.062  21.135  16.025  1.00  0.00    -0.396 OA
ATOM     30  H3  UNL     1      -2.621  21.210  16.790  1.00  0.00     0.210 HD
ENDBRANCH  10  29
TORSDOF 6
ENDMDL
