MODEL 2
REMARK VINA RESULT: -7.907215488      2.958      6.385
REMARK  13 active torsions:
REMARK  status: ('A' for Active; 'I' for Inactive)
REMARK    1  A    between atoms: C2_2  and  C3_3 
REMARK    2  A    between atoms: C3_3  and  N1_4 
REMARK    3  A    between atoms: N1_4  and  C4_5 
REMARK    4  A    between atoms: N1_4  and  C27_33 
REMARK    5  A    between atoms: C4_5  and  C5_6 
REMARK    6  A    between atoms: C10_11  and  C11_12 
REMARK       I    between atoms: C11_12  and  N2_14 
REMARK    7  A    between atoms: N2_14  and  C12_16 
REMARK    8  A    between atoms: C12_16  and  C13_17 
REMARK    9  A    between atoms: C12_16  and  C20_25 
REMARK   10  A    between atoms: C16_20  and  O2_21 
REMARK   11  A    between atoms: C23_28  and  O3_29 
REMARK   12  A    between atoms: C27_33  and  C28_34 
REMARK   13  A    between atoms: C33_39  and  C34_40 
ROOT
HETATM    1  C5  UNL     1     -10.715  47.822   2.533  1.00  0.00    -0.005 A 
HETATM    2  C6  UNL     1     -11.828  48.575   2.886  1.00  0.00     0.014 A 
HETATM    3  C7  UNL     1     -11.743  49.708   3.707  1.00  0.00     0.001 A 
HETATM    4  C8  UNL     1     -10.507  50.028   4.147  1.00  0.00     0.001 A 
HETATM    5  C9  UNL     1      -9.400  49.307   3.840  1.00  0.00     0.018 A 
HETATM    6  C10 UNL     1      -9.498  48.137   2.999  1.00  0.00     0.043 A 
ENDROOT
BRANCH   6   7
HETATM    7  C11 UNL     1      -8.292  47.328   3.073  1.00  0.00     0.253 C 
HETATM    8  O1  UNL     1      -7.175  47.887   3.224  1.00  0.00    -0.268 OA
HETATM    9  N2  UNL     1      -8.277  45.894   2.924  1.00  0.00    -0.344 N 
ATOM     10  H2  UNL     1      -9.148  45.363   2.955  1.00  0.00     0.163 HD
BRANCH   9  11
HETATM   11  C12 UNL     1      -7.027  45.223   2.730  1.00  0.00     0.151 C 
BRANCH  11  12
HETATM   12  C13 UNL     1      -6.112  44.748   3.697  1.00  0.00    -0.031 A 
HETATM   13  C14 UNL     1      -6.333  44.035   4.850  1.00  0.00     0.012 A 
HETATM   14  C15 UNL     1      -5.330  43.746   5.776  1.00  0.00     0.037 A 
HETATM   15  C16 UNL     1      -4.054  44.172   5.557  1.00  0.00     0.068 A 
HETATM   16  C18 UNL     1      -3.775  44.884   4.416  1.00  0.00     0.037 A 
HETATM   17  C19 UNL     1      -4.760  45.152   3.545  1.00  0.00     0.012 A 
BRANCH  15  18
HETATM   18  O2  UNL     1      -3.009  43.916   6.461  1.00  0.00    -0.356 OA
HETATM   19  C17 UNL     1      -2.808  44.804   7.553  1.00  0.00     0.210 C 
ENDBRANCH  15  18
ENDBRANCH  11  12
BRANCH  11  20
HETATM   20  C20 UNL     1      -7.606  43.988   1.956  1.00  0.00    -0.031 A 
HETATM   21  C21 UNL     1      -8.919  43.953   1.653  1.00  0.00     0.012 A 
HETATM   22  C22 UNL     1      -9.471  42.992   0.797  1.00  0.00     0.037 A 
HETATM   23  C23 UNL     1      -8.609  42.045   0.245  1.00  0.00     0.068 A 
HETATM   24  C25 UNL     1      -7.266  42.095   0.576  1.00  0.00     0.037 A 
HETATM   25  C26 UNL     1      -6.746  43.054   1.426  1.00  0.00     0.012 A 
BRANCH  23  26
HETATM   26  O3  UNL     1      -9.120  41.104  -0.610  1.00  0.00    -0.356 OA
HETATM   27  C24 UNL     1     -10.082  41.382  -1.582  1.00  0.00     0.210 C 
ENDBRANCH  23  26
ENDBRANCH  11  20
ENDBRANCH   9  11
ENDBRANCH   6   7
BRANCH   1  28
HETATM   28  C4  UNL     1     -10.863  46.769   1.436  1.00  0.00     0.103 C 
BRANCH  28  29
HETATM   29  N1  UNL     1     -10.570  47.315   0.182  1.00  0.00    -0.361 N 
BRANCH  29  30
HETATM   30  C3  UNL     1      -9.369  46.839  -0.490  1.00  0.00     0.090 C 
BRANCH  30  31
HETATM   31  C2  UNL     1      -8.201  47.666  -0.531  1.00  0.00     0.007 C 
HETATM   32  C1  UNL     1      -6.947  47.172  -0.432  1.00  0.00     0.012 C 
ENDBRANCH  30  31
ENDBRANCH  29  30
BRANCH  29  33
HETATM   33  C27 UNL     1     -11.575  47.752  -0.724  1.00  0.00     0.167 C 
BRANCH  33  34
HETATM   34  C28 UNL     1     -12.384  46.568  -1.203  1.00  0.00    -0.020 A 
HETATM   35  C29 UNL     1     -11.914  45.621  -2.066  1.00  0.00     0.013 A 
HETATM   36  C30 UNL     1     -12.749  44.619  -2.572  1.00  0.00     0.040 A 
HETATM   37  C31 UNL     1     -14.066  44.580  -2.193  1.00  0.00     0.106 A 
HETATM   38  C32 UNL     1     -14.571  45.509  -1.314  1.00  0.00     0.122 A 
HETATM   39  O7  UNL     1     -15.173  43.706  -2.525  1.00  0.00    -0.323 OA
HETATM   40  C33 UNL     1     -13.725  46.482  -0.832  1.00  0.00     0.085 A 
HETATM   41  O6  UNL     1     -15.939  45.177  -1.148  1.00  0.00    -0.322 OA
HETATM   42  C35 UNL     1     -16.323  44.597  -2.442  1.00  0.00     0.352 C 
BRANCH  40  43
HETATM   43  C34 UNL     1     -14.210  47.414   0.151  1.00  0.00     0.212 C 
HETATM   44  O4  UNL     1     -14.299  48.606  -0.041  1.00  0.00    -0.644 OA
HETATM   45  O5  UNL     1     -14.592  46.854   1.381  1.00  0.00    -0.644 OA
ENDBRANCH  40  43
ENDBRANCH  33  34
ENDBRANCH  29  33
ENDBRANCH  28  29
ENDBRANCH   1  28
TORSDOF 13
ENDMDL
