MODEL 1
REMARK VINA RESULT: -8.045088747      0.000      0.000
REMARK  13 active torsions:
REMARK  status: ('A' for Active; 'I' for Inactive)
REMARK    1  A    between atoms: C2_2  and  C3_3 
REMARK    2  A    between atoms: C3_3  and  N1_4 
REMARK    3  A    between atoms: N1_4  and  C4_5 
REMARK    4  A    between atoms: N1_4  and  C27_33 
REMARK    5  A    between atoms: C4_5  and  C5_6 
REMARK    6  A    between atoms: C10_11  and  C11_12 
REMARK       I    between atoms: C11_12  and  N2_14 
REMARK    7  A    between atoms: N2_14  and  C12_16 
REMARK    8  A    between atoms: C12_16  and  C13_17 
REMARK    9  A    between atoms: C12_16  and  C20_25 
REMARK   10  A    between atoms: C16_20  and  O2_21 
REMARK   11  A    between atoms: C23_28  and  O3_29 
REMARK   12  A    between atoms: C27_33  and  C28_34 
REMARK   13  A    between atoms: C33_39  and  C34_40 
ROOT
HETATM    1  C5  UNL     1      -9.786  43.040  -1.480  1.00  0.00    -0.005 A 
HETATM    2  C6  UNL     1     -10.055  41.703  -1.748  1.00  0.00     0.014 A 
HETATM    3  C7  UNL     1      -9.583  40.662  -0.937  1.00  0.00     0.001 A 
HETATM    4  C8  UNL     1      -8.840  41.031   0.128  1.00  0.00     0.001 A 
HETATM    5  C9  UNL     1      -8.541  42.323   0.412  1.00  0.00     0.018 A 
HETATM    6  C10 UNL     1      -9.024  43.390  -0.433  1.00  0.00     0.043 A 
ENDROOT
BRANCH   6   7
HETATM    7  C11 UNL     1      -8.324  44.637  -0.167  1.00  0.00     0.253 C 
HETATM    8  O1  UNL     1      -7.349  44.970  -0.888  1.00  0.00    -0.268 OA
HETATM    9  N2  UNL     1      -8.641  45.516   0.931  1.00  0.00    -0.344 N 
ATOM     10  H2  UNL     1      -9.507  45.393   1.456  1.00  0.00     0.163 HD
BRANCH   9  11
HETATM   11  C12 UNL     1      -7.726  46.562   1.276  1.00  0.00     0.151 C 
BRANCH  11  12
HETATM   12  C13 UNL     1      -7.164  47.561   0.450  1.00  0.00    -0.031 A 
HETATM   13  C14 UNL     1      -7.739  48.321  -0.538  1.00  0.00     0.012 A 
HETATM   14  C15 UNL     1      -7.015  49.186  -1.361  1.00  0.00     0.037 A 
HETATM   15  C16 UNL     1      -5.667  49.312  -1.201  1.00  0.00     0.068 A 
HETATM   16  C18 UNL     1      -5.040  48.580  -0.222  1.00  0.00     0.037 A 
HETATM   17  C19 UNL     1      -5.761  47.753   0.551  1.00  0.00     0.012 A 
BRANCH  15  18
HETATM   18  O2  UNL     1      -4.890  50.161  -2.007  1.00  0.00    -0.356 OA
HETATM   19  C17 UNL     1      -4.082  51.152  -1.388  1.00  0.00     0.210 C 
ENDBRANCH  15  18
ENDBRANCH  11  12
BRANCH  11  20
HETATM   20  C20 UNL     1      -8.649  47.264   2.332  1.00  0.00    -0.031 A 
HETATM   21  C21 UNL     1      -9.983  47.273   2.142  1.00  0.00     0.012 A 
HETATM   22  C22 UNL     1     -10.883  47.697   3.129  1.00  0.00     0.037 A 
HETATM   23  C23 UNL     1     -10.355  48.119   4.349  1.00  0.00     0.068 A 
HETATM   24  C25 UNL     1      -8.982  48.108   4.518  1.00  0.00     0.037 A 
HETATM   25  C26 UNL     1      -8.114  47.687   3.527  1.00  0.00     0.012 A 
BRANCH  23  26
HETATM   26  O3  UNL     1     -11.214  48.522   5.337  1.00  0.00    -0.356 OA
HETATM   27  C24 UNL     1     -12.107  49.587   5.199  1.00  0.00     0.210 C 
ENDBRANCH  23  26
ENDBRANCH  11  20
ENDBRANCH   9  11
ENDBRANCH   6   7
BRANCH   1  28
HETATM   28  C4  UNL     1     -10.548  44.110  -2.261  1.00  0.00     0.103 C 
BRANCH  28  29
HETATM   29  N1  UNL     1     -11.821  44.307  -1.717  1.00  0.00    -0.361 N 
BRANCH  29  30
HETATM   30  C3  UNL     1     -12.869  43.375  -2.114  1.00  0.00     0.090 C 
BRANCH  30  31
HETATM   31  C2  UNL     1     -14.085  43.872  -2.680  1.00  0.00     0.007 C 
HETATM   32  C1  UNL     1     -14.148  45.012  -3.403  1.00  0.00     0.012 C 
ENDBRANCH  30  31
ENDBRANCH  29  30
BRANCH  29  33
HETATM   33  C27 UNL     1     -12.031  44.856  -0.422  1.00  0.00     0.167 C 
BRANCH  33  34
HETATM   34  C28 UNL     1     -12.165  46.359  -0.517  1.00  0.00    -0.020 A 
HETATM   35  C29 UNL     1     -11.224  47.176  -1.075  1.00  0.00     0.013 A 
HETATM   36  C30 UNL     1     -11.346  48.568  -1.021  1.00  0.00     0.040 A 
HETATM   37  C31 UNL     1     -12.432  49.129  -0.401  1.00  0.00     0.106 A 
HETATM   38  C32 UNL     1     -13.407  48.338   0.159  1.00  0.00     0.122 A 
HETATM   39  O7  UNL     1     -12.850  50.497  -0.169  1.00  0.00    -0.323 OA
HETATM   40  C33 UNL     1     -13.261  46.971   0.089  1.00  0.00     0.085 A 
HETATM   41  O6  UNL     1     -14.362  49.233   0.704  1.00  0.00    -0.322 OA
HETATM   42  C35 UNL     1     -13.567  50.404   1.096  1.00  0.00     0.352 C 
BRANCH  40  43
HETATM   43  C34 UNL     1     -14.307  46.123   0.595  1.00  0.00     0.212 C 
HETATM   44  O4  UNL     1     -14.380  45.763   1.749  1.00  0.00    -0.644 OA
HETATM   45  O5  UNL     1     -15.274  45.727  -0.343  1.00  0.00    -0.644 OA
ENDBRANCH  40  43
ENDBRANCH  33  34
ENDBRANCH  29  33
ENDBRANCH  28  29
ENDBRANCH   1  28
TORSDOF 13
ENDMDL
