MODEL 4
REMARK VINA RESULT: -7.771132177      2.691      4.113
REMARK  13 active torsions:
REMARK  status: ('A' for Active; 'I' for Inactive)
REMARK    1  A    between atoms: C2_2  and  C3_3 
REMARK    2  A    between atoms: C3_3  and  N1_4 
REMARK    3  A    between atoms: N1_4  and  C4_5 
REMARK    4  A    between atoms: N1_4  and  C27_33 
REMARK    5  A    between atoms: C4_5  and  C5_6 
REMARK    6  A    between atoms: C10_11  and  C11_12 
REMARK       I    between atoms: C11_12  and  N2_14 
REMARK    7  A    between atoms: N2_14  and  C12_16 
REMARK    8  A    between atoms: C12_16  and  C13_17 
REMARK    9  A    between atoms: C12_16  and  C20_25 
REMARK   10  A    between atoms: C16_20  and  O2_21 
REMARK   11  A    between atoms: C23_28  and  O3_29 
REMARK   12  A    between atoms: C27_33  and  C28_34 
REMARK   13  A    between atoms: C33_39  and  C34_40 
ROOT
HETATM    1  C5  UNL     1      -9.122  42.992  -0.434  1.00  0.00    -0.005 A 
HETATM    2  C6  UNL     1      -9.558  42.105  -1.411  1.00  0.00     0.014 A 
HETATM    3  C7  UNL     1      -9.362  40.720  -1.314  1.00  0.00     0.001 A 
HETATM    4  C8  UNL     1      -8.714  40.290  -0.210  1.00  0.00     0.001 A 
HETATM    5  C9  UNL     1      -8.257  41.127   0.755  1.00  0.00     0.018 A 
HETATM    6  C10 UNL     1      -8.456  42.553   0.643  1.00  0.00     0.043 A 
ENDROOT
BRANCH   6   7
HETATM    7  C11 UNL     1      -7.612  43.282   1.576  1.00  0.00     0.253 C 
HETATM    8  O1  UNL     1      -7.526  42.896   2.771  1.00  0.00    -0.268 OA
HETATM    9  N2  UNL     1      -6.891  44.483   1.236  1.00  0.00    -0.344 N 
ATOM     10  H2  UNL     1      -6.788  44.764   0.260  1.00  0.00     0.163 HD
BRANCH   9  11
HETATM   11  C12 UNL     1      -6.321  45.278   2.282  1.00  0.00     0.151 C 
BRANCH  11  12
HETATM   12  C13 UNL     1      -4.993  45.296   2.764  1.00  0.00    -0.031 A 
HETATM   13  C14 UNL     1      -3.817  45.564   2.109  1.00  0.00     0.012 A 
HETATM   14  C15 UNL     1      -2.560  45.415   2.699  1.00  0.00     0.037 A 
HETATM   15  C16 UNL     1      -2.456  44.988   3.989  1.00  0.00     0.068 A 
HETATM   16  C18 UNL     1      -3.602  44.711   4.694  1.00  0.00     0.037 A 
HETATM   17  C19 UNL     1      -4.797  44.858   4.101  1.00  0.00     0.012 A 
BRANCH  15  18
HETATM   18  O2  UNL     1      -1.216  44.813   4.626  1.00  0.00    -0.356 OA
HETATM   19  C17 UNL     1      -0.145  44.225   3.901  1.00  0.00     0.210 C 
ENDBRANCH  15  18
ENDBRANCH  11  12
BRANCH  11  20
HETATM   20  C20 UNL     1      -6.623  46.673   1.631  1.00  0.00    -0.031 A 
HETATM   21  C21 UNL     1      -6.935  46.737   0.321  1.00  0.00     0.012 A 
HETATM   22  C22 UNL     1      -7.410  47.907  -0.285  1.00  0.00     0.037 A 
HETATM   23  C23 UNL     1      -7.563  49.036   0.518  1.00  0.00     0.068 A 
HETATM   24  C25 UNL     1      -7.230  48.949   1.858  1.00  0.00     0.037 A 
HETATM   25  C26 UNL     1      -6.760  47.782   2.433  1.00  0.00     0.012 A 
BRANCH  23  26
HETATM   26  O3  UNL     1      -8.042  50.189  -0.045  1.00  0.00    -0.356 OA
HETATM   27  C24 UNL     1      -7.744  50.597  -1.347  1.00  0.00     0.210 C 
ENDBRANCH  23  26
ENDBRANCH  11  20
ENDBRANCH   9  11
ENDBRANCH   6   7
BRANCH   1  28
HETATM   28  C4  UNL     1      -9.602  44.441  -0.497  1.00  0.00     0.103 C 
BRANCH  28  29
HETATM   29  N1  UNL     1     -10.898  44.556   0.017  1.00  0.00    -0.361 N 
BRANCH  29  30
HETATM   30  C3  UNL     1     -11.030  44.922   1.421  1.00  0.00     0.090 C 
BRANCH  30  31
HETATM   31  C2  UNL     1     -10.126  45.868   1.998  1.00  0.00     0.007 C 
HETATM   32  C1  UNL     1     -10.500  47.114   2.364  1.00  0.00     0.012 C 
ENDBRANCH  30  31
ENDBRANCH  29  30
BRANCH  29  33
HETATM   33  C27 UNL     1     -12.007  44.972  -0.770  1.00  0.00     0.167 C 
BRANCH  33  34
HETATM   34  C28 UNL     1     -12.102  46.480  -0.769  1.00  0.00    -0.020 A 
HETATM   35  C29 UNL     1     -11.113  47.308  -1.216  1.00  0.00     0.013 A 
HETATM   36  C30 UNL     1     -11.207  48.696  -1.074  1.00  0.00     0.040 A 
HETATM   37  C31 UNL     1     -12.313  49.243  -0.477  1.00  0.00     0.106 A 
HETATM   38  C32 UNL     1     -13.335  48.441  -0.026  1.00  0.00     0.122 A 
HETATM   39  O7  UNL     1     -12.713  50.602  -0.174  1.00  0.00    -0.323 OA
HETATM   40  C33 UNL     1     -13.216  47.078  -0.182  1.00  0.00     0.085 A 
HETATM   41  O6  UNL     1     -14.299  49.321   0.526  1.00  0.00    -0.322 OA
HETATM   42  C35 UNL     1     -13.502  50.442   1.041  1.00  0.00     0.352 C 
BRANCH  40  43
HETATM   43  C34 UNL     1     -14.308  46.225   0.207  1.00  0.00     0.212 C 
HETATM   44  O4  UNL     1     -15.056  45.692  -0.581  1.00  0.00    -0.644 OA
HETATM   45  O5  UNL     1     -14.462  46.031   1.589  1.00  0.00    -0.644 OA
ENDBRANCH  40  43
ENDBRANCH  33  34
ENDBRANCH  29  33
ENDBRANCH  28  29
ENDBRANCH   1  28
TORSDOF 13
ENDMDL
