MODEL 3
REMARK VINA RESULT: -7.833947502      3.029      4.722
REMARK  13 active torsions:
REMARK  status: ('A' for Active; 'I' for Inactive)
REMARK    1  A    between atoms: C2_2  and  C3_3 
REMARK    2  A    between atoms: C3_3  and  N1_4 
REMARK    3  A    between atoms: N1_4  and  C4_5 
REMARK    4  A    between atoms: N1_4  and  C27_33 
REMARK    5  A    between atoms: C4_5  and  C5_6 
REMARK    6  A    between atoms: C10_11  and  C11_12 
REMARK       I    between atoms: C11_12  and  N2_14 
REMARK    7  A    between atoms: N2_14  and  C12_16 
REMARK    8  A    between atoms: C12_16  and  C13_17 
REMARK    9  A    between atoms: C12_16  and  C20_25 
REMARK   10  A    between atoms: C16_20  and  O2_21 
REMARK   11  A    between atoms: C23_28  and  O3_29 
REMARK   12  A    between atoms: C27_33  and  C28_34 
REMARK   13  A    between atoms: C33_39  and  C34_40 
ROOT
HETATM    1  C5  UNL     1      -9.212  43.961  -0.442  1.00  0.00    -0.005 A 
HETATM    2  C6  UNL     1      -9.685  43.291  -1.564  1.00  0.00     0.014 A 
HETATM    3  C7  UNL     1      -9.713  41.892  -1.650  1.00  0.00     0.001 A 
HETATM    4  C8  UNL     1      -9.246  41.223  -0.574  1.00  0.00     0.001 A 
HETATM    5  C9  UNL     1      -8.759  41.842   0.531  1.00  0.00     0.018 A 
HETATM    6  C10 UNL     1      -8.726  43.283   0.608  1.00  0.00     0.043 A 
ENDROOT
BRANCH   6   7
HETATM    7  C11 UNL     1      -7.872  43.737   1.694  1.00  0.00     0.253 C 
HETATM    8  O1  UNL     1      -8.219  43.534   2.886  1.00  0.00    -0.268 OA
HETATM    9  N2  UNL     1      -6.649  44.476   1.498  1.00  0.00    -0.344 N 
ATOM     10  H2  UNL     1      -6.229  44.540   0.571  1.00  0.00     0.163 HD
BRANCH   9  11
HETATM   11  C12 UNL     1      -6.032  45.118   2.620  1.00  0.00     0.151 C 
BRANCH  11  12
HETATM   12  C13 UNL     1      -4.674  45.113   3.012  1.00  0.00    -0.031 A 
HETATM   13  C14 UNL     1      -3.532  45.094   2.250  1.00  0.00     0.012 A 
HETATM   14  C15 UNL     1      -2.252  44.961   2.790  1.00  0.00     0.037 A 
HETATM   15  C16 UNL     1      -2.088  44.847   4.138  1.00  0.00     0.068 A 
HETATM   16  C18 UNL     1      -3.196  44.866   4.950  1.00  0.00     0.037 A 
HETATM   17  C19 UNL     1      -4.415  44.989   4.402  1.00  0.00     0.012 A 
BRANCH  15  18
HETATM   18  O2  UNL     1      -0.823  44.702   4.732  1.00  0.00    -0.356 OA
HETATM   19  C17 UNL     1       0.220  44.079   3.994  1.00  0.00     0.210 C 
ENDBRANCH  15  18
ENDBRANCH  11  12
BRANCH  11  20
HETATM   20  C20 UNL     1      -6.420  46.584   2.221  1.00  0.00    -0.031 A 
HETATM   21  C21 UNL     1      -6.479  46.922   0.918  1.00  0.00     0.012 A 
HETATM   22  C22 UNL     1      -7.007  48.141   0.478  1.00  0.00     0.037 A 
HETATM   23  C23 UNL     1      -7.491  49.024   1.443  1.00  0.00     0.068 A 
HETATM   24  C25 UNL     1      -7.413  48.660   2.775  1.00  0.00     0.037 A 
HETATM   25  C26 UNL     1      -6.883  47.449   3.185  1.00  0.00     0.012 A 
BRANCH  23  26
HETATM   26  O3  UNL     1      -8.030  50.217   1.038  1.00  0.00    -0.356 OA
HETATM   27  C24 UNL     1      -9.118  50.320   0.169  1.00  0.00     0.210 C 
ENDBRANCH  23  26
ENDBRANCH  11  20
ENDBRANCH   9  11
ENDBRANCH   6   7
BRANCH   1  28
HETATM   28  C4  UNL     1      -9.456  45.466  -0.332  1.00  0.00     0.103 C 
BRANCH  28  29
HETATM   29  N1  UNL     1     -10.760  45.725   0.103  1.00  0.00    -0.361 N 
BRANCH  29  30
HETATM   30  C3  UNL     1     -11.011  45.659   1.536  1.00  0.00     0.090 C 
BRANCH  30  31
HETATM   31  C2  UNL     1     -10.451  46.650   2.403  1.00  0.00     0.007 C 
HETATM   32  C1  UNL     1     -11.120  47.762   2.778  1.00  0.00     0.012 C 
ENDBRANCH  30  31
ENDBRANCH  29  30
BRANCH  29  33
HETATM   33  C27 UNL     1     -11.636  46.618  -0.573  1.00  0.00     0.167 C 
BRANCH  33  34
HETATM   34  C28 UNL     1     -12.652  45.835  -1.372  1.00  0.00    -0.020 A 
HETATM   35  C29 UNL     1     -12.356  45.128  -2.501  1.00  0.00     0.013 A 
HETATM   36  C30 UNL     1     -13.359  44.527  -3.268  1.00  0.00     0.040 A 
HETATM   37  C31 UNL     1     -14.669  44.644  -2.881  1.00  0.00     0.106 A 
HETATM   38  C32 UNL     1     -15.005  45.337  -1.742  1.00  0.00     0.122 A 
HETATM   39  O7  UNL     1     -15.918  44.164  -3.435  1.00  0.00    -0.323 OA
HETATM   40  C33 UNL     1     -13.995  45.916  -1.006  1.00  0.00     0.085 A 
HETATM   41  O6  UNL     1     -16.416  45.259  -1.647  1.00  0.00    -0.322 OA
HETATM   42  C35 UNL     1     -16.864  45.202  -3.045  1.00  0.00     0.352 C 
BRANCH  40  43
HETATM   43  C34 UNL     1     -14.314  46.575   0.233  1.00  0.00     0.212 C 
HETATM   44  O4  UNL     1     -14.471  47.771   0.335  1.00  0.00    -0.644 OA
HETATM   45  O5  UNL     1     -14.445  45.735   1.350  1.00  0.00    -0.644 OA
ENDBRANCH  40  43
ENDBRANCH  33  34
ENDBRANCH  29  33
ENDBRANCH  28  29
ENDBRANCH   1  28
TORSDOF 13
ENDMDL
