MODEL 3
REMARK VINA RESULT: -7.809569407      1.653      3.197
REMARK  13 active torsions:
REMARK  status: ('A' for Active; 'I' for Inactive)
REMARK    1  A    between atoms: C2_2  and  C3_3 
REMARK    2  A    between atoms: C3_3  and  N1_4 
REMARK    3  A    between atoms: N1_4  and  C4_5 
REMARK    4  A    between atoms: N1_4  and  C23_28 
REMARK    5  A    between atoms: C4_5  and  C5_6 
REMARK    6  A    between atoms: C10_11  and  C11_12 
REMARK       I    between atoms: C11_12  and  N2_14 
REMARK    7  A    between atoms: N2_14  and  C12_16 
REMARK    8  A    between atoms: C12_16  and  C13_17 
REMARK    9  A    between atoms: C12_16  and  C16_20 
REMARK   10  A    between atoms: C13_17  and  C14_18 
REMARK   11  A    between atoms: C19_23  and  O2_24 
REMARK   12  A    between atoms: C23_28  and  C24_29 
REMARK   13  A    between atoms: C29_34  and  C30_35 
ROOT
HETATM    1  C5  UNL     1      -7.091  37.030   2.821  1.00  0.00    -0.025 A 
HETATM    2  C6  UNL     1      -6.882  37.775   3.981  1.00  0.00     0.010 A 
HETATM    3  C7  UNL     1      -5.605  37.956   4.517  1.00  0.00     0.001 A 
HETATM    4  C8  UNL     1      -4.511  37.400   3.908  1.00  0.00     0.001 A 
HETATM    5  C9  UNL     1      -4.697  36.670   2.776  1.00  0.00     0.017 A 
HETATM    6  C10 UNL     1      -6.007  36.475   2.217  1.00  0.00     0.040 A 
ENDROOT
BRANCH   1   7
HETATM    7  C4  UNL     1      -8.427  36.939   2.235  1.00  0.00     0.162 C 
BRANCH   7   8
HETATM    8  N1  UNL     1      -9.400  36.156   2.955  1.00  0.00    -0.382 N 
BRANCH   8   9
HETATM    9  C3  UNL     1     -10.321  36.842   3.774  1.00  0.00     0.149 C 
BRANCH   9  10
HETATM   10  C2  UNL     1     -10.551  38.271   3.500  1.00  0.00    -0.018 C 
HETATM   11  C1  UNL     1     -11.673  38.789   3.079  1.00  0.00     0.008 C 
ENDBRANCH   9  10
ENDBRANCH   8   9
BRANCH   8  12
HETATM   12  C23 UNL     1     -10.000  35.124   2.156  1.00  0.00     0.098 C 
BRANCH  12  13
HETATM   13  C24 UNL     1     -11.229  35.379   1.437  1.00  0.00    -0.001 A 
HETATM   14  C25 UNL     1     -11.420  36.235   0.386  1.00  0.00     0.017 A 
HETATM   15  C26 UNL     1     -12.648  36.429  -0.246  1.00  0.00     0.040 A 
HETATM   16  C27 UNL     1     -13.752  35.745   0.177  1.00  0.00     0.106 A 
HETATM   17  C28 UNL     1     -13.604  34.874   1.230  1.00  0.00     0.122 A 
HETATM   18  O6  UNL     1     -15.075  35.738  -0.252  1.00  0.00    -0.323 OA
HETATM   19  C29 UNL     1     -12.400  34.690   1.842  1.00  0.00     0.088 A 
HETATM   20  O5  UNL     1     -14.875  34.318   1.449  1.00  0.00    -0.322 OA
HETATM   21  C31 UNL     1     -15.840  35.114   0.782  1.00  0.00     0.352 C 
BRANCH  19  22
HETATM   22  C30 UNL     1     -12.299  33.758   2.949  1.00  0.00     0.213 C 
HETATM   23  O3  UNL     1     -11.967  32.554   2.808  1.00  0.00    -0.644 OA
HETATM   24  O4  UNL     1     -12.573  34.160   4.255  1.00  0.00    -0.644 OA
ENDBRANCH  19  22
ENDBRANCH  12  13
ENDBRANCH   8  12
ENDBRANCH   7   8
ENDBRANCH   1   7
BRANCH   6  25
HETATM   25  C11 UNL     1      -6.053  35.613   1.056  1.00  0.00     0.252 C 
HETATM   26  O1  UNL     1      -5.866  36.143  -0.112  1.00  0.00    -0.268 OA
HETATM   27  N2  UNL     1      -6.265  34.233   1.008  1.00  0.00    -0.348 N 
ATOM     28  H2  UNL     1      -6.418  33.731   1.882  1.00  0.00     0.163 HD
BRANCH  27  29
HETATM   29  C12 UNL     1      -6.275  33.473  -0.258  1.00  0.00     0.118 C 
BRANCH  29  30
HETATM   30  C13 UNL     1      -5.085  32.578  -0.298  1.00  0.00     0.029 C 
BRANCH  30  31
HETATM   31  C14 UNL     1      -4.382  32.460   1.019  1.00  0.00    -0.002 C 
HETATM   32  C15 UNL     1      -3.019  33.099   0.954  1.00  0.00     0.005 C 
ENDBRANCH  30  31
ENDBRANCH  29  30
BRANCH  29  33
HETATM   33  C16 UNL     1      -7.548  32.828  -0.550  1.00  0.00    -0.035 A 
HETATM   34  C17 UNL     1      -7.633  31.456  -0.663  1.00  0.00     0.012 A 
HETATM   35  C18 UNL     1      -8.790  30.773  -0.920  1.00  0.00     0.037 A 
HETATM   36  C19 UNL     1      -9.973  31.486  -1.082  1.00  0.00     0.068 A 
HETATM   37  C21 UNL     1      -9.920  32.858  -0.975  1.00  0.00     0.037 A 
HETATM   38  C22 UNL     1      -8.722  33.526  -0.712  1.00  0.00     0.012 A 
BRANCH  36  39
HETATM   39  O2  UNL     1     -11.158  30.803  -1.346  1.00  0.00    -0.356 OA
HETATM   40  C20 UNL     1     -11.338  29.436  -1.242  1.00  0.00     0.210 C 
ENDBRANCH  36  39
ENDBRANCH  29  33
ENDBRANCH  27  29
ENDBRANCH   6  25
TORSDOF 13
ENDMDL
