MODEL 6
REMARK VINA RESULT: -7.645168501      2.391      5.761
REMARK  13 active torsions:
REMARK  status: ('A' for Active; 'I' for Inactive)
REMARK    1  A    between atoms: C2_2  and  C3_3 
REMARK    2  A    between atoms: C3_3  and  N1_4 
REMARK    3  A    between atoms: N1_4  and  C4_5 
REMARK    4  A    between atoms: N1_4  and  C23_28 
REMARK    5  A    between atoms: C4_5  and  C5_6 
REMARK    6  A    between atoms: C10_11  and  C11_12 
REMARK       I    between atoms: C11_12  and  N2_14 
REMARK    7  A    between atoms: N2_14  and  C12_16 
REMARK    8  A    between atoms: C12_16  and  C13_17 
REMARK    9  A    between atoms: C12_16  and  C16_20 
REMARK   10  A    between atoms: C13_17  and  C14_18 
REMARK   11  A    between atoms: C19_23  and  O2_24 
REMARK   12  A    between atoms: C23_28  and  C24_29 
REMARK   13  A    between atoms: C29_34  and  C30_35 
ROOT
HETATM    1  C5  UNL     1     -10.574  37.166   3.117  1.00  0.00    -0.025 A 
HETATM    2  C6  UNL     1     -11.735  37.349   3.869  1.00  0.00     0.010 A 
HETATM    3  C7  UNL     1     -11.766  38.201   4.975  1.00  0.00     0.001 A 
HETATM    4  C8  UNL     1     -10.643  38.889   5.353  1.00  0.00     0.001 A 
HETATM    5  C9  UNL     1      -9.503  38.722   4.631  1.00  0.00     0.017 A 
HETATM    6  C10 UNL     1      -9.459  37.845   3.493  1.00  0.00     0.040 A 
ENDROOT
BRANCH   1   7
HETATM    7  C4  UNL     1     -10.602  36.341   1.910  1.00  0.00     0.162 C 
BRANCH   7   8
HETATM    8  N1  UNL     1     -11.328  35.098   1.990  1.00  0.00    -0.382 N 
BRANCH   8   9
HETATM    9  C3  UNL     1     -12.452  34.939   1.152  1.00  0.00     0.149 C 
BRANCH   9  10
HETATM   10  C2  UNL     1     -12.688  35.962   0.119  1.00  0.00    -0.018 C 
HETATM   11  C1  UNL     1     -13.763  36.694   0.014  1.00  0.00     0.008 C 
ENDBRANCH   9  10
ENDBRANCH   8   9
BRANCH   8  12
HETATM   12  C23 UNL     1     -10.474  33.944   2.030  1.00  0.00     0.098 C 
BRANCH  12  13
HETATM   13  C24 UNL     1     -10.310  33.114   0.857  1.00  0.00    -0.001 A 
HETATM   14  C25 UNL     1      -9.683  33.440  -0.316  1.00  0.00     0.017 A 
HETATM   15  C26 UNL     1      -9.580  32.579  -1.408  1.00  0.00     0.040 A 
HETATM   16  C27 UNL     1     -10.121  31.328  -1.347  1.00  0.00     0.106 A 
HETATM   17  C28 UNL     1     -10.759  30.959  -0.186  1.00  0.00     0.122 A 
HETATM   18  O6  UNL     1     -10.172  30.279  -2.260  1.00  0.00    -0.323 OA
HETATM   19  C29 UNL     1     -10.856  31.807   0.877  1.00  0.00     0.088 A 
HETATM   20  O5  UNL     1     -11.211  29.646  -0.398  1.00  0.00    -0.322 OA
HETATM   21  C31 UNL     1     -11.167  29.369  -1.787  1.00  0.00     0.352 C 
BRANCH  19  22
HETATM   22  C30 UNL     1     -11.540  31.367   2.078  1.00  0.00     0.213 C 
HETATM   23  O3  UNL     1     -11.002  30.641   2.952  1.00  0.00    -0.644 OA
HETATM   24  O4  UNL     1     -12.861  31.736   2.330  1.00  0.00    -0.644 OA
ENDBRANCH  19  22
ENDBRANCH  12  13
ENDBRANCH   8  12
ENDBRANCH   7   8
ENDBRANCH   1   7
BRANCH   6  25
HETATM   25  C11 UNL     1      -8.158  37.714   2.874  1.00  0.00     0.252 C 
HETATM   26  O1  UNL     1      -7.933  38.356   1.771  1.00  0.00    -0.268 OA
HETATM   27  N2  UNL     1      -7.057  36.977   3.317  1.00  0.00    -0.348 N 
ATOM     28  H2  UNL     1      -7.143  36.442   4.181  1.00  0.00     0.163 HD
BRANCH  27  29
HETATM   29  C12 UNL     1      -5.776  36.942   2.585  1.00  0.00     0.118 C 
BRANCH  29  30
HETATM   30  C13 UNL     1      -4.663  37.213   3.538  1.00  0.00     0.029 C 
BRANCH  30  31
HETATM   31  C14 UNL     1      -5.117  37.822   4.827  1.00  0.00    -0.002 C 
HETATM   32  C15 UNL     1      -4.810  36.909   5.985  1.00  0.00     0.005 C 
ENDBRANCH  30  31
ENDBRANCH  29  30
BRANCH  29  33
HETATM   33  C16 UNL     1      -5.605  35.762   1.748  1.00  0.00    -0.035 A 
HETATM   34  C17 UNL     1      -4.696  34.782   2.090  1.00  0.00     0.012 A 
HETATM   35  C18 UNL     1      -4.486  33.639   1.368  1.00  0.00     0.037 A 
HETATM   36  C19 UNL     1      -5.225  33.427   0.209  1.00  0.00     0.068 A 
HETATM   37  C21 UNL     1      -6.140  34.388  -0.158  1.00  0.00     0.037 A 
HETATM   38  C22 UNL     1      -6.331  35.545   0.600  1.00  0.00     0.012 A 
BRANCH  36  39
HETATM   39  O2  UNL     1      -5.019  32.268  -0.536  1.00  0.00    -0.356 OA
HETATM   40  C20 UNL     1      -5.908  31.214  -0.644  1.00  0.00     0.210 C 
ENDBRANCH  36  39
ENDBRANCH  29  33
ENDBRANCH  27  29
ENDBRANCH   6  25
TORSDOF 13
ENDMDL
