MODEL 2
REMARK VINA RESULT: -7.811589410      2.257      3.248
REMARK  13 active torsions:
REMARK  status: ('A' for Active; 'I' for Inactive)
REMARK    1  A    between atoms: C2_2  and  C3_3 
REMARK    2  A    between atoms: C3_3  and  N1_4 
REMARK    3  A    between atoms: N1_4  and  C4_5 
REMARK    4  A    between atoms: N1_4  and  C23_28 
REMARK    5  A    between atoms: C4_5  and  C5_6 
REMARK    6  A    between atoms: C10_11  and  C11_12 
REMARK       I    between atoms: C11_12  and  N2_14 
REMARK    7  A    between atoms: N2_14  and  C12_16 
REMARK    8  A    between atoms: C12_16  and  C13_17 
REMARK    9  A    between atoms: C12_16  and  C16_20 
REMARK   10  A    between atoms: C13_17  and  C14_18 
REMARK   11  A    between atoms: C19_23  and  O2_24 
REMARK   12  A    between atoms: C23_28  and  C24_29 
REMARK   13  A    between atoms: C29_34  and  C30_35 
ROOT
HETATM    1  C5  UNL     1      -7.042  37.194   2.821  1.00  0.00    -0.025 A 
HETATM    2  C6  UNL     1      -7.066  37.757   4.097  1.00  0.00     0.010 A 
HETATM    3  C7  UNL     1      -6.252  37.278   5.126  1.00  0.00     0.001 A 
HETATM    4  C8  UNL     1      -5.396  36.231   4.904  1.00  0.00     0.001 A 
HETATM    5  C9  UNL     1      -5.360  35.671   3.666  1.00  0.00     0.017 A 
HETATM    6  C10 UNL     1      -6.196  36.154   2.600  1.00  0.00     0.040 A 
ENDROOT
BRANCH   1   7
HETATM    7  C4  UNL     1      -7.837  37.780   1.743  1.00  0.00     0.162 C 
BRANCH   7   8
HETATM    8  N1  UNL     1      -9.257  37.533   1.776  1.00  0.00    -0.382 N 
BRANCH   8   9
HETATM    9  C3  UNL     1     -10.113  38.640   1.959  1.00  0.00     0.149 C 
BRANCH   9  10
HETATM   10  C2  UNL     1     -10.946  38.670   3.174  1.00  0.00    -0.018 C 
HETATM   11  C1  UNL     1     -11.079  37.687   4.022  1.00  0.00     0.008 C 
ENDBRANCH   9  10
ENDBRANCH   8   9
BRANCH   8  12
HETATM   12  C23 UNL     1      -9.698  36.630   0.750  1.00  0.00     0.098 C 
BRANCH  12  13
HETATM   13  C24 UNL     1     -10.436  35.434   1.096  1.00  0.00    -0.001 A 
HETATM   14  C25 UNL     1      -9.965  34.318   1.732  1.00  0.00     0.017 A 
HETATM   15  C26 UNL     1     -10.746  33.199   2.019  1.00  0.00     0.040 A 
HETATM   16  C27 UNL     1     -12.063  33.173   1.660  1.00  0.00     0.106 A 
HETATM   17  C28 UNL     1     -12.577  34.275   1.019  1.00  0.00     0.122 A 
HETATM   18  O6  UNL     1     -13.060  32.214   1.812  1.00  0.00    -0.323 OA
HETATM   19  C29 UNL     1     -11.807  35.365   0.743  1.00  0.00     0.088 A 
HETATM   20  O5  UNL     1     -13.928  33.980   0.773  1.00  0.00    -0.322 OA
HETATM   21  C31 UNL     1     -14.125  32.585   0.933  1.00  0.00     0.352 C 
BRANCH  19  22
HETATM   22  C30 UNL     1     -12.399  36.502   0.064  1.00  0.00     0.213 C 
HETATM   23  O3  UNL     1     -13.116  37.355   0.646  1.00  0.00    -0.644 OA
HETATM   24  O4  UNL     1     -12.199  36.710  -1.300  1.00  0.00    -0.644 OA
ENDBRANCH  19  22
ENDBRANCH  12  13
ENDBRANCH   8  12
ENDBRANCH   7   8
ENDBRANCH   1   7
BRANCH   6  25
HETATM   25  C11 UNL     1      -6.100  35.408   1.364  1.00  0.00     0.252 C 
HETATM   26  O1  UNL     1      -5.718  36.034   0.296  1.00  0.00    -0.268 OA
HETATM   27  N2  UNL     1      -6.357  34.053   1.147  1.00  0.00    -0.348 N 
ATOM     28  H2  UNL     1      -6.660  33.480   1.935  1.00  0.00     0.163 HD
BRANCH  27  29
HETATM   29  C12 UNL     1      -6.206  33.416  -0.176  1.00  0.00     0.118 C 
BRANCH  29  30
HETATM   30  C13 UNL     1      -4.942  32.629  -0.197  1.00  0.00     0.029 C 
BRANCH  30  31
HETATM   31  C14 UNL     1      -4.284  32.521   1.144  1.00  0.00    -0.002 C 
HETATM   32  C15 UNL     1      -2.937  33.196   1.132  1.00  0.00     0.005 C 
ENDBRANCH  30  31
ENDBRANCH  29  30
BRANCH  29  33
HETATM   33  C16 UNL     1      -7.392  32.700  -0.626  1.00  0.00    -0.035 A 
HETATM   34  C17 UNL     1      -8.446  33.377  -1.205  1.00  0.00     0.012 A 
HETATM   35  C18 UNL     1      -9.586  32.779  -1.666  1.00  0.00     0.037 A 
HETATM   36  C19 UNL     1      -9.718  31.399  -1.556  1.00  0.00     0.068 A 
HETATM   37  C21 UNL     1      -8.681  30.696  -0.982  1.00  0.00     0.037 A 
HETATM   38  C22 UNL     1      -7.529  31.335  -0.521  1.00  0.00     0.012 A 
BRANCH  36  39
HETATM   39  O2  UNL     1     -10.875  30.778  -2.021  1.00  0.00    -0.356 OA
HETATM   40  C20 UNL     1     -11.259  29.480  -1.738  1.00  0.00     0.210 C 
ENDBRANCH  36  39
ENDBRANCH  29  33
ENDBRANCH  27  29
ENDBRANCH   6  25
TORSDOF 13
ENDMDL
