MODEL 1
REMARK VINA RESULT: -7.919844434      0.000      0.000
REMARK  13 active torsions:
REMARK  status: ('A' for Active; 'I' for Inactive)
REMARK    1  A    between atoms: C2_2  and  C3_3 
REMARK    2  A    between atoms: C3_3  and  N1_4 
REMARK    3  A    between atoms: N1_4  and  C4_5 
REMARK    4  A    between atoms: N1_4  and  C23_28 
REMARK    5  A    between atoms: C4_5  and  C5_6 
REMARK    6  A    between atoms: C10_11  and  C11_12 
REMARK       I    between atoms: C11_12  and  N2_14 
REMARK    7  A    between atoms: N2_14  and  C12_16 
REMARK    8  A    between atoms: C12_16  and  C13_17 
REMARK    9  A    between atoms: C12_16  and  C16_20 
REMARK   10  A    between atoms: C13_17  and  C14_18 
REMARK   11  A    between atoms: C19_23  and  O2_24 
REMARK   12  A    between atoms: C23_28  and  C24_29 
REMARK   13  A    between atoms: C29_34  and  C30_35 
ROOT
HETATM    1  C5  UNL     1      -7.197  37.395   2.472  1.00  0.00    -0.025 A 
HETATM    2  C6  UNL     1      -7.010  38.227   3.576  1.00  0.00     0.010 A 
HETATM    3  C7  UNL     1      -5.825  38.210   4.315  1.00  0.00     0.001 A 
HETATM    4  C8  UNL     1      -4.803  37.366   3.970  1.00  0.00     0.001 A 
HETATM    5  C9  UNL     1      -4.968  36.548   2.897  1.00  0.00     0.017 A 
HETATM    6  C10 UNL     1      -6.185  36.555   2.130  1.00  0.00     0.040 A 
ENDROOT
BRANCH   1   7
HETATM    7  C4  UNL     1      -8.411  37.505   1.665  1.00  0.00     0.162 C 
BRANCH   7   8
HETATM    8  N1  UNL     1      -9.663  37.279   2.341  1.00  0.00    -0.382 N 
BRANCH   8   9
HETATM    9  C3  UNL     1     -10.853  37.512   1.618  1.00  0.00     0.149 C 
BRANCH   9  10
HETATM   10  C2  UNL     1     -10.906  37.055   0.219  1.00  0.00    -0.018 C 
HETATM   11  C1  UNL     1     -11.599  36.038  -0.217  1.00  0.00     0.008 C 
ENDBRANCH   9  10
ENDBRANCH   8   9
BRANCH   8  12
HETATM   12  C23 UNL     1      -9.684  36.060   3.102  1.00  0.00     0.098 C 
BRANCH  12  13
HETATM   13  C24 UNL     1     -10.249  36.038   4.433  1.00  0.00    -0.001 A 
HETATM   14  C25 UNL     1      -9.807  36.712   5.539  1.00  0.00     0.017 A 
HETATM   15  C26 UNL     1     -10.409  36.626   6.794  1.00  0.00     0.040 A 
HETATM   16  C27 UNL     1     -11.506  35.834   6.975  1.00  0.00     0.106 A 
HETATM   17  C28 UNL     1     -11.984  35.139   5.889  1.00  0.00     0.122 A 
HETATM   18  O6  UNL     1     -12.294  35.559   8.088  1.00  0.00    -0.323 OA
HETATM   19  C29 UNL     1     -11.390  35.230   4.665  1.00  0.00     0.088 A 
HETATM   20  O5  UNL     1     -13.097  34.421   6.353  1.00  0.00    -0.322 OA
HETATM   21  C31 UNL     1     -13.064  34.397   7.771  1.00  0.00     0.352 C 
BRANCH  19  22
HETATM   22  C30 UNL     1     -11.935  34.476   3.552  1.00  0.00     0.213 C 
HETATM   23  O3  UNL     1     -12.877  34.894   2.832  1.00  0.00    -0.644 OA
HETATM   24  O4  UNL     1     -11.431  33.220   3.218  1.00  0.00    -0.644 OA
ENDBRANCH  19  22
ENDBRANCH  12  13
ENDBRANCH   8  12
ENDBRANCH   7   8
ENDBRANCH   1   7
BRANCH   6  25
HETATM   25  C11 UNL     1      -6.241  35.576   1.066  1.00  0.00     0.252 C 
HETATM   26  O1  UNL     1      -5.852  35.931  -0.118  1.00  0.00    -0.268 OA
HETATM   27  N2  UNL     1      -6.657  34.244   1.134  1.00  0.00    -0.348 N 
ATOM     28  H2  UNL     1      -6.977  33.877   2.030  1.00  0.00     0.163 HD
BRANCH  27  29
HETATM   29  C12 UNL     1      -6.651  33.348  -0.039  1.00  0.00     0.118 C 
BRANCH  29  30
HETATM   30  C13 UNL     1      -5.444  32.477   0.019  1.00  0.00     0.029 C 
BRANCH  30  31
HETATM   31  C14 UNL     1      -4.717  32.551   1.326  1.00  0.00    -0.002 C 
HETATM   32  C15 UNL     1      -3.334  33.117   1.135  1.00  0.00     0.005 C 
ENDBRANCH  30  31
ENDBRANCH  29  30
BRANCH  29  33
HETATM   33  C16 UNL     1      -7.911  32.650  -0.256  1.00  0.00    -0.035 A 
HETATM   34  C17 UNL     1      -7.944  31.451  -0.937  1.00  0.00     0.012 A 
HETATM   35  C18 UNL     1      -9.081  30.727  -1.171  1.00  0.00     0.037 A 
HETATM   36  C19 UNL     1     -10.298  31.210  -0.699  1.00  0.00     0.068 A 
HETATM   37  C21 UNL     1     -10.296  32.405  -0.015  1.00  0.00     0.037 A 
HETATM   38  C22 UNL     1      -9.118  33.121   0.206  1.00  0.00     0.012 A 
BRANCH  36  39
HETATM   39  O2  UNL     1     -11.463  30.483  -0.931  1.00  0.00    -0.356 OA
HETATM   40  C20 UNL     1     -11.690  29.651  -2.012  1.00  0.00     0.210 C 
ENDBRANCH  36  39
ENDBRANCH  29  33
ENDBRANCH  27  29
ENDBRANCH   6  25
TORSDOF 13
ENDMDL
