MODEL 5
REMARK VINA RESULT: -7.615584739      1.358      1.649
REMARK  10 active torsions:
REMARK  status: ('A' for Active; 'I' for Inactive)
REMARK    1  A    between atoms: C2_2  and  C3_3 
REMARK    2  A    between atoms: C3_3  and  N1_4 
REMARK    3  A    between atoms: N1_4  and  C4_5 
REMARK    4  A    between atoms: N1_4  and  C19_23 
REMARK    5  A    between atoms: C4_5  and  C5_6 
REMARK    6  A    between atoms: C10_11  and  C11_12 
REMARK       I    between atoms: C11_12  and  N2_14 
REMARK    7  A    between atoms: N2_14  and  C12_16 
REMARK    8  A    between atoms: C12_16  and  C13_17 
REMARK    9  A    between atoms: C19_23  and  C20_24 
REMARK   10  A    between atoms: C25_29  and  C26_30 
ROOT
HETATM    1  C4  UNL     1      -8.880  44.519   0.262  1.00  0.00     0.134 C 
ENDROOT
BRANCH   1   2
HETATM    2  N1  UNL     1     -10.018  45.187   0.855  1.00  0.00    -0.284 NA
BRANCH   2   3
HETATM    3  C3  UNL     1      -9.688  45.721   2.146  1.00  0.00     0.121 C 
BRANCH   3   4
HETATM    4  C2  UNL     1     -10.076  47.120   2.393  1.00  0.00    -0.022 C 
HETATM    5  C1  UNL     1     -10.713  47.588   3.424  1.00  0.00     0.008 C 
ENDBRANCH   3   4
ENDBRANCH   2   3
BRANCH   2   6
HETATM    6  C19 UNL     1     -10.696  46.088  -0.005  1.00  0.00     0.072 C 
BRANCH   6   7
HETATM    7  C20 UNL     1     -11.782  45.617  -0.832  1.00  0.00    -0.006 A 
HETATM    8  C21 UNL     1     -11.629  45.087  -2.080  1.00  0.00     0.016 A 
HETATM    9  C22 UNL     1     -12.724  44.646  -2.832  1.00  0.00     0.040 A 
HETATM   10  C23 UNL     1     -13.998  44.749  -2.301  1.00  0.00     0.106 A 
HETATM   11  C24 UNL     1     -14.169  45.274  -1.062  1.00  0.00     0.122 A 
HETATM   12  O5  UNL     1     -15.258  44.393  -2.820  1.00  0.00    -0.323 OA
HETATM   13  C25 UNL     1     -13.079  45.702  -0.335  1.00  0.00     0.088 A 
HETATM   14  O4  UNL     1     -15.550  45.243  -0.808  1.00  0.00    -0.322 OA
HETATM   15  C27 UNL     1     -16.234  44.535  -1.816  1.00  0.00     0.352 C 
BRANCH  13  16
HETATM   16  C26 UNL     1     -13.307  46.255   0.976  1.00  0.00     0.213 C 
HETATM   17  O2  UNL     1     -13.402  45.554   2.001  1.00  0.00    -0.644 OA
HETATM   18  O3  UNL     1     -13.426  47.631   1.101  1.00  0.00    -0.644 OA
ENDBRANCH  13  16
ENDBRANCH   6   7
ENDBRANCH   2   6
ENDBRANCH   1   2
BRANCH   1  19
HETATM   19  C5  UNL     1      -8.966  43.057   0.124  1.00  0.00    -0.029 A 
HETATM   20  C6  UNL     1      -9.777  42.506  -0.842  1.00  0.00     0.009 A 
HETATM   21  C7  UNL     1      -9.760  41.126  -1.027  1.00  0.00     0.001 A 
HETATM   22  C8  UNL     1      -8.942  40.338  -0.252  1.00  0.00     0.001 A 
HETATM   23  C9  UNL     1      -8.140  40.901   0.708  1.00  0.00     0.017 A 
HETATM   24  C10 UNL     1      -8.134  42.295   0.923  1.00  0.00     0.039 A 
BRANCH  24  25
HETATM   25  C11 UNL     1      -7.318  42.785   2.026  1.00  0.00     0.252 C 
HETATM   26  O1  UNL     1      -7.840  42.980   3.172  1.00  0.00    -0.268 OA
HETATM   27  N2  UNL     1      -5.946  43.057   1.836  1.00  0.00    -0.353 N 
ATOM     28  H2  UNL     1      -5.512  42.923   0.922  1.00  0.00     0.163 HD
BRANCH  27  29
HETATM   29  C12 UNL     1      -5.151  43.535   2.976  1.00  0.00     0.161 C 
BRANCH  29  30
HETATM   30  C13 UNL     1      -4.889  45.003   2.761  1.00  0.00    -0.041 A 
HETATM   31  C14 UNL     1      -5.930  45.861   2.441  1.00  0.00     0.009 A 
HETATM   32  C15 UNL     1      -5.720  47.209   2.245  1.00  0.00     0.001 A 
HETATM   33  C16 UNL     1      -4.462  47.747   2.364  1.00  0.00     0.000 A 
HETATM   34  C17 UNL     1      -3.411  46.910   2.683  1.00  0.00     0.001 A 
HETATM   35  C18 UNL     1      -3.637  45.556   2.876  1.00  0.00     0.009 A 
ENDBRANCH  29  30
ENDBRANCH  27  29
ENDBRANCH  24  25
ENDBRANCH   1  19
TORSDOF 10
ENDMDL
