MODEL 3
REMARK VINA RESULT: -7.698427928      1.366      4.565
REMARK  10 active torsions:
REMARK  status: ('A' for Active; 'I' for Inactive)
REMARK    1  A    between atoms: C2_2  and  C3_3 
REMARK    2  A    between atoms: C3_3  and  N1_4 
REMARK    3  A    between atoms: N1_4  and  C4_5 
REMARK    4  A    between atoms: N1_4  and  C19_23 
REMARK    5  A    between atoms: C4_5  and  C5_6 
REMARK    6  A    between atoms: C10_11  and  C11_12 
REMARK       I    between atoms: C11_12  and  N2_14 
REMARK    7  A    between atoms: N2_14  and  C12_16 
REMARK    8  A    between atoms: C12_16  and  C13_17 
REMARK    9  A    between atoms: C19_23  and  C20_24 
REMARK   10  A    between atoms: C25_29  and  C26_30 
ROOT
HETATM    1  C4  UNL     1      -9.279  46.950   1.633  1.00  0.00     0.134 C 
ENDROOT
BRANCH   1   2
HETATM    2  N1  UNL     1     -10.708  47.087   1.453  1.00  0.00    -0.284 NA
BRANCH   2   3
HETATM    3  C3  UNL     1     -11.012  48.138   0.523  1.00  0.00     0.121 C 
BRANCH   3   4
HETATM    4  C2  UNL     1      -9.894  48.619  -0.306  1.00  0.00    -0.022 C 
HETATM    5  C1  UNL     1      -9.966  49.153  -1.488  1.00  0.00     0.008 C 
ENDBRANCH   3   4
ENDBRANCH   2   3
BRANCH   2   6
HETATM    6  C19 UNL     1     -11.400  45.872   1.224  1.00  0.00     0.072 C 
BRANCH   6   7
HETATM    7  C20 UNL     1     -12.081  45.654  -0.031  1.00  0.00    -0.006 A 
HETATM    8  C21 UNL     1     -11.463  45.294  -1.192  1.00  0.00     0.016 A 
HETATM    9  C22 UNL     1     -12.180  45.095  -2.378  1.00  0.00     0.040 A 
HETATM   10  C23 UNL     1     -13.553  45.269  -2.377  1.00  0.00     0.106 A 
HETATM   11  C24 UNL     1     -14.185  45.627  -1.231  1.00  0.00     0.122 A 
HETATM   12  O5  UNL     1     -14.513  45.140  -3.401  1.00  0.00    -0.323 OA
HETATM   13  C25 UNL     1     -13.462  45.817  -0.074  1.00  0.00     0.088 A 
HETATM   14  O4  UNL     1     -15.551  45.722  -1.546  1.00  0.00    -0.322 OA
HETATM   15  C27 UNL     1     -15.802  45.250  -2.850  1.00  0.00     0.352 C 
BRANCH  13  16
HETATM   16  C26 UNL     1     -14.173  46.199   1.121  1.00  0.00     0.213 C 
HETATM   17  O2  UNL     1     -14.547  45.379   1.980  1.00  0.00    -0.644 OA
HETATM   18  O3  UNL     1     -14.454  47.543   1.321  1.00  0.00    -0.644 OA
ENDBRANCH  13  16
ENDBRANCH   6   7
ENDBRANCH   2   6
ENDBRANCH   1   2
BRANCH   1  19
HETATM   19  C5  UNL     1      -8.763  47.113   3.001  1.00  0.00    -0.029 A 
HETATM   20  C6  UNL     1      -9.308  48.065   3.832  1.00  0.00     0.009 A 
HETATM   21  C7  UNL     1      -8.881  48.129   5.155  1.00  0.00     0.001 A 
HETATM   22  C8  UNL     1      -7.929  47.249   5.612  1.00  0.00     0.001 A 
HETATM   23  C9  UNL     1      -7.392  46.306   4.773  1.00  0.00     0.017 A 
HETATM   24  C10 UNL     1      -7.802  46.215   3.426  1.00  0.00     0.039 A 
BRANCH  24  25
HETATM   25  C11 UNL     1      -7.108  45.242   2.594  1.00  0.00     0.252 C 
HETATM   26  O1  UNL     1      -6.123  45.605   1.869  1.00  0.00    -0.268 OA
HETATM   27  N2  UNL     1      -7.521  43.892   2.572  1.00  0.00    -0.353 N 
ATOM     28  H2  UNL     1      -8.317  43.585   3.132  1.00  0.00     0.163 HD
BRANCH  27  29
HETATM   29  C12 UNL     1      -6.787  42.936   1.732  1.00  0.00     0.161 C 
BRANCH  29  30
HETATM   30  C13 UNL     1      -7.773  42.331   0.767  1.00  0.00    -0.041 A 
HETATM   31  C14 UNL     1      -8.378  43.117  -0.202  1.00  0.00     0.009 A 
HETATM   32  C15 UNL     1      -9.278  42.588  -1.102  1.00  0.00     0.001 A 
HETATM   33  C16 UNL     1      -9.605  41.255  -1.064  1.00  0.00     0.000 A 
HETATM   34  C17 UNL     1      -9.014  40.454  -0.106  1.00  0.00     0.001 A 
HETATM   35  C18 UNL     1      -8.110  41.000   0.792  1.00  0.00     0.009 A 
ENDBRANCH  29  30
ENDBRANCH  27  29
ENDBRANCH  24  25
ENDBRANCH   1  19
TORSDOF 10
ENDMDL
