MODEL 2
REMARK VINA RESULT: -7.707181251      1.405      2.218
REMARK  10 active torsions:
REMARK  status: ('A' for Active; 'I' for Inactive)
REMARK    1  A    between atoms: C2_2  and  C3_3 
REMARK    2  A    between atoms: C3_3  and  N1_4 
REMARK    3  A    between atoms: N1_4  and  C4_5 
REMARK    4  A    between atoms: N1_4  and  C19_23 
REMARK    5  A    between atoms: C4_5  and  C5_6 
REMARK    6  A    between atoms: C10_11  and  C11_12 
REMARK       I    between atoms: C11_12  and  N2_14 
REMARK    7  A    between atoms: N2_14  and  C12_16 
REMARK    8  A    between atoms: C12_16  and  C13_17 
REMARK    9  A    between atoms: C19_23  and  C20_24 
REMARK   10  A    between atoms: C25_29  and  C26_30 
ROOT
HETATM    1  C4  UNL     1      -9.525  44.717  -0.007  1.00  0.00     0.134 C 
ENDROOT
BRANCH   1   2
HETATM    2  N1  UNL     1     -10.409  45.336   0.957  1.00  0.00    -0.284 NA
BRANCH   2   3
HETATM    3  C3  UNL     1     -10.277  46.766   0.934  1.00  0.00     0.121 C 
BRANCH   3   4
HETATM    4  C2  UNL     1      -9.946  47.369  -0.368  1.00  0.00    -0.022 C 
HETATM    5  C1  UNL     1     -10.733  48.058  -1.138  1.00  0.00     0.008 C 
ENDBRANCH   3   4
ENDBRANCH   2   3
BRANCH   2   6
HETATM    6  C19 UNL     1     -11.744  44.862   0.934  1.00  0.00     0.072 C 
BRANCH   6   7
HETATM    7  C20 UNL     1     -12.502  44.896  -0.296  1.00  0.00    -0.006 A 
HETATM    8  C21 UNL     1     -12.140  44.253  -1.443  1.00  0.00     0.016 A 
HETATM    9  C22 UNL     1     -12.920  44.324  -2.604  1.00  0.00     0.040 A 
HETATM   10  C23 UNL     1     -14.088  45.066  -2.592  1.00  0.00     0.106 A 
HETATM   11  C24 UNL     1     -14.463  45.713  -1.460  1.00  0.00     0.122 A 
HETATM   12  O5  UNL     1     -15.050  45.310  -3.592  1.00  0.00    -0.323 OA
HETATM   13  C25 UNL     1     -13.683  45.631  -0.327  1.00  0.00     0.088 A 
HETATM   14  O4  UNL     1     -15.669  46.366  -1.760  1.00  0.00    -0.322 OA
HETATM   15  C27 UNL     1     -16.148  45.986  -3.029  1.00  0.00     0.352 C 
BRANCH  13  16
HETATM   16  C26 UNL     1     -14.117  46.335   0.853  1.00  0.00     0.213 C 
HETATM   17  O2  UNL     1     -13.884  47.543   1.047  1.00  0.00    -0.644 OA
HETATM   18  O3  UNL     1     -14.828  45.635   1.817  1.00  0.00    -0.644 OA
ENDBRANCH  13  16
ENDBRANCH   6   7
ENDBRANCH   2   6
ENDBRANCH   1   2
BRANCH   1  19
HETATM   19  C5  UNL     1      -9.009  43.381   0.327  1.00  0.00    -0.029 A 
HETATM   20  C6  UNL     1      -9.528  42.270  -0.297  1.00  0.00     0.009 A 
HETATM   21  C7  UNL     1      -8.952  41.027  -0.048  1.00  0.00     0.001 A 
HETATM   22  C8  UNL     1      -7.883  40.925   0.809  1.00  0.00     0.001 A 
HETATM   23  C9  UNL     1      -7.376  42.041   1.426  1.00  0.00     0.017 A 
HETATM   24  C10 UNL     1      -7.937  43.315   1.196  1.00  0.00     0.039 A 
BRANCH  24  25
HETATM   25  C11 UNL     1      -7.388  44.421   1.968  1.00  0.00     0.252 C 
HETATM   26  O1  UNL     1      -6.394  45.084   1.521  1.00  0.00    -0.268 OA
HETATM   27  N2  UNL     1      -7.942  44.768   3.219  1.00  0.00    -0.353 N 
ATOM     28  H2  UNL     1      -8.726  44.240   3.603  1.00  0.00     0.163 HD
BRANCH  27  29
HETATM   29  C12 UNL     1      -7.371  45.899   3.962  1.00  0.00     0.161 C 
BRANCH  29  30
HETATM   30  C13 UNL     1      -6.578  45.334   5.112  1.00  0.00    -0.041 A 
HETATM   31  C14 UNL     1      -6.654  45.915   6.369  1.00  0.00     0.009 A 
HETATM   32  C15 UNL     1      -5.946  45.414   7.439  1.00  0.00     0.001 A 
HETATM   33  C16 UNL     1      -5.136  44.315   7.291  1.00  0.00     0.000 A 
HETATM   34  C17 UNL     1      -5.045  43.721   6.047  1.00  0.00     0.001 A 
HETATM   35  C18 UNL     1      -5.764  44.236   4.980  1.00  0.00     0.009 A 
ENDBRANCH  29  30
ENDBRANCH  27  29
ENDBRANCH  24  25
ENDBRANCH   1  19
TORSDOF 10
ENDMDL
