MODEL 1
REMARK VINA RESULT: -7.736572597      0.000      0.000
REMARK  10 active torsions:
REMARK  status: ('A' for Active; 'I' for Inactive)
REMARK    1  A    between atoms: C2_2  and  C3_3 
REMARK    2  A    between atoms: C3_3  and  N1_4 
REMARK    3  A    between atoms: N1_4  and  C4_5 
REMARK    4  A    between atoms: N1_4  and  C19_23 
REMARK    5  A    between atoms: C4_5  and  C5_6 
REMARK    6  A    between atoms: C10_11  and  C11_12 
REMARK       I    between atoms: C11_12  and  N2_14 
REMARK    7  A    between atoms: N2_14  and  C12_16 
REMARK    8  A    between atoms: C12_16  and  C13_17 
REMARK    9  A    between atoms: C19_23  and  C20_24 
REMARK   10  A    between atoms: C25_29  and  C26_30 
ROOT
HETATM    1  C4  UNL     1      -9.273  44.754   0.509  1.00  0.00     0.134 C 
ENDROOT
BRANCH   1   2
HETATM    2  N1  UNL     1     -10.519  45.284   1.019  1.00  0.00    -0.284 NA
BRANCH   2   3
HETATM    3  C3  UNL     1     -10.354  45.801   2.348  1.00  0.00     0.121 C 
BRANCH   3   4
HETATM    4  C2  UNL     1     -10.697  47.219   2.544  1.00  0.00    -0.022 C 
HETATM    5  C1  UNL     1     -11.105  47.784   3.641  1.00  0.00     0.008 C 
ENDBRANCH   3   4
ENDBRANCH   2   3
BRANCH   2   6
HETATM    6  C19 UNL     1     -11.211  46.144   0.129  1.00  0.00     0.072 C 
BRANCH   6   7
HETATM    7  C20 UNL     1     -12.210  45.605  -0.765  1.00  0.00    -0.006 A 
HETATM    8  C21 UNL     1     -11.942  45.075  -1.992  1.00  0.00     0.016 A 
HETATM    9  C22 UNL     1     -12.957  44.565  -2.812  1.00  0.00     0.040 A 
HETATM   10  C23 UNL     1     -14.268  44.600  -2.369  1.00  0.00     0.106 A 
HETATM   11  C24 UNL     1     -14.553  45.125  -1.151  1.00  0.00     0.122 A 
HETATM   12  O5  UNL     1     -15.468  44.169  -2.968  1.00  0.00    -0.323 OA
HETATM   13  C25 UNL     1     -13.541  45.620  -0.358  1.00  0.00     0.088 A 
HETATM   14  O4  UNL     1     -15.944  45.018  -0.991  1.00  0.00    -0.322 OA
HETATM   15  C27 UNL     1     -16.516  44.264  -2.034  1.00  0.00     0.352 C 
BRANCH  13  16
HETATM   16  C26 UNL     1     -13.888  46.170   0.929  1.00  0.00     0.213 C 
HETATM   17  O2  UNL     1     -14.006  45.474   1.954  1.00  0.00    -0.644 OA
HETATM   18  O3  UNL     1     -14.100  47.537   1.027  1.00  0.00    -0.644 OA
ENDBRANCH  13  16
ENDBRANCH   6   7
ENDBRANCH   2   6
ENDBRANCH   1   2
BRANCH   1  19
HETATM   19  C5  UNL     1      -9.175  43.292   0.381  1.00  0.00    -0.029 A 
HETATM   20  C6  UNL     1     -10.038  42.618  -0.453  1.00  0.00     0.009 A 
HETATM   21  C7  UNL     1      -9.859  41.250  -0.643  1.00  0.00     0.001 A 
HETATM   22  C8  UNL     1      -8.833  40.596  -0.003  1.00  0.00     0.001 A 
HETATM   23  C9  UNL     1      -7.982  41.280   0.826  1.00  0.00     0.017 A 
HETATM   24  C10 UNL     1      -8.136  42.666   1.042  1.00  0.00     0.039 A 
BRANCH  24  25
HETATM   25  C11 UNL     1      -7.239  43.283   2.010  1.00  0.00     0.252 C 
HETATM   26  O1  UNL     1      -5.994  43.385   1.757  1.00  0.00    -0.268 OA
HETATM   27  N2  UNL     1      -7.735  43.765   3.241  1.00  0.00    -0.353 N 
ATOM     28  H2  UNL     1      -8.725  43.678   3.471  1.00  0.00     0.163 HD
BRANCH  27  29
HETATM   29  C12 UNL     1      -6.803  44.394   4.187  1.00  0.00     0.161 C 
BRANCH  29  30
HETATM   30  C13 UNL     1      -7.041  45.881   4.137  1.00  0.00    -0.041 A 
HETATM   31  C14 UNL     1      -7.493  46.557   5.260  1.00  0.00     0.009 A 
HETATM   32  C15 UNL     1      -7.713  47.917   5.244  1.00  0.00     0.001 A 
HETATM   33  C16 UNL     1      -7.489  48.649   4.105  1.00  0.00     0.000 A 
HETATM   34  C17 UNL     1      -7.039  47.996   2.974  1.00  0.00     0.001 A 
HETATM   35  C18 UNL     1      -6.822  46.628   3.005  1.00  0.00     0.009 A 
ENDBRANCH  29  30
ENDBRANCH  27  29
ENDBRANCH  24  25
ENDBRANCH   1  19
TORSDOF 10
ENDMDL
