MODEL 3
REMARK VINA RESULT: -8.647805065      0.954      1.091
REMARK  8 active torsions:
REMARK  status: ('A' for Active; 'I' for Inactive)
REMARK    1  A    between atoms: N1_2  and  C2_3 
REMARK    2  A    between atoms: N1_2  and  C17_21 
REMARK    3  A    between atoms: C2_3  and  C3_4 
REMARK    4  A    between atoms: C8_9  and  C9_10 
REMARK       I    between atoms: C9_10  and  N2_12 
REMARK    5  A    between atoms: N2_12  and  C10_14 
REMARK    6  A    between atoms: C10_14  and  C11_15 
REMARK    7  A    between atoms: C17_21  and  C18_22 
REMARK    8  A    between atoms: C23_27  and  C24_28 
ROOT
HETATM    1  C3  UNL     1      -9.291  43.360   0.036  1.00  0.00    -0.010 A 
HETATM    2  C4  UNL     1      -9.936  42.659  -0.966  1.00  0.00     0.013 A 
HETATM    3  C5  UNL     1      -9.719  41.300  -1.175  1.00  0.00     0.001 A 
HETATM    4  C6  UNL     1      -8.835  40.663  -0.346  1.00  0.00     0.001 A 
HETATM    5  C7  UNL     1      -8.192  41.353   0.651  1.00  0.00     0.018 A 
HETATM    6  C8  UNL     1      -8.384  42.694   0.882  1.00  0.00     0.043 A 
ENDROOT
BRANCH   1   7
HETATM    7  C2  UNL     1      -9.509  44.767   0.297  1.00  0.00     0.071 C 
BRANCH   7   8
HETATM    8  N1  UNL     1     -10.735  45.174   0.944  1.00  0.00    -0.292 NA
HETATM    9  C1  UNL     1     -10.580  45.670   2.282  1.00  0.00     0.116 C 
BRANCH   8  10
HETATM   10  C17 UNL     1     -11.518  46.064   0.152  1.00  0.00     0.134 C 
BRANCH  10  11
HETATM   11  C18 UNL     1     -12.458  45.494  -0.807  1.00  0.00    -0.025 A 
HETATM   12  C19 UNL     1     -12.184  44.974  -2.038  1.00  0.00     0.012 A 
HETATM   13  C20 UNL     1     -13.177  44.452  -2.874  1.00  0.00     0.040 A 
HETATM   14  C21 UNL     1     -14.492  44.437  -2.497  1.00  0.00     0.106 A 
HETATM   15  C22 UNL     1     -14.795  44.954  -1.264  1.00  0.00     0.122 A 
HETATM   16  O5  UNL     1     -15.671  43.993  -3.108  1.00  0.00    -0.323 OA
HETATM   17  C23 UNL     1     -13.824  45.465  -0.444  1.00  0.00     0.084 A 
HETATM   18  O4  UNL     1     -16.179  44.825  -1.116  1.00  0.00    -0.322 OA
HETATM   19  C25 UNL     1     -16.655  43.924  -2.097  1.00  0.00     0.352 C 
BRANCH  17  20
HETATM   20  C24 UNL     1     -14.178  46.006   0.859  1.00  0.00     0.212 C 
HETATM   21  O2  UNL     1     -14.247  45.360   1.910  1.00  0.00    -0.644 OA
HETATM   22  O3  UNL     1     -14.464  47.379   0.911  1.00  0.00    -0.644 OA
ENDBRANCH  17  20
ENDBRANCH  10  11
ENDBRANCH   8  10
ENDBRANCH   7   8
ENDBRANCH   1   7
BRANCH   6  23
HETATM   23  C9  UNL     1      -7.657  43.406   1.948  1.00  0.00     0.256 C 
HETATM   24  O1  UNL     1      -7.919  43.199   3.151  1.00  0.00    -0.267 OA
HETATM   25  N2  UNL     1      -6.655  44.331   1.627  1.00  0.00    -0.336 N 
ATOM     26  H2  UNL     1      -6.474  44.442   0.629  1.00  0.00     0.168 HD
BRANCH  25  27
HETATM   27  C10 UNL     1      -5.849  45.141   2.479  1.00  0.00     0.069 C 
BRANCH  27  28
HETATM   28  C11 UNL     1      -4.739  44.590   3.255  1.00  0.00     0.024 C 
HETATM   29  C12 UNL     1      -3.345  44.661   2.803  1.00  0.00     0.010 C 
HETATM   30  C13 UNL     1      -2.513  45.766   3.427  1.00  0.00     0.001 C 
HETATM   31  C14 UNL     1      -2.302  45.512   4.909  1.00  0.00     0.000 C 
HETATM   32  C15 UNL     1      -3.456  44.645   5.379  1.00  0.00     0.001 C 
HETATM   33  C16 UNL     1      -4.763  45.057   4.719  1.00  0.00     0.010 C 
ENDBRANCH  27  28
ENDBRANCH  25  27
ENDBRANCH   6  23
TORSDOF 8
ENDMDL
