MODEL 2
REMARK VINA RESULT: -8.703602828      2.007      4.615
REMARK  8 active torsions:
REMARK  status: ('A' for Active; 'I' for Inactive)
REMARK    1  A    between atoms: N1_2  and  C2_3 
REMARK    2  A    between atoms: N1_2  and  C17_21 
REMARK    3  A    between atoms: C2_3  and  C3_4 
REMARK    4  A    between atoms: C8_9  and  C9_10 
REMARK       I    between atoms: C9_10  and  N2_12 
REMARK    5  A    between atoms: N2_12  and  C10_14 
REMARK    6  A    between atoms: C10_14  and  C11_15 
REMARK    7  A    between atoms: C17_21  and  C18_22 
REMARK    8  A    between atoms: C23_27  and  C24_28 
ROOT
HETATM    1  C3  UNL     1      -9.152  46.909   2.708  1.00  0.00    -0.010 A 
HETATM    2  C4  UNL     1      -9.977  47.748   3.437  1.00  0.00     0.013 A 
HETATM    3  C5  UNL     1      -9.743  48.032   4.778  1.00  0.00     0.001 A 
HETATM    4  C6  UNL     1      -8.654  47.450   5.371  1.00  0.00     0.001 A 
HETATM    5  C7  UNL     1      -7.832  46.617   4.653  1.00  0.00     0.018 A 
HETATM    6  C8  UNL     1      -8.036  46.317   3.329  1.00  0.00     0.043 A 
ENDROOT
BRANCH   1   7
HETATM    7  C2  UNL     1      -9.352  46.610   1.306  1.00  0.00     0.071 C 
BRANCH   7   8
HETATM    8  N1  UNL     1     -10.421  45.714   0.930  1.00  0.00    -0.292 NA
HETATM    9  C1  UNL     1     -10.791  44.754   1.931  1.00  0.00     0.116 C 
BRANCH   8  10
HETATM   10  C17 UNL     1     -11.565  46.391   0.416  1.00  0.00     0.134 C 
BRANCH  10  11
HETATM   11  C18 UNL     1     -12.385  45.710  -0.579  1.00  0.00    -0.025 A 
HETATM   12  C19 UNL     1     -11.974  45.121  -1.739  1.00  0.00     0.012 A 
HETATM   13  C20 UNL     1     -12.860  44.494  -2.622  1.00  0.00     0.040 A 
HETATM   14  C21 UNL     1     -14.203  44.439  -2.365  1.00  0.00     0.106 A 
HETATM   15  C22 UNL     1     -14.643  45.023  -1.205  1.00  0.00     0.122 A 
HETATM   16  O5  UNL     1     -15.299  43.895  -3.046  1.00  0.00    -0.323 OA
HETATM   17  C23 UNL     1     -13.777  45.637  -0.340  1.00  0.00     0.084 A 
HETATM   18  O4  UNL     1     -16.028  44.835  -1.175  1.00  0.00    -0.322 OA
HETATM   19  C25 UNL     1     -16.370  43.846  -2.126  1.00  0.00     0.352 C 
BRANCH  17  20
HETATM   20  C24 UNL     1     -14.275  46.248   0.882  1.00  0.00     0.212 C 
HETATM   21  O2  UNL     1     -14.502  47.452   1.042  1.00  0.00    -0.644 OA
HETATM   22  O3  UNL     1     -14.511  45.385   1.964  1.00  0.00    -0.644 OA
ENDBRANCH  17  20
ENDBRANCH  10  11
ENDBRANCH   8  10
ENDBRANCH   7   8
ENDBRANCH   1   7
BRANCH   6  23
HETATM   23  C9  UNL     1      -7.144  45.399   2.598  1.00  0.00     0.256 C 
HETATM   24  O1  UNL     1      -6.102  45.817   2.053  1.00  0.00    -0.267 OA
HETATM   25  N2  UNL     1      -7.453  44.036   2.503  1.00  0.00    -0.336 N 
ATOM     26  H2  UNL     1      -8.307  43.752   2.984  1.00  0.00     0.168 HD
BRANCH  25  27
HETATM   27  C10 UNL     1      -6.759  42.984   1.837  1.00  0.00     0.069 C 
BRANCH  27  28
HETATM   28  C11 UNL     1      -7.247  42.394   0.592  1.00  0.00     0.024 C 
HETATM   29  C12 UNL     1      -8.118  41.213   0.564  1.00  0.00     0.010 C 
HETATM   30  C13 UNL     1      -9.595  41.497   0.368  1.00  0.00     0.001 C 
HETATM   31  C14 UNL     1      -9.858  42.057  -1.019  1.00  0.00     0.000 C 
HETATM   32  C15 UNL     1      -8.571  42.713  -1.483  1.00  0.00     0.001 C 
HETATM   33  C16 UNL     1      -7.877  43.440  -0.341  1.00  0.00     0.010 C 
ENDBRANCH  27  28
ENDBRANCH  25  27
ENDBRANCH   6  23
TORSDOF 8
ENDMDL
