MODEL 1
REMARK VINA RESULT: -8.860155296      0.000      0.000
REMARK  8 active torsions:
REMARK  status: ('A' for Active; 'I' for Inactive)
REMARK    1  A    between atoms: N1_2  and  C2_3 
REMARK    2  A    between atoms: N1_2  and  C17_21 
REMARK    3  A    between atoms: C2_3  and  C3_4 
REMARK    4  A    between atoms: C8_9  and  C9_10 
REMARK       I    between atoms: C9_10  and  N2_12 
REMARK    5  A    between atoms: N2_12  and  C10_14 
REMARK    6  A    between atoms: C10_14  and  C11_15 
REMARK    7  A    between atoms: C17_21  and  C18_22 
REMARK    8  A    between atoms: C23_27  and  C24_28 
ROOT
HETATM    1  C3  UNL     1      -9.233  43.450   0.140  1.00  0.00    -0.010 A 
HETATM    2  C4  UNL     1      -9.917  42.644  -0.752  1.00  0.00     0.013 A 
HETATM    3  C5  UNL     1      -9.645  41.285  -0.880  1.00  0.00     0.001 A 
HETATM    4  C6  UNL     1      -8.665  40.755  -0.084  1.00  0.00     0.001 A 
HETATM    5  C7  UNL     1      -7.983  41.550   0.804  1.00  0.00     0.018 A 
HETATM    6  C8  UNL     1      -8.228  42.893   0.953  1.00  0.00     0.043 A 
ENDROOT
BRANCH   1   7
HETATM    7  C2  UNL     1      -9.505  44.860   0.316  1.00  0.00     0.071 C 
BRANCH   7   8
HETATM    8  N1  UNL     1     -10.741  45.258   0.950  1.00  0.00    -0.292 NA
HETATM    9  C1  UNL     1     -10.603  45.775   2.282  1.00  0.00     0.116 C 
BRANCH   8  10
HETATM   10  C17 UNL     1     -11.532  46.124   0.140  1.00  0.00     0.134 C 
BRANCH  10  11
HETATM   11  C18 UNL     1     -12.459  45.527  -0.814  1.00  0.00    -0.025 A 
HETATM   12  C19 UNL     1     -12.172  45.000  -2.040  1.00  0.00     0.012 A 
HETATM   13  C20 UNL     1     -13.153  44.451  -2.873  1.00  0.00     0.040 A 
HETATM   14  C21 UNL     1     -14.469  44.414  -2.497  1.00  0.00     0.106 A 
HETATM   15  C22 UNL     1     -14.784  44.937  -1.270  1.00  0.00     0.122 A 
HETATM   16  O5  UNL     1     -15.638  43.941  -3.106  1.00  0.00    -0.323 OA
HETATM   17  C23 UNL     1     -13.825  45.474  -0.453  1.00  0.00     0.084 A 
HETATM   18  O4  UNL     1     -16.166  44.783  -1.124  1.00  0.00    -0.322 OA
HETATM   19  C25 UNL     1     -16.622  43.863  -2.096  1.00  0.00     0.352 C 
BRANCH  17  20
HETATM   20  C24 UNL     1     -14.192  46.021   0.843  1.00  0.00     0.212 C 
HETATM   21  O2  UNL     1     -14.294  45.376   1.892  1.00  0.00    -0.644 OA
HETATM   22  O3  UNL     1     -14.450  47.400   0.892  1.00  0.00    -0.644 OA
ENDBRANCH  17  20
ENDBRANCH  10  11
ENDBRANCH   8  10
ENDBRANCH   7   8
ENDBRANCH   1   7
BRANCH   6  23
HETATM   23  C9  UNL     1      -7.458  43.718   1.901  1.00  0.00     0.256 C 
HETATM   24  O1  UNL     1      -6.664  44.591   1.493  1.00  0.00    -0.267 OA
HETATM   25  N2  UNL     1      -7.604  43.534   3.282  1.00  0.00    -0.336 N 
ATOM     26  H2  UNL     1      -8.280  42.820   3.553  1.00  0.00     0.168 HD
BRANCH  25  27
HETATM   27  C10 UNL     1      -6.955  44.192   4.368  1.00  0.00     0.069 C 
BRANCH  27  28
HETATM   28  C11 UNL     1      -5.608  43.827   4.805  1.00  0.00     0.024 C 
HETATM   29  C12 UNL     1      -4.399  44.413   4.215  1.00  0.00     0.010 C 
HETATM   30  C13 UNL     1      -3.762  45.535   5.013  1.00  0.00     0.001 C 
HETATM   31  C14 UNL     1      -3.196  45.012   6.322  1.00  0.00     0.000 C 
HETATM   32  C15 UNL     1      -3.974  43.757   6.672  1.00  0.00     0.001 C 
HETATM   33  C16 UNL     1      -5.449  43.907   6.331  1.00  0.00     0.010 C 
ENDBRANCH  27  28
ENDBRANCH  25  27
ENDBRANCH   6  23
TORSDOF 8
ENDMDL
