MODEL 4
REMARK VINA RESULT: -8.436269839      1.360      1.913
REMARK  8 active torsions:
REMARK  status: ('A' for Active; 'I' for Inactive)
REMARK    1  A    between atoms: N1_2  and  C2_3 
REMARK    2  A    between atoms: N1_2  and  C17_21 
REMARK    3  A    between atoms: C2_3  and  C3_4 
REMARK    4  A    between atoms: C8_9  and  C9_10 
REMARK       I    between atoms: C9_10  and  N2_12 
REMARK    5  A    between atoms: N2_12  and  C10_14 
REMARK    6  A    between atoms: C10_14  and  C11_15 
REMARK    7  A    between atoms: C17_21  and  C18_22 
REMARK    8  A    between atoms: C23_27  and  C24_28 
ROOT
HETATM    1  C3  UNL     1      -9.236  43.168   0.047  1.00  0.00    -0.010 A 
HETATM    2  C4  UNL     1      -9.947  42.577  -0.983  1.00  0.00     0.013 A 
HETATM    3  C5  UNL     1      -9.816  41.227  -1.292  1.00  0.00     0.001 A 
HETATM    4  C6  UNL     1      -8.950  40.483  -0.536  1.00  0.00     0.001 A 
HETATM    5  C7  UNL     1      -8.242  41.064   0.488  1.00  0.00     0.018 A 
HETATM    6  C8  UNL     1      -8.349  42.393   0.817  1.00  0.00     0.043 A 
ENDROOT
BRANCH   1   7
HETATM    7  C2  UNL     1      -9.366  44.563   0.410  1.00  0.00     0.071 C 
BRANCH   7   8
HETATM    8  N1  UNL     1     -10.634  45.038   0.913  1.00  0.00    -0.292 NA
HETATM    9  C1  UNL     1     -10.597  45.579   2.242  1.00  0.00     0.116 C 
BRANCH   8  10
HETATM   10  C17 UNL     1     -11.297  45.924   0.014  1.00  0.00     0.134 C 
BRANCH  10  11
HETATM   11  C18 UNL     1     -12.314  45.376  -0.876  1.00  0.00    -0.025 A 
HETATM   12  C19 UNL     1     -12.127  44.747  -2.073  1.00  0.00     0.012 A 
HETATM   13  C20 UNL     1     -13.189  44.261  -2.843  1.00  0.00     0.040 A 
HETATM   14  C21 UNL     1     -14.487  44.392  -2.431  1.00  0.00     0.106 A 
HETATM   15  C22 UNL     1     -14.703  45.019  -1.232  1.00  0.00     0.122 A 
HETATM   16  O5  UNL     1     -15.720  44.015  -2.978  1.00  0.00    -0.323 OA
HETATM   17  C23 UNL     1     -13.665  45.496  -0.476  1.00  0.00     0.084 A 
HETATM   18  O4  UNL     1     -16.088  45.028  -1.039  1.00  0.00    -0.322 OA
HETATM   19  C25 UNL     1     -16.673  44.107  -1.939  1.00  0.00     0.352 C 
BRANCH  17  20
HETATM   20  C24 UNL     1     -13.927  46.157   0.792  1.00  0.00     0.212 C 
HETATM   21  O2  UNL     1     -13.852  47.374   0.997  1.00  0.00    -0.644 OA
HETATM   22  O3  UNL     1     -14.294  45.331   1.866  1.00  0.00    -0.644 OA
ENDBRANCH  17  20
ENDBRANCH  10  11
ENDBRANCH   8  10
ENDBRANCH   7   8
ENDBRANCH   1   7
BRANCH   6  23
HETATM   23  C9  UNL     1      -7.555  42.985   1.908  1.00  0.00     0.256 C 
HETATM   24  O1  UNL     1      -8.094  43.321   2.983  1.00  0.00    -0.267 OA
HETATM   25  N2  UNL     1      -6.176  43.182   1.755  1.00  0.00    -0.336 N 
ATOM     26  H2  UNL     1      -5.792  42.871   0.863  1.00  0.00     0.168 HD
BRANCH  25  27
HETATM   27  C10 UNL     1      -5.227  43.750   2.654  1.00  0.00     0.069 C 
BRANCH  27  28
HETATM   28  C11 UNL     1      -5.158  45.188   2.906  1.00  0.00     0.024 C 
HETATM   29  C12 UNL     1      -5.772  46.179   2.014  1.00  0.00     0.010 C 
HETATM   30  C13 UNL     1      -7.116  46.719   2.468  1.00  0.00     0.001 C 
HETATM   31  C14 UNL     1      -6.964  47.551   3.729  1.00  0.00     0.000 C 
HETATM   32  C15 UNL     1      -5.713  47.063   4.435  1.00  0.00     0.001 C 
HETATM   33  C16 UNL     1      -5.577  45.550   4.339  1.00  0.00     0.010 C 
ENDBRANCH  27  28
ENDBRANCH  25  27
ENDBRANCH   6  23
TORSDOF 8
ENDMDL
