MODEL 5
REMARK VINA RESULT: -8.361002263      2.852      6.932
REMARK  2 active torsions:
REMARK  status: ('A' for Active; 'I' for Inactive)
REMARK    1  A    between atoms: C10_11  and  C11_12 
REMARK    2  A    between atoms: C16_17  and  C17_18 
ROOT
HETATM    1  C11 UNL     1     -34.670  29.015  -1.767  1.00  0.00    -0.015 A 
HETATM    2  C12 UNL     1     -33.886  28.207  -2.579  1.00  0.00     0.015 A 
HETATM    3  C13 UNL     1     -34.386  27.100  -3.227  1.00  0.00     0.040 A 
HETATM    4  C14 UNL     1     -35.730  26.777  -3.062  1.00  0.00     0.106 A 
HETATM    5  C15 UNL     1     -36.513  27.571  -2.259  1.00  0.00     0.122 A 
HETATM    6  C16 UNL     1     -35.976  28.674  -1.626  1.00  0.00     0.087 A 
HETATM    7  O4  UNL     1     -37.805  27.041  -2.257  1.00  0.00    -0.322 OA
HETATM    8  C18 UNL     1     -37.786  25.807  -2.931  1.00  0.00     0.352 C 
HETATM    9  O5  UNL     1     -36.529  25.763  -3.554  1.00  0.00    -0.323 OA
ENDROOT
BRANCH   1  10
HETATM   10  C10 UNL     1     -34.129  30.187  -1.124  1.00  0.00     0.028 C 
HETATM   11  C9  UNL     1     -33.391  30.218  -0.035  1.00  0.00     0.022 A 
HETATM   12  C1  UNL     1     -32.922  29.125   0.795  1.00  0.00     0.164 A 
HETATM   13  C8  UNL     1     -32.885  31.459   0.600  1.00  0.00    -0.016 A 
HETATM   14  O1  UNL     1     -33.122  27.886   0.549  1.00  0.00    -0.292 OA
HETATM   15  C2  UNL     1     -32.180  29.660   1.962  1.00  0.00     0.123 A 
HETATM   16  C3  UNL     1     -32.175  31.119   1.725  1.00  0.00    -0.040 A 
HETATM   17  C4  UNL     1     -31.606  32.180   2.439  1.00  0.00     0.008 A 
HETATM   18  C5  UNL     1     -31.727  33.492   2.072  1.00  0.00     0.001 A 
HETATM   19  C6  UNL     1     -32.445  33.814   0.939  1.00  0.00     0.001 A 
HETATM   20  C7  UNL     1     -33.013  32.786   0.223  1.00  0.00     0.013 A 
ENDBRANCH   1  10
BRANCH   6  21
HETATM   21  C17 UNL     1     -36.870  29.467  -0.810  1.00  0.00     0.213 C 
HETATM   22  O2  UNL     1     -37.705  30.269  -1.283  1.00  0.00    -0.644 OA
HETATM   23  O3  UNL     1     -36.858  29.386   0.595  1.00  0.00    -0.644 OA
ENDBRANCH   6  21
TORSDOF 2
ENDMDL
