MODEL 4
REMARK VINA RESULT: -8.418401719      1.731      7.089
REMARK  2 active torsions:
REMARK  status: ('A' for Active; 'I' for Inactive)
REMARK    1  A    between atoms: C10_11  and  C11_12 
REMARK    2  A    between atoms: C16_17  and  C17_18 
ROOT
HETATM    1  C11 UNL     1     -33.709  30.442   0.371  1.00  0.00    -0.015 A 
HETATM    2  C12 UNL     1     -35.033  30.534  -0.039  1.00  0.00     0.015 A 
HETATM    3  C13 UNL     1     -35.662  29.534  -0.744  1.00  0.00     0.040 A 
HETATM    4  C14 UNL     1     -34.945  28.384  -1.061  1.00  0.00     0.106 A 
HETATM    5  C15 UNL     1     -33.635  28.284  -0.660  1.00  0.00     0.122 A 
HETATM    6  C16 UNL     1     -33.037  29.308   0.047  1.00  0.00     0.087 A 
HETATM    7  O4  UNL     1     -33.143  27.051  -1.095  1.00  0.00    -0.322 OA
HETATM    8  C18 UNL     1     -34.108  26.450  -1.922  1.00  0.00     0.352 C 
HETATM    9  O5  UNL     1     -35.265  27.224  -1.739  1.00  0.00    -0.323 OA
ENDROOT
BRANCH   1  10
HETATM   10  C10 UNL     1     -33.082  31.491   1.136  1.00  0.00     0.028 C 
HETATM   11  C9  UNL     1     -32.872  32.731   0.748  1.00  0.00     0.022 A 
HETATM   12  C1  UNL     1     -33.204  33.375  -0.509  1.00  0.00     0.164 A 
HETATM   13  C8  UNL     1     -32.194  33.763   1.568  1.00  0.00    -0.016 A 
HETATM   14  O1  UNL     1     -33.839  32.816  -1.469  1.00  0.00    -0.292 OA
HETATM   15  C2  UNL     1     -32.701  34.770  -0.509  1.00  0.00     0.123 A 
HETATM   16  C3  UNL     1     -32.128  34.928   0.844  1.00  0.00    -0.040 A 
HETATM   17  C4  UNL     1     -31.530  36.019   1.484  1.00  0.00     0.008 A 
HETATM   18  C5  UNL     1     -31.029  35.971   2.755  1.00  0.00     0.001 A 
HETATM   19  C6  UNL     1     -31.104  34.792   3.468  1.00  0.00     0.001 A 
HETATM   20  C7  UNL     1     -31.688  33.706   2.857  1.00  0.00     0.013 A 
ENDBRANCH   1  10
BRANCH   6  21
HETATM   21  C17 UNL     1     -31.659  29.119   0.445  1.00  0.00     0.213 C 
HETATM   22  O2  UNL     1     -30.711  29.043  -0.368  1.00  0.00    -0.644 OA
HETATM   23  O3  UNL     1     -31.287  29.007   1.798  1.00  0.00    -0.644 OA
ENDBRANCH   6  21
TORSDOF 2
ENDMDL
