MODEL 3
REMARK VINA RESULT: -8.421950360      2.565      4.475
REMARK  2 active torsions:
REMARK  status: ('A' for Active; 'I' for Inactive)
REMARK    1  A    between atoms: C10_11  and  C11_12 
REMARK    2  A    between atoms: C16_17  and  C17_18 
ROOT
HETATM    1  C11 UNL     1     -33.512  27.593  -0.686  1.00  0.00    -0.015 A 
HETATM    2  C12 UNL     1     -32.207  27.123  -0.641  1.00  0.00     0.015 A 
HETATM    3  C13 UNL     1     -31.187  27.824  -0.038  1.00  0.00     0.040 A 
HETATM    4  C14 UNL     1     -31.473  29.052   0.550  1.00  0.00     0.106 A 
HETATM    5  C15 UNL     1     -32.763  29.526   0.509  1.00  0.00     0.122 A 
HETATM    6  C16 UNL     1     -33.760  28.794  -0.104  1.00  0.00     0.087 A 
HETATM    7  O4  UNL     1     -32.789  30.762   1.159  1.00  0.00    -0.322 OA
HETATM    8  C18 UNL     1     -31.468  31.140   1.459  1.00  0.00     0.352 C 
HETATM    9  O5  UNL     1     -30.706  29.986   1.218  1.00  0.00    -0.323 OA
ENDROOT
BRANCH   1  10
HETATM   10  C10 UNL     1     -34.569  26.825  -1.296  1.00  0.00     0.028 C 
HETATM   11  C9  UNL     1     -34.845  26.748  -2.580  1.00  0.00     0.022 A 
HETATM   12  C1  UNL     1     -34.188  27.383  -3.707  1.00  0.00     0.164 A 
HETATM   13  C8  UNL     1     -35.966  25.963  -3.152  1.00  0.00    -0.016 A 
HETATM   14  O1  UNL     1     -33.143  28.116  -3.623  1.00  0.00    -0.292 OA
HETATM   15  C2  UNL     1     -34.906  27.053  -4.962  1.00  0.00     0.123 A 
HETATM   16  C3  UNL     1     -35.970  26.129  -4.515  1.00  0.00    -0.040 A 
HETATM   17  C4  UNL     1     -36.960  25.434  -5.218  1.00  0.00     0.008 A 
HETATM   18  C5  UNL     1     -37.889  24.627  -4.620  1.00  0.00     0.001 A 
HETATM   19  C6  UNL     1     -37.870  24.472  -3.250  1.00  0.00     0.001 A 
HETATM   20  C7  UNL     1     -36.904  25.147  -2.539  1.00  0.00     0.013 A 
ENDBRANCH   1  10
BRANCH   6  21
HETATM   21  C17 UNL     1     -35.093  29.355  -0.091  1.00  0.00     0.213 C 
HETATM   22  O2  UNL     1     -35.866  29.271   0.889  1.00  0.00    -0.644 OA
HETATM   23  O3  UNL     1     -35.618  30.045  -1.200  1.00  0.00    -0.644 OA
ENDBRANCH   6  21
TORSDOF 2
ENDMDL
