MODEL 4
REMARK VINA RESULT: -8.096614326      2.252      5.447
REMARK  3 active torsions:
REMARK  status: ('A' for Active; 'I' for Inactive)
REMARK    1  A    between atoms: C1_2  and  C2_4 
REMARK    2  A    between atoms: C3_5  and  C4_6 
REMARK    3  A    between atoms: C13_15  and  O3_16 
ROOT
HETATM    1  C2  UNL     1     -35.786  32.090  -1.337  1.00  0.00     0.087 A 
HETATM    2  C3  UNL     1     -35.576  31.892   0.007  1.00  0.00    -0.016 A 
HETATM    3  C14 UNL     1     -36.260  30.833   0.621  1.00  0.00     0.015 A 
HETATM    4  C15 UNL     1     -37.111  30.006  -0.058  1.00  0.00     0.040 A 
HETATM    5  C16 UNL     1     -37.319  30.202  -1.393  1.00  0.00     0.106 A 
HETATM    6  C17 UNL     1     -36.646  31.247  -2.003  1.00  0.00     0.122 A 
HETATM    7  O4  UNL     1     -37.042  31.210  -3.341  1.00  0.00    -0.322 OA
HETATM    8  C18 UNL     1     -38.219  30.412  -3.432  1.00  0.00     0.352 C 
HETATM    9  O5  UNL     1     -38.110  29.533  -2.318  1.00  0.00    -0.323 OA
ENDROOT
BRANCH   2  10
HETATM   10  C4  UNL     1     -34.722  32.758   0.798  1.00  0.00     0.023 C 
HETATM   11  C5  UNL     1     -33.504  32.477   1.146  1.00  0.00    -0.018 C 
HETATM   12  C6  UNL     1     -32.697  31.279   0.844  1.00  0.00    -0.021 A 
HETATM   13  C13 UNL     1     -32.625  33.328   2.024  1.00  0.00     0.156 C 
HETATM   14  C7  UNL     1     -32.700  30.405  -0.209  1.00  0.00     0.012 A 
HETATM   15  C11 UNL     1     -31.813  31.106   1.886  1.00  0.00    -0.044 A 
HETATM   16  C8  UNL     1     -31.836  29.325  -0.274  1.00  0.00     0.001 A 
HETATM   17  C9  UNL     1     -30.949  29.148   0.771  1.00  0.00     0.001 A 
HETATM   18  C10 UNL     1     -30.949  30.049   1.849  1.00  0.00     0.008 A 
HETATM   19  C12 UNL     1     -32.000  32.203   2.862  1.00  0.00     0.076 C 
BRANCH  13  20
HETATM   20  O3  UNL     1     -31.667  33.922   1.239  1.00  0.00    -0.391 OA
ATOM     21  H3  UNL     1     -31.880  34.843   1.145  1.00  0.00     0.210 HD
ENDBRANCH  13  20
ENDBRANCH   2  10
BRANCH   1  22
HETATM   22  C1  UNL     1     -35.116  33.162  -2.056  1.00  0.00     0.213 C 
HETATM   23  O1  UNL     1     -33.875  33.238  -2.197  1.00  0.00    -0.644 OA
HETATM   24  O2  UNL     1     -35.870  34.179  -2.635  1.00  0.00    -0.644 OA
ENDBRANCH   1  22
TORSDOF 3
ENDMDL
