MODEL 5
REMARK VINA RESULT: -8.048871772      2.983      5.045
REMARK  3 active torsions:
REMARK  status: ('A' for Active; 'I' for Inactive)
REMARK    1  A    between atoms: C1_2  and  C2_4 
REMARK    2  A    between atoms: C3_5  and  C4_6 
REMARK    3  A    between atoms: C13_15  and  O3_16 
ROOT
HETATM    1  C2  UNL     1     -36.868  32.276  -0.302  1.00  0.00     0.087 A 
HETATM    2  C3  UNL     1     -35.784  31.654  -0.874  1.00  0.00    -0.016 A 
HETATM    3  C14 UNL     1     -35.110  32.336  -1.898  1.00  0.00     0.015 A 
HETATM    4  C15 UNL     1     -35.487  33.573  -2.338  1.00  0.00     0.040 A 
HETATM    5  C16 UNL     1     -36.564  34.192  -1.771  1.00  0.00     0.106 A 
HETATM    6  C17 UNL     1     -37.231  33.522  -0.759  1.00  0.00     0.122 A 
HETATM    7  O4  UNL     1     -38.268  34.375  -0.373  1.00  0.00    -0.322 OA
HETATM    8  C18 UNL     1     -38.445  35.347  -1.399  1.00  0.00     0.352 C 
HETATM    9  O5  UNL     1     -37.162  35.423  -2.010  1.00  0.00    -0.323 OA
ENDROOT
BRANCH   2  10
HETATM   10  C4  UNL     1     -35.355  30.323  -0.486  1.00  0.00     0.023 C 
HETATM   11  C5  UNL     1     -34.377  30.069   0.328  1.00  0.00    -0.018 C 
HETATM   12  C6  UNL     1     -33.494  31.004   1.050  1.00  0.00    -0.021 A 
HETATM   13  C13 UNL     1     -33.871  28.697   0.689  1.00  0.00     0.156 C 
HETATM   14  C7  UNL     1     -33.680  32.277   1.518  1.00  0.00     0.012 A 
HETATM   15  C11 UNL     1     -32.282  30.372   1.227  1.00  0.00    -0.044 A 
HETATM   16  C8  UNL     1     -32.681  32.976   2.174  1.00  0.00     0.001 A 
HETATM   17  C9  UNL     1     -31.464  32.344   2.351  1.00  0.00     0.001 A 
HETATM   18  C10 UNL     1     -31.279  31.037   1.871  1.00  0.00     0.008 A 
HETATM   19  C12 UNL     1     -32.367  29.007   0.662  1.00  0.00     0.076 C 
BRANCH  13  20
HETATM   20  O3  UNL     1     -34.272  28.407   1.971  1.00  0.00    -0.391 OA
ATOM     21  H3  UNL     1     -35.205  28.230   1.964  1.00  0.00     0.210 HD
ENDBRANCH  13  20
ENDBRANCH   2  10
BRANCH   1  22
HETATM   22  C1  UNL     1     -37.622  31.644   0.768  1.00  0.00     0.213 C 
HETATM   23  O1  UNL     1     -38.257  30.574   0.636  1.00  0.00    -0.644 OA
HETATM   24  O2  UNL     1     -37.661  32.237   2.027  1.00  0.00    -0.644 OA
ENDBRANCH   1  22
TORSDOF 3
ENDMDL
