MODEL 6
REMARK VINA RESULT: -7.977266756      2.571      6.689
REMARK  3 active torsions:
REMARK  status: ('A' for Active; 'I' for Inactive)
REMARK    1  A    between atoms: C1_2  and  C2_4 
REMARK    2  A    between atoms: C3_5  and  C4_6 
REMARK    3  A    between atoms: C13_15  and  O3_16 
ROOT
HETATM    1  C2  UNL     1     -33.289  28.538  -0.464  1.00  0.00     0.087 A 
HETATM    2  C3  UNL     1     -33.960  29.308   0.455  1.00  0.00    -0.016 A 
HETATM    3  C14 UNL     1     -35.335  29.503   0.259  1.00  0.00     0.015 A 
HETATM    4  C15 UNL     1     -36.018  28.962  -0.794  1.00  0.00     0.040 A 
HETATM    5  C16 UNL     1     -35.352  28.197  -1.708  1.00  0.00     0.106 A 
HETATM    6  C17 UNL     1     -33.994  28.002  -1.517  1.00  0.00     0.122 A 
HETATM    7  O4  UNL     1     -33.584  27.197  -2.581  1.00  0.00    -0.322 OA
HETATM    8  C18 UNL     1     -34.593  27.243  -3.585  1.00  0.00     0.352 C 
HETATM    9  O5  UNL     1     -35.778  27.534  -2.853  1.00  0.00    -0.323 OA
ENDROOT
BRANCH   2  10
HETATM   10  C4  UNL     1     -33.291  29.949   1.573  1.00  0.00     0.023 C 
HETATM   11  C5  UNL     1     -33.053  31.221   1.661  1.00  0.00    -0.018 C 
HETATM   12  C6  UNL     1     -33.385  32.304   0.715  1.00  0.00    -0.021 A 
HETATM   13  C13 UNL     1     -32.299  31.896   2.777  1.00  0.00     0.156 C 
HETATM   14  C7  UNL     1     -34.397  32.458  -0.194  1.00  0.00     0.012 A 
HETATM   15  C11 UNL     1     -32.428  33.284   0.860  1.00  0.00    -0.044 A 
HETATM   16  C8  UNL     1     -34.504  33.582  -0.995  1.00  0.00     0.001 A 
HETATM   17  C9  UNL     1     -33.543  34.567  -0.853  1.00  0.00     0.001 A 
HETATM   18  C10 UNL     1     -32.508  34.403   0.082  1.00  0.00     0.008 A 
HETATM   19  C12 UNL     1     -31.483  32.878   1.924  1.00  0.00     0.076 C 
BRANCH  13  20
HETATM   20  O3  UNL     1     -33.197  32.581   3.559  1.00  0.00    -0.391 OA
ATOM     21  H3  UNL     1     -33.004  32.400   4.472  1.00  0.00     0.210 HD
ENDBRANCH  13  20
ENDBRANCH   2  10
BRANCH   1  22
HETATM   22  C1  UNL     1     -31.863  28.281  -0.336  1.00  0.00     0.213 C 
HETATM   23  O1  UNL     1     -31.370  27.140  -0.195  1.00  0.00    -0.644 OA
HETATM   24  O2  UNL     1     -30.967  29.345  -0.372  1.00  0.00    -0.644 OA
ENDBRANCH   1  22
TORSDOF 3
ENDMDL
