MODEL 1
REMARK VINA RESULT: -9.166919069      0.000      0.000
REMARK  3 active torsions:
REMARK  status: ('A' for Active; 'I' for Inactive)
REMARK    1  A    between atoms: C1_2  and  C2_4 
REMARK    2  A    between atoms: C3_5  and  C4_6 
REMARK    3  A    between atoms: C13_15  and  O3_16 
ROOT
HETATM    1  C2  UNL     1     -32.821  34.232   0.667  1.00  0.00     0.087 A 
HETATM    2  C3  UNL     1     -33.282  33.028   1.143  1.00  0.00    -0.016 A 
HETATM    3  C14 UNL     1     -32.861  32.631   2.420  1.00  0.00     0.015 A 
HETATM    4  C15 UNL     1     -32.024  33.386   3.193  1.00  0.00     0.040 A 
HETATM    5  C16 UNL     1     -31.565  34.582   2.721  1.00  0.00     0.106 A 
HETATM    6  C17 UNL     1     -31.979  34.978   1.460  1.00  0.00     0.122 A 
HETATM    7  O4  UNL     1     -31.368  36.214   1.242  1.00  0.00    -0.322 OA
HETATM    8  C18 UNL     1     -30.310  36.356   2.185  1.00  0.00     0.352 C 
HETATM    9  O5  UNL     1     -30.724  35.539   3.274  1.00  0.00    -0.323 OA
ENDROOT
BRANCH   2  10
HETATM   10  C4  UNL     1     -34.137  32.155   0.359  1.00  0.00     0.023 C 
HETATM   11  C5  UNL     1     -33.865  30.920   0.068  1.00  0.00    -0.018 C 
HETATM   12  C6  UNL     1     -32.690  30.108   0.438  1.00  0.00    -0.021 A 
HETATM   13  C13 UNL     1     -34.703  30.020  -0.801  1.00  0.00     0.156 C 
HETATM   14  C7  UNL     1     -31.847  30.140   1.517  1.00  0.00     0.012 A 
HETATM   15  C11 UNL     1     -32.498  29.181  -0.563  1.00  0.00    -0.044 A 
HETATM   16  C8  UNL     1     -30.784  29.264   1.650  1.00  0.00     0.001 A 
HETATM   17  C9  UNL     1     -30.589  28.333   0.645  1.00  0.00     0.001 A 
HETATM   18  C10 UNL     1     -31.457  28.304  -0.459  1.00  0.00     0.008 A 
HETATM   19  C12 UNL     1     -33.562  29.346  -1.578  1.00  0.00     0.076 C 
BRANCH  13  20
HETATM   20  O3  UNL     1     -35.335  29.102   0.002  1.00  0.00    -0.391 OA
ATOM     21  H3  UNL     1     -35.829  28.507  -0.549  1.00  0.00     0.210 HD
ENDBRANCH  13  20
ENDBRANCH   2  10
BRANCH   1  22
HETATM   22  C1  UNL     1     -33.209  34.723  -0.646  1.00  0.00     0.213 C 
HETATM   23  O1  UNL     1     -32.432  34.785  -1.625  1.00  0.00    -0.644 OA
HETATM   24  O2  UNL     1     -34.514  35.156  -0.861  1.00  0.00    -0.644 OA
ENDBRANCH   1  22
TORSDOF 3
ENDMDL
