MODEL 4
REMARK VINA RESULT: -7.634042729      3.171      4.876
REMARK  1 active torsions:
REMARK  status: ('A' for Active; 'I' for Inactive)
REMARK    1  A    between atoms: C9_14  and  O1_15 
ROOT
HETATM    1  C1  UNL     1       4.970  69.024  64.568  1.00  0.00     0.025 C 
HETATM    2  C2  UNL     1       3.975  67.922  64.730  1.00  0.00     0.033 C 
HETATM    3  C3  UNL     1       2.936  67.880  63.632  1.00  0.00     0.045 C 
HETATM    4  C4  UNL     1       3.661  67.080  62.574  1.00  0.00     0.236 C 
HETATM    5  N1  UNL     1       4.567  66.190  63.234  1.00  0.00    -0.053 N 
ATOM      6  H11 UNL     1       5.463  66.120  62.752  1.00  0.00     0.279 HD
ATOM      7  H12 UNL     1       4.283  65.214  63.151  1.00  0.00     0.279 HD
HETATM    8  C5  UNL     1       4.712  66.603  64.600  1.00  0.00     0.297 C 
HETATM    9  N2  UNL     1       4.002  65.752  65.526  1.00  0.00    -0.361 N 
ATOM     10  H2  UNL     1       3.930  64.737  65.457  1.00  0.00     0.161 HD
HETATM   11  C6  UNL     1       3.419  66.547  66.546  1.00  0.00     0.037 A 
HETATM   12  C7  UNL     1       2.919  66.221  67.818  1.00  0.00     0.032 A 
HETATM   13  C8  UNL     1       2.404  67.225  68.589  1.00  0.00     0.039 A 
HETATM   14  C9  UNL     1       2.361  68.536  68.159  1.00  0.00     0.066 A 
HETATM   15  C10 UNL     1       2.855  68.839  66.908  1.00  0.00     0.046 A 
HETATM   16  C11 UNL     1       3.390  67.841  66.089  1.00  0.00    -0.017 A 
ENDROOT
BRANCH  14  17
HETATM   17  O1  UNL     1       1.821  69.517  68.992  1.00  0.00    -0.361 OA
ATOM     18  H1  UNL     1       2.394  70.013  69.566  1.00  0.00     0.217 HD
ENDBRANCH  14  17
TORSDOF 1
ENDMDL
