MODEL 5
REMARK VINA RESULT: -7.618074200      3.572      5.310
REMARK  1 active torsions:
REMARK  status: ('A' for Active; 'I' for Inactive)
REMARK    1  A    between atoms: C9_14  and  O1_15 
ROOT
HETATM    1  C1  UNL     1       5.167  64.338  69.501  1.00  0.00     0.025 C 
HETATM    2  C2  UNL     1       3.978  64.446  68.604  1.00  0.00     0.033 C 
HETATM    3  C3  UNL     1       3.567  63.129  67.983  1.00  0.00     0.045 C 
HETATM    4  C4  UNL     1       2.699  62.549  69.077  1.00  0.00     0.236 C 
HETATM    5  N1  UNL     1       2.102  63.635  69.792  1.00  0.00    -0.053 N 
ATOM      6  H11 UNL     1       2.078  63.471  70.798  1.00  0.00     0.279 HD
ATOM      7  H12 UNL     1       1.096  63.699  69.634  1.00  0.00     0.279 HD
HETATM    8  C5  UNL     1       2.786  64.848  69.452  1.00  0.00     0.297 C 
HETATM    9  N2  UNL     1       2.031  65.691  68.555  1.00  0.00    -0.361 N 
ATOM     10  H2  UNL     1       1.023  65.841  68.596  1.00  0.00     0.161 HD
HETATM   11  C6  UNL     1       2.909  66.280  67.608  1.00  0.00     0.037 A 
HETATM   12  C7  UNL     1       2.760  67.385  66.753  1.00  0.00     0.032 A 
HETATM   13  C8  UNL     1       3.803  67.714  65.933  1.00  0.00     0.039 A 
HETATM   14  C9  UNL     1       4.984  67.001  65.920  1.00  0.00     0.066 A 
HETATM   15  C10 UNL     1       5.114  65.919  66.765  1.00  0.00     0.046 A 
HETATM   16  C11 UNL     1       4.071  65.549  67.620  1.00  0.00    -0.017 A 
ENDROOT
BRANCH  14  17
HETATM   17  O1  UNL     1       6.013  67.386  65.059  1.00  0.00    -0.361 OA
ATOM     18  H1  UNL     1       6.796  67.789  65.415  1.00  0.00     0.217 HD
ENDBRANCH  14  17
TORSDOF 1
ENDMDL
