MODEL 3
REMARK VINA RESULT: -7.913263426      2.586      3.513
REMARK  1 active torsions:
REMARK  status: ('A' for Active; 'I' for Inactive)
REMARK    1  A    between atoms: C9_14  and  O1_15 
ROOT
HETATM    1  C1  UNL     1       2.156  69.423  68.102  1.00  0.00     0.025 C 
HETATM    2  C2  UNL     1       2.117  68.183  67.270  1.00  0.00     0.033 C 
HETATM    3  C3  UNL     1       2.482  66.930  68.034  1.00  0.00     0.045 C 
HETATM    4  C4  UNL     1       1.151  66.567  68.652  1.00  0.00     0.236 C 
HETATM    5  N1  UNL     1       0.116  67.034  67.782  1.00  0.00    -0.053 N 
ATOM      6  H11 UNL     1      -0.670  67.435  68.293  1.00  0.00     0.279 HD
ATOM      7  H12 UNL     1      -0.384  66.269  67.327  1.00  0.00     0.279 HD
HETATM    8  C5  UNL     1       0.681  67.953  66.838  1.00  0.00     0.297 C 
HETATM    9  N2  UNL     1       0.835  67.387  65.519  1.00  0.00    -0.361 N 
ATOM     10  H2  UNL     1       0.169  66.762  65.065  1.00  0.00     0.161 HD
HETATM   11  C6  UNL     1       2.056  67.835  64.952  1.00  0.00     0.037 A 
HETATM   12  C7  UNL     1       2.524  67.852  63.627  1.00  0.00     0.032 A 
HETATM   13  C8  UNL     1       3.774  68.352  63.388  1.00  0.00     0.039 A 
HETATM   14  C9  UNL     1       4.580  68.835  64.398  1.00  0.00     0.066 A 
HETATM   15  C10 UNL     1       4.106  68.811  65.693  1.00  0.00     0.046 A 
HETATM   16  C11 UNL     1       2.834  68.308  65.980  1.00  0.00    -0.017 A 
ENDROOT
BRANCH  14  17
HETATM   17  O1  UNL     1       5.847  69.332  64.090  1.00  0.00    -0.361 OA
ATOM     18  H1  UNL     1       6.593  69.078  64.622  1.00  0.00     0.217 HD
ENDBRANCH  14  17
TORSDOF 1
ENDMDL
