MODEL 20
REMARK VINA RESULT: -7.080705301      2.806      3.892
REMARK  1 active torsions:
REMARK  status: ('A' for Active; 'I' for Inactive)
REMARK    1  A    between atoms: C9_14  and  O1_15 
ROOT
HETATM    1  C1  UNL     1       3.355  67.734  62.676  1.00  0.00     0.025 C 
HETATM    2  C2  UNL     1       3.835  67.158  63.968  1.00  0.00     0.033 C 
HETATM    3  C3  UNL     1       5.087  67.821  64.498  1.00  0.00     0.045 C 
HETATM    4  C4  UNL     1       4.502  69.004  65.234  1.00  0.00     0.236 C 
HETATM    5  N1  UNL     1       3.198  68.637  65.698  1.00  0.00    -0.053 N 
ATOM      6  H11 UNL     1       2.522  69.394  65.596  1.00  0.00     0.279 HD
ATOM      7  H12 UNL     1       3.158  68.546  66.714  1.00  0.00     0.279 HD
HETATM    8  C5  UNL     1       2.785  67.441  65.026  1.00  0.00     0.297 C 
HETATM    9  N2  UNL     1       2.858  66.267  65.864  1.00  0.00    -0.361 N 
ATOM     10  H2  UNL     1       2.611  66.233  66.853  1.00  0.00     0.161 HD
HETATM   11  C6  UNL     1       3.326  65.168  65.099  1.00  0.00     0.037 A 
HETATM   12  C7  UNL     1       3.276  63.781  65.322  1.00  0.00     0.032 A 
HETATM   13  C8  UNL     1       3.828  62.954  64.385  1.00  0.00     0.039 A 
HETATM   14  C9  UNL     1       4.427  63.435  63.238  1.00  0.00     0.066 A 
HETATM   15  C10 UNL     1       4.469  64.799  63.034  1.00  0.00     0.046 A 
HETATM   16  C11 UNL     1       3.915  65.679  63.969  1.00  0.00    -0.017 A 
ENDROOT
BRANCH  14  17
HETATM   17  O1  UNL     1       4.975  62.540  62.319  1.00  0.00    -0.361 OA
ATOM     18  H1  UNL     1       5.191  62.840  61.443  1.00  0.00     0.217 HD
ENDBRANCH  14  17
TORSDOF 1
ENDMDL
