MODEL 16
REMARK VINA RESULT: -8.231204110      1.314      6.336
REMARK  3 active torsions:
REMARK  status: ('A' for Active; 'I' for Inactive)
REMARK    1  A    between atoms: C2_2  and  C5_5 
REMARK    2  A    between atoms: C6_8  and  C7_9 
REMARK    3  A    between atoms: C16_20  and  C17_21 
ROOT
HETATM    1  C5  UNL     1     -26.455  80.744  11.550  1.00  0.00     0.090 A 
HETATM    2  N1  UNL     1     -25.876  81.521  10.648  1.00  0.00    -0.343 N 
ATOM      3  H1  UNL     1     -24.867  81.645  10.555  1.00  0.00     0.167 HD
HETATM    4  C6  UNL     1     -26.807  82.136   9.856  1.00  0.00     0.073 A 
HETATM    5  C16 UNL     1     -28.019  81.716  10.291  1.00  0.00     0.071 A 
HETATM    6  N4  UNL     1     -27.763  80.854  11.344  1.00  0.00    -0.343 N 
ATOM      7  H4  UNL     1     -28.478  80.371  11.887  1.00  0.00     0.167 HD
ENDROOT
BRANCH   4   8
HETATM    8  C7  UNL     1     -26.457  83.108   8.847  1.00  0.00     0.009 A 
HETATM    9  C8  UNL     1     -25.410  83.966   8.903  1.00  0.00     0.102 A 
HETATM   10  N2  UNL     1     -25.199  84.852   7.899  1.00  0.00    -0.364 N 
HETATM   11  C9  UNL     1     -25.986  84.941   6.812  1.00  0.00     0.042 A 
ATOM     12  H2  UNL     1     -24.401  85.484   7.971  1.00  0.00     0.165 HD
HETATM   13  C10 UNL     1     -25.786  85.844   5.794  1.00  0.00     0.030 A 
HETATM   14  C14 UNL     1     -27.072  84.089   6.711  1.00  0.00    -0.009 A 
HETATM   15  C11 UNL     1     -26.643  85.902   4.690  1.00  0.00     0.002 A 
HETATM   16  C12 UNL     1     -27.733  85.031   4.607  1.00  0.00     0.001 A 
HETATM   17  C13 UNL     1     -27.921  84.139   5.630  1.00  0.00     0.014 A 
HETATM   18  C15 UNL     1     -27.275  83.201   7.721  1.00  0.00     0.029 A 
ENDBRANCH   4   8
BRANCH   5  19
HETATM   19  C17 UNL     1     -29.361  82.016   9.822  1.00  0.00    -0.004 A 
HETATM   20  C18 UNL     1     -30.389  81.143  10.191  1.00  0.00     0.030 A 
HETATM   21  C19 UNL     1     -31.699  81.404   9.784  1.00  0.00     0.088 A 
HETATM   22  N3  UNL     1     -31.983  82.482   9.049  1.00  0.00    -0.375 N 
HETATM   23  C20 UNL     1     -31.035  83.343   8.675  1.00  0.00     0.088 A 
ATOM     24  H3  UNL     1     -32.949  82.652   8.767  1.00  0.00     0.164 HD
HETATM   25  C21 UNL     1     -29.720  83.096   9.069  1.00  0.00     0.030 A 
ENDBRANCH   5  19
BRANCH   1  26
HETATM   26  C2  UNL     1     -25.759  79.961  12.624  1.00  0.00     0.007 C 
HETATM   27  C1  UNL     1     -26.552  80.016  13.903  1.00  0.00     0.022 C 
HETATM   28  C3  UNL     1     -24.350  80.395  12.860  1.00  0.00     0.022 C 
HETATM   29  C4  UNL     1     -25.786  78.500  12.147  1.00  0.00     0.022 C 
ENDBRANCH   1  26
TORSDOF 3
ENDMDL
