MODEL 17
REMARK VINA RESULT: -8.201699563      1.546      6.232
REMARK  3 active torsions:
REMARK  status: ('A' for Active; 'I' for Inactive)
REMARK    1  A    between atoms: C2_2  and  C5_5 
REMARK    2  A    between atoms: C6_8  and  C7_9 
REMARK    3  A    between atoms: C16_20  and  C17_21 
ROOT
HETATM    1  C5  UNL     1     -26.039  80.549  11.945  1.00  0.00     0.090 A 
HETATM    2  N1  UNL     1     -25.307  81.086  10.982  1.00  0.00    -0.343 N 
ATOM      3  H1  UNL     1     -24.289  81.029  10.931  1.00  0.00     0.167 HD
HETATM    4  C6  UNL     1     -26.093  81.725  10.063  1.00  0.00     0.073 A 
HETATM    5  C16 UNL     1     -27.373  81.573  10.480  1.00  0.00     0.071 A 
HETATM    6  N4  UNL     1     -27.302  80.839  11.653  1.00  0.00    -0.343 N 
ATOM      7  H4  UNL     1     -28.106  80.560  12.213  1.00  0.00     0.167 HD
ENDROOT
BRANCH   4   8
HETATM    8  C7  UNL     1     -25.550  82.475   8.955  1.00  0.00     0.009 A 
HETATM    9  C8  UNL     1     -25.267  83.799   8.957  1.00  0.00     0.102 A 
HETATM   10  N2  UNL     1     -24.780  84.397   7.842  1.00  0.00    -0.364 N 
HETATM   11  C9  UNL     1     -24.552  83.740   6.691  1.00  0.00     0.042 A 
ATOM     12  H2  UNL     1     -24.576  85.396   7.877  1.00  0.00     0.165 HD
HETATM   13  C10 UNL     1     -24.069  84.339   5.550  1.00  0.00     0.030 A 
HETATM   14  C14 UNL     1     -24.830  82.385   6.636  1.00  0.00    -0.009 A 
HETATM   15  C11 UNL     1     -23.860  83.611   4.375  1.00  0.00     0.002 A 
HETATM   16  C12 UNL     1     -24.146  82.243   4.341  1.00  0.00     0.001 A 
HETATM   17  C13 UNL     1     -24.629  81.660   5.484  1.00  0.00     0.014 A 
HETATM   18  C15 UNL     1     -25.315  81.794   7.760  1.00  0.00     0.029 A 
ENDBRANCH   4   8
BRANCH   5  19
HETATM   19  C17 UNL     1     -28.628  82.017   9.900  1.00  0.00    -0.004 A 
HETATM   20  C18 UNL     1     -29.804  81.407  10.348  1.00  0.00     0.030 A 
HETATM   21  C19 UNL     1     -31.036  81.818   9.835  1.00  0.00     0.088 A 
HETATM   22  N3  UNL     1     -31.106  82.793   8.925  1.00  0.00    -0.375 N 
HETATM   23  C20 UNL     1     -30.012  83.405   8.471  1.00  0.00     0.088 A 
ATOM     24  H3  UNL     1     -32.019  83.077   8.569  1.00  0.00     0.164 HD
HETATM   25  C21 UNL     1     -28.771  83.004   8.968  1.00  0.00     0.030 A 
ENDBRANCH   5  19
BRANCH   1  26
HETATM   26  C2  UNL     1     -25.522  79.823  13.153  1.00  0.00     0.007 C 
HETATM   27  C1  UNL     1     -24.850  78.541  12.740  1.00  0.00     0.022 C 
HETATM   28  C3  UNL     1     -26.570  79.560  14.183  1.00  0.00     0.022 C 
HETATM   29  C4  UNL     1     -24.428  80.731  13.737  1.00  0.00     0.022 C 
ENDBRANCH   1  26
TORSDOF 3
ENDMDL
