MODEL 1
REMARK VINA RESULT: -9.086437408      0.000      0.000
REMARK  3 active torsions:
REMARK  status: ('A' for Active; 'I' for Inactive)
REMARK    1  A    between atoms: C2_2  and  C5_5 
REMARK    2  A    between atoms: C6_8  and  C7_9 
REMARK    3  A    between atoms: C16_20  and  C17_21 
ROOT
HETATM    1  C5  UNL     1     -26.227  84.320   7.523  1.00  0.00     0.090 A 
HETATM    2  N1  UNL     1     -25.690  83.435   8.348  1.00  0.00    -0.343 N 
ATOM      3  H1  UNL     1     -24.688  83.333   8.512  1.00  0.00     0.167 HD
HETATM    4  C6  UNL     1     -26.655  82.676   8.951  1.00  0.00     0.073 A 
HETATM    5  C16 UNL     1     -27.844  83.117   8.476  1.00  0.00     0.071 A 
HETATM    6  N4  UNL     1     -27.540  84.137   7.590  1.00  0.00    -0.343 N 
ATOM      7  H4  UNL     1     -28.229  84.673   7.063  1.00  0.00     0.167 HD
ENDROOT
BRANCH   4   8
HETATM    8  C7  UNL     1     -26.347  81.574   9.832  1.00  0.00     0.009 A 
HETATM    9  C8  UNL     1     -26.162  80.286   9.455  1.00  0.00     0.102 A 
HETATM   10  N2  UNL     1     -25.900  79.333  10.382  1.00  0.00    -0.364 N 
HETATM   11  C9  UNL     1     -25.807  79.588  11.700  1.00  0.00     0.042 A 
ATOM     12  H2  UNL     1     -25.765  78.373  10.065  1.00  0.00     0.165 HD
HETATM   13  C10 UNL     1     -25.552  78.626  12.650  1.00  0.00     0.030 A 
HETATM   14  C14 UNL     1     -25.992  80.888  12.137  1.00  0.00    -0.009 A 
HETATM   15  C11 UNL     1     -25.477  78.944  14.009  1.00  0.00     0.002 A 
HETATM   16  C12 UNL     1     -25.666  80.264  14.429  1.00  0.00     0.001 A 
HETATM   17  C13 UNL     1     -25.922  81.211  13.472  1.00  0.00     0.014 A 
HETATM   18  C15 UNL     1     -26.252  81.838  11.199  1.00  0.00     0.029 A 
ENDBRANCH   4   8
BRANCH   5  19
HETATM   19  C17 UNL     1     -29.206  82.705   8.771  1.00  0.00    -0.004 A 
HETATM   20  C18 UNL     1     -30.133  82.729   7.726  1.00  0.00     0.030 A 
HETATM   21  C19 UNL     1     -31.448  82.319   7.957  1.00  0.00     0.088 A 
HETATM   22  N3  UNL     1     -31.830  81.898   9.165  1.00  0.00    -0.375 N 
HETATM   23  C20 UNL     1     -30.979  81.856  10.192  1.00  0.00     0.088 A 
ATOM     24  H3  UNL     1     -32.795  81.601   9.308  1.00  0.00     0.164 HD
HETATM   25  C21 UNL     1     -29.662  82.267   9.980  1.00  0.00     0.030 A 
ENDBRANCH   5  19
BRANCH   1  26
HETATM   26  C2  UNL     1     -25.480  85.281   6.644  1.00  0.00     0.007 C 
HETATM   27  C1  UNL     1     -24.360  84.570   5.932  1.00  0.00     0.022 C 
HETATM   28  C3  UNL     1     -24.964  86.477   7.373  1.00  0.00     0.022 C 
HETATM   29  C4  UNL     1     -26.486  85.716   5.567  1.00  0.00     0.022 C 
ENDBRANCH   1  26
TORSDOF 3
ENDMDL
