MODEL 3
REMARK VINA RESULT: -8.863438327      2.460      5.294
REMARK  3 active torsions:
REMARK  status: ('A' for Active; 'I' for Inactive)
REMARK    1  A    between atoms: C2_2  and  C5_5 
REMARK    2  A    between atoms: C6_8  and  C7_9 
REMARK    3  A    between atoms: C16_20  and  C17_21 
ROOT
HETATM    1  C5  UNL     1     -29.364  82.639   9.101  1.00  0.00     0.090 A 
HETATM    2  N1  UNL     1     -28.193  82.952   8.570  1.00  0.00    -0.343 N 
ATOM      3  H1  UNL     1     -28.068  83.577   7.773  1.00  0.00     0.167 HD
HETATM    4  C6  UNL     1     -27.170  82.329   9.231  1.00  0.00     0.073 A 
HETATM    5  C16 UNL     1     -27.740  81.597  10.219  1.00  0.00     0.071 A 
HETATM    6  N4  UNL     1     -29.103  81.812  10.107  1.00  0.00    -0.343 N 
ATOM      7  H4  UNL     1     -29.809  81.394  10.713  1.00  0.00     0.167 HD
ENDROOT
BRANCH   4   8
HETATM    8  C7  UNL     1     -25.792  82.422   8.808  1.00  0.00     0.009 A 
HETATM    9  C8  UNL     1     -25.336  82.226   7.548  1.00  0.00     0.102 A 
HETATM   10  N2  UNL     1     -24.010  82.319   7.279  1.00  0.00    -0.364 N 
HETATM   11  C9  UNL     1     -23.084  82.602   8.212  1.00  0.00     0.042 A 
ATOM     12  H2  UNL     1     -23.699  82.166   6.319  1.00  0.00     0.165 HD
HETATM   13  C10 UNL     1     -21.736  82.688   7.951  1.00  0.00     0.030 A 
HETATM   14  C14 UNL     1     -23.500  82.807   9.516  1.00  0.00    -0.009 A 
HETATM   15  C11 UNL     1     -20.813  82.975   8.961  1.00  0.00     0.002 A 
HETATM   16  C12 UNL     1     -21.254  83.179  10.272  1.00  0.00     0.001 A 
HETATM   17  C13 UNL     1     -22.599  83.088  10.517  1.00  0.00     0.014 A 
HETATM   18  C15 UNL     1     -24.831  82.715   9.776  1.00  0.00     0.029 A 
ENDBRANCH   4   8
BRANCH   5  19
HETATM   19  C17 UNL     1     -27.153  80.751  11.243  1.00  0.00    -0.004 A 
HETATM   20  C18 UNL     1     -26.695  79.487  10.860  1.00  0.00     0.030 A 
HETATM   21  C19 UNL     1     -26.102  78.648  11.806  1.00  0.00     0.088 A 
HETATM   22  N3  UNL     1     -25.964  79.041  13.075  1.00  0.00    -0.375 N 
HETATM   23  C20 UNL     1     -26.385  80.238  13.486  1.00  0.00     0.088 A 
ATOM     24  H3  UNL     1     -25.526  78.411  13.746  1.00  0.00     0.164 HD
HETATM   25  C21 UNL     1     -26.984  81.088  12.555  1.00  0.00     0.030 A 
ENDBRANCH   5  19
BRANCH   1  26
HETATM   26  C2  UNL     1     -30.710  83.083   8.606  1.00  0.00     0.007 C 
HETATM   27  C1  UNL     1     -31.043  82.388   7.313  1.00  0.00     0.022 C 
HETATM   28  C3  UNL     1     -30.828  84.564   8.453  1.00  0.00     0.022 C 
HETATM   29  C4  UNL     1     -31.716  82.581   9.654  1.00  0.00     0.022 C 
ENDBRANCH   1  26
TORSDOF 3
ENDMDL
