MODEL 2
REMARK VINA RESULT: -8.993700887      2.193      5.849
REMARK  3 active torsions:
REMARK  status: ('A' for Active; 'I' for Inactive)
REMARK    1  A    between atoms: C2_2  and  C5_5 
REMARK    2  A    between atoms: C6_8  and  C7_9 
REMARK    3  A    between atoms: C16_20  and  C17_21 
ROOT
HETATM    1  C5  UNL     1     -23.872  83.112   9.981  1.00  0.00     0.090 A 
HETATM    2  N1  UNL     1     -25.097  83.148   9.482  1.00  0.00    -0.343 N 
ATOM      3  H1  UNL     1     -25.389  83.749   8.711  1.00  0.00     0.167 HD
HETATM    4  C6  UNL     1     -25.921  82.273  10.135  1.00  0.00     0.073 A 
HETATM    5  C16 UNL     1     -25.165  81.666  11.081  1.00  0.00     0.071 A 
HETATM    6  N4  UNL     1     -23.898  82.213  10.958  1.00  0.00    -0.343 N 
ATOM      7  H4  UNL     1     -23.098  81.960  11.537  1.00  0.00     0.167 HD
ENDROOT
BRANCH   4   8
HETATM    8  C7  UNL     1     -27.335  82.171   9.856  1.00  0.00     0.009 A 
HETATM    9  C8  UNL     1     -28.244  81.502  10.604  1.00  0.00     0.102 A 
HETATM   10  N2  UNL     1     -29.544  81.460  10.224  1.00  0.00    -0.364 N 
HETATM   11  C9  UNL     1     -30.010  82.057   9.113  1.00  0.00     0.042 A 
ATOM     12  H2  UNL     1     -30.204  80.948  10.810  1.00  0.00     0.165 HD
HETATM   13  C10 UNL     1     -31.325  82.011   8.712  1.00  0.00     0.030 A 
HETATM   14  C14 UNL     1     -29.119  82.750   8.311  1.00  0.00    -0.009 A 
HETATM   15  C11 UNL     1     -31.755  82.642   7.541  1.00  0.00     0.002 A 
HETATM   16  C12 UNL     1     -30.839  83.337   6.746  1.00  0.00     0.001 A 
HETATM   17  C13 UNL     1     -29.532  83.373   7.156  1.00  0.00     0.014 A 
HETATM   18  C15 UNL     1     -27.817  82.790   8.702  1.00  0.00     0.029 A 
ENDBRANCH   4   8
BRANCH   5  19
HETATM   19  C17 UNL     1     -25.492  80.639  12.055  1.00  0.00    -0.004 A 
HETATM   20  C18 UNL     1     -25.743  81.045  13.369  1.00  0.00     0.030 A 
HETATM   21  C19 UNL     1     -26.084  80.096  14.335  1.00  0.00     0.088 A 
HETATM   22  N3  UNL     1     -26.179  78.802  14.016  1.00  0.00    -0.375 N 
HETATM   23  C20 UNL     1     -25.951  78.369  12.776  1.00  0.00     0.088 A 
ATOM     24  H3  UNL     1     -26.433  78.129  14.740  1.00  0.00     0.164 HD
HETATM   25  C21 UNL     1     -25.604  79.304  11.799  1.00  0.00     0.030 A 
ENDBRANCH   5  19
BRANCH   1  26
HETATM   26  C2  UNL     1     -22.717  83.972   9.559  1.00  0.00     0.007 C 
HETATM   27  C1  UNL     1     -22.189  84.747  10.738  1.00  0.00     0.022 C 
HETATM   28  C3  UNL     1     -23.040  84.891   8.428  1.00  0.00     0.022 C 
HETATM   29  C4  UNL     1     -21.609  82.992   9.140  1.00  0.00     0.022 C 
ENDBRANCH   1  26
TORSDOF 3
ENDMDL
