MODEL 18
REMARK VINA RESULT: -8.142401595      1.421      6.078
REMARK  3 active torsions:
REMARK  status: ('A' for Active; 'I' for Inactive)
REMARK    1  A    between atoms: C2_2  and  C5_5 
REMARK    2  A    between atoms: C6_8  and  C7_9 
REMARK    3  A    between atoms: C16_20  and  C17_21 
ROOT
HETATM    1  C5  UNL     1     -26.050  80.567  11.852  1.00  0.00     0.090 A 
HETATM    2  N1  UNL     1     -25.339  81.072  10.856  1.00  0.00    -0.343 N 
ATOM      3  H1  UNL     1     -24.325  80.999  10.775  1.00  0.00     0.167 HD
HETATM    4  C6  UNL     1     -26.144  81.706   9.949  1.00  0.00     0.073 A 
HETATM    5  C16 UNL     1     -27.412  81.582  10.408  1.00  0.00     0.071 A 
HETATM    6  N4  UNL     1     -27.316  80.871  11.592  1.00  0.00    -0.343 N 
ATOM      7  H4  UNL     1     -28.107  80.616  12.183  1.00  0.00     0.167 HD
ENDROOT
BRANCH   4   8
HETATM    8  C7  UNL     1     -25.624  82.426   8.809  1.00  0.00     0.009 A 
HETATM    9  C8  UNL     1     -25.280  81.881   7.618  1.00  0.00     0.102 A 
HETATM   10  N2  UNL     1     -24.780  82.661   6.628  1.00  0.00    -0.364 N 
HETATM   11  C9  UNL     1     -24.594  83.987   6.754  1.00  0.00     0.042 A 
ATOM     12  H2  UNL     1     -24.532  82.220   5.743  1.00  0.00     0.165 HD
HETATM   13  C10 UNL     1     -24.077  84.785   5.760  1.00  0.00     0.030 A 
HETATM   14  C14 UNL     1     -24.926  84.591   7.955  1.00  0.00    -0.009 A 
HETATM   15  C11 UNL     1     -23.894  86.158   5.947  1.00  0.00     0.002 A 
HETATM   16  C12 UNL     1     -24.236  86.748   7.167  1.00  0.00     0.001 A 
HETATM   17  C13 UNL     1     -24.748  85.941   8.149  1.00  0.00     0.014 A 
HETATM   18  C15 UNL     1     -25.430  83.801   8.940  1.00  0.00     0.029 A 
ENDBRANCH   4   8
BRANCH   5  19
HETATM   19  C17 UNL     1     -28.678  82.035   9.858  1.00  0.00    -0.004 A 
HETATM   20  C18 UNL     1     -29.847  81.435  10.336  1.00  0.00     0.030 A 
HETATM   21  C19 UNL     1     -31.089  81.855   9.853  1.00  0.00     0.088 A 
HETATM   22  N3  UNL     1     -31.173  82.828   8.942  1.00  0.00    -0.375 N 
HETATM   23  C20 UNL     1     -30.085  83.430   8.459  1.00  0.00     0.088 A 
ATOM     24  H3  UNL     1     -32.092  83.118   8.608  1.00  0.00     0.164 HD
HETATM   25  C21 UNL     1     -28.836  83.020   8.926  1.00  0.00     0.030 A 
ENDBRANCH   5  19
BRANCH   1  26
HETATM   26  C2  UNL     1     -25.506  79.857  13.057  1.00  0.00     0.007 C 
HETATM   27  C1  UNL     1     -24.885  78.547  12.652  1.00  0.00     0.022 C 
HETATM   28  C3  UNL     1     -26.521  79.648  14.133  1.00  0.00     0.022 C 
HETATM   29  C4  UNL     1     -24.367  80.748  13.577  1.00  0.00     0.022 C 
ENDBRANCH   1  26
TORSDOF 3
ENDMDL
