MODEL 7
REMARK VINA RESULT: -9.582024387      3.131      6.875
REMARK  6 active torsions:
REMARK  status: ('A' for Active; 'I' for Inactive)
REMARK    1  A    between atoms: O1_1  and  C1_3 
REMARK    2  A    between atoms: C1_3  and  C2_4 
REMARK    3  A    between atoms: C2_4  and  N1_5 
REMARK    4  A    between atoms: C4_7  and  C5_8 
REMARK    5  A    between atoms: N5_16  and  C8_17 
REMARK    6  A    between atoms: C8_17  and  C9_18 
ROOT
HETATM    1  C5  UNL     1      23.882  85.134   2.926  1.00  0.00     0.062 A 
HETATM    2  C6  UNL     1      24.491  85.413   4.131  1.00  0.00     0.120 A 
HETATM    3  N2  UNL     1      23.795  85.741   5.235  1.00  0.00    -0.346 N 
ATOM      4  H2  UNL     1      24.267  85.943   6.117  1.00  0.00     0.167 HD
HETATM    5  C7  UNL     1      22.441  85.793   5.131  1.00  0.00     0.164 A 
HETATM    6  N3  UNL     1      21.468  86.083   6.028  1.00  0.00    -0.266 N 
ATOM      7  H3  UNL     1      21.609  86.329   7.008  1.00  0.00     0.186 HD
HETATM    8  N4  UNL     1      20.304  85.990   5.410  1.00  0.00    -0.017 NA
HETATM    9  N5  UNL     1      20.474  85.652   4.145  1.00  0.00    -0.253 N 
HETATM   10  C18 UNL     1      21.794  85.520   3.938  1.00  0.00     0.167 A 
HETATM   11  N7  UNL     1      22.543  85.193   2.849  1.00  0.00    -0.336 N 
ATOM     12  H7  UNL     1      22.080  84.990   1.963  1.00  0.00     0.168 HD
ENDROOT
BRANCH   9  13
HETATM   13  C8  UNL     1      19.444  85.453   3.151  1.00  0.00     0.187 C 
BRANCH  13  14
HETATM   14  C9  UNL     1      18.969  84.062   3.108  1.00  0.00    -0.038 A 
HETATM   15  C10 UNL     1      18.749  83.308   4.239  1.00  0.00     0.011 A 
HETATM   16  C11 UNL     1      18.299  81.996   4.113  1.00  0.00     0.031 A 
HETATM   17  C12 UNL     1      18.069  81.436   2.872  1.00  0.00     0.042 A 
HETATM   18  N6  UNL     1      17.632  80.159   2.784  1.00  0.00    -0.365 N 
HETATM   19  C16 UNL     1      18.286  82.177   1.741  1.00  0.00    -0.009 A 
HETATM   20  C13 UNL     1      17.403  79.597   1.583  1.00  0.00     0.088 A 
ATOM     21  H6  UNL     1      17.475  79.618   3.634  1.00  0.00     0.165 HD
HETATM   22  C14 UNL     1      17.608  80.308   0.413  1.00  0.00     0.018 A 
HETATM   23  C15 UNL     1      18.051  81.603   0.508  1.00  0.00     0.015 A 
HETATM   24  C17 UNL     1      18.734  83.485   1.877  1.00  0.00     0.022 A 
ENDBRANCH  13  14
ENDBRANCH   9  13
BRANCH   1  25
HETATM   25  C4  UNL     1      24.656  84.781   1.741  1.00  0.00     0.026 A 
HETATM   26  C3  UNL     1      24.519  83.679   0.925  1.00  0.00     0.125 A 
HETATM   27  N1  UNL     1      25.442  83.735  -0.067  1.00  0.00    -0.301 N 
HETATM   28  N8  UNL     1      26.155  84.854   0.113  1.00  0.00    -0.309 N 
HETATM   29  C19 UNL     1      25.698  85.500   1.200  1.00  0.00     0.122 A 
ATOM     30  H8  UNL     1      26.924  85.167  -0.480  1.00  0.00     0.186 HD
BRANCH  27  31
HETATM   31  C2  UNL     1      25.680  82.807  -1.154  1.00  0.00     0.174 C 
BRANCH  31  32
HETATM   32  C1  UNL     1      26.537  81.672  -0.579  1.00  0.00     0.185 C 
BRANCH  32  33
HETATM   33  O1  UNL     1      27.311  82.107   0.486  1.00  0.00    -0.399 OA
ATOM     34  H1  UNL     1      27.384  83.053   0.500  1.00  0.00     0.209 HD
ENDBRANCH  32  33
ENDBRANCH  31  32
ENDBRANCH  27  31
ENDBRANCH   1  25
TORSDOF 6
ENDMDL
