MODEL 5
REMARK VINA RESULT: -9.888361721      1.707      1.864
REMARK  6 active torsions:
REMARK  status: ('A' for Active; 'I' for Inactive)
REMARK    1  A    between atoms: O1_1  and  C1_3 
REMARK    2  A    between atoms: C1_3  and  C2_4 
REMARK    3  A    between atoms: C2_4  and  N1_5 
REMARK    4  A    between atoms: C4_7  and  C5_8 
REMARK    5  A    between atoms: N5_16  and  C8_17 
REMARK    6  A    between atoms: C8_17  and  C9_18 
ROOT
HETATM    1  C5  UNL     1      18.439  82.581   4.106  1.00  0.00     0.062 A 
HETATM    2  C6  UNL     1      17.864  81.620   4.910  1.00  0.00     0.120 A 
HETATM    3  N2  UNL     1      17.705  81.788   6.235  1.00  0.00    -0.346 N 
ATOM      4  H2  UNL     1      17.277  81.063   6.812  1.00  0.00     0.167 HD
HETATM    5  C7  UNL     1      18.136  82.957   6.778  1.00  0.00     0.164 A 
HETATM    6  N3  UNL     1      18.126  83.434   8.045  1.00  0.00    -0.266 N 
ATOM      7  H3  UNL     1      17.762  82.948   8.866  1.00  0.00     0.186 HD
HETATM    8  N4  UNL     1      18.670  84.638   8.033  1.00  0.00    -0.017 NA
HETATM    9  N5  UNL     1      19.037  84.969   6.809  1.00  0.00    -0.253 N 
HETATM   10  C18 UNL     1      18.718  83.945   6.001  1.00  0.00     0.167 A 
HETATM   11  N7  UNL     1      18.857  83.728   4.665  1.00  0.00    -0.336 N 
ATOM     12  H7  UNL     1      19.285  84.447   4.080  1.00  0.00     0.168 HD
ENDROOT
BRANCH   9  13
HETATM   13  C8  UNL     1      19.666  86.202   6.393  1.00  0.00     0.187 C 
BRANCH  13  14
HETATM   14  C9  UNL     1      21.055  86.002   5.954  1.00  0.00    -0.038 A 
HETATM   15  C10 UNL     1      22.112  85.901   6.830  1.00  0.00     0.011 A 
HETATM   16  C11 UNL     1      23.400  85.711   6.335  1.00  0.00     0.031 A 
HETATM   17  C12 UNL     1      23.636  85.623   4.977  1.00  0.00     0.042 A 
HETATM   18  N6  UNL     1      24.898  85.439   4.527  1.00  0.00    -0.365 N 
HETATM   19  C16 UNL     1      22.591  85.723   4.097  1.00  0.00    -0.009 A 
HETATM   20  C13 UNL     1      25.147  85.350   3.208  1.00  0.00     0.088 A 
ATOM     21  H6  UNL     1      25.667  85.367   5.193  1.00  0.00     0.165 HD
HETATM   22  C14 UNL     1      24.123  85.445   2.281  1.00  0.00     0.018 A 
HETATM   23  C15 UNL     1      22.844  85.632   2.743  1.00  0.00     0.015 A 
HETATM   24  C17 UNL     1      21.311  85.910   4.602  1.00  0.00     0.022 A 
ENDBRANCH  13  14
ENDBRANCH   9  13
BRANCH   1  25
HETATM   25  C4  UNL     1      18.602  82.380   2.670  1.00  0.00     0.026 A 
HETATM   26  C3  UNL     1      18.150  83.170   1.636  1.00  0.00     0.125 A 
HETATM   27  N1  UNL     1      18.518  82.620   0.453  1.00  0.00    -0.301 N 
HETATM   28  N8  UNL     1      19.195  81.497   0.727  1.00  0.00    -0.309 N 
HETATM   29  C19 UNL     1      19.257  81.333   2.060  1.00  0.00     0.122 A 
ATOM     30  H8  UNL     1      19.599  80.867   0.035  1.00  0.00     0.186 HD
BRANCH  27  31
HETATM   31  C2  UNL     1      18.270  83.089  -0.896  1.00  0.00     0.174 C 
BRANCH  31  32
HETATM   32  C1  UNL     1      19.511  82.724  -1.720  1.00  0.00     0.185 C 
BRANCH  32  33
HETATM   33  O1  UNL     1      20.602  83.505  -1.370  1.00  0.00    -0.399 OA
ATOM     34  H1  UNL     1      21.376  83.264  -1.865  1.00  0.00     0.209 HD
ENDBRANCH  32  33
ENDBRANCH  31  32
ENDBRANCH  27  31
ENDBRANCH   1  25
TORSDOF 6
ENDMDL
