MODEL 6
REMARK VINA RESULT: -9.842262217      2.938      6.588
REMARK  6 active torsions:
REMARK  status: ('A' for Active; 'I' for Inactive)
REMARK    1  A    between atoms: O1_1  and  C1_3 
REMARK    2  A    between atoms: C1_3  and  C2_4 
REMARK    3  A    between atoms: C2_4  and  N1_5 
REMARK    4  A    between atoms: C4_7  and  C5_8 
REMARK    5  A    between atoms: N5_16  and  C8_17 
REMARK    6  A    between atoms: C8_17  and  C9_18 
ROOT
HETATM    1  C5  UNL     1      23.458  85.414   4.271  1.00  0.00     0.062 A 
HETATM    2  C6  UNL     1      24.272  85.527   5.378  1.00  0.00     0.120 A 
HETATM    3  N2  UNL     1      23.786  85.738   6.614  1.00  0.00    -0.346 N 
ATOM      4  H2  UNL     1      24.407  85.818   7.420  1.00  0.00     0.167 HD
HETATM    5  C7  UNL     1      22.438  85.842   6.751  1.00  0.00     0.164 A 
HETATM    6  N3  UNL     1      21.643  86.049   7.827  1.00  0.00    -0.266 N 
ATOM      7  H3  UNL     1      21.957  86.171   8.791  1.00  0.00     0.186 HD
HETATM    8  N4  UNL     1      20.389  86.067   7.412  1.00  0.00    -0.017 NA
HETATM    9  N5  UNL     1      20.330  85.879   6.106  1.00  0.00    -0.253 N 
HETATM   10  C18 UNL     1      21.589  85.735   5.662  1.00  0.00     0.167 A 
HETATM   11  N7  UNL     1      22.129  85.521   4.431  1.00  0.00    -0.336 N 
ATOM     12  H7  UNL     1      21.516  85.441   3.620  1.00  0.00     0.168 HD
ENDROOT
BRANCH   9  13
HETATM   13  C8  UNL     1      19.140  85.833   5.287  1.00  0.00     0.187 C 
BRANCH  13  14
HETATM   14  C9  UNL     1      18.827  84.470   4.831  1.00  0.00    -0.038 A 
HETATM   15  C10 UNL     1      18.508  83.445   5.694  1.00  0.00     0.011 A 
HETATM   16  C11 UNL     1      18.223  82.181   5.183  1.00  0.00     0.031 A 
HETATM   17  C12 UNL     1      18.256  81.936   3.824  1.00  0.00     0.042 A 
HETATM   18  N6  UNL     1      17.975  80.698   3.360  1.00  0.00    -0.365 N 
HETATM   19  C16 UNL     1      18.573  82.950   2.958  1.00  0.00    -0.009 A 
HETATM   20  C13 UNL     1      18.002  80.441   2.039  1.00  0.00     0.088 A 
ATOM     21  H6  UNL     1      17.741  79.952   4.015  1.00  0.00     0.165 HD
HETATM   22  C14 UNL     1      18.316  81.433   1.127  1.00  0.00     0.018 A 
HETATM   23  C15 UNL     1      18.600  82.689   1.603  1.00  0.00     0.015 A 
HETATM   24  C17 UNL     1      18.853  84.207   3.478  1.00  0.00     0.022 A 
ENDBRANCH  13  14
ENDBRANCH   9  13
BRANCH   1  25
HETATM   25  C4  UNL     1      24.005  85.185   2.938  1.00  0.00     0.026 A 
HETATM   26  C3  UNL     1      25.112  85.762   2.355  1.00  0.00     0.125 A 
HETATM   27  N1  UNL     1      25.270  85.268   1.102  1.00  0.00    -0.301 N 
HETATM   28  N8  UNL     1      24.282  84.390   0.890  1.00  0.00    -0.309 N 
HETATM   29  C19 UNL     1      23.506  84.325   1.985  1.00  0.00     0.122 A 
ATOM     30  H8  UNL     1      24.140  83.855   0.033  1.00  0.00     0.186 HD
BRANCH  27  31
HETATM   31  C2  UNL     1      26.286  85.575   0.115  1.00  0.00     0.174 C 
BRANCH  31  32
HETATM   32  C1  UNL     1      27.180  84.333   0.008  1.00  0.00     0.185 C 
BRANCH  32  33
HETATM   33  O1  UNL     1      27.576  83.881   1.258  1.00  0.00    -0.399 OA
ATOM     34  H1  UNL     1      28.217  83.184   1.190  1.00  0.00     0.209 HD
ENDBRANCH  32  33
ENDBRANCH  31  32
ENDBRANCH  27  31
ENDBRANCH   1  25
TORSDOF 6
ENDMDL
