MODEL 4
REMARK VINA RESULT: -9.921265548      1.762      1.911
REMARK  6 active torsions:
REMARK  status: ('A' for Active; 'I' for Inactive)
REMARK    1  A    between atoms: O1_1  and  C1_3 
REMARK    2  A    between atoms: C1_3  and  C2_4 
REMARK    3  A    between atoms: C2_4  and  N1_5 
REMARK    4  A    between atoms: C4_7  and  C5_8 
REMARK    5  A    between atoms: N5_16  and  C8_17 
REMARK    6  A    between atoms: C8_17  and  C9_18 
ROOT
HETATM    1  C5  UNL     1      18.309  82.464   3.624  1.00  0.00     0.062 A 
HETATM    2  C6  UNL     1      17.824  81.330   4.239  1.00  0.00     0.120 A 
HETATM    3  N2  UNL     1      17.675  81.238   5.573  1.00  0.00    -0.346 N 
ATOM      4  H2  UNL     1      17.313  80.388   6.007  1.00  0.00     0.167 HD
HETATM    5  C7  UNL     1      18.024  82.318   6.321  1.00  0.00     0.164 A 
HETATM    6  N3  UNL     1      17.998  82.551   7.654  1.00  0.00    -0.266 N 
ATOM      7  H3  UNL     1      17.686  81.897   8.372  1.00  0.00     0.186 HD
HETATM    8  N4  UNL     1      18.449  83.776   7.863  1.00  0.00    -0.017 NA
HETATM    9  N5  UNL     1      18.768  84.354   6.720  1.00  0.00    -0.253 N 
HETATM   10  C18 UNL     1      18.515  83.474   5.738  1.00  0.00     0.167 A 
HETATM   11  N7  UNL     1      18.648  83.518   4.384  1.00  0.00    -0.336 N 
ATOM     12  H7  UNL     1      19.009  84.363   3.941  1.00  0.00     0.168 HD
ENDROOT
BRANCH   9  13
HETATM   13  C8  UNL     1      19.293  85.688   6.537  1.00  0.00     0.187 C 
BRANCH  13  14
HETATM   14  C9  UNL     1      20.713  85.683   6.154  1.00  0.00    -0.038 A 
HETATM   15  C10 UNL     1      21.739  85.707   7.073  1.00  0.00     0.011 A 
HETATM   16  C11 UNL     1      23.059  85.700   6.629  1.00  0.00     0.031 A 
HETATM   17  C12 UNL     1      23.359  85.671   5.281  1.00  0.00     0.042 A 
HETATM   18  N6  UNL     1      24.651  85.664   4.883  1.00  0.00    -0.365 N 
HETATM   19  C16 UNL     1      22.346  85.647   4.359  1.00  0.00    -0.009 A 
HETATM   20  C13 UNL     1      24.962  85.636   3.574  1.00  0.00     0.088 A 
ATOM     21  H6  UNL     1      25.396  85.682   5.580  1.00  0.00     0.165 HD
HETATM   22  C14 UNL     1      23.972  85.612   2.607  1.00  0.00     0.018 A 
HETATM   23  C15 UNL     1      22.662  85.618   3.016  1.00  0.00     0.015 A 
HETATM   24  C17 UNL     1      21.032  85.653   4.813  1.00  0.00     0.022 A 
ENDBRANCH  13  14
ENDBRANCH   9  13
BRANCH   1  25
HETATM   25  C4  UNL     1      18.463  82.543   2.176  1.00  0.00     0.026 A 
HETATM   26  C3  UNL     1      17.769  81.860   1.201  1.00  0.00     0.125 A 
HETATM   27  N1  UNL     1      18.227  82.228  -0.021  1.00  0.00    -0.301 N 
HETATM   28  N8  UNL     1      19.196  83.131   0.171  1.00  0.00    -0.309 N 
HETATM   29  C19 UNL     1      19.356  83.336   1.490  1.00  0.00     0.122 A 
ATOM     30  H8  UNL     1      19.730  83.592  -0.567  1.00  0.00     0.186 HD
BRANCH  27  31
HETATM   31  C2  UNL     1      17.804  81.782  -1.333  1.00  0.00     0.174 C 
BRANCH  31  32
HETATM   32  C1  UNL     1      17.094  82.972  -1.991  1.00  0.00     0.185 C 
BRANCH  32  33
HETATM   33  O1  UNL     1      16.381  83.716  -1.064  1.00  0.00    -0.399 OA
ATOM     34  H1  UNL     1      16.056  84.525  -1.441  1.00  0.00     0.209 HD
ENDBRANCH  32  33
ENDBRANCH  31  32
ENDBRANCH  27  31
ENDBRANCH   1  25
TORSDOF 6
ENDMDL
