MODEL 1
REMARK VINA RESULT: -10.631083809      0.000      0.000
REMARK  6 active torsions:
REMARK  status: ('A' for Active; 'I' for Inactive)
REMARK    1  A    between atoms: O1_1  and  C1_3 
REMARK    2  A    between atoms: C1_3  and  C2_4 
REMARK    3  A    between atoms: C2_4  and  N1_5 
REMARK    4  A    between atoms: C4_7  and  C5_8 
REMARK    5  A    between atoms: N5_16  and  C8_17 
REMARK    6  A    between atoms: C8_17  and  C9_18 
ROOT
HETATM    1  C5  UNL     1      18.342  82.162   4.634  1.00  0.00     0.062 A 
HETATM    2  C6  UNL     1      17.796  81.368   5.620  1.00  0.00     0.120 A 
HETATM    3  N2  UNL     1      17.633  81.796   6.885  1.00  0.00    -0.346 N 
ATOM      4  H2  UNL     1      17.226  81.191   7.599  1.00  0.00     0.167 HD
HETATM    5  C7  UNL     1      18.029  83.063   7.176  1.00  0.00     0.164 A 
HETATM    6  N3  UNL     1      18.004  83.786   8.320  1.00  0.00    -0.266 N 
ATOM      7  H3  UNL     1      17.655  83.467   9.225  1.00  0.00     0.186 HD
HETATM    8  N4  UNL     1      18.513  84.978   8.061  1.00  0.00    -0.017 NA
HETATM    9  N5  UNL     1      18.869  85.065   6.793  1.00  0.00    -0.253 N 
HETATM   10  C18 UNL     1      18.580  83.890   6.212  1.00  0.00     0.167 A 
HETATM   11  N7  UNL     1      18.726  83.410   4.946  1.00  0.00    -0.336 N 
ATOM     12  H7  UNL     1      19.132  84.007   4.225  1.00  0.00     0.168 HD
ENDROOT
BRANCH   9  13
HETATM   13  C8  UNL     1      19.461  86.206   6.132  1.00  0.00     0.187 C 
BRANCH  13  14
HETATM   14  C9  UNL     1      20.870  85.979   5.778  1.00  0.00    -0.038 A 
HETATM   15  C10 UNL     1      21.869  85.856   6.718  1.00  0.00     0.011 A 
HETATM   16  C11 UNL     1      23.181  85.642   6.303  1.00  0.00     0.031 A 
HETATM   17  C12 UNL     1      23.500  85.553   4.962  1.00  0.00     0.042 A 
HETATM   18  N6  UNL     1      24.783  85.344   4.591  1.00  0.00    -0.365 N 
HETATM   19  C16 UNL     1      22.513  85.674   4.019  1.00  0.00    -0.009 A 
HETATM   20  C13 UNL     1      25.111  85.254   3.289  1.00  0.00     0.088 A 
ATOM     21  H6  UNL     1      25.508  85.255   5.303  1.00  0.00     0.165 HD
HETATM   22  C14 UNL     1      24.149  85.371   2.302  1.00  0.00     0.018 A 
HETATM   23  C15 UNL     1      22.848  85.582   2.684  1.00  0.00     0.015 A 
HETATM   24  C17 UNL     1      21.208  85.886   4.445  1.00  0.00     0.022 A 
ENDBRANCH  13  14
ENDBRANCH   9  13
BRANCH   1  25
HETATM   25  C4  UNL     1      18.511  81.678   3.268  1.00  0.00     0.026 A 
HETATM   26  C3  UNL     1      17.622  80.963   2.495  1.00  0.00     0.125 A 
HETATM   27  N1  UNL     1      18.176  80.714   1.283  1.00  0.00    -0.301 N 
HETATM   28  N8  UNL     1      19.397  81.263   1.282  1.00  0.00    -0.309 N 
HETATM   29  C19 UNL     1      19.621  81.849   2.470  1.00  0.00     0.122 A 
ATOM     30  H8  UNL     1      20.055  81.239   0.502  1.00  0.00     0.186 HD
BRANCH  27  31
HETATM   31  C2  UNL     1      17.623  80.001   0.148  1.00  0.00     0.174 C 
BRANCH  31  32
HETATM   32  C1  UNL     1      17.234  78.608   0.656  1.00  0.00     0.185 C 
BRANCH  32  33
HETATM   33  O1  UNL     1      17.969  77.613   0.030  1.00  0.00    -0.399 OA
ATOM     34  H1  UNL     1      17.512  76.781   0.043  1.00  0.00     0.209 HD
ENDBRANCH  32  33
ENDBRANCH  31  32
ENDBRANCH  27  31
ENDBRANCH   1  25
TORSDOF 6
ENDMDL
