MODEL 2
REMARK VINA RESULT: -10.626641008      1.529      1.746
REMARK  6 active torsions:
REMARK  status: ('A' for Active; 'I' for Inactive)
REMARK    1  A    between atoms: O1_1  and  C1_3 
REMARK    2  A    between atoms: C1_3  and  C2_4 
REMARK    3  A    between atoms: C2_4  and  N1_5 
REMARK    4  A    between atoms: C4_7  and  C5_8 
REMARK    5  A    between atoms: N5_16  and  C8_17 
REMARK    6  A    between atoms: C8_17  and  C9_18 
ROOT
HETATM    1  C5  UNL     1      18.290  82.571   4.644  1.00  0.00     0.062 A 
HETATM    2  C6  UNL     1      17.775  81.685   5.567  1.00  0.00     0.120 A 
HETATM    3  N2  UNL     1      17.736  81.955   6.884  1.00  0.00    -0.346 N 
ATOM      4  H2  UNL     1      17.349  81.285   7.549  1.00  0.00     0.167 HD
HETATM    5  C7  UNL     1      18.230  83.153   7.295  1.00  0.00     0.164 A 
HETATM    6  N3  UNL     1      18.338  83.723   8.518  1.00  0.00    -0.266 N 
ATOM      7  H3  UNL     1      18.041  83.309   9.402  1.00  0.00     0.186 HD
HETATM    8  N4  UNL     1      18.897  84.911   8.367  1.00  0.00    -0.017 NA
HETATM    9  N5  UNL     1      19.158  85.142   7.093  1.00  0.00    -0.253 N 
HETATM   10  C18 UNL     1      18.755  84.067   6.398  1.00  0.00     0.167 A 
HETATM   11  N7  UNL     1      18.772  83.747   5.075  1.00  0.00    -0.336 N 
ATOM     12  H7  UNL     1      19.157  84.411   4.402  1.00  0.00     0.168 HD
ENDROOT
BRANCH   9  13
HETATM   13  C8  UNL     1      19.766  86.327   6.531  1.00  0.00     0.187 C 
BRANCH  13  14
HETATM   14  C9  UNL     1      21.135  86.082   6.054  1.00  0.00    -0.038 A 
HETATM   15  C10 UNL     1      22.215  85.966   6.900  1.00  0.00     0.011 A 
HETATM   16  C11 UNL     1      23.482  85.733   6.370  1.00  0.00     0.031 A 
HETATM   17  C12 UNL     1      23.675  85.617   5.007  1.00  0.00     0.042 A 
HETATM   18  N6  UNL     1      24.917  85.391   4.524  1.00  0.00    -0.365 N 
HETATM   19  C16 UNL     1      22.607  85.731   4.157  1.00  0.00    -0.009 A 
HETATM   20  C13 UNL     1      25.124  85.275   3.199  1.00  0.00     0.088 A 
ATOM     21  H6  UNL     1      25.704  85.308   5.168  1.00  0.00     0.165 HD
HETATM   22  C14 UNL     1      24.075  85.384   2.302  1.00  0.00     0.018 A 
HETATM   23  C15 UNL     1      22.816  85.612   2.798  1.00  0.00     0.015 A 
HETATM   24  C17 UNL     1      21.347  85.962   4.697  1.00  0.00     0.022 A 
ENDBRANCH  13  14
ENDBRANCH   9  13
BRANCH   1  25
HETATM   25  C4  UNL     1      18.323  82.258   3.219  1.00  0.00     0.026 A 
HETATM   26  C3  UNL     1      18.638  83.089   2.166  1.00  0.00     0.125 A 
HETATM   27  N1  UNL     1      18.545  82.398   1.003  1.00  0.00    -0.301 N 
HETATM   28  N8  UNL     1      18.178  81.148   1.309  1.00  0.00    -0.309 N 
HETATM   29  C19 UNL     1      18.038  81.041   2.641  1.00  0.00     0.122 A 
ATOM     30  H8  UNL     1      18.029  80.394   0.637  1.00  0.00     0.186 HD
BRANCH  27  31
HETATM   31  C2  UNL     1      18.782  82.848  -0.354  1.00  0.00     0.174 C 
BRANCH  31  32
HETATM   32  C1  UNL     1      17.408  82.941  -1.029  1.00  0.00     0.185 C 
BRANCH  32  33
HETATM   33  O1  UNL     1      16.492  83.607  -0.229  1.00  0.00    -0.399 OA
ATOM     34  H1  UNL     1      15.772  83.957  -0.740  1.00  0.00     0.209 HD
ENDBRANCH  32  33
ENDBRANCH  31  32
ENDBRANCH  27  31
ENDBRANCH   1  25
TORSDOF 6
ENDMDL
