MODEL 8
REMARK VINA RESULT: -9.530708889      3.371      7.282
REMARK  6 active torsions:
REMARK  status: ('A' for Active; 'I' for Inactive)
REMARK    1  A    between atoms: O1_1  and  C1_3 
REMARK    2  A    between atoms: C1_3  and  C2_4 
REMARK    3  A    between atoms: C2_4  and  N1_5 
REMARK    4  A    between atoms: C4_7  and  C5_8 
REMARK    5  A    between atoms: N5_16  and  C8_17 
REMARK    6  A    between atoms: C8_17  and  C9_18 
ROOT
HETATM    1  C5  UNL     1      23.935  85.185   2.843  1.00  0.00     0.062 A 
HETATM    2  C6  UNL     1      24.566  85.438   4.043  1.00  0.00     0.120 A 
HETATM    3  N2  UNL     1      23.889  85.732   5.167  1.00  0.00    -0.346 N 
ATOM      4  H2  UNL     1      24.376  85.915   6.045  1.00  0.00     0.167 HD
HETATM    5  C7  UNL     1      22.533  85.776   5.092  1.00  0.00     0.164 A 
HETATM    6  N3  UNL     1      21.576  86.035   6.014  1.00  0.00    -0.266 N 
ATOM      7  H3  UNL     1      21.734  86.257   6.997  1.00  0.00     0.186 HD
HETATM    8  N4  UNL     1      20.400  85.948   5.417  1.00  0.00    -0.017 NA
HETATM    9  N5  UNL     1      20.548  85.643   4.141  1.00  0.00    -0.253 N 
HETATM   10  C18 UNL     1      21.865  85.527   3.905  1.00  0.00     0.167 A 
HETATM   11  N7  UNL     1      22.594  85.235   2.793  1.00  0.00    -0.336 N 
ATOM     12  H7  UNL     1      22.116  85.051   1.911  1.00  0.00     0.168 HD
ENDROOT
BRANCH   9  13
HETATM   13  C8  UNL     1      19.500  85.462   3.163  1.00  0.00     0.187 C 
BRANCH  13  14
HETATM   14  C9  UNL     1      19.006  84.077   3.122  1.00  0.00    -0.038 A 
HETATM   15  C10 UNL     1      18.775  83.329   4.255  1.00  0.00     0.011 A 
HETATM   16  C11 UNL     1      18.306  82.023   4.132  1.00  0.00     0.031 A 
HETATM   17  C12 UNL     1      18.071  81.463   2.892  1.00  0.00     0.042 A 
HETATM   18  N6  UNL     1      17.616  80.192   2.806  1.00  0.00    -0.365 N 
HETATM   19  C16 UNL     1      18.298  82.199   1.759  1.00  0.00    -0.009 A 
HETATM   20  C13 UNL     1      17.380  79.630   1.606  1.00  0.00     0.088 A 
ATOM     21  H6  UNL     1      17.451  79.655   3.658  1.00  0.00     0.165 HD
HETATM   22  C14 UNL     1      17.596  80.335   0.435  1.00  0.00     0.018 A 
HETATM   23  C15 UNL     1      18.057  81.625   0.527  1.00  0.00     0.015 A 
HETATM   24  C17 UNL     1      18.764  83.501   1.893  1.00  0.00     0.022 A 
ENDBRANCH  13  14
ENDBRANCH   9  13
BRANCH   1  25
HETATM   25  C4  UNL     1      24.688  84.868   1.634  1.00  0.00     0.026 A 
HETATM   26  C3  UNL     1      25.658  85.619   1.007  1.00  0.00     0.125 A 
HETATM   27  N1  UNL     1      26.103  84.956  -0.090  1.00  0.00    -0.301 N 
HETATM   28  N8  UNL     1      25.429  83.801  -0.159  1.00  0.00    -0.309 N 
HETATM   29  C19 UNL     1      24.569  83.727   0.871  1.00  0.00     0.122 A 
ATOM     30  H8  UNL     1      25.549  83.089  -0.880  1.00  0.00     0.186 HD
BRANCH  27  31
HETATM   31  C2  UNL     1      27.112  85.347  -1.054  1.00  0.00     0.174 C 
BRANCH  31  32
HETATM   32  C1  UNL     1      28.130  84.201  -1.109  1.00  0.00     0.185 C 
BRANCH  32  33
HETATM   33  O1  UNL     1      28.477  83.765   0.160  1.00  0.00    -0.399 OA
ATOM     34  H1  UNL     1      27.890  84.113   0.821  1.00  0.00     0.209 HD
ENDBRANCH  32  33
ENDBRANCH  31  32
ENDBRANCH  27  31
ENDBRANCH   1  25
TORSDOF 6
ENDMDL
