MODEL 20
REMARK VINA RESULT: -10.133574720      3.127      4.436
REMARK  13 active torsions:
REMARK  status: ('A' for Active; 'I' for Inactive)
REMARK    1  A    between atoms: C3_4  and  O2_5 
REMARK    2  A    between atoms: O2_5  and  P1_6 
REMARK    3  A    between atoms: P1_6  and  O5_9 
REMARK    4  A    between atoms: O5_9  and  P2_10 
REMARK    5  A    between atoms: P2_10  and  O8_13 
REMARK    6  A    between atoms: O8_13  and  C4_14 
REMARK    7  A    between atoms: C4_14  and  C5_15 
REMARK    8  A    between atoms: C6_17  and  N1_18 
REMARK    9  A    between atoms: C12_32  and  O11_33 
REMARK   10  A    between atoms: C13_35  and  O12_36 
REMARK   11  A    between atoms: C14_38  and  O13_39 
REMARK   12  A    between atoms: C15_41  and  O14_42 
REMARK   13  A    between atoms: C16_44  and  O15_45 
ROOT
HETATM    1  C5  UNL     1      11.576   6.380  18.803  1.00  0.00     0.180 C 
HETATM    2  O9  UNL     1      12.201   7.345  18.038  1.00  0.00    -0.353 OA
HETATM    3  C6  UNL     1      12.288   8.441  18.844  1.00  0.00     0.262 C 
HETATM    4  C12 UNL     1      10.835   8.544  19.328  1.00  0.00     0.198 C 
HETATM    5  C13 UNL     1      10.706   7.092  19.812  1.00  0.00     0.182 C 
ENDROOT
BRANCH   1   6
HETATM    6  C4  UNL     1      10.641   5.519  17.957  1.00  0.00     0.216 C 
BRANCH   6   7
HETATM    7  O8  UNL     1      10.038   4.556  18.765  1.00  0.00    -0.287 OA
BRANCH   7   8
HETATM    8  P2  UNL     1       8.374   4.733  18.789  1.00  0.00     0.417 P 
HETATM    9  O6  UNL     1       7.667   3.642  18.026  1.00  0.00    -0.624 OA
HETATM   10  O7  UNL     1       7.759   4.734  20.368  1.00  0.00    -0.624 OA
BRANCH   8  11
HETATM   11  O5  UNL     1       8.004   6.254  18.123  1.00  0.00    -0.180 OA
BRANCH  11  12
HETATM   12  P1  UNL     1       7.354   5.983  16.597  1.00  0.00     0.420 P 
HETATM   13  O3  UNL     1       6.330   4.866  16.600  1.00  0.00    -0.624 OA
HETATM   14  O4  UNL     1       8.646   5.518  15.581  1.00  0.00    -0.624 OA
BRANCH  12  15
HETATM   15  O2  UNL     1       6.596   7.375  15.987  1.00  0.00    -0.255 OA
BRANCH  15  16
HETATM   16  C3  UNL     1       5.228   7.304  16.247  1.00  0.00     0.304 C 
HETATM   17  O1  UNL     1       4.989   8.129  17.346  1.00  0.00    -0.350 OA
HETATM   18  C2  UNL     1       3.636   8.284  17.612  1.00  0.00     0.152 C 
HETATM   19  C1  UNL     1       3.515   9.013  18.932  1.00  0.00     0.042 C 
HETATM   20  C16 UNL     1       2.972   9.061  16.496  1.00  0.00     0.178 C 
HETATM   21  C15 UNL     1       3.939   9.156  15.329  1.00  0.00     0.183 C 
HETATM   22  C14 UNL     1       4.401   7.724  15.048  1.00  0.00     0.205 C 
BRANCH  20  23
HETATM   23  O15 UNL     1       2.596  10.330  16.947  1.00  0.00    -0.390 OA
ATOM     24  H15 UNL     1       1.652  10.428  16.903  1.00  0.00     0.210 HD
ENDBRANCH  20  23
BRANCH  21  25
HETATM   25  O14 UNL     1       5.077   9.855  15.740  1.00  0.00    -0.390 OA
ATOM     26  H14 UNL     1       4.788  10.739  15.928  1.00  0.00     0.210 HD
ENDBRANCH  21  25
BRANCH  22  27
HETATM   27  O13 UNL     1       3.239   6.950  14.955  1.00  0.00    -0.388 OA
ATOM     28  H13 UNL     1       2.670   7.280  14.269  1.00  0.00     0.210 HD
ENDBRANCH  22  27
ENDBRANCH  15  16
ENDBRANCH  12  15
ENDBRANCH  11  12
ENDBRANCH   8  11
ENDBRANCH   7   8
ENDBRANCH   6   7
ENDBRANCH   1   6
BRANCH   5  29
HETATM   29  O12 UNL     1      11.229   6.998  21.100  1.00  0.00    -0.390 OA
ATOM     30  H12 UNL     1      11.600   7.824  21.390  1.00  0.00     0.210 HD
ENDBRANCH   5  29
BRANCH   3  31
HETATM   31  N1  UNL     1      12.740   9.640  18.228  1.00  0.00    -0.297 N 
HETATM   32  C7  UNL     1      12.520  10.871  18.730  1.00  0.00     0.188 A 
HETATM   33  N2  UNL     1      13.062  11.813  17.938  1.00  0.00    -0.345 N 
HETATM   34  C8  UNL     1      13.641  11.195  16.911  1.00  0.00     0.146 A 
ATOM     35  H2  UNL     1      13.034  12.820  18.096  1.00  0.00     0.167 HD
HETATM   36  C9  UNL     1      14.344  11.651  15.798  1.00  0.00     0.278 A 
HETATM   37  C11 UNL     1      13.436   9.844  17.100  1.00  0.00     0.146 A 
HETATM   38  O10 UNL     1      14.517  12.872  15.648  1.00  0.00    -0.265 OA
HETATM   39  N3  UNL     1      14.791  10.702  14.954  1.00  0.00    -0.295 N 
HETATM   40  C10 UNL     1      14.576   9.380  15.162  1.00  0.00     0.196 A 
ATOM     41  H3  UNL     1      15.312  10.989  14.126  1.00  0.00     0.171 HD
HETATM   42  N4  UNL     1      15.109   8.474  14.181  1.00  0.00    -0.063 NA
HETATM   43  N5  UNL     1      13.897   8.923  16.236  1.00  0.00    -0.314 N 
ATOM     44  H5  UNL     1      13.740   7.927  16.384  1.00  0.00     0.170 HD
ENDBRANCH   3  31
BRANCH   4  45
HETATM   45  O11 UNL     1      10.698   9.440  20.356  1.00  0.00    -0.388 OA
ATOM     46  H11 UNL     1      10.016   9.183  20.964  1.00  0.00     0.210 HD
ENDBRANCH   4  45
TORSDOF 13
ENDMDL
