MODEL 18
REMARK VINA RESULT: -10.160155999      3.054      4.580
REMARK  13 active torsions:
REMARK  status: ('A' for Active; 'I' for Inactive)
REMARK    1  A    between atoms: C3_4  and  O2_5 
REMARK    2  A    between atoms: O2_5  and  P1_6 
REMARK    3  A    between atoms: P1_6  and  O5_9 
REMARK    4  A    between atoms: O5_9  and  P2_10 
REMARK    5  A    between atoms: P2_10  and  O8_13 
REMARK    6  A    between atoms: O8_13  and  C4_14 
REMARK    7  A    between atoms: C4_14  and  C5_15 
REMARK    8  A    between atoms: C6_17  and  N1_18 
REMARK    9  A    between atoms: C12_32  and  O11_33 
REMARK   10  A    between atoms: C13_35  and  O12_36 
REMARK   11  A    between atoms: C14_38  and  O13_39 
REMARK   12  A    between atoms: C15_41  and  O14_42 
REMARK   13  A    between atoms: C16_44  and  O15_45 
ROOT
HETATM    1  C5  UNL     1      14.684   9.150  21.638  1.00  0.00     0.180 C 
HETATM    2  O9  UNL     1      14.960  10.141  20.716  1.00  0.00    -0.353 OA
HETATM    3  C6  UNL     1      15.479  11.171  21.444  1.00  0.00     0.262 C 
HETATM    4  C12 UNL     1      14.416  11.298  22.543  1.00  0.00     0.198 C 
HETATM    5  C13 UNL     1      14.418   9.821  22.964  1.00  0.00     0.182 C 
ENDROOT
BRANCH   1   6
HETATM    6  C4  UNL     1      13.408   8.392  21.274  1.00  0.00     0.216 C 
BRANCH   6   7
HETATM    7  O8  UNL     1      12.300   9.195  21.539  1.00  0.00    -0.287 OA
BRANCH   7   8
HETATM    8  P2  UNL     1      11.363   9.417  20.170  1.00  0.00     0.417 P 
HETATM    9  O6  UNL     1       9.886   9.353  20.466  1.00  0.00    -0.624 OA
HETATM   10  O7  UNL     1      11.672  10.907  19.425  1.00  0.00    -0.624 OA
BRANCH   8  11
HETATM   11  O5  UNL     1      11.792   8.214  19.047  1.00  0.00    -0.180 OA
BRANCH  11  12
HETATM   12  P1  UNL     1      10.770   6.905  19.306  1.00  0.00     0.420 P 
HETATM   13  O3  UNL     1      10.599   6.595  20.780  1.00  0.00    -0.624 OA
HETATM   14  O4  UNL     1      11.496   5.551  18.559  1.00  0.00    -0.624 OA
BRANCH  12  15
HETATM   15  O2  UNL     1       9.227   7.181  18.655  1.00  0.00    -0.255 OA
BRANCH  15  16
HETATM   16  C3  UNL     1       8.730   5.990  18.128  1.00  0.00     0.304 C 
HETATM   17  O1  UNL     1       7.354   5.996  18.359  1.00  0.00    -0.350 OA
HETATM   18  C2  UNL     1       6.705   4.940  17.735  1.00  0.00     0.152 C 
HETATM   19  C1  UNL     1       5.275   4.934  18.229  1.00  0.00     0.042 C 
HETATM   20  C16 UNL     1       6.763   5.108  16.232  1.00  0.00     0.178 C 
HETATM   21  C15 UNL     1       7.756   6.210  15.906  1.00  0.00     0.183 C 
HETATM   22  C14 UNL     1       9.043   5.850  16.651  1.00  0.00     0.205 C 
BRANCH  20  23
HETATM   23  O15 UNL     1       5.493   5.405  15.729  1.00  0.00    -0.390 OA
ATOM     24  H15 UNL     1       5.564   5.784  14.861  1.00  0.00     0.210 HD
ENDBRANCH  20  23
BRANCH  21  25
HETATM   25  O14 UNL     1       7.306   7.407  16.469  1.00  0.00    -0.390 OA
ATOM     26  H14 UNL     1       7.083   7.972  15.739  1.00  0.00     0.210 HD
ENDBRANCH  21  25
BRANCH  22  27
HETATM   27  O13 UNL     1       9.320   4.516  16.330  1.00  0.00    -0.388 OA
ATOM     28  H13 UNL     1       9.266   3.967  17.104  1.00  0.00     0.210 HD
ENDBRANCH  22  27
ENDBRANCH  15  16
ENDBRANCH  12  15
ENDBRANCH  11  12
ENDBRANCH   8  11
ENDBRANCH   7   8
ENDBRANCH   6   7
ENDBRANCH   1   6
BRANCH   5  29
HETATM   29  O12 UNL     1      15.460   9.612  23.865  1.00  0.00    -0.390 OA
ATOM     30  H12 UNL     1      15.228   9.894  24.743  1.00  0.00     0.210 HD
ENDBRANCH   5  29
BRANCH   3  31
HETATM   31  N1  UNL     1      15.687  12.392  20.745  1.00  0.00    -0.297 N 
HETATM   32  C7  UNL     1      14.692  13.218  20.366  1.00  0.00     0.188 A 
HETATM   33  N2  UNL     1      15.182  14.294  19.726  1.00  0.00    -0.345 N 
HETATM   34  C8  UNL     1      16.507  14.171  19.684  1.00  0.00     0.146 A 
ATOM     35  H2  UNL     1      14.637  15.065  19.340  1.00  0.00     0.167 HD
HETATM   36  C9  UNL     1      17.522  14.966  19.156  1.00  0.00     0.278 A 
HETATM   37  C11 UNL     1      16.811  12.985  20.321  1.00  0.00     0.146 A 
HETATM   38  O10 UNL     1      17.225  16.030  18.587  1.00  0.00    -0.265 OA
HETATM   39  N3  UNL     1      18.776  14.502  19.312  1.00  0.00    -0.295 N 
HETATM   40  C10 UNL     1      19.049  13.333  19.941  1.00  0.00     0.196 A 
ATOM     41  H3  UNL     1      19.551  15.052  18.942  1.00  0.00     0.171 HD
HETATM   42  N4  UNL     1      20.433  12.956  20.038  1.00  0.00    -0.063 NA
HETATM   43  N5  UNL     1      18.077  12.552  20.458  1.00  0.00    -0.314 N 
ATOM     44  H5  UNL     1      18.291  11.674  20.931  1.00  0.00     0.170 HD
ENDBRANCH   3  31
BRANCH   4  45
HETATM   45  O11 UNL     1      14.824  12.122  23.560  1.00  0.00    -0.388 OA
ATOM     46  H11 UNL     1      15.769  12.128  23.655  1.00  0.00     0.210 HD
ENDBRANCH   4  45
TORSDOF 13
ENDMDL
