MODEL 3
REMARK VINA RESULT: -10.644603500      1.444      2.254
REMARK  13 active torsions:
REMARK  status: ('A' for Active; 'I' for Inactive)
REMARK    1  A    between atoms: C3_4  and  O2_5 
REMARK    2  A    between atoms: O2_5  and  P1_6 
REMARK    3  A    between atoms: P1_6  and  O5_9 
REMARK    4  A    between atoms: O5_9  and  P2_10 
REMARK    5  A    between atoms: P2_10  and  O8_13 
REMARK    6  A    between atoms: O8_13  and  C4_14 
REMARK    7  A    between atoms: C4_14  and  C5_15 
REMARK    8  A    between atoms: C6_17  and  N1_18 
REMARK    9  A    between atoms: C12_32  and  O11_33 
REMARK   10  A    between atoms: C13_35  and  O12_36 
REMARK   11  A    between atoms: C14_38  and  O13_39 
REMARK   12  A    between atoms: C15_41  and  O14_42 
REMARK   13  A    between atoms: C16_44  and  O15_45 
ROOT
HETATM    1  C5  UNL     1      10.614   8.821  19.362  1.00  0.00     0.180 C 
HETATM    2  O9  UNL     1      11.028   8.477  20.634  1.00  0.00    -0.353 OA
HETATM    3  C6  UNL     1      12.224   9.110  20.803  1.00  0.00     0.262 C 
HETATM    4  C12 UNL     1      12.950   8.676  19.522  1.00  0.00     0.198 C 
HETATM    5  C13 UNL     1      11.849   9.104  18.541  1.00  0.00     0.182 C 
ENDROOT
BRANCH   1   6
HETATM    6  C4  UNL     1       9.897   7.657  18.679  1.00  0.00     0.216 C 
BRANCH   6   7
HETATM    7  O8  UNL     1      10.097   6.491  19.417  1.00  0.00    -0.287 OA
BRANCH   7   8
HETATM    8  P2  UNL     1      10.349   5.171  18.419  1.00  0.00     0.417 P 
HETATM    9  O6  UNL     1       9.859   5.409  17.013  1.00  0.00    -0.624 OA
HETATM   10  O7  UNL     1      11.987   4.751  18.325  1.00  0.00    -0.624 OA
BRANCH   8  11
HETATM   11  O5  UNL     1       9.545   3.839  19.107  1.00  0.00    -0.180 OA
BRANCH  11  12
HETATM   12  P1  UNL     1       7.949   4.301  19.365  1.00  0.00     0.420 P 
HETATM   13  O3  UNL     1       7.692   4.690  20.807  1.00  0.00    -0.624 OA
HETATM   14  O4  UNL     1       6.974   2.949  18.996  1.00  0.00    -0.624 OA
BRANCH  12  15
HETATM   15  O2  UNL     1       7.519   5.623  18.390  1.00  0.00    -0.255 OA
BRANCH  15  16
HETATM   16  C3  UNL     1       6.308   5.351  17.755  1.00  0.00     0.304 C 
HETATM   17  O1  UNL     1       5.429   6.370  18.122  1.00  0.00    -0.350 OA
HETATM   18  C2  UNL     1       4.229   6.314  17.425  1.00  0.00     0.152 C 
HETATM   19  C1  UNL     1       3.295   7.324  18.054  1.00  0.00     0.042 C 
HETATM   20  C16 UNL     1       4.463   6.623  15.962  1.00  0.00     0.178 C 
HETATM   21  C15 UNL     1       5.957   6.601  15.694  1.00  0.00     0.183 C 
HETATM   22  C14 UNL     1       6.464   5.268  16.249  1.00  0.00     0.205 C 
BRANCH  20  23
HETATM   23  O15 UNL     1       3.908   7.863  15.634  1.00  0.00    -0.390 OA
ATOM     24  H15 UNL     1       4.116   8.090  14.736  1.00  0.00     0.210 HD
ENDBRANCH  20  23
BRANCH  21  25
HETATM   25  O14 UNL     1       6.570   7.596  16.460  1.00  0.00    -0.390 OA
ATOM     26  H14 UNL     1       7.504   7.444  16.388  1.00  0.00     0.210 HD
ENDBRANCH  21  25
BRANCH  22  27
HETATM   27  O13 UNL     1       5.626   4.280  15.720  1.00  0.00    -0.388 OA
ATOM     28  H13 UNL     1       5.530   4.390  14.781  1.00  0.00     0.210 HD
ENDBRANCH  22  27
ENDBRANCH  15  16
ENDBRANCH  12  15
ENDBRANCH  11  12
ENDBRANCH   8  11
ENDBRANCH   7   8
ENDBRANCH   6   7
ENDBRANCH   1   6
BRANCH   5  29
HETATM   29  O12 UNL     1      11.988  10.465  18.273  1.00  0.00    -0.390 OA
ATOM     30  H12 UNL     1      12.895  10.701  18.115  1.00  0.00     0.210 HD
ENDBRANCH   5  29
BRANCH   3  31
HETATM   31  N1  UNL     1      12.952   8.775  21.979  1.00  0.00    -0.297 N 
HETATM   32  C7  UNL     1      12.542   7.862  22.880  1.00  0.00     0.188 A 
HETATM   33  N2  UNL     1      13.427   7.753  23.886  1.00  0.00    -0.345 N 
HETATM   34  C8  UNL     1      14.424   8.601  23.642  1.00  0.00     0.146 A 
ATOM     35  H2  UNL     1      13.349   7.133  24.692  1.00  0.00     0.167 HD
HETATM   36  C9  UNL     1      15.596   8.916  24.325  1.00  0.00     0.278 A 
HETATM   37  C11 UNL     1      14.119   9.232  22.453  1.00  0.00     0.146 A 
HETATM   38  O10 UNL     1      15.850   8.335  25.393  1.00  0.00    -0.265 OA
HETATM   39  N3  UNL     1      16.379   9.849  23.752  1.00  0.00    -0.295 N 
HETATM   40  C10 UNL     1      16.058  10.456  22.583  1.00  0.00     0.196 A 
ATOM     41  H3  UNL     1      17.249  10.111  24.217  1.00  0.00     0.171 HD
HETATM   42  N4  UNL     1      16.985  11.435  22.084  1.00  0.00    -0.063 NA
HETATM   43  N5  UNL     1      14.925  10.161  21.910  1.00  0.00    -0.314 N 
ATOM     44  H5  UNL     1      14.692  10.622  21.031  1.00  0.00     0.170 HD
ENDBRANCH   3  31
BRANCH   4  45
HETATM   45  O11 UNL     1      14.111   9.379  19.327  1.00  0.00    -0.388 OA
ATOM     46  H11 UNL     1      14.568   9.545  20.143  1.00  0.00     0.210 HD
ENDBRANCH   4  45
TORSDOF 13
ENDMDL
