MODEL 2
REMARK VINA RESULT: -10.651438331      1.687      2.600
REMARK  13 active torsions:
REMARK  status: ('A' for Active; 'I' for Inactive)
REMARK    1  A    between atoms: C3_4  and  O2_5 
REMARK    2  A    between atoms: O2_5  and  P1_6 
REMARK    3  A    between atoms: P1_6  and  O5_9 
REMARK    4  A    between atoms: O5_9  and  P2_10 
REMARK    5  A    between atoms: P2_10  and  O8_13 
REMARK    6  A    between atoms: O8_13  and  C4_14 
REMARK    7  A    between atoms: C4_14  and  C5_15 
REMARK    8  A    between atoms: C6_17  and  N1_18 
REMARK    9  A    between atoms: C12_32  and  O11_33 
REMARK   10  A    between atoms: C13_35  and  O12_36 
REMARK   11  A    between atoms: C14_38  and  O13_39 
REMARK   12  A    between atoms: C15_41  and  O14_42 
REMARK   13  A    between atoms: C16_44  and  O15_45 
ROOT
HETATM    1  C5  UNL     1      10.599   8.528  19.262  1.00  0.00     0.180 C 
HETATM    2  O9  UNL     1      11.018   8.222  20.542  1.00  0.00    -0.353 OA
HETATM    3  C6  UNL     1      12.172   8.928  20.719  1.00  0.00     0.262 C 
HETATM    4  C12 UNL     1      12.938   8.528  19.451  1.00  0.00     0.198 C 
HETATM    5  C13 UNL     1      11.825   8.879  18.453  1.00  0.00     0.182 C 
ENDROOT
BRANCH   1   6
HETATM    6  C4  UNL     1       9.964   7.317  18.581  1.00  0.00     0.216 C 
BRANCH   6   7
HETATM    7  O8  UNL     1       9.777   6.303  19.519  1.00  0.00    -0.287 OA
BRANCH   7   8
HETATM    8  P2  UNL     1       8.858   5.052  18.893  1.00  0.00     0.417 P 
HETATM    9  O6  UNL     1       9.122   4.820  17.427  1.00  0.00    -0.624 OA
HETATM   10  O7  UNL     1       9.141   3.591  19.701  1.00  0.00    -0.624 OA
BRANCH   8  11
HETATM   11  O5  UNL     1       7.219   5.436  19.144  1.00  0.00    -0.180 OA
BRANCH  11  12
HETATM   12  P1  UNL     1       6.320   4.499  18.077  1.00  0.00     0.420 P 
HETATM   13  O3  UNL     1       4.832   4.582  18.355  1.00  0.00    -0.624 OA
HETATM   14  O4  UNL     1       6.814   2.879  18.300  1.00  0.00    -0.624 OA
BRANCH  12  15
HETATM   15  O2  UNL     1       6.570   4.976  16.466  1.00  0.00    -0.255 OA
BRANCH  15  16
HETATM   16  C3  UNL     1       5.448   5.667  16.013  1.00  0.00     0.304 C 
HETATM   17  O1  UNL     1       5.282   6.759  16.866  1.00  0.00    -0.350 OA
HETATM   18  C2  UNL     1       4.294   7.630  16.428  1.00  0.00     0.152 C 
HETATM   19  C1  UNL     1       4.065   8.642  17.529  1.00  0.00     0.042 C 
HETATM   20  C16 UNL     1       4.729   8.308  15.146  1.00  0.00     0.178 C 
HETATM   21  C15 UNL     1       5.960   7.596  14.615  1.00  0.00     0.183 C 
HETATM   22  C14 UNL     1       5.600   6.109  14.570  1.00  0.00     0.205 C 
BRANCH  20  23
HETATM   23  O15 UNL     1       4.987   9.662  15.377  1.00  0.00    -0.390 OA
ATOM     24  H15 UNL     1       5.840   9.898  15.032  1.00  0.00     0.210 HD
ENDBRANCH  20  23
BRANCH  21  25
HETATM   25  O14 UNL     1       6.991   7.714  15.550  1.00  0.00    -0.390 OA
ATOM     26  H14 UNL     1       6.991   8.623  15.827  1.00  0.00     0.210 HD
ENDBRANCH  21  25
BRANCH  22  27
HETATM   27  O13 UNL     1       4.376   6.024  13.897  1.00  0.00    -0.388 OA
ATOM     28  H13 UNL     1       4.303   6.713  13.246  1.00  0.00     0.210 HD
ENDBRANCH  22  27
ENDBRANCH  15  16
ENDBRANCH  12  15
ENDBRANCH  11  12
ENDBRANCH   8  11
ENDBRANCH   7   8
ENDBRANCH   6   7
ENDBRANCH   1   6
BRANCH   5  29
HETATM   29  O12 UNL     1      11.885  10.243  18.173  1.00  0.00    -0.390 OA
ATOM     30  H12 UNL     1      12.615  10.661  18.615  1.00  0.00     0.210 HD
ENDBRANCH   5  29
BRANCH   3  31
HETATM   31  N1  UNL     1      12.903   8.649  21.906  1.00  0.00    -0.297 N 
HETATM   32  C7  UNL     1      12.558   7.696  22.794  1.00  0.00     0.188 A 
HETATM   33  N2  UNL     1      13.430   7.657  23.816  1.00  0.00    -0.345 N 
HETATM   34  C8  UNL     1      14.353   8.591  23.597  1.00  0.00     0.146 A 
ATOM     35  H2  UNL     1      13.391   7.026  24.616  1.00  0.00     0.167 HD
HETATM   36  C9  UNL     1      15.481   9.002  24.304  1.00  0.00     0.278 A 
HETATM   37  C11 UNL     1      14.017   9.202  22.406  1.00  0.00     0.146 A 
HETATM   38  O10 UNL     1      15.764   8.437  25.374  1.00  0.00    -0.265 OA
HETATM   39  N3  UNL     1      16.189  10.005  23.753  1.00  0.00    -0.295 N 
HETATM   40  C10 UNL     1      15.839  10.590  22.582  1.00  0.00     0.196 A 
ATOM     41  H3  UNL     1      17.024  10.337  24.236  1.00  0.00     0.171 HD
HETATM   42  N4  UNL     1      16.685  11.650  22.107  1.00  0.00    -0.063 NA
HETATM   43  N5  UNL     1      14.749  10.203  21.885  1.00  0.00    -0.314 N 
ATOM     44  H5  UNL     1      14.492  10.648  21.004  1.00  0.00     0.170 HD
ENDBRANCH   3  31
BRANCH   4  45
HETATM   45  O11 UNL     1      14.057   9.298  19.263  1.00  0.00    -0.388 OA
ATOM     46  H11 UNL     1      14.017   9.792  18.452  1.00  0.00     0.210 HD
ENDBRANCH   4  45
TORSDOF 13
ENDMDL
