MODEL 8
REMARK VINA RESULT: -5.445864902      4.966      6.899
REMARK  8 active torsions:
REMARK  status: ('A' for Active; 'I' for Inactive)
REMARK    1  A    between atoms: N1_2  and  C1_4 
REMARK    2  A    between atoms: C4_7  and  O3_8 
REMARK    3  A    between atoms: O3_8  and  C5_9 
REMARK    4  A    between atoms: C6_11  and  C7_12 
REMARK    5  A    between atoms: C7_12  and  O5_13 
REMARK    6  A    between atoms: C8_15  and  O6_16 
REMARK    7  A    between atoms: C9_18  and  O7_19 
REMARK    8  A    between atoms: C10_21  and  O8_22 
ROOT
HETATM    1  C5  UNL     1      10.633   7.515   6.735  1.00  0.00     0.298 C 
HETATM    2  O4  UNL     1      11.841   8.099   7.134  1.00  0.00    -0.348 OA
HETATM    3  C6  UNL     1      11.791   8.462   8.451  1.00  0.00     0.179 C 
HETATM    4  C8  UNL     1      11.379   7.397   9.400  1.00  0.00     0.180 C 
HETATM    5  C9  UNL     1      10.305   6.484   8.894  1.00  0.00     0.183 C 
HETATM    6  C10 UNL     1      10.573   6.188   7.422  1.00  0.00     0.205 C 
ENDROOT
BRANCH   1   7
HETATM    7  O3  UNL     1      10.461   7.541   5.390  1.00  0.00    -0.318 OA
BRANCH   7   8
HETATM    8  C4  UNL     1       9.845   8.375   4.542  1.00  0.00     0.072 A 
HETATM    9  C3  UNL     1       9.313   7.925   3.361  1.00  0.00     0.039 A 
HETATM   10  C2  UNL     1       8.671   8.806   2.481  1.00  0.00     0.039 A 
HETATM   11  C1  UNL     1       8.575  10.127   2.804  1.00  0.00     0.103 A 
HETATM   12  C12 UNL     1       9.094  10.605   3.970  1.00  0.00     0.039 A 
HETATM   13  C11 UNL     1       9.727   9.711   4.830  1.00  0.00     0.039 A 
BRANCH  11  14
HETATM   14  N1  UNL     1       7.916  11.040   1.903  1.00  0.00    -0.116 N 
HETATM   15  O1  UNL     1       6.680  11.020   1.758  1.00  0.00    -0.532 OA
HETATM   16  O2  UNL     1       8.645  11.953   1.185  1.00  0.00    -0.532 OA
ENDBRANCH  11  14
ENDBRANCH   7   8
ENDBRANCH   1   7
BRANCH   6  17
HETATM   17  O8  UNL     1       9.703   5.291   6.883  1.00  0.00    -0.388 OA
ATOM     18  H8  UNL     1       9.699   5.247   5.933  1.00  0.00     0.210 HD
ENDBRANCH   6  17
BRANCH   3  19
HETATM   19  C7  UNL     1      13.184   8.960   8.839  1.00  0.00     0.198 C 
BRANCH  19  20
HETATM   20  O5  UNL     1      13.153   9.540  10.114  1.00  0.00    -0.398 OA
ATOM     21  H5  UNL     1      13.658  10.345  10.120  1.00  0.00     0.209 HD
ENDBRANCH  19  20
ENDBRANCH   3  19
BRANCH   5  22
HETATM   22  O7  UNL     1      10.200   5.346   9.651  1.00  0.00    -0.390 OA
ATOM     23  H7  UNL     1       9.385   5.316  10.137  1.00  0.00     0.210 HD
ENDBRANCH   5  22
BRANCH   4  24
HETATM   24  O6  UNL     1      12.477   6.666   9.893  1.00  0.00    -0.390 OA
ATOM     25  H6  UNL     1      12.211   5.864  10.327  1.00  0.00     0.210 HD
ENDBRANCH   4  24
TORSDOF 8
ENDMDL
