MODEL 5
REMARK VINA RESULT: -5.504225140      1.726      1.932
REMARK  8 active torsions:
REMARK  status: ('A' for Active; 'I' for Inactive)
REMARK    1  A    between atoms: N1_2  and  C1_4 
REMARK    2  A    between atoms: C4_7  and  O3_8 
REMARK    3  A    between atoms: O3_8  and  C5_9 
REMARK    4  A    between atoms: C6_11  and  C7_12 
REMARK    5  A    between atoms: C7_12  and  O5_13 
REMARK    6  A    between atoms: C8_15  and  O6_16 
REMARK    7  A    between atoms: C9_18  and  O7_19 
REMARK    8  A    between atoms: C10_21  and  O8_22 
ROOT
HETATM    1  C5  UNL     1       9.846   8.906   9.463  1.00  0.00     0.298 C 
HETATM    2  O4  UNL     1       8.862   7.956   9.162  1.00  0.00    -0.348 OA
HETATM    3  C6  UNL     1       9.318   7.067   8.228  1.00  0.00     0.179 C 
HETATM    4  C8  UNL     1      10.611   6.409   8.540  1.00  0.00     0.180 C 
HETATM    5  C9  UNL     1      11.622   7.291   9.206  1.00  0.00     0.183 C 
HETATM    6  C10 UNL     1      10.904   8.172  10.223  1.00  0.00     0.205 C 
ENDROOT
BRANCH   1   7
HETATM    7  O3  UNL     1       9.331  10.030  10.019  1.00  0.00    -0.318 OA
BRANCH   7   8
HETATM    8  C4  UNL     1       8.223  10.754   9.811  1.00  0.00     0.072 A 
HETATM    9  C3  UNL     1       7.487  11.248  10.857  1.00  0.00     0.039 A 
HETATM   10  C2  UNL     1       6.331  12.004  10.627  1.00  0.00     0.039 A 
HETATM   11  C1  UNL     1       5.932  12.251   9.347  1.00  0.00     0.103 A 
HETATM   12  C12 UNL     1       6.642  11.773   8.285  1.00  0.00     0.039 A 
HETATM   13  C11 UNL     1       7.788  11.025   8.538  1.00  0.00     0.039 A 
BRANCH  11  14
HETATM   14  N1  UNL     1       4.742  13.027   9.103  1.00  0.00    -0.116 N 
HETATM   15  O1  UNL     1       3.939  13.279  10.020  1.00  0.00    -0.532 OA
HETATM   16  O2  UNL     1       4.471  13.506   7.846  1.00  0.00    -0.532 OA
ENDBRANCH  11  14
ENDBRANCH   7   8
ENDBRANCH   1   7
BRANCH   6  17
HETATM   17  O8  UNL     1      11.746   8.953  10.953  1.00  0.00    -0.388 OA
ATOM     18  H8  UNL     1      12.113   9.698  10.492  1.00  0.00     0.210 HD
ENDBRANCH   6  17
BRANCH   3  19
HETATM   19  C7  UNL     1       8.242   5.993   8.060  1.00  0.00     0.198 C 
BRANCH  19  20
HETATM   20  O5  UNL     1       7.253   6.434   7.173  1.00  0.00    -0.398 OA
ATOM     21  H5  UNL     1       7.429   7.328   6.902  1.00  0.00     0.209 HD
ENDBRANCH  19  20
ENDBRANCH   3  19
BRANCH   5  22
HETATM   22  O7  UNL     1      12.646   6.569   9.763  1.00  0.00    -0.390 OA
ATOM     23  H7  UNL     1      12.866   5.805   9.244  1.00  0.00     0.210 HD
ENDBRANCH   5  22
BRANCH   4  24
HETATM   24  O6  UNL     1      10.441   5.205   9.252  1.00  0.00    -0.390 OA
ATOM     25  H6  UNL     1       9.530   4.939   9.299  1.00  0.00     0.210 HD
ENDBRANCH   4  24
TORSDOF 8
ENDMDL
