MODEL 10
REMARK VINA RESULT: -5.378979120      5.413      8.382
REMARK  8 active torsions:
REMARK  status: ('A' for Active; 'I' for Inactive)
REMARK    1  A    between atoms: N1_2  and  C1_4 
REMARK    2  A    between atoms: C4_7  and  O3_8 
REMARK    3  A    between atoms: O3_8  and  C5_9 
REMARK    4  A    between atoms: C6_11  and  C7_12 
REMARK    5  A    between atoms: C7_12  and  O5_13 
REMARK    6  A    between atoms: C8_15  and  O6_16 
REMARK    7  A    between atoms: C9_18  and  O7_19 
REMARK    8  A    between atoms: C10_21  and  O8_22 
ROOT
HETATM    1  C5  UNL     1       9.838   7.981   6.542  1.00  0.00     0.298 C 
HETATM    2  O4  UNL     1      11.091   7.675   7.086  1.00  0.00    -0.348 OA
HETATM    3  C6  UNL     1      11.008   7.540   8.444  1.00  0.00     0.179 C 
HETATM    4  C8  UNL     1       9.972   6.598   8.937  1.00  0.00     0.180 C 
HETATM    5  C9  UNL     1       8.689   6.612   8.165  1.00  0.00     0.183 C 
HETATM    6  C10 UNL     1       9.017   6.740   6.681  1.00  0.00     0.205 C 
ENDROOT
BRANCH   1   7
HETATM    7  O3  UNL     1       9.929   8.546   5.312  1.00  0.00    -0.318 OA
BRANCH   7   8
HETATM    8  C4  UNL     1      10.809   8.460   4.306  1.00  0.00     0.072 A 
HETATM    9  C3  UNL     1      11.854   9.341   4.195  1.00  0.00     0.039 A 
HETATM   10  C2  UNL     1      12.767   9.241   3.138  1.00  0.00     0.039 A 
HETATM   11  C1  UNL     1      12.616   8.256   2.209  1.00  0.00     0.103 A 
HETATM   12  C12 UNL     1      11.588   7.364   2.291  1.00  0.00     0.039 A 
HETATM   13  C11 UNL     1      10.692   7.482   3.350  1.00  0.00     0.039 A 
BRANCH  11  14
HETATM   14  N1  UNL     1      13.553   8.147   1.118  1.00  0.00    -0.116 N 
HETATM   15  O1  UNL     1      14.106   9.156   0.644  1.00  0.00    -0.532 OA
HETATM   16  O2  UNL     1      13.853   6.922   0.580  1.00  0.00    -0.532 OA
ENDBRANCH  11  14
ENDBRANCH   7   8
ENDBRANCH   1   7
BRANCH   6  17
HETATM   17  O8  UNL     1       7.922   6.671   5.876  1.00  0.00    -0.388 OA
ATOM     18  H8  UNL     1       8.058   6.947   4.977  1.00  0.00     0.210 HD
ENDBRANCH   6  17
BRANCH   3  19
HETATM   19  C7  UNL     1      12.378   7.074   8.940  1.00  0.00     0.198 C 
BRANCH  19  20
HETATM   20  O5  UNL     1      12.328   6.798  10.311  1.00  0.00    -0.398 OA
ATOM     21  H5  UNL     1      11.983   5.925  10.458  1.00  0.00     0.209 HD
ENDBRANCH  19  20
ENDBRANCH   3  19
BRANCH   5  22
HETATM   22  O7  UNL     1       7.911   5.518   8.442  1.00  0.00    -0.390 OA
ATOM     23  H7  UNL     1       7.089   5.537   7.967  1.00  0.00     0.210 HD
ENDBRANCH   5  22
BRANCH   4  24
HETATM   24  O6  UNL     1      10.465   5.286   9.079  1.00  0.00    -0.390 OA
ATOM     25  H6  UNL     1       9.795   4.630   8.927  1.00  0.00     0.210 HD
ENDBRANCH   4  24
TORSDOF 8
ENDMDL
