MODEL 4
REMARK VINA RESULT: -5.525245637      4.874      7.899
REMARK  8 active torsions:
REMARK  status: ('A' for Active; 'I' for Inactive)
REMARK    1  A    between atoms: N1_2  and  C1_4 
REMARK    2  A    between atoms: C4_7  and  O3_8 
REMARK    3  A    between atoms: O3_8  and  C5_9 
REMARK    4  A    between atoms: C6_11  and  C7_12 
REMARK    5  A    between atoms: C7_12  and  O5_13 
REMARK    6  A    between atoms: C8_15  and  O6_16 
REMARK    7  A    between atoms: C9_18  and  O7_19 
REMARK    8  A    between atoms: C10_21  and  O8_22 
ROOT
HETATM    1  C5  UNL     1       9.925   8.087   7.425  1.00  0.00     0.298 C 
HETATM    2  O4  UNL     1      11.002   8.839   7.906  1.00  0.00    -0.348 OA
HETATM    3  C6  UNL     1      11.044   8.806   9.272  1.00  0.00     0.179 C 
HETATM    4  C8  UNL     1      11.026   7.455   9.887  1.00  0.00     0.180 C 
HETATM    5  C9  UNL     1      10.140   6.463   9.199  1.00  0.00     0.183 C 
HETATM    6  C10 UNL     1      10.272   6.657   7.692  1.00  0.00     0.205 C 
ENDROOT
BRANCH   1   7
HETATM    7  O3  UNL     1       9.574   8.429   6.161  1.00  0.00    -0.318 OA
BRANCH   7   8
HETATM    8  C4  UNL     1      10.095   8.192   4.949  1.00  0.00     0.072 A 
HETATM    9  C3  UNL     1       9.348   7.618   3.953  1.00  0.00     0.039 A 
HETATM   10  C2  UNL     1       9.904   7.375   2.690  1.00  0.00     0.039 A 
HETATM   11  C1  UNL     1      11.202   7.713   2.450  1.00  0.00     0.103 A 
HETATM   12  C12 UNL     1      11.970   8.286   3.420  1.00  0.00     0.039 A 
HETATM   13  C11 UNL     1      11.397   8.519   4.667  1.00  0.00     0.039 A 
BRANCH  11  14
HETATM   14  N1  UNL     1      11.781   7.466   1.152  1.00  0.00    -0.116 N 
HETATM   15  O1  UNL     1      11.577   6.394   0.552  1.00  0.00    -0.532 OA
HETATM   16  O2  UNL     1      12.571   8.413   0.552  1.00  0.00    -0.532 OA
ENDBRANCH  11  14
ENDBRANCH   7   8
ENDBRANCH   1   7
BRANCH   6  17
HETATM   17  O8  UNL     1       9.575   5.742   6.964  1.00  0.00    -0.388 OA
ATOM     18  H8  UNL     1       8.807   5.381   7.392  1.00  0.00     0.210 HD
ENDBRANCH   6  17
BRANCH   3  19
HETATM   19  C7  UNL     1      12.319   9.531   9.707  1.00  0.00     0.198 C 
BRANCH  19  20
HETATM   20  O5  UNL     1      12.421   9.536  11.103  1.00  0.00    -0.398 OA
ATOM     21  H5  UNL     1      11.631   9.895  11.489  1.00  0.00     0.209 HD
ENDBRANCH  19  20
ENDBRANCH   3  19
BRANCH   5  22
HETATM   22  O7  UNL     1      10.409   5.177   9.590  1.00  0.00    -0.390 OA
ATOM     23  H7  UNL     1      10.915   4.705   8.940  1.00  0.00     0.210 HD
ENDBRANCH   5  22
BRANCH   4  24
HETATM   24  O6  UNL     1      12.322   6.935  10.076  1.00  0.00    -0.390 OA
ATOM     25  H6  UNL     1      12.406   6.468  10.898  1.00  0.00     0.210 HD
ENDBRANCH   4  24
TORSDOF 8
ENDMDL
