MODEL 7
REMARK VINA RESULT: -5.448363660      2.547      3.027
REMARK  8 active torsions:
REMARK  status: ('A' for Active; 'I' for Inactive)
REMARK    1  A    between atoms: N1_2  and  C1_4 
REMARK    2  A    between atoms: C4_7  and  O3_8 
REMARK    3  A    between atoms: O3_8  and  C5_9 
REMARK    4  A    between atoms: C6_11  and  C7_12 
REMARK    5  A    between atoms: C7_12  and  O5_13 
REMARK    6  A    between atoms: C8_15  and  O6_16 
REMARK    7  A    between atoms: C9_18  and  O7_19 
REMARK    8  A    between atoms: C10_21  and  O8_22 
ROOT
HETATM    1  C5  UNL     1       9.969   8.917   8.897  1.00  0.00     0.298 C 
HETATM    2  O4  UNL     1       8.929   7.994   8.732  1.00  0.00    -0.348 OA
HETATM    3  C6  UNL     1       9.355   6.907   8.021  1.00  0.00     0.179 C 
HETATM    4  C8  UNL     1      10.577   6.240   8.532  1.00  0.00     0.180 C 
HETATM    5  C9  UNL     1      11.624   7.167   9.069  1.00  0.00     0.183 C 
HETATM    6  C10 UNL     1      10.932   8.281   9.848  1.00  0.00     0.205 C 
ENDROOT
BRANCH   1   7
HETATM    7  O3  UNL     1       9.519  10.162   9.190  1.00  0.00    -0.318 OA
BRANCH   7   8
HETATM    8  C4  UNL     1       8.534  10.936   8.715  1.00  0.00     0.072 A 
HETATM    9  C3  UNL     1       8.523  11.353   7.408  1.00  0.00     0.039 A 
HETATM   10  C2  UNL     1       7.488  12.163   6.923  1.00  0.00     0.039 A 
HETATM   11  C1  UNL     1       6.480  12.540   7.759  1.00  0.00     0.103 A 
HETATM   12  C12 UNL     1       6.463  12.143   9.063  1.00  0.00     0.039 A 
HETATM   13  C11 UNL     1       7.501  11.338   9.524  1.00  0.00     0.039 A 
BRANCH  11  14
HETATM   14  N1  UNL     1       5.412  13.374   7.266  1.00  0.00    -0.116 N 
HETATM   15  O1  UNL     1       4.889  13.159   6.157  1.00  0.00    -0.532 OA
HETATM   16  O2  UNL     1       4.950  14.426   8.015  1.00  0.00    -0.532 OA
ENDBRANCH  11  14
ENDBRANCH   7   8
ENDBRANCH   1   7
BRANCH   6  17
HETATM   17  O8  UNL     1      11.799   9.134  10.458  1.00  0.00    -0.388 OA
ATOM     18  H8  UNL     1      11.749  10.039  10.173  1.00  0.00     0.210 HD
ENDBRANCH   6  17
BRANCH   3  19
HETATM   19  C7  UNL     1       8.207   5.896   8.005  1.00  0.00     0.198 C 
BRANCH  19  20
HETATM   20  O5  UNL     1       7.209   6.310   7.114  1.00  0.00    -0.398 OA
ATOM     21  H5  UNL     1       7.591   6.529   6.272  1.00  0.00     0.209 HD
ENDBRANCH  19  20
ENDBRANCH   3  19
BRANCH   5  22
HETATM   22  O7  UNL     1      12.563   6.504   9.816  1.00  0.00    -0.390 OA
ATOM     23  H7  UNL     1      13.108   7.102  10.313  1.00  0.00     0.210 HD
ENDBRANCH   5  22
BRANCH   4  24
HETATM   24  O6  UNL     1      10.283   5.217   9.456  1.00  0.00    -0.390 OA
ATOM     25  H6  UNL     1      11.031   4.992   9.995  1.00  0.00     0.210 HD
ENDBRANCH   4  24
TORSDOF 8
ENDMDL
