MODEL 1
REMARK VINA RESULT: -6.113071780      0.000      0.000
REMARK  8 active torsions:
REMARK  status: ('A' for Active; 'I' for Inactive)
REMARK    1  A    between atoms: N1_2  and  C1_4 
REMARK    2  A    between atoms: C4_7  and  O3_8 
REMARK    3  A    between atoms: O3_8  and  C5_9 
REMARK    4  A    between atoms: C6_11  and  C7_12 
REMARK    5  A    between atoms: C7_12  and  O5_13 
REMARK    6  A    between atoms: C8_15  and  O6_16 
REMARK    7  A    between atoms: C9_18  and  O7_19 
REMARK    8  A    between atoms: C10_21  and  O8_22 
ROOT
HETATM    1  C5  UNL     1      10.163   8.935   9.322  1.00  0.00     0.298 C 
HETATM    2  O4  UNL     1       9.118   8.040   9.063  1.00  0.00    -0.348 OA
HETATM    3  C6  UNL     1       9.498   7.108   8.138  1.00  0.00     0.179 C 
HETATM    4  C8  UNL     1      10.756   6.379   8.435  1.00  0.00     0.180 C 
HETATM    5  C9  UNL     1      11.834   7.212   9.058  1.00  0.00     0.183 C 
HETATM    6  C10 UNL     1      11.193   8.154  10.073  1.00  0.00     0.205 C 
ENDROOT
BRANCH   1   7
HETATM    7  O3  UNL     1       9.729  10.099   9.866  1.00  0.00    -0.318 OA
BRANCH   7   8
HETATM    8  C4  UNL     1       8.615  10.473  10.509  1.00  0.00     0.072 A 
HETATM    9  C3  UNL     1       8.281   9.938  11.727  1.00  0.00     0.039 A 
HETATM   10  C2  UNL     1       7.113  10.337  12.389  1.00  0.00     0.039 A 
HETATM   11  C1  UNL     1       6.299  11.267  11.816  1.00  0.00     0.103 A 
HETATM   12  C12 UNL     1       6.603  11.818  10.607  1.00  0.00     0.039 A 
HETATM   13  C11 UNL     1       7.769  11.407   9.966  1.00  0.00     0.039 A 
BRANCH  11  14
HETATM   14  N1  UNL     1       5.095  11.682  12.493  1.00  0.00    -0.116 N 
HETATM   15  O1  UNL     1       5.079  12.697  13.213  1.00  0.00    -0.532 OA
HETATM   16  O2  UNL     1       3.937  10.960  12.353  1.00  0.00    -0.532 OA
ENDBRANCH  11  14
ENDBRANCH   7   8
ENDBRANCH   1   7
BRANCH   6  17
HETATM   17  O8  UNL     1      12.097   8.897  10.767  1.00  0.00    -0.388 OA
ATOM     18  H8  UNL     1      12.712   9.392  10.238  1.00  0.00     0.210 HD
ENDBRANCH   6  17
BRANCH   3  19
HETATM   19  C7  UNL     1       8.356   6.096   8.016  1.00  0.00     0.198 C 
BRANCH  19  20
HETATM   20  O5  UNL     1       7.362   6.590   7.163  1.00  0.00    -0.398 OA
ATOM     21  H5  UNL     1       7.705   7.300   6.635  1.00  0.00     0.209 HD
ENDBRANCH  19  20
ENDBRANCH   3  19
BRANCH   5  22
HETATM   22  O7  UNL     1      12.825   6.441   9.607  1.00  0.00    -0.390 OA
ATOM     23  H7  UNL     1      13.362   6.026   8.943  1.00  0.00     0.210 HD
ENDBRANCH   5  22
BRANCH   4  24
HETATM   24  O6  UNL     1      10.532   5.201   9.175  1.00  0.00    -0.390 OA
ATOM     25  H6  UNL     1      11.255   4.589   9.106  1.00  0.00     0.210 HD
ENDBRANCH   4  24
TORSDOF 8
ENDMDL
