MODEL 6
REMARK VINA RESULT: -5.470482658      1.539      1.920
REMARK  8 active torsions:
REMARK  status: ('A' for Active; 'I' for Inactive)
REMARK    1  A    between atoms: N1_2  and  C1_4 
REMARK    2  A    between atoms: C4_7  and  O3_8 
REMARK    3  A    between atoms: O3_8  and  C5_9 
REMARK    4  A    between atoms: C6_11  and  C7_12 
REMARK    5  A    between atoms: C7_12  and  O5_13 
REMARK    6  A    between atoms: C8_15  and  O6_16 
REMARK    7  A    between atoms: C9_18  and  O7_19 
REMARK    8  A    between atoms: C10_21  and  O8_22 
ROOT
HETATM    1  C5  UNL     1       9.921   8.891   9.362  1.00  0.00     0.298 C 
HETATM    2  O4  UNL     1       8.953   7.913   9.106  1.00  0.00    -0.348 OA
HETATM    3  C6  UNL     1       9.381   7.050   8.136  1.00  0.00     0.179 C 
HETATM    4  C8  UNL     1      10.710   6.431   8.364  1.00  0.00     0.180 C 
HETATM    5  C9  UNL     1      11.730   7.337   8.981  1.00  0.00     0.183 C 
HETATM    6  C10 UNL     1      11.045   8.183  10.049  1.00  0.00     0.205 C 
ENDROOT
BRANCH   1   7
HETATM    7  O3  UNL     1       9.405   9.992   9.962  1.00  0.00    -0.318 OA
BRANCH   7   8
HETATM    8  C4  UNL     1       8.275  10.696   9.811  1.00  0.00     0.072 A 
HETATM    9  C3  UNL     1       7.768  10.972   8.566  1.00  0.00     0.039 A 
HETATM   10  C2  UNL     1       6.586  11.709   8.421  1.00  0.00     0.039 A 
HETATM   11  C1  UNL     1       5.932  12.158   9.530  1.00  0.00     0.103 A 
HETATM   12  C12 UNL     1       6.410  11.900  10.780  1.00  0.00     0.039 A 
HETATM   13  C11 UNL     1       7.586  11.165  10.901  1.00  0.00     0.039 A 
BRANCH  11  14
HETATM   14  N1  UNL     1       4.715  12.917   9.387  1.00  0.00    -0.116 N 
HETATM   15  O1  UNL     1       4.729  14.162   9.404  1.00  0.00    -0.532 OA
HETATM   16  O2  UNL     1       3.512  12.278   9.228  1.00  0.00    -0.532 OA
ENDBRANCH  11  14
ENDBRANCH   7   8
ENDBRANCH   1   7
BRANCH   6  17
HETATM   17  O8  UNL     1      11.903   8.983  10.740  1.00  0.00    -0.388 OA
ATOM     18  H8  UNL     1      12.645   8.540  11.135  1.00  0.00     0.210 HD
ENDBRANCH   6  17
BRANCH   3  19
HETATM   19  C7  UNL     1       8.332   5.943   8.016  1.00  0.00     0.198 C 
BRANCH  19  20
HETATM   20  O5  UNL     1       7.263   6.374   7.221  1.00  0.00    -0.398 OA
ATOM     21  H5  UNL     1       7.066   5.724   6.556  1.00  0.00     0.209 HD
ENDBRANCH  19  20
ENDBRANCH   3  19
BRANCH   5  22
HETATM   22  O7  UNL     1      12.807   6.643   9.468  1.00  0.00    -0.390 OA
ATOM     23  H7  UNL     1      12.992   6.862  10.373  1.00  0.00     0.210 HD
ENDBRANCH   5  22
BRANCH   4  24
HETATM   24  O6  UNL     1      10.620   5.214   9.068  1.00  0.00    -0.390 OA
ATOM     25  H6  UNL     1      10.038   5.272   9.816  1.00  0.00     0.210 HD
ENDBRANCH   4  24
TORSDOF 8
ENDMDL
