MODEL 2
REMARK VINA RESULT: -6.104477392      0.040      1.031
REMARK  8 active torsions:
REMARK  status: ('A' for Active; 'I' for Inactive)
REMARK    1  A    between atoms: N1_2  and  C1_4 
REMARK    2  A    between atoms: C4_7  and  O3_8 
REMARK    3  A    between atoms: O3_8  and  C5_9 
REMARK    4  A    between atoms: C6_11  and  C7_12 
REMARK    5  A    between atoms: C7_12  and  O5_13 
REMARK    6  A    between atoms: C8_15  and  O6_16 
REMARK    7  A    between atoms: C9_18  and  O7_19 
REMARK    8  A    between atoms: C10_21  and  O8_22 
ROOT
HETATM    1  C5  UNL     1      10.153   8.939   9.281  1.00  0.00     0.298 C 
HETATM    2  O4  UNL     1       9.107   8.044   9.028  1.00  0.00    -0.348 OA
HETATM    3  C6  UNL     1       9.488   7.101   8.115  1.00  0.00     0.179 C 
HETATM    4  C8  UNL     1      10.744   6.373   8.424  1.00  0.00     0.180 C 
HETATM    5  C9  UNL     1      11.821   7.210   9.043  1.00  0.00     0.183 C 
HETATM    6  C10 UNL     1      11.179   8.165  10.045  1.00  0.00     0.205 C 
ENDROOT
BRANCH   1   7
HETATM    7  O3  UNL     1       9.720  10.110   9.811  1.00  0.00    -0.318 OA
BRANCH   7   8
HETATM    8  C4  UNL     1       8.605  10.493  10.448  1.00  0.00     0.072 A 
HETATM    9  C3  UNL     1       7.746  11.408   9.895  1.00  0.00     0.039 A 
HETATM   10  C2  UNL     1       6.584  11.800  10.572  1.00  0.00     0.039 A 
HETATM   11  C1  UNL     1       6.303  11.265  11.794  1.00  0.00     0.103 A 
HETATM   12  C12 UNL     1       7.137  10.354  12.370  1.00  0.00     0.039 A 
HETATM   13  C11 UNL     1       8.287   9.978  11.680  1.00  0.00     0.039 A 
BRANCH  11  14
HETATM   14  N1  UNL     1       5.109  11.665  12.495  1.00  0.00    -0.116 N 
HETATM   15  O1  UNL     1       5.102  12.667  13.234  1.00  0.00    -0.532 OA
HETATM   16  O2  UNL     1       3.950  10.944  12.360  1.00  0.00    -0.532 OA
ENDBRANCH  11  14
ENDBRANCH   7   8
ENDBRANCH   1   7
BRANCH   6  17
HETATM   17  O8  UNL     1      12.081   8.914  10.735  1.00  0.00    -0.388 OA
ATOM     18  H8  UNL     1      12.880   9.126  10.265  1.00  0.00     0.210 HD
ENDBRANCH   6  17
BRANCH   3  19
HETATM   19  C7  UNL     1       8.345   6.091   8.000  1.00  0.00     0.198 C 
BRANCH  19  20
HETATM   20  O5  UNL     1       7.326   6.604   7.189  1.00  0.00    -0.398 OA
ATOM     21  H5  UNL     1       7.138   6.003   6.478  1.00  0.00     0.209 HD
ENDBRANCH  19  20
ENDBRANCH   3  19
BRANCH   5  22
HETATM   22  O7  UNL     1      12.809   6.443   9.604  1.00  0.00    -0.390 OA
ATOM     23  H7  UNL     1      12.592   6.174  10.488  1.00  0.00     0.210 HD
ENDBRANCH   5  22
BRANCH   4  24
HETATM   24  O6  UNL     1      10.514   5.204   9.176  1.00  0.00    -0.390 OA
ATOM     25  H6  UNL     1      11.132   5.107   9.891  1.00  0.00     0.210 HD
ENDBRANCH   4  24
TORSDOF 8
ENDMDL
