MODEL 6
REMARK VINA RESULT: -8.000054190      2.700      7.586
REMARK  4 active torsions:
REMARK  status: ('A' for Active; 'I' for Inactive)
REMARK    1  A    between atoms: O1_2  and  C2_3 
REMARK    2  A    between atoms: C7_8  and  C8_9 
REMARK    3  A    between atoms: N4_25  and  C16_26 
REMARK    4  A    between atoms: C16_26  and  C18_28 
ROOT
HETATM    1  C2  UNL     1       2.107  -3.861  21.681  1.00  0.00     0.080 A 
HETATM    2  C3  UNL     1       1.672  -5.183  21.523  1.00  0.00     0.053 A 
HETATM    3  C4  UNL     1       1.698  -6.006  22.617  1.00  0.00     0.023 A 
HETATM    4  C5  UNL     1       2.131  -5.582  23.847  1.00  0.00     0.045 A 
HETATM    5  C6  UNL     1       2.558  -4.261  23.972  1.00  0.00     0.045 A 
HETATM    6  C7  UNL     1       2.548  -3.405  22.903  1.00  0.00     0.014 A 
HETATM    7  N2  UNL     1       2.162  -6.401  24.916  1.00  0.00    -0.363 N 
ATOM      8  H2  UNL     1       2.494  -6.040  25.811  1.00  0.00     0.165 HD
HETATM    9  C13 UNL     1       1.770  -7.674  24.832  1.00  0.00     0.120 A 
HETATM   10  C14 UNL     1       1.326  -8.157  23.633  1.00  0.00     0.080 A 
HETATM   11  N3  UNL     1       0.877  -9.368  23.238  1.00  0.00    -0.305 N 
ATOM     12  H3  UNL     1       0.792 -10.188  23.839  1.00  0.00     0.171 HD
HETATM   13  C15 UNL     1       0.560  -9.333  21.943  1.00  0.00     0.328 A 
HETATM   14  O3  UNL     1       0.114 -10.251  21.217  1.00  0.00    -0.246 OA
HETATM   15  N4  UNL     1       0.808  -8.063  21.472  1.00  0.00    -0.286 N 
HETATM   16  C23 UNL     1       1.280  -7.330  22.494  1.00  0.00     0.080 A 
ENDROOT
BRANCH  15  17
HETATM   17  C16 UNL     1       0.560  -7.671  20.116  1.00  0.00     0.140 C 
HETATM   18  C17 UNL     1      -0.966  -7.325  19.955  1.00  0.00     0.039 C 
BRANCH  17  19
HETATM   19  C18 UNL     1       0.700  -8.787  19.153  1.00  0.00     0.032 A 
HETATM   20  C19 UNL     1       1.867  -9.345  18.789  1.00  0.00     0.027 A 
HETATM   21  C20 UNL     1       1.887 -10.405  17.873  1.00  0.00     0.003 A 
HETATM   22  C21 UNL     1       0.707 -10.879  17.342  1.00  0.00     0.017 A 
HETATM   23  C22 UNL     1      -0.468 -10.279  17.742  1.00  0.00     0.088 A 
HETATM   24  N5  UNL     1      -0.446  -9.267  18.621  1.00  0.00    -0.367 N 
ATOM     25  H5  UNL     1      -1.330  -8.843  18.899  1.00  0.00     0.165 HD
ENDBRANCH  17  19
ENDBRANCH  15  17
BRANCH   1  26
HETATM   26  O1  UNL     1       2.115  -2.962  20.627  1.00  0.00    -0.355 OA
HETATM   27  C1  UNL     1       2.995  -3.004  19.545  1.00  0.00     0.210 C 
ENDBRANCH   1  26
BRANCH   6  28
HETATM   28  C8  UNL     1       3.008  -2.038  23.110  1.00  0.00     0.032 A 
HETATM   29  C9  UNL     1       2.304  -0.934  23.523  1.00  0.00     0.042 A 
HETATM   30  C10 UNL     1       0.865  -0.925  23.853  1.00  0.00     0.071 C 
HETATM   31  N1  UNL     1       3.157   0.095  23.565  1.00  0.00    -0.265 N 
HETATM   32  O2  UNL     1       4.323  -0.309  23.207  1.00  0.00    -0.242 OA
ATOM     33  H1  UNL     1       2.920   1.048  23.838  1.00  0.00     0.194 HD
HETATM   34  C11 UNL     1       4.317  -1.587  22.915  1.00  0.00     0.085 A 
HETATM   35  C12 UNL     1       5.495  -2.359  22.471  1.00  0.00     0.079 C 
ENDBRANCH   6  28
TORSDOF 4
ENDMDL
