MODEL 5
REMARK VINA RESULT: -8.005438459      2.705      7.727
REMARK  4 active torsions:
REMARK  status: ('A' for Active; 'I' for Inactive)
REMARK    1  A    between atoms: O1_2  and  C2_3 
REMARK    2  A    between atoms: C7_8  and  C8_9 
REMARK    3  A    between atoms: N4_25  and  C16_26 
REMARK    4  A    between atoms: C16_26  and  C18_28 
ROOT
HETATM    1  C2  UNL     1       2.143  -3.859  21.697  1.00  0.00     0.080 A 
HETATM    2  C3  UNL     1       1.697  -5.177  21.536  1.00  0.00     0.053 A 
HETATM    3  C4  UNL     1       1.728  -6.006  22.625  1.00  0.00     0.023 A 
HETATM    4  C5  UNL     1       2.175  -5.592  23.854  1.00  0.00     0.045 A 
HETATM    5  C6  UNL     1       2.612  -4.274  23.981  1.00  0.00     0.045 A 
HETATM    6  C7  UNL     1       2.598  -3.412  22.916  1.00  0.00     0.014 A 
HETATM    7  N2  UNL     1       2.211  -6.416  24.918  1.00  0.00    -0.363 N 
ATOM      8  H2  UNL     1       2.553  -6.062  25.811  1.00  0.00     0.165 HD
HETATM    9  C13 UNL     1       1.810  -7.686  24.831  1.00  0.00     0.120 A 
HETATM   10  C14 UNL     1       1.351  -8.160  23.633  1.00  0.00     0.080 A 
HETATM   11  N3  UNL     1       0.890  -9.366  23.236  1.00  0.00    -0.305 N 
ATOM     12  H3  UNL     1       0.805 -10.188  23.834  1.00  0.00     0.171 HD
HETATM   13  C15 UNL     1       0.561  -9.321  21.944  1.00  0.00     0.328 A 
HETATM   14  O3  UNL     1       0.102 -10.233  21.218  1.00  0.00    -0.246 OA
HETATM   15  N4  UNL     1       0.813  -8.051  21.478  1.00  0.00    -0.286 N 
HETATM   16  C23 UNL     1       1.300  -7.327  22.499  1.00  0.00     0.080 A 
ENDROOT
BRANCH  15  17
HETATM   17  C16 UNL     1       0.555  -7.650  20.126  1.00  0.00     0.140 C 
HETATM   18  C17 UNL     1      -0.974  -7.312  19.977  1.00  0.00     0.039 C 
BRANCH  17  19
HETATM   19  C18 UNL     1       0.696  -8.758  19.154  1.00  0.00     0.032 A 
HETATM   20  C19 UNL     1       1.864  -9.313  18.786  1.00  0.00     0.027 A 
HETATM   21  C20 UNL     1       1.885 -10.364  17.861  1.00  0.00     0.003 A 
HETATM   22  C21 UNL     1       0.705 -10.835  17.326  1.00  0.00     0.017 A 
HETATM   23  C22 UNL     1      -0.470 -10.238  17.730  1.00  0.00     0.088 A 
HETATM   24  N5  UNL     1      -0.449  -9.234  18.617  1.00  0.00    -0.367 N 
ATOM     25  H5  UNL     1      -1.334  -8.813  18.899  1.00  0.00     0.165 HD
ENDBRANCH  17  19
ENDBRANCH  15  17
BRANCH   1  26
HETATM   26  O1  UNL     1       2.146  -2.955  20.647  1.00  0.00    -0.355 OA
HETATM   27  C1  UNL     1       3.032  -2.982  19.569  1.00  0.00     0.210 C 
ENDBRANCH   1  26
BRANCH   6  28
HETATM   28  C8  UNL     1       3.070  -2.050  23.126  1.00  0.00     0.032 A 
HETATM   29  C9  UNL     1       4.332  -1.530  22.967  1.00  0.00     0.042 A 
HETATM   30  C10 UNL     1       5.513  -2.299  22.530  1.00  0.00     0.071 C 
HETATM   31  N1  UNL     1       4.273  -0.231  23.278  1.00  0.00    -0.265 N 
HETATM   32  O2  UNL     1       3.070   0.069  23.613  1.00  0.00    -0.242 OA
ATOM     33  H1  UNL     1       5.059   0.418  23.253  1.00  0.00     0.194 HD
HETATM   34  C11 UNL     1       2.281  -0.975  23.547  1.00  0.00     0.085 A 
HETATM   35  C12 UNL     1       0.838  -0.968  23.865  1.00  0.00     0.079 C 
ENDBRANCH   6  28
TORSDOF 4
ENDMDL
