MODEL 2
REMARK VINA RESULT: -8.305198259      1.378      2.463
REMARK  4 active torsions:
REMARK  status: ('A' for Active; 'I' for Inactive)
REMARK    1  A    between atoms: O1_2  and  C2_3 
REMARK    2  A    between atoms: C7_8  and  C8_9 
REMARK    3  A    between atoms: N4_25  and  C16_26 
REMARK    4  A    between atoms: C16_26  and  C18_28 
ROOT
HETATM    1  C2  UNL     1       0.524  -9.257  20.785  1.00  0.00     0.080 A 
HETATM    2  C3  UNL     1       1.063  -8.534  21.857  1.00  0.00     0.053 A 
HETATM    3  C4  UNL     1       1.214  -7.182  21.710  1.00  0.00     0.023 A 
HETATM    4  C5  UNL     1       0.859  -6.520  20.561  1.00  0.00     0.045 A 
HETATM    5  C6  UNL     1       0.327  -7.270  19.513  1.00  0.00     0.045 A 
HETATM    6  C7  UNL     1       0.158  -8.625  19.619  1.00  0.00     0.014 A 
HETATM    7  N2  UNL     1       1.021  -5.191  20.421  1.00  0.00    -0.363 N 
ATOM      8  H2  UNL     1       0.743  -4.744  19.547  1.00  0.00     0.165 HD
HETATM    9  C13 UNL     1       1.537  -4.444  21.400  1.00  0.00     0.120 A 
HETATM   10  C14 UNL     1       1.909  -5.043  22.571  1.00  0.00     0.080 A 
HETATM   11  N3  UNL     1       2.449  -4.570  23.716  1.00  0.00    -0.305 N 
ATOM     12  H3  UNL     1       2.683  -3.594  23.895  1.00  0.00     0.171 HD
HETATM   13  C15 UNL     1       2.631  -5.572  24.577  1.00  0.00     0.328 A 
HETATM   14  O3  UNL     1       3.107  -5.537  25.735  1.00  0.00    -0.246 OA
HETATM   15  N4  UNL     1       2.199  -6.737  23.983  1.00  0.00    -0.286 N 
HETATM   16  C23 UNL     1       1.755  -6.431  22.753  1.00  0.00     0.080 A 
ENDROOT
BRANCH  15  17
HETATM   17  C16 UNL     1       2.235  -8.009  24.642  1.00  0.00     0.140 C 
HETATM   18  C17 UNL     1       2.825  -9.081  23.652  1.00  0.00     0.039 C 
BRANCH  17  19
HETATM   19  C18 UNL     1       0.889  -8.570  24.897  1.00  0.00     0.032 A 
HETATM   20  C19 UNL     1      -0.179  -7.855  25.291  1.00  0.00     0.027 A 
HETATM   21  C20 UNL     1      -1.412  -8.484  25.498  1.00  0.00     0.003 A 
HETATM   22  C21 UNL     1      -1.535  -9.843  25.296  1.00  0.00     0.017 A 
HETATM   23  C22 UNL     1      -0.416 -10.539  24.893  1.00  0.00     0.088 A 
HETATM   24  N5  UNL     1       0.747  -9.900  24.705  1.00  0.00    -0.367 N 
ATOM     25  H5  UNL     1       1.558 -10.440  24.405  1.00  0.00     0.165 HD
ENDBRANCH  17  19
ENDBRANCH  15  17
BRANCH   1  26
HETATM   26  O1  UNL     1       0.337 -10.629  20.849  1.00  0.00    -0.355 OA
HETATM   27  C1  UNL     1       1.214 -11.529  21.455  1.00  0.00     0.210 C 
ENDBRANCH   1  26
BRANCH   6  28
HETATM   28  C8  UNL     1      -0.406  -9.340  18.482  1.00  0.00     0.032 A 
HETATM   29  C9  UNL     1      -1.671  -9.273  17.950  1.00  0.00     0.042 A 
HETATM   30  C10 UNL     1      -2.758  -8.416  18.461  1.00  0.00     0.071 C 
HETATM   31  N1  UNL     1      -1.714 -10.113  16.911  1.00  0.00    -0.265 N 
HETATM   32  O2  UNL     1      -0.569 -10.681  16.779  1.00  0.00    -0.242 OA
ATOM     33  H1  UNL     1      -2.527 -10.277  16.317  1.00  0.00     0.194 HD
HETATM   34  C11 UNL     1       0.277 -10.267  17.689  1.00  0.00     0.085 A 
HETATM   35  C12 UNL     1       1.677 -10.723  17.814  1.00  0.00     0.079 C 
ENDBRANCH   6  28
TORSDOF 4
ENDMDL
