MODEL 4
REMARK VINA RESULT: -8.214206832      2.469      4.802
REMARK  4 active torsions:
REMARK  status: ('A' for Active; 'I' for Inactive)
REMARK    1  A    between atoms: O1_2  and  C2_3 
REMARK    2  A    between atoms: C7_8  and  C8_9 
REMARK    3  A    between atoms: N4_25  and  C16_26 
REMARK    4  A    between atoms: C16_26  and  C18_28 
ROOT
HETATM    1  C2  UNL     1       1.066  -6.399  20.350  1.00  0.00     0.080 A 
HETATM    2  C3  UNL     1       1.634  -5.794  21.478  1.00  0.00     0.053 A 
HETATM    3  C4  UNL     1       1.595  -6.476  22.664  1.00  0.00     0.023 A 
HETATM    4  C5  UNL     1       1.026  -7.719  22.781  1.00  0.00     0.045 A 
HETATM    5  C6  UNL     1       0.469  -8.294  21.640  1.00  0.00     0.045 A 
HETATM    6  C7  UNL     1       0.487  -7.645  20.433  1.00  0.00     0.014 A 
HETATM    7  N2  UNL     1       0.984  -8.380  23.954  1.00  0.00    -0.363 N 
ATOM      8  H2  UNL     1       0.549  -9.302  23.991  1.00  0.00     0.165 HD
HETATM    9  C13 UNL     1       1.498  -7.856  25.069  1.00  0.00     0.120 A 
HETATM   10  C14 UNL     1       2.082  -6.621  25.018  1.00  0.00     0.080 A 
HETATM   11  N3  UNL     1       2.672  -5.842  25.951  1.00  0.00    -0.305 N 
ATOM     12  H3  UNL     1       2.783  -6.088  26.935  1.00  0.00     0.171 HD
HETATM   13  C15 UNL     1       3.089  -4.705  25.394  1.00  0.00     0.328 A 
HETATM   14  O3  UNL     1       3.676  -3.736  25.928  1.00  0.00    -0.246 OA
HETATM   15  N4  UNL     1       2.763  -4.734  24.056  1.00  0.00    -0.286 N 
HETATM   16  C23 UNL     1       2.143  -5.900  23.809  1.00  0.00     0.080 A 
ENDROOT
BRANCH  15  17
HETATM   17  C16 UNL     1       3.083  -3.670  23.151  1.00  0.00     0.140 C 
HETATM   18  C17 UNL     1       4.620  -3.355  23.256  1.00  0.00     0.039 C 
BRANCH  17  19
HETATM   19  C18 UNL     1       2.499  -2.370  23.552  1.00  0.00     0.032 A 
HETATM   20  C19 UNL     1       1.184  -2.090  23.564  1.00  0.00     0.027 A 
HETATM   21  C20 UNL     1       0.736  -0.827  23.970  1.00  0.00     0.003 A 
HETATM   22  C21 UNL     1       1.644   0.135  24.359  1.00  0.00     0.017 A 
HETATM   23  C22 UNL     1       2.983  -0.194  24.331  1.00  0.00     0.088 A 
HETATM   24  N5  UNL     1       3.372  -1.414  23.937  1.00  0.00    -0.367 N 
ATOM     25  H5  UNL     1       4.369  -1.629  23.928  1.00  0.00     0.165 HD
ENDBRANCH  17  19
ENDBRANCH  15  17
BRANCH   1  26
HETATM   26  O1  UNL     1       1.061  -5.778  19.111  1.00  0.00    -0.355 OA
HETATM   27  C1  UNL     1       1.440  -4.456  18.877  1.00  0.00     0.210 C 
ENDBRANCH   1  26
BRANCH   6  28
HETATM   28  C8  UNL     1      -0.114  -8.309  19.285  1.00  0.00     0.032 A 
HETATM   29  C9  UNL     1      -1.372  -8.161  18.751  1.00  0.00     0.042 A 
HETATM   30  C10 UNL     1      -2.408  -7.249  19.273  1.00  0.00     0.071 C 
HETATM   31  N1  UNL     1      -1.461  -8.983  17.700  1.00  0.00    -0.265 N 
HETATM   32  O2  UNL     1      -0.351  -9.614  17.562  1.00  0.00    -0.242 OA
ATOM     33  H1  UNL     1      -2.281  -9.090  17.103  1.00  0.00     0.194 HD
HETATM   34  C11 UNL     1       0.516  -9.264  18.481  1.00  0.00     0.085 A 
HETATM   35  C12 UNL     1       1.886  -9.803  18.602  1.00  0.00     0.079 C 
ENDBRANCH   6  28
TORSDOF 4
ENDMDL
