MODEL 5
REMARK VINA RESULT: -8.907948020      2.997      7.139
REMARK  5 active torsions:
REMARK  status: ('A' for Active; 'I' for Inactive)
REMARK    1  A    between atoms: C9_13  and  N2_14 
REMARK    2  A    between atoms: N2_14  and  N3_15 
REMARK       I    between atoms: N3_15  and  C10_17 
REMARK    3  A    between atoms: C10_17  and  C11_19 
REMARK    4  A    between atoms: C11_19  and  C13_21 
REMARK    5  A    between atoms: C16_24  and  O3_25 
ROOT
HETATM    1  N2  UNL     1      19.312  12.156   4.139  1.00  0.00    -0.119 NA
ENDROOT
BRANCH   1   2
HETATM    2  C9  UNL     1      20.009  11.130   4.900  1.00  0.00     0.228 C 
HETATM    3  C6  UNL     1      19.039  10.009   5.069  1.00  0.00     0.021 A 
HETATM    4  C5  UNL     1      18.555   9.157   4.099  1.00  0.00     0.044 A 
HETATM    5  C7  UNL     1      18.621   9.958   6.364  1.00  0.00     0.051 A 
HETATM    6  C4  UNL     1      17.611   8.221   4.463  1.00  0.00     0.025 A 
HETATM    7 CL1  UNL     1      19.135   9.248   2.439  1.00  0.00    -0.084 Cl
HETATM    8  C3  UNL     1      17.152   8.134   5.773  1.00  0.00     0.011 A 
HETATM    9  C2  UNL     1      17.672   9.008   6.703  1.00  0.00    -0.035 A 
HETATM   10  C1  UNL     1      17.205   8.963   8.110  1.00  0.00     0.050 C 
HETATM   11  N1  UNL     1      19.326  10.930   7.134  1.00  0.00    -0.324 N 
HETATM   12  C8  UNL     1      20.221  11.614   6.279  1.00  0.00     0.248 C 
ATOM     13  H1  UNL     1      19.205  11.102   8.132  1.00  0.00     0.169 HD
HETATM   14  O1  UNL     1      21.045  12.476   6.637  1.00  0.00    -0.271 OA
ENDBRANCH   1   2
BRANCH   1  15
HETATM   15  N3  UNL     1      20.218  12.799   3.296  1.00  0.00    -0.272 N 
HETATM   16  C10 UNL     1      19.738  13.122   2.000  1.00  0.00     0.241 C 
HETATM   17  O2  UNL     1      18.532  12.786   1.730  1.00  0.00    -0.271 OA
ATOM     18  H3  UNL     1      21.167  13.024   3.593  1.00  0.00     0.185 HD
BRANCH  16  19
HETATM   19  C11 UNL     1      20.538  13.814   0.939  1.00  0.00     0.108 C 
HETATM   20  C12 UNL     1      21.751  14.479   1.465  1.00  0.00     0.025 C 
BRANCH  19  21
HETATM   21  C13 UNL     1      20.888  12.751  -0.062  1.00  0.00    -0.045 A 
HETATM   22  C14 UNL     1      21.163  11.469   0.349  1.00  0.00     0.011 A 
HETATM   23  C15 UNL     1      21.499  10.461  -0.565  1.00  0.00     0.037 A 
HETATM   24  C16 UNL     1      21.555  10.769  -1.907  1.00  0.00     0.065 A 
HETATM   25  C17 UNL     1      21.279  12.053  -2.321  1.00  0.00     0.037 A 
HETATM   26  C18 UNL     1      20.945  13.046  -1.403  1.00  0.00     0.011 A 
BRANCH  24  27
HETATM   27  O3  UNL     1      21.901   9.775  -2.849  1.00  0.00    -0.361 OA
ATOM     28  H3  UNL     1      22.770   9.762  -3.232  1.00  0.00     0.217 HD
ENDBRANCH  24  27
ENDBRANCH  19  21
ENDBRANCH  16  19
ENDBRANCH   1  15
TORSDOF 5
ENDMDL
