MODEL 2
REMARK VINA RESULT: -9.417906480      2.516      7.403
REMARK  5 active torsions:
REMARK  status: ('A' for Active; 'I' for Inactive)
REMARK    1  A    between atoms: C9_13  and  N2_14 
REMARK    2  A    between atoms: N2_14  and  N3_15 
REMARK       I    between atoms: N3_15  and  C10_17 
REMARK    3  A    between atoms: C10_17  and  C11_19 
REMARK    4  A    between atoms: C11_19  and  C13_21 
REMARK    5  A    between atoms: C16_24  and  O3_25 
ROOT
HETATM    1  N2  UNL     1      19.563  11.449   4.510  1.00  0.00    -0.119 NA
ENDROOT
BRANCH   1   2
HETATM    2  C9  UNL     1      19.816  10.318   5.391  1.00  0.00     0.228 C 
HETATM    3  C6  UNL     1      18.553   9.524   5.419  1.00  0.00     0.021 A 
HETATM    4  C5  UNL     1      17.996   8.784   4.397  1.00  0.00     0.044 A 
HETATM    5  C7  UNL     1      17.948   9.672   6.630  1.00  0.00     0.051 A 
HETATM    6  C4  UNL     1      16.780   8.173   4.619  1.00  0.00     0.025 A 
HETATM    7 CL1  UNL     1      18.820   8.607   2.851  1.00  0.00    -0.084 Cl
HETATM    8  C3  UNL     1      16.125   8.298   5.840  1.00  0.00     0.011 A 
HETATM    9  C2  UNL     1      16.727   9.047   6.827  1.00  0.00    -0.035 A 
HETATM   10  C1  UNL     1      16.062   9.221   8.141  1.00  0.00     0.050 C 
HETATM   11  N1  UNL     1      18.778  10.453   7.488  1.00  0.00    -0.324 N 
HETATM   12  C8  UNL     1      19.948  10.807   6.778  1.00  0.00     0.248 C 
ATOM     13  H1  UNL     1      18.563  10.713   8.451  1.00  0.00     0.169 HD
HETATM   14  O1  UNL     1      20.921  11.424   7.250  1.00  0.00    -0.271 OA
ENDBRANCH   1   2
BRANCH   1  15
HETATM   15  N3  UNL     1      20.350  11.326   3.365  1.00  0.00    -0.272 N 
HETATM   16  C10 UNL     1      19.818  11.900   2.183  1.00  0.00     0.241 C 
HETATM   17  O2  UNL     1      18.672  12.463   2.278  1.00  0.00    -0.271 OA
ATOM     18  H3  UNL     1      21.254  10.852   3.379  1.00  0.00     0.185 HD
BRANCH  16  19
HETATM   19  C11 UNL     1      20.495  11.886   0.846  1.00  0.00     0.108 C 
HETATM   20  C12 UNL     1      19.642  11.343  -0.234  1.00  0.00     0.025 C 
BRANCH  19  21
HETATM   21  C13 UNL     1      20.881  13.312   0.573  1.00  0.00    -0.045 A 
HETATM   22  C14 UNL     1      20.592  13.893  -0.638  1.00  0.00     0.011 A 
HETATM   23  C15 UNL     1      20.948  15.219  -0.920  1.00  0.00     0.037 A 
HETATM   24  C16 UNL     1      21.605  15.952   0.044  1.00  0.00     0.065 A 
HETATM   25  C17 UNL     1      21.895  15.372   1.258  1.00  0.00     0.037 A 
HETATM   26  C18 UNL     1      21.535  14.053   1.527  1.00  0.00     0.011 A 
BRANCH  24  27
HETATM   27  O3  UNL     1      21.984  17.288  -0.217  1.00  0.00    -0.361 OA
ATOM     28  H3  UNL     1      21.836  17.962   0.436  1.00  0.00     0.217 HD
ENDBRANCH  24  27
ENDBRANCH  19  21
ENDBRANCH  16  19
ENDBRANCH   1  15
TORSDOF 5
ENDMDL
