MODEL 3
REMARK VINA RESULT: -9.265045971      1.223      1.446
REMARK  5 active torsions:
REMARK  status: ('A' for Active; 'I' for Inactive)
REMARK    1  A    between atoms: C9_13  and  N2_14 
REMARK    2  A    between atoms: N2_14  and  N3_15 
REMARK       I    between atoms: N3_15  and  C10_17 
REMARK    3  A    between atoms: C10_17  and  C11_19 
REMARK    4  A    between atoms: C11_19  and  C13_21 
REMARK    5  A    between atoms: C16_24  and  O3_25 
ROOT
HETATM    1  N2  UNL     1      20.202  10.992   4.087  1.00  0.00    -0.119 NA
ENDROOT
BRANCH   1   2
HETATM    2  C9  UNL     1      19.873  12.409   4.152  1.00  0.00     0.228 C 
HETATM    3  C6  UNL     1      20.005  12.928   2.759  1.00  0.00     0.021 A 
HETATM    4  C5  UNL     1      19.204  12.648   1.673  1.00  0.00     0.044 A 
HETATM    5  C7  UNL     1      21.113  13.717   2.669  1.00  0.00     0.051 A 
HETATM    6  C4  UNL     1      19.544  13.191   0.452  1.00  0.00     0.025 A 
HETATM    7 CL1  UNL     1      17.773  11.635   1.836  1.00  0.00    -0.084 Cl
HETATM    8  C3  UNL     1      20.667  14.001   0.313  1.00  0.00     0.011 A 
HETATM    9  C2  UNL     1      21.431  14.250   1.432  1.00  0.00    -0.035 A 
HETATM   10  C1  UNL     1      22.646  15.096   1.332  1.00  0.00     0.050 C 
HETATM   11  N1  UNL     1      21.709  13.854   3.958  1.00  0.00    -0.324 N 
HETATM   12  C8  UNL     1      20.939  13.118   4.888  1.00  0.00     0.248 C 
ATOM     13  H1  UNL     1      22.548  14.392   4.172  1.00  0.00     0.169 HD
HETATM   14  O1  UNL     1      21.133  13.080   6.117  1.00  0.00    -0.271 OA
ENDBRANCH   1   2
BRANCH   1  15
HETATM   15  N3  UNL     1      19.968  10.408   5.332  1.00  0.00    -0.272 N 
HETATM   16  C10 UNL     1      19.824   8.997   5.336  1.00  0.00     0.241 C 
HETATM   17  O2  UNL     1      19.914   8.402   4.206  1.00  0.00    -0.271 OA
ATOM     18  H3  UNL     1      19.905  10.962   6.186  1.00  0.00     0.185 HD
BRANCH  16  19
HETATM   19  C11 UNL     1      19.572   8.167   6.559  1.00  0.00     0.108 C 
HETATM   20  C12 UNL     1      20.215   8.710   7.775  1.00  0.00     0.025 C 
BRANCH  19  21
HETATM   21  C13 UNL     1      18.078   8.111   6.709  1.00  0.00    -0.045 A 
HETATM   22  C14 UNL     1      17.265   8.121   5.601  1.00  0.00     0.011 A 
HETATM   23  C15 UNL     1      15.869   8.077   5.715  1.00  0.00     0.037 A 
HETATM   24  C16 UNL     1      15.304   8.025   6.970  1.00  0.00     0.065 A 
HETATM   25  C17 UNL     1      16.116   8.015   8.081  1.00  0.00     0.037 A 
HETATM   26  C18 UNL     1      17.503   8.058   7.955  1.00  0.00     0.011 A 
BRANCH  24  27
HETATM   27  O3  UNL     1      13.898   7.989   7.114  1.00  0.00    -0.361 OA
ATOM     28  H3  UNL     1      13.356   8.619   6.652  1.00  0.00     0.217 HD
ENDBRANCH  24  27
ENDBRANCH  19  21
ENDBRANCH  16  19
ENDBRANCH   1  15
TORSDOF 5
ENDMDL
