MODEL 4
REMARK VINA RESULT: -9.024417770      2.897      7.123
REMARK  5 active torsions:
REMARK  status: ('A' for Active; 'I' for Inactive)
REMARK    1  A    between atoms: C9_13  and  N2_14 
REMARK    2  A    between atoms: N2_14  and  N3_15 
REMARK       I    between atoms: N3_15  and  C10_17 
REMARK    3  A    between atoms: C10_17  and  C11_19 
REMARK    4  A    between atoms: C11_19  and  C13_21 
REMARK    5  A    between atoms: C16_24  and  O3_25 
ROOT
HETATM    1  N2  UNL     1      20.115  10.551   4.040  1.00  0.00    -0.119 NA
ENDROOT
BRANCH   1   2
HETATM    2  C9  UNL     1      18.886  10.488   4.817  1.00  0.00     0.228 C 
HETATM    3  C6  UNL     1      19.231   9.769   6.079  1.00  0.00     0.021 A 
HETATM    4  C5  UNL     1      20.028  10.210   7.113  1.00  0.00     0.044 A 
HETATM    5  C7  UNL     1      18.675   8.524   6.061  1.00  0.00     0.051 A 
HETATM    6  C4  UNL     1      20.267   9.353   8.166  1.00  0.00     0.025 A 
HETATM    7 CL1  UNL     1      20.713  11.832   7.103  1.00  0.00    -0.084 Cl
HETATM    8  C3  UNL     1      19.723   8.073   8.190  1.00  0.00     0.011 A 
HETATM    9  C2  UNL     1      18.932   7.684   7.131  1.00  0.00    -0.035 A 
HETATM   10  C1  UNL     1      18.339   6.324   7.103  1.00  0.00     0.050 C 
HETATM   11  N1  UNL     1      17.876   8.374   4.889  1.00  0.00    -0.324 N 
HETATM   12  C8  UNL     1      17.938   9.576   4.147  1.00  0.00     0.248 C 
ATOM     13  H1  UNL     1      17.349   7.540   4.630  1.00  0.00     0.169 HD
HETATM   14  O1  UNL     1      17.298   9.816   3.107  1.00  0.00    -0.271 OA
ENDBRANCH   1   2
BRANCH   1  15
HETATM   15  N3  UNL     1      19.881  11.266   2.866  1.00  0.00    -0.272 N 
HETATM   16  C10 UNL     1      20.344  12.606   2.853  1.00  0.00     0.241 C 
HETATM   17  O2  UNL     1      20.919  13.030   3.915  1.00  0.00    -0.271 OA
ATOM     18  H3  UNL     1      19.405  10.849   2.065  1.00  0.00     0.185 HD
BRANCH  16  19
HETATM   19  C11 UNL     1      20.200  13.550   1.697  1.00  0.00     0.108 C 
HETATM   20  C12 UNL     1      21.405  14.377   1.467  1.00  0.00     0.025 C 
BRANCH  19  21
HETATM   21  C13 UNL     1      19.893  12.688   0.506  1.00  0.00    -0.045 A 
HETATM   22  C14 UNL     1      18.596  12.504   0.094  1.00  0.00     0.011 A 
HETATM   23  C15 UNL     1      18.283  11.698  -1.009  1.00  0.00     0.037 A 
HETATM   24  C16 UNL     1      19.305  11.077  -1.692  1.00  0.00     0.065 A 
HETATM   25  C17 UNL     1      20.606  11.260  -1.281  1.00  0.00     0.037 A 
HETATM   26  C18 UNL     1      20.905  12.064  -0.183  1.00  0.00     0.011 A 
BRANCH  24  27
HETATM   27  O3  UNL     1      19.017  10.252  -2.802  1.00  0.00    -0.361 OA
ATOM     28  H3  UNL     1      19.008   9.307  -2.704  1.00  0.00     0.217 HD
ENDBRANCH  24  27
ENDBRANCH  19  21
ENDBRANCH  16  19
ENDBRANCH   1  15
TORSDOF 5
ENDMDL
