MODEL 1
REMARK VINA RESULT: -9.906808057      0.000      0.000
REMARK  5 active torsions:
REMARK  status: ('A' for Active; 'I' for Inactive)
REMARK    1  A    between atoms: C9_13  and  N2_14 
REMARK    2  A    between atoms: N2_14  and  N3_15 
REMARK       I    between atoms: N3_15  and  C10_17 
REMARK    3  A    between atoms: C10_17  and  C11_19 
REMARK    4  A    between atoms: C11_19  and  C13_21 
REMARK    5  A    between atoms: C16_24  and  O3_25 
ROOT
HETATM    1  N2  UNL     1      20.275  10.336   4.879  1.00  0.00    -0.119 NA
ENDROOT
BRANCH   1   2
HETATM    2  C9  UNL     1      19.644  11.649   4.889  1.00  0.00     0.228 C 
HETATM    3  C6  UNL     1      19.633  12.113   3.471  1.00  0.00     0.021 A 
HETATM    4  C5  UNL     1      18.892  11.611   2.423  1.00  0.00     0.044 A 
HETATM    5  C7  UNL     1      20.539  13.119   3.314  1.00  0.00     0.051 A 
HETATM    6  C4  UNL     1      19.082  12.153   1.169  1.00  0.00     0.025 A 
HETATM    7 CL1  UNL     1      17.722  10.321   2.674  1.00  0.00    -0.084 Cl
HETATM    8  C3  UNL     1      19.997  13.180   0.961  1.00  0.00     0.011 A 
HETATM    9  C2  UNL     1      20.709  13.646   2.044  1.00  0.00    -0.035 A 
HETATM   10  C1  UNL     1      21.706  14.730   1.870  1.00  0.00     0.050 C 
HETATM   11  N1  UNL     1      21.115  13.447   4.577  1.00  0.00    -0.324 N 
HETATM   12  C8  UNL     1      20.542  12.609   5.561  1.00  0.00     0.248 C 
ATOM     13  H1  UNL     1      21.820  14.166   4.741  1.00  0.00     0.169 HD
HETATM   14  O1  UNL     1      20.763  12.677   6.784  1.00  0.00    -0.271 OA
ENDBRANCH   1   2
BRANCH   1  15
HETATM   15  N3  UNL     1      19.339   9.373   5.256  1.00  0.00    -0.272 N 
HETATM   16  C10 UNL     1      19.513   8.813   6.547  1.00  0.00     0.241 C 
HETATM   17  O2  UNL     1      20.509   9.236   7.232  1.00  0.00    -0.271 OA
ATOM     18  H3  UNL     1      18.577   9.090   4.641  1.00  0.00     0.185 HD
BRANCH  16  19
HETATM   19  C11 UNL     1      18.625   7.769   7.153  1.00  0.00     0.108 C 
HETATM   20  C12 UNL     1      18.586   7.823   8.631  1.00  0.00     0.025 C 
BRANCH  19  21
HETATM   21  C13 UNL     1      17.264   8.002   6.562  1.00  0.00    -0.045 A 
HETATM   22  C14 UNL     1      17.032   7.760   5.230  1.00  0.00     0.011 A 
HETATM   23  C15 UNL     1      15.773   7.976   4.653  1.00  0.00     0.037 A 
HETATM   24  C16 UNL     1      14.748   8.446   5.445  1.00  0.00     0.065 A 
HETATM   25  C17 UNL     1      14.978   8.689   6.780  1.00  0.00     0.037 A 
HETATM   26  C18 UNL     1      16.234   8.469   7.343  1.00  0.00     0.011 A 
BRANCH  24  27
HETATM   27  O3  UNL     1      13.472   8.682   4.887  1.00  0.00    -0.361 OA
ATOM     28  H3  UNL     1      12.837   9.212   5.356  1.00  0.00     0.217 HD
ENDBRANCH  24  27
ENDBRANCH  19  21
ENDBRANCH  16  19
ENDBRANCH   1  15
TORSDOF 5
ENDMDL
