MODEL 16
REMARK VINA RESULT: -5.986378629      2.010      4.308
REMARK  2 active torsions:
REMARK  status: ('A' for Active; 'I' for Inactive)
REMARK    1  A    between atoms: N1_2  and  C1_4 
REMARK    2  A    between atoms: C4_7  and  O3_8 
ROOT
HETATM    1  C1  UNL     1       9.719  41.500  17.549  1.00  0.00     0.103 A 
HETATM    2  C2  UNL     1      10.138  42.781  17.305  1.00  0.00     0.039 A 
HETATM    3  C3  UNL     1       9.205  43.718  16.865  1.00  0.00     0.039 A 
HETATM    4  C4  UNL     1       7.887  43.357  16.682  1.00  0.00     0.065 A 
HETATM    5  C5  UNL     1       7.482  42.070  16.931  1.00  0.00     0.039 A 
HETATM    6  C6  UNL     1       8.408  41.130  17.370  1.00  0.00     0.039 A 
ENDROOT
BRANCH   1   7
HETATM    7  N1  UNL     1      10.637  40.522  17.995  1.00  0.00    -0.116 N 
HETATM    8  O1  UNL     1      10.331  39.308  17.906  1.00  0.00    -0.532 OA
HETATM    9  O2  UNL     1      11.872  40.880  18.530  1.00  0.00    -0.532 OA
ENDBRANCH   1   7
BRANCH   4  10
HETATM   10  O3  UNL     1       6.980  44.320  16.241  1.00  0.00    -0.361 OA
ATOM     11  H3  UNL     1       7.244  45.232  16.236  1.00  0.00     0.217 HD
ENDBRANCH   4  10
TORSDOF 2
ENDMDL
