MODEL 5
REMARK VINA RESULT: -6.281288484      1.760      4.398
REMARK  2 active torsions:
REMARK  status: ('A' for Active; 'I' for Inactive)
REMARK    1  A    between atoms: N1_2  and  C1_4 
REMARK    2  A    between atoms: C4_7  and  O3_8 
ROOT
HETATM    1  C1  UNL     1      10.243  40.970  18.441  1.00  0.00     0.103 A 
HETATM    2  C2  UNL     1      10.889  41.939  17.721  1.00  0.00     0.039 A 
HETATM    3  C3  UNL     1      10.127  42.841  16.981  1.00  0.00     0.039 A 
HETATM    4  C4  UNL     1       8.751  42.754  16.977  1.00  0.00     0.065 A 
HETATM    5  C5  UNL     1       8.119  41.777  17.703  1.00  0.00     0.039 A 
HETATM    6  C6  UNL     1       8.873  40.873  18.445  1.00  0.00     0.039 A 
ENDROOT
BRANCH   1   7
HETATM    7  N1  UNL     1      10.982  40.036  19.204  1.00  0.00    -0.116 N 
HETATM    8  O1  UNL     1      12.235  40.103  19.209  1.00  0.00    -0.532 OA
HETATM    9  O2  UNL     1      10.345  39.046  19.949  1.00  0.00    -0.532 OA
ENDBRANCH   1   7
BRANCH   4  10
HETATM   10  O3  UNL     1       8.019  43.673  16.224  1.00  0.00    -0.361 OA
ATOM     11  H3  UNL     1       7.091  43.522  16.092  1.00  0.00     0.217 HD
ENDBRANCH   4  10
TORSDOF 2
ENDMDL
