MODEL 11
REMARK VINA RESULT: -6.119534716      1.982      3.925
REMARK  2 active torsions:
REMARK  status: ('A' for Active; 'I' for Inactive)
REMARK    1  A    between atoms: N1_2  and  C1_4 
REMARK    2  A    between atoms: C4_7  and  O3_8 
ROOT
HETATM    1  C1  UNL     1      10.231  41.645  17.786  1.00  0.00     0.103 A 
HETATM    2  C2  UNL     1       9.140  40.850  18.021  1.00  0.00     0.039 A 
HETATM    3  C3  UNL     1       7.880  41.318  17.655  1.00  0.00     0.039 A 
HETATM    4  C4  UNL     1       7.740  42.559  17.069  1.00  0.00     0.065 A 
HETATM    5  C5  UNL     1       8.841  43.343  16.840  1.00  0.00     0.039 A 
HETATM    6  C6  UNL     1      10.103  42.882  17.203  1.00  0.00     0.039 A 
ENDROOT
BRANCH   1   7
HETATM    7  N1  UNL     1      11.525  41.204  18.144  1.00  0.00    -0.116 N 
HETATM    8  O1  UNL     1      12.526  41.824  17.710  1.00  0.00    -0.532 OA
HETATM    9  O2  UNL     1      11.709  40.097  18.969  1.00  0.00    -0.532 OA
ENDBRANCH   1   7
BRANCH   4  10
HETATM   10  O3  UNL     1       6.463  42.997  16.715  1.00  0.00    -0.361 OA
ATOM     11  H3  UNL     1       6.364  43.554  15.953  1.00  0.00     0.217 HD
ENDBRANCH   4  10
TORSDOF 2
ENDMDL
