MODEL 14
REMARK VINA RESULT: -5.990703727      1.757      2.501
REMARK  2 active torsions:
REMARK  status: ('A' for Active; 'I' for Inactive)
REMARK    1  A    between atoms: N1_2  and  C1_4 
REMARK    2  A    between atoms: C4_7  and  O3_8 
ROOT
HETATM    1  C1  UNL     1       8.140  43.493  17.080  1.00  0.00     0.103 A 
HETATM    2  C2  UNL     1       9.504  43.606  17.029  1.00  0.00     0.039 A 
HETATM    3  C3  UNL     1      10.280  42.497  17.361  1.00  0.00     0.039 A 
HETATM    4  C4  UNL     1       9.680  41.312  17.733  1.00  0.00     0.065 A 
HETATM    5  C5  UNL     1       8.312  41.214  17.779  1.00  0.00     0.039 A 
HETATM    6  C6  UNL     1       7.532  42.318  17.449  1.00  0.00     0.039 A 
ENDROOT
BRANCH   1   7
HETATM    7  N1  UNL     1       7.320  44.597  16.751  1.00  0.00    -0.116 N 
HETATM    8  O1  UNL     1       6.073  44.476  16.817  1.00  0.00    -0.532 OA
HETATM    9  O2  UNL     1       7.871  45.814  16.357  1.00  0.00    -0.532 OA
ENDBRANCH   1   7
BRANCH   4  10
HETATM   10  O3  UNL     1      10.486  40.221  18.059  1.00  0.00    -0.361 OA
ATOM     11  H3  UNL     1      10.141  39.344  17.943  1.00  0.00     0.217 HD
ENDBRANCH   4  10
TORSDOF 2
ENDMDL
