MODEL 6
REMARK VINA RESULT: -6.240046397      1.758      4.137
REMARK  2 active torsions:
REMARK  status: ('A' for Active; 'I' for Inactive)
REMARK    1  A    between atoms: N1_2  and  C1_4 
REMARK    2  A    between atoms: C4_7  and  O3_8 
ROOT
HETATM    1  C1  UNL     1      10.222  40.948  18.460  1.00  0.00     0.103 A 
HETATM    2  C2  UNL     1       8.854  40.877  18.451  1.00  0.00     0.039 A 
HETATM    3  C3  UNL     1       8.141  41.807  17.697  1.00  0.00     0.039 A 
HETATM    4  C4  UNL     1       8.805  42.778  16.977  1.00  0.00     0.065 A 
HETATM    5  C5  UNL     1      10.175  42.837  16.996  1.00  0.00     0.039 A 
HETATM    6  C6  UNL     1      10.893  41.911  17.747  1.00  0.00     0.039 A 
ENDROOT
BRANCH   1   7
HETATM    7  N1  UNL     1      10.980  40.023  19.214  1.00  0.00    -0.116 N 
HETATM    8  O1  UNL     1      12.232  40.107  19.208  1.00  0.00    -0.532 OA
HETATM    9  O2  UNL     1      10.363  39.023  19.962  1.00  0.00    -0.532 OA
ENDBRANCH   1   7
BRANCH   4  10
HETATM   10  O3  UNL     1       8.060  43.693  16.233  1.00  0.00    -0.361 OA
ATOM     11  H3  UNL     1       7.819  44.521  16.632  1.00  0.00     0.217 HD
ENDBRANCH   4  10
TORSDOF 2
ENDMDL
