MODEL 13
REMARK VINA RESULT: -6.062254749      2.096      2.916
REMARK  2 active torsions:
REMARK  status: ('A' for Active; 'I' for Inactive)
REMARK    1  A    between atoms: N1_2  and  C1_4 
REMARK    2  A    between atoms: C4_7  and  O3_8 
ROOT
HETATM    1  C1  UNL     1       8.285  44.018  17.693  1.00  0.00     0.103 A 
HETATM    2  C2  UNL     1       9.518  43.808  17.134  1.00  0.00     0.039 A 
HETATM    3  C3  UNL     1      10.016  42.508  17.084  1.00  0.00     0.039 A 
HETATM    4  C4  UNL     1       9.278  41.457  17.589  1.00  0.00     0.065 A 
HETATM    5  C5  UNL     1       8.045  41.684  18.145  1.00  0.00     0.039 A 
HETATM    6  C6  UNL     1       7.541  42.980  18.198  1.00  0.00     0.039 A 
ENDROOT
BRANCH   1   7
HETATM    7  N1  UNL     1       7.746  45.323  17.762  1.00  0.00    -0.116 N 
HETATM    8  O1  UNL     1       7.419  45.793  18.879  1.00  0.00    -0.532 OA
HETATM    9  O2  UNL     1       7.572  46.095  16.616  1.00  0.00    -0.532 OA
ENDBRANCH   1   7
BRANCH   4  10
HETATM   10  O3  UNL     1       9.808  40.169  17.523  1.00  0.00    -0.361 OA
ATOM     11  H3  UNL     1       9.219  39.438  17.377  1.00  0.00     0.217 HD
ENDBRANCH   4  10
TORSDOF 2
ENDMDL
