MODEL 15
REMARK VINA RESULT: -5.988291099      1.744      2.024
REMARK  2 active torsions:
REMARK  status: ('A' for Active; 'I' for Inactive)
REMARK    1  A    between atoms: N1_2  and  C1_4 
REMARK    2  A    between atoms: C4_7  and  O3_8 
ROOT
HETATM    1  C1  UNL     1       8.101  43.456  17.091  1.00  0.00     0.103 A 
HETATM    2  C2  UNL     1       7.534  42.263  17.457  1.00  0.00     0.039 A 
HETATM    3  C3  UNL     1       8.371  41.198  17.783  1.00  0.00     0.039 A 
HETATM    4  C4  UNL     1       9.741  41.347  17.737  1.00  0.00     0.065 A 
HETATM    5  C5  UNL     1      10.293  42.547  17.369  1.00  0.00     0.039 A 
HETATM    6  C6  UNL     1       9.464  43.615  17.042  1.00  0.00     0.039 A 
ENDROOT
BRANCH   1   7
HETATM    7  N1  UNL     1       7.285  44.559  16.753  1.00  0.00    -0.116 N 
HETATM    8  O1  UNL     1       6.037  44.439  16.805  1.00  0.00    -0.532 OA
HETATM    9  O2  UNL     1       7.840  45.776  16.363  1.00  0.00    -0.532 OA
ENDBRANCH   1   7
BRANCH   4  10
HETATM   10  O3  UNL     1      10.549  40.259  18.069  1.00  0.00    -0.361 OA
ATOM     11  H3  UNL     1      11.302  40.402  18.630  1.00  0.00     0.217 HD
ENDBRANCH   4  10
TORSDOF 2
ENDMDL
