MODEL 12
REMARK VINA RESULT: -6.100633808      1.978      4.127
REMARK  2 active torsions:
REMARK  status: ('A' for Active; 'I' for Inactive)
REMARK    1  A    between atoms: N1_2  and  C1_4 
REMARK    2  A    between atoms: C4_7  and  O3_8 
ROOT
HETATM    1  C1  UNL     1      10.229  41.681  17.770  1.00  0.00     0.103 A 
HETATM    2  C2  UNL     1      10.087  42.909  17.181  1.00  0.00     0.039 A 
HETATM    3  C3  UNL     1       8.809  43.340  16.831  1.00  0.00     0.039 A 
HETATM    4  C4  UNL     1       7.712  42.539  17.074  1.00  0.00     0.065 A 
HETATM    5  C5  UNL     1       7.870  41.311  17.664  1.00  0.00     0.039 A 
HETATM    6  C6  UNL     1       9.144  40.875  18.017  1.00  0.00     0.039 A 
ENDROOT
BRANCH   1   7
HETATM    7  N1  UNL     1      11.510  41.210  18.139  1.00  0.00    -0.116 N 
HETATM    8  O1  UNL     1      12.528  41.815  17.727  1.00  0.00    -0.532 OA
HETATM    9  O2  UNL     1      11.661  40.087  18.951  1.00  0.00    -0.532 OA
ENDBRANCH   1   7
BRANCH   4  10
HETATM   10  O3  UNL     1       6.448  43.001  16.710  1.00  0.00    -0.361 OA
ATOM     11  H3  UNL     1       5.915  42.470  16.129  1.00  0.00     0.217 HD
ENDBRANCH   4  10
TORSDOF 2
ENDMDL
