MODEL 8
REMARK VINA RESULT: -8.510388405      3.251      5.211
REMARK  7 active torsions:
REMARK  status: ('A' for Active; 'I' for Inactive)
REMARK    1  A    between atoms: C1_2  and  C2_3 
REMARK       I    between atoms: C1_2  and  N1_27 
REMARK    2  A    between atoms: C2_3  and  C3_4 
REMARK    3  A    between atoms: C3_4  and  S1_5 
REMARK    4  A    between atoms: S1_5  and  C4_8 
REMARK    5  A    between atoms: C7_11  and  O4_12 
REMARK    6  A    between atoms: O4_12  and  C8_13 
REMARK    7  A    between atoms: N1_27  and  O6_29 
ROOT
HETATM    1  S1  UNL     1      -0.236  28.228  57.240  1.00  0.00     0.184 S 
HETATM    2  O2  UNL     1       0.233  29.110  58.347  1.00  0.00    -0.222 OA
HETATM    3  O3  UNL     1       0.587  28.545  56.017  1.00  0.00    -0.222 OA
ENDROOT
BRANCH   1   4
HETATM    4  C3  UNL     1       0.186  26.528  57.674  1.00  0.00     0.081 C 
HETATM    5  C16 UNL     1       0.219  26.503  59.185  1.00  0.00     0.052 C 
HETATM    6  C17 UNL     1       1.569  26.917  59.746  1.00  0.00     0.169 C 
HETATM    7  O5  UNL     1       2.509  26.045  59.195  1.00  0.00    -0.391 OA
HETATM    8  C18 UNL     1       2.695  26.458  57.878  1.00  0.00     0.169 C 
HETATM    9  C19 UNL     1       1.484  26.220  57.024  1.00  0.00     0.052 C 
BRANCH   4  10
HETATM   10  C2  UNL     1      -0.963  25.693  57.171  1.00  0.00     0.131 C 
BRANCH  10  11
HETATM   11  C1  UNL     1      -0.637  24.782  56.082  1.00  0.00     0.242 C 
HETATM   12  O1  UNL     1      -0.899  25.053  54.890  1.00  0.00    -0.271 OA
HETATM   13  N1  UNL     1      -0.003  23.550  56.370  1.00  0.00    -0.237 N 
ATOM     14  H1  UNL     1       0.212  23.326  57.341  1.00  0.00     0.197 HD
BRANCH  13  15
HETATM   15  O6  UNL     1       0.329  22.659  55.415  1.00  0.00    -0.287 OA
ATOM     16  H6  UNL     1      -0.183  22.539  54.623  1.00  0.00     0.244 HD
ENDBRANCH  13  15
ENDBRANCH  10  11
ENDBRANCH   4  10
ENDBRANCH   1   4
BRANCH   1  17
HETATM   17  C4  UNL     1      -1.924  28.393  56.889  1.00  0.00     0.060 A 
HETATM   18  C5  UNL     1      -2.373  28.247  55.594  1.00  0.00     0.026 A 
HETATM   19  C6  UNL     1      -3.711  28.378  55.316  1.00  0.00     0.039 A 
HETATM   20  C7  UNL     1      -4.574  28.652  56.337  1.00  0.00     0.076 A 
HETATM   21  C14 UNL     1      -4.142  28.801  57.631  1.00  0.00     0.039 A 
HETATM   22  C15 UNL     1      -2.798  28.670  57.920  1.00  0.00     0.026 A 
BRANCH  20  23
HETATM   23  O4  UNL     1      -5.925  28.790  56.087  1.00  0.00    -0.311 OA
BRANCH  23  24
HETATM   24  C8  UNL     1      -6.502  28.041  55.073  1.00  0.00     0.076 A 
HETATM   25  C9  UNL     1      -6.893  28.625  53.897  1.00  0.00     0.039 A 
HETATM   26  C10 UNL     1      -7.471  27.915  52.864  1.00  0.00     0.026 A 
HETATM   27  C11 UNL     1      -7.664  26.557  53.019  1.00  0.00     0.034 A 
HETATM   28 CL1  UNL     1      -8.394  25.648  51.717  1.00  0.00    -0.084 Cl
HETATM   29  C12 UNL     1      -7.270  25.960  54.207  1.00  0.00     0.026 A 
HETATM   30  C13 UNL     1      -6.693  26.688  55.230  1.00  0.00     0.039 A 
ENDBRANCH  23  24
ENDBRANCH  20  23
ENDBRANCH   1  17
TORSDOF 7
ENDMDL
