MODEL 12
REMARK VINA RESULT: -8.360125645      3.268      5.003
REMARK  7 active torsions:
REMARK  status: ('A' for Active; 'I' for Inactive)
REMARK    1  A    between atoms: C1_2  and  C2_3 
REMARK       I    between atoms: C1_2  and  N1_27 
REMARK    2  A    between atoms: C2_3  and  C3_4 
REMARK    3  A    between atoms: C3_4  and  S1_5 
REMARK    4  A    between atoms: S1_5  and  C4_8 
REMARK    5  A    between atoms: C7_11  and  O4_12 
REMARK    6  A    between atoms: O4_12  and  C8_13 
REMARK    7  A    between atoms: N1_27  and  O6_29 
ROOT
HETATM    1  S1  UNL     1      -4.557  31.438  57.631  1.00  0.00     0.184 S 
HETATM    2  O2  UNL     1      -3.134  31.879  57.678  1.00  0.00    -0.222 OA
HETATM    3  O3  UNL     1      -5.027  31.242  59.050  1.00  0.00    -0.222 OA
ENDROOT
BRANCH   1   4
HETATM    4  C3  UNL     1      -5.539  32.807  56.985  1.00  0.00     0.081 C 
HETATM    5  C16 UNL     1      -4.828  34.057  57.453  1.00  0.00     0.052 C 
HETATM    6  C17 UNL     1      -5.257  34.486  58.846  1.00  0.00     0.169 C 
HETATM    7  O5  UNL     1      -6.639  34.667  58.795  1.00  0.00    -0.391 OA
HETATM    8  C18 UNL     1      -7.197  33.391  58.789  1.00  0.00     0.169 C 
HETATM    9  C19 UNL     1      -6.916  32.646  57.517  1.00  0.00     0.052 C 
BRANCH   4  10
HETATM   10  C2  UNL     1      -5.446  32.692  55.486  1.00  0.00     0.131 C 
BRANCH  10  11
HETATM   11  C1  UNL     1      -6.719  32.543  54.795  1.00  0.00     0.242 C 
HETATM   12  O1  UNL     1      -7.212  31.422  54.546  1.00  0.00    -0.271 OA
HETATM   13  N1  UNL     1      -7.430  33.698  54.388  1.00  0.00    -0.237 N 
ATOM     14  H1  UNL     1      -7.030  34.614  54.590  1.00  0.00     0.197 HD
BRANCH  13  15
HETATM   15  O6  UNL     1      -8.613  33.638  53.745  1.00  0.00    -0.287 OA
ATOM     16  H6  UNL     1      -8.828  34.199  53.010  1.00  0.00     0.244 HD
ENDBRANCH  13  15
ENDBRANCH  10  11
ENDBRANCH   4  10
ENDBRANCH   1   4
BRANCH   1  17
HETATM   17  C4  UNL     1      -4.804  29.991  56.710  1.00  0.00     0.060 A 
HETATM   18  C5  UNL     1      -3.800  29.519  55.893  1.00  0.00     0.026 A 
HETATM   19  C6  UNL     1      -3.996  28.372  55.163  1.00  0.00     0.039 A 
HETATM   20  C7  UNL     1      -5.190  27.722  55.263  1.00  0.00     0.076 A 
HETATM   21  C14 UNL     1      -6.200  28.180  56.072  1.00  0.00     0.039 A 
HETATM   22  C15 UNL     1      -6.011  29.331  56.810  1.00  0.00     0.026 A 
BRANCH  20  23
HETATM   23  O4  UNL     1      -5.416  26.566  54.541  1.00  0.00    -0.311 OA
BRANCH  23  24
HETATM   24  C8  UNL     1      -6.276  26.608  53.454  1.00  0.00     0.076 A 
HETATM   25  C9  UNL     1      -7.300  25.708  53.326  1.00  0.00     0.039 A 
HETATM   26  C10 UNL     1      -8.176  25.717  52.260  1.00  0.00     0.026 A 
HETATM   27  C11 UNL     1      -8.018  26.675  51.279  1.00  0.00     0.034 A 
HETATM   28 CL1  UNL     1      -9.123  26.695  49.925  1.00  0.00    -0.084 Cl
HETATM   29  C12 UNL     1      -6.983  27.590  51.403  1.00  0.00     0.026 A 
HETATM   30  C13 UNL     1      -6.115  27.564  52.478  1.00  0.00     0.039 A 
ENDBRANCH  23  24
ENDBRANCH  20  23
ENDBRANCH   1  17
TORSDOF 7
ENDMDL
