MODEL 1
REMARK VINA RESULT: -9.829050843      0.000      0.000
REMARK  7 active torsions:
REMARK  status: ('A' for Active; 'I' for Inactive)
REMARK    1  A    between atoms: C1_2  and  C2_3 
REMARK       I    between atoms: C1_2  and  N1_27 
REMARK    2  A    between atoms: C2_3  and  C3_4 
REMARK    3  A    between atoms: C3_4  and  S1_5 
REMARK    4  A    between atoms: S1_5  and  C4_8 
REMARK    5  A    between atoms: C7_11  and  O4_12 
REMARK    6  A    between atoms: O4_12  and  C8_13 
REMARK    7  A    between atoms: N1_27  and  O6_29 
ROOT
HETATM    1  S1  UNL     1      -5.752  29.190  56.214  1.00  0.00     0.184 S 
HETATM    2  O2  UNL     1      -6.200  28.895  57.605  1.00  0.00    -0.222 OA
HETATM    3  O3  UNL     1      -6.057  30.638  55.927  1.00  0.00    -0.222 OA
ENDROOT
BRANCH   1   4
HETATM    4  C3  UNL     1      -3.953  29.062  56.175  1.00  0.00     0.081 C 
HETATM    5  C16 UNL     1      -3.573  28.437  57.498  1.00  0.00     0.052 C 
HETATM    6  C17 UNL     1      -3.415  29.465  58.605  1.00  0.00     0.169 C 
HETATM    7  O5  UNL     1      -2.450  30.371  58.168  1.00  0.00    -0.391 OA
HETATM    8  C18 UNL     1      -3.077  31.179  57.222  1.00  0.00     0.169 C 
HETATM    9  C19 UNL     1      -3.422  30.432  55.966  1.00  0.00     0.052 C 
BRANCH   4  10
HETATM   10  C2  UNL     1      -3.646  28.110  55.048  1.00  0.00     0.131 C 
BRANCH  10  11
HETATM   11  C1  UNL     1      -2.825  26.964  55.412  1.00  0.00     0.242 C 
HETATM   12  O1  UNL     1      -1.642  27.090  55.798  1.00  0.00    -0.271 OA
HETATM   13  N1  UNL     1      -3.372  25.660  55.331  1.00  0.00    -0.237 N 
ATOM     14  H1  UNL     1      -4.337  25.554  55.016  1.00  0.00     0.197 HD
BRANCH  13  15
HETATM   15  O6  UNL     1      -2.673  24.554  55.651  1.00  0.00    -0.287 OA
ATOM     16  H6  UNL     1      -1.982  24.204  55.101  1.00  0.00     0.244 HD
ENDBRANCH  13  15
ENDBRANCH  10  11
ENDBRANCH   4  10
ENDBRANCH   1   4
BRANCH   1  17
HETATM   17  C4  UNL     1      -6.486  28.172  55.019  1.00  0.00     0.060 A 
HETATM   18  C5  UNL     1      -6.881  28.708  53.811  1.00  0.00     0.026 A 
HETATM   19  C6  UNL     1      -7.463  27.901  52.865  1.00  0.00     0.039 A 
HETATM   20  C7  UNL     1      -7.639  26.578  53.143  1.00  0.00     0.076 A 
HETATM   21  C14 UNL     1      -7.251  26.030  54.340  1.00  0.00     0.039 A 
HETATM   22  C15 UNL     1      -6.665  26.834  55.298  1.00  0.00     0.026 A 
BRANCH  20  23
HETATM   23  O4  UNL     1      -8.222  25.742  52.210  1.00  0.00    -0.311 OA
BRANCH  23  24
HETATM   24  C8  UNL     1      -8.550  26.250  50.962  1.00  0.00     0.076 A 
HETATM   25  C9  UNL     1      -7.647  26.980  50.236  1.00  0.00     0.039 A 
HETATM   26  C10 UNL     1      -7.935  27.503  48.992  1.00  0.00     0.026 A 
HETATM   27  C11 UNL     1      -9.186  27.282  48.452  1.00  0.00     0.034 A 
HETATM   28 CL1  UNL     1      -9.560  27.939  46.876  1.00  0.00    -0.084 Cl
HETATM   29  C12 UNL     1     -10.104  26.543  49.183  1.00  0.00     0.026 A 
HETATM   30  C13 UNL     1      -9.797  26.028  50.427  1.00  0.00     0.039 A 
ENDBRANCH  23  24
ENDBRANCH  20  23
ENDBRANCH   1  17
TORSDOF 7
ENDMDL
