MODEL 10
REMARK VINA RESULT: -8.417154128      4.966      6.706
REMARK  7 active torsions:
REMARK  status: ('A' for Active; 'I' for Inactive)
REMARK    1  A    between atoms: C1_2  and  C2_3 
REMARK       I    between atoms: C1_2  and  N1_27 
REMARK    2  A    between atoms: C2_3  and  C3_4 
REMARK    3  A    between atoms: C3_4  and  S1_5 
REMARK    4  A    between atoms: S1_5  and  C4_8 
REMARK    5  A    between atoms: C7_11  and  O4_12 
REMARK    6  A    between atoms: O4_12  and  C8_13 
REMARK    7  A    between atoms: N1_27  and  O6_29 
ROOT
HETATM    1  S1  UNL     1      -7.267  32.901  57.031  1.00  0.00     0.184 S 
HETATM    2  O2  UNL     1      -6.736  34.014  56.193  1.00  0.00    -0.222 OA
HETATM    3  O3  UNL     1      -6.654  33.023  58.403  1.00  0.00    -0.222 OA
ENDROOT
BRANCH   1   4
HETATM    4  C3  UNL     1      -9.033  33.184  57.269  1.00  0.00     0.081 C 
HETATM    5  C16 UNL     1      -9.707  32.449  56.133  1.00  0.00     0.052 C 
HETATM    6  C17 UNL     1      -9.804  33.289  54.871  1.00  0.00     0.169 C 
HETATM    7  O5  UNL     1     -10.499  34.447  55.219  1.00  0.00    -0.391 OA
HETATM    8  C18 UNL     1      -9.600  35.240  55.928  1.00  0.00     0.169 C 
HETATM    9  C19 UNL     1      -9.245  34.653  57.264  1.00  0.00     0.052 C 
BRANCH   4  10
HETATM   10  C2  UNL     1      -9.369  32.524  58.581  1.00  0.00     0.131 C 
BRANCH  10  11
HETATM   11  C1  UNL     1     -10.364  33.217  59.387  1.00  0.00     0.242 C 
HETATM   12  O1  UNL     1     -10.053  33.875  60.403  1.00  0.00    -0.271 OA
HETATM   13  N1  UNL     1     -11.730  33.151  59.018  1.00  0.00    -0.237 N 
ATOM     14  H1  UNL     1     -11.986  32.614  58.189  1.00  0.00     0.197 HD
BRANCH  13  15
HETATM   15  O6  UNL     1     -12.705  33.766  59.715  1.00  0.00    -0.287 OA
ATOM     16  H6  UNL     1     -12.621  34.654  60.044  1.00  0.00     0.244 HD
ENDBRANCH  13  15
ENDBRANCH  10  11
ENDBRANCH   4  10
ENDBRANCH   1   4
BRANCH   1  17
HETATM   17  C4  UNL     1      -6.960  31.328  56.372  1.00  0.00     0.060 A 
HETATM   18  C5  UNL     1      -6.489  30.323  57.189  1.00  0.00     0.026 A 
HETATM   19  C6  UNL     1      -6.245  29.077  56.666  1.00  0.00     0.039 A 
HETATM   20  C7  UNL     1      -6.477  28.860  55.339  1.00  0.00     0.076 A 
HETATM   21  C14 UNL     1      -6.946  29.851  54.514  1.00  0.00     0.039 A 
HETATM   22  C15 UNL     1      -7.195  31.107  55.031  1.00  0.00     0.026 A 
BRANCH  20  23
HETATM   23  O4  UNL     1      -6.241  27.617  54.786  1.00  0.00    -0.311 OA
BRANCH  23  24
HETATM   24  C8  UNL     1      -6.876  27.276  53.601  1.00  0.00     0.076 A 
HETATM   25  C9  UNL     1      -6.419  27.738  52.395  1.00  0.00     0.039 A 
HETATM   26  C10 UNL     1      -7.023  27.422  51.195  1.00  0.00     0.026 A 
HETATM   27  C11 UNL     1      -8.134  26.602  51.206  1.00  0.00     0.034 A 
HETATM   28 CL1  UNL     1      -8.905  26.195  49.692  1.00  0.00    -0.084 Cl
HETATM   29  C12 UNL     1      -8.600  26.131  52.425  1.00  0.00     0.026 A 
HETATM   30  C13 UNL     1      -7.983  26.460  53.616  1.00  0.00     0.039 A 
ENDBRANCH  23  24
ENDBRANCH  20  23
ENDBRANCH   1  17
TORSDOF 7
ENDMDL
