MODEL 3
REMARK VINA RESULT: -9.390501475      0.892      1.364
REMARK  7 active torsions:
REMARK  status: ('A' for Active; 'I' for Inactive)
REMARK    1  A    between atoms: C1_2  and  C2_3 
REMARK       I    between atoms: C1_2  and  N1_27 
REMARK    2  A    between atoms: C2_3  and  C3_4 
REMARK    3  A    between atoms: C3_4  and  S1_5 
REMARK    4  A    between atoms: S1_5  and  C4_8 
REMARK    5  A    between atoms: C7_11  and  O4_12 
REMARK    6  A    between atoms: O4_12  and  C8_13 
REMARK    7  A    between atoms: N1_27  and  O6_29 
ROOT
HETATM    1  S1  UNL     1      -5.541  29.162  56.443  1.00  0.00     0.184 S 
HETATM    2  O2  UNL     1      -6.164  29.095  57.796  1.00  0.00    -0.222 OA
HETATM    3  O3  UNL     1      -5.554  30.603  55.999  1.00  0.00    -0.222 OA
ENDROOT
BRANCH   1   4
HETATM    4  C3  UNL     1      -3.799  28.728  56.615  1.00  0.00     0.081 C 
HETATM    5  C16 UNL     1      -3.364  29.353  57.921  1.00  0.00     0.052 C 
HETATM    6  C17 UNL     1      -2.925  30.799  57.759  1.00  0.00     0.169 C 
HETATM    7  O5  UNL     1      -1.893  30.795  56.820  1.00  0.00    -0.391 OA
HETATM    8  C18 UNL     1      -2.500  30.621  55.578  1.00  0.00     0.169 C 
HETATM    9  C19 UNL     1      -3.097  29.254  55.417  1.00  0.00     0.052 C 
BRANCH   4  10
HETATM   10  C2  UNL     1      -3.772  27.226  56.729  1.00  0.00     0.131 C 
BRANCH  10  11
HETATM   11  C1  UNL     1      -3.032  26.538  55.680  1.00  0.00     0.242 C 
HETATM   12  O1  UNL     1      -3.497  26.387  54.530  1.00  0.00    -0.271 OA
HETATM   13  N1  UNL     1      -1.745  26.020  55.961  1.00  0.00    -0.237 N 
ATOM     14  H1  UNL     1      -1.363  26.141  56.898  1.00  0.00     0.197 HD
BRANCH  13  15
HETATM   15  O6  UNL     1      -1.003  25.372  55.041  1.00  0.00    -0.287 OA
ATOM     16  H6  UNL     1      -0.104  25.108  55.198  1.00  0.00     0.244 HD
ENDBRANCH  13  15
ENDBRANCH  10  11
ENDBRANCH   4  10
ENDBRANCH   1   4
BRANCH   1  17
HETATM   17  C4  UNL     1      -6.330  28.164  55.267  1.00  0.00     0.060 A 
HETATM   18  C5  UNL     1      -6.659  28.686  54.034  1.00  0.00     0.026 A 
HETATM   19  C6  UNL     1      -7.285  27.895  53.102  1.00  0.00     0.039 A 
HETATM   20  C7  UNL     1      -7.569  26.599  53.420  1.00  0.00     0.076 A 
HETATM   21  C14 UNL     1      -7.247  26.065  54.643  1.00  0.00     0.039 A 
HETATM   22  C15 UNL     1      -6.618  26.853  55.586  1.00  0.00     0.026 A 
BRANCH  20  23
HETATM   23  O4  UNL     1      -8.197  25.780  52.503  1.00  0.00    -0.311 OA
BRANCH  23  24
HETATM   24  C8  UNL     1      -8.465  26.270  51.234  1.00  0.00     0.076 A 
HETATM   25  C9  UNL     1      -9.668  26.032  50.623  1.00  0.00     0.039 A 
HETATM   26  C10 UNL     1      -9.973  26.502  49.362  1.00  0.00     0.026 A 
HETATM   27  C11 UNL     1      -9.028  27.247  48.685  1.00  0.00     0.034 A 
HETATM   28 CL1  UNL     1      -9.405  27.847  47.087  1.00  0.00    -0.084 Cl
HETATM   29  C12 UNL     1      -7.809  27.491  49.299  1.00  0.00     0.026 A 
HETATM   30  C13 UNL     1      -7.522  27.011  50.562  1.00  0.00     0.039 A 
ENDBRANCH  23  24
ENDBRANCH  20  23
ENDBRANCH   1  17
TORSDOF 7
ENDMDL
