MODEL 7
REMARK VINA RESULT: -6.960301954      1.023      1.951
REMARK  10 active torsions:
REMARK  status: ('A' for Active; 'I' for Inactive)
REMARK    1  A    between atoms: C1_2  and  C2_3 
REMARK       I    between atoms: C1_2  and  N1_9 
REMARK    2  A    between atoms: C2_3  and  O2_4 
REMARK    3  A    between atoms: O2_4  and  P1_5 
REMARK    4  A    between atoms: N1_9  and  O6_10 
REMARK    5  A    between atoms: N1_9  and  C3_12 
REMARK    6  A    between atoms: C3_12  and  C4_13 
REMARK    7  A    between atoms: C4_13  and  C5_14 
REMARK    8  A    between atoms: C5_14  and  C6_15 
REMARK    9  A    between atoms: C6_15  and  O7_16 
REMARK   10  A    between atoms: O7_16  and  P2_17 
ROOT
HETATM    1  O1  UNL     1     -11.531 -62.886 -31.768  1.00  0.00    -0.268 OA
HETATM    2  C1  UNL     1     -12.441 -62.270 -31.357  1.00  0.00     0.271 C 
HETATM    3  N1  UNL     1     -13.795 -62.714 -31.345  1.00  0.00    -0.205 N 
ENDROOT
BRANCH   3   4
HETATM    4  O6  UNL     1     -14.742 -61.899 -30.859  1.00  0.00    -0.281 OA
ATOM      5  H6  UNL     1     -15.543 -61.778 -31.354  1.00  0.00     0.245 HD
ENDBRANCH   3   4
BRANCH   3   6
HETATM    6  C3  UNL     1     -14.091 -64.018 -31.754  1.00  0.00     0.099 C 
BRANCH   6   7
HETATM    7  C4  UNL     1     -15.258 -64.266 -32.663  1.00  0.00     0.049 C 
BRANCH   7   8
HETATM    8  C5  UNL     1     -16.205 -65.255 -32.085  1.00  0.00     0.032 C 
BRANCH   8   9
HETATM    9  C6  UNL     1     -17.590 -64.707 -31.770  1.00  0.00     0.182 C 
BRANCH   9  10
HETATM   10  O7  UNL     1     -18.461 -65.745 -32.116  1.00  0.00    -0.283 OA
BRANCH  10  11
HETATM   11  P2  UNL     1     -18.919 -65.614 -33.754  1.00  0.00     0.422 P 
HETATM   12  O8  UNL     1     -20.489 -65.700 -33.771  1.00  0.00    -0.617 OA
HETATM   13  O9  UNL     1     -18.561 -64.102 -34.338  1.00  0.00    -0.617 OA
HETATM   14  O10 UNL     1     -18.372 -66.797 -34.771  1.00  0.00    -0.617 OA
ENDBRANCH  10  11
ENDBRANCH   9  10
ENDBRANCH   8   9
ENDBRANCH   7   8
ENDBRANCH   6   7
ENDBRANCH   3   6
BRANCH   2  15
HETATM   15  C2  UNL     1     -12.198 -60.828 -30.761  1.00  0.00     0.287 C 
BRANCH  15  16
HETATM   16  O2  UNL     1     -12.408 -60.894 -29.434  1.00  0.00    -0.273 OA
BRANCH  16  17
HETATM   17  P1  UNL     1     -13.005 -59.417 -28.799  1.00  0.00     0.422 P 
HETATM   18  O3  UNL     1     -14.477 -59.346 -29.297  1.00  0.00    -0.617 OA
HETATM   19  O4  UNL     1     -13.125 -59.606 -27.076  1.00  0.00    -0.617 OA
HETATM   20  O5  UNL     1     -12.144 -58.072 -29.130  1.00  0.00    -0.617 OA
ENDBRANCH  16  17
ENDBRANCH  15  16
ENDBRANCH   2  15
TORSDOF 10
ENDMDL
