MODEL 4
REMARK VINA RESULT: -7.019671360      1.002      1.630
REMARK  10 active torsions:
REMARK  status: ('A' for Active; 'I' for Inactive)
REMARK    1  A    between atoms: C1_2  and  C2_3 
REMARK       I    between atoms: C1_2  and  N1_9 
REMARK    2  A    between atoms: C2_3  and  O2_4 
REMARK    3  A    between atoms: O2_4  and  P1_5 
REMARK    4  A    between atoms: N1_9  and  O6_10 
REMARK    5  A    between atoms: N1_9  and  C3_12 
REMARK    6  A    between atoms: C3_12  and  C4_13 
REMARK    7  A    between atoms: C4_13  and  C5_14 
REMARK    8  A    between atoms: C5_14  and  C6_15 
REMARK    9  A    between atoms: C6_15  and  O7_16 
REMARK   10  A    between atoms: O7_16  and  P2_17 
ROOT
HETATM    1  O1  UNL     1     -11.510 -62.721 -31.746  1.00  0.00    -0.268 OA
HETATM    2  C1  UNL     1     -12.430 -62.128 -31.320  1.00  0.00     0.271 C 
HETATM    3  N1  UNL     1     -13.775 -62.598 -31.308  1.00  0.00    -0.205 N 
ENDROOT
BRANCH   3   4
HETATM    4  O6  UNL     1     -14.734 -61.809 -30.803  1.00  0.00    -0.281 OA
ATOM      5  H6  UNL     1     -14.990 -61.919 -29.895  1.00  0.00     0.245 HD
ENDBRANCH   3   4
BRANCH   3   6
HETATM    6  C3  UNL     1     -14.049 -63.899 -31.738  1.00  0.00     0.099 C 
BRANCH   6   7
HETATM    7  C4  UNL     1     -15.194 -64.148 -32.675  1.00  0.00     0.049 C 
BRANCH   7   8
HETATM    8  C5  UNL     1     -16.139 -65.159 -32.134  1.00  0.00     0.032 C 
BRANCH   8   9
HETATM    9  C6  UNL     1     -17.524 -64.626 -31.798  1.00  0.00     0.182 C 
BRANCH   9  10
HETATM   10  O7  UNL     1     -18.387 -65.682 -32.106  1.00  0.00    -0.283 OA
BRANCH  10  11
HETATM   11  P2  UNL     1     -18.905 -65.573 -33.727  1.00  0.00     0.422 P 
HETATM   12  O8  UNL     1     -20.475 -65.657 -33.685  1.00  0.00    -0.617 OA
HETATM   13  O9  UNL     1     -18.567 -64.070 -34.344  1.00  0.00    -0.617 OA
HETATM   14  O10 UNL     1     -18.397 -66.771 -34.747  1.00  0.00    -0.617 OA
ENDBRANCH  10  11
ENDBRANCH   9  10
ENDBRANCH   8   9
ENDBRANCH   7   8
ENDBRANCH   6   7
ENDBRANCH   3   6
BRANCH   2  15
HETATM   15  C2  UNL     1     -12.209 -60.693 -30.700  1.00  0.00     0.287 C 
BRANCH  15  16
HETATM   16  O2  UNL     1     -12.289 -60.809 -29.363  1.00  0.00    -0.273 OA
BRANCH  16  17
HETATM   17  P1  UNL     1     -13.034 -59.445 -28.637  1.00  0.00     0.422 P 
HETATM   18  O3  UNL     1     -12.241 -58.228 -29.192  1.00  0.00    -0.617 OA
HETATM   19  O4  UNL     1     -14.622 -59.297 -29.327  1.00  0.00    -0.617 OA
HETATM   20  O5  UNL     1     -13.157 -59.452 -27.010  1.00  0.00    -0.617 OA
ENDBRANCH  16  17
ENDBRANCH  15  16
ENDBRANCH   2  15
TORSDOF 10
ENDMDL
