MODEL 12
REMARK VINA RESULT: -6.779168842      0.773      1.442
REMARK  10 active torsions:
REMARK  status: ('A' for Active; 'I' for Inactive)
REMARK    1  A    between atoms: C1_2  and  C2_3 
REMARK       I    between atoms: C1_2  and  N1_9 
REMARK    2  A    between atoms: C2_3  and  O2_4 
REMARK    3  A    between atoms: O2_4  and  P1_5 
REMARK    4  A    between atoms: N1_9  and  O6_10 
REMARK    5  A    between atoms: N1_9  and  C3_12 
REMARK    6  A    between atoms: C3_12  and  C4_13 
REMARK    7  A    between atoms: C4_13  and  C5_14 
REMARK    8  A    between atoms: C5_14  and  C6_15 
REMARK    9  A    between atoms: C6_15  and  O7_16 
REMARK   10  A    between atoms: O7_16  and  P2_17 
ROOT
HETATM    1  O1  UNL     1     -11.488 -62.933 -31.755  1.00  0.00    -0.268 OA
HETATM    2  C1  UNL     1     -12.411 -62.304 -31.392  1.00  0.00     0.271 C 
HETATM    3  N1  UNL     1     -13.765 -62.748 -31.409  1.00  0.00    -0.205 N 
ENDROOT
BRANCH   3   4
HETATM    4  O6  UNL     1     -14.726 -61.919 -30.978  1.00  0.00    -0.281 OA
ATOM      5  H6  UNL     1     -14.543 -61.344 -30.245  1.00  0.00     0.245 HD
ENDBRANCH   3   4
BRANCH   3   6
HETATM    6  C3  UNL     1     -14.048 -64.063 -31.788  1.00  0.00     0.099 C 
BRANCH   6   7
HETATM    7  C4  UNL     1     -15.130 -64.825 -31.080  1.00  0.00     0.049 C 
BRANCH   7   8
HETATM    8  C5  UNL     1     -15.402 -66.131 -31.734  1.00  0.00     0.032 C 
BRANCH   8   9
HETATM    9  C6  UNL     1     -16.381 -66.072 -32.898  1.00  0.00     0.182 C 
BRANCH   9  10
HETATM   10  O7  UNL     1     -17.537 -65.506 -32.352  1.00  0.00    -0.283 OA
BRANCH  10  11
HETATM   11  P2  UNL     1     -18.779 -65.451 -33.519  1.00  0.00     0.422 P 
HETATM   12  O8  UNL     1     -18.605 -64.081 -34.271  1.00  0.00    -0.617 OA
HETATM   13  O9  UNL     1     -18.540 -66.616 -34.677  1.00  0.00    -0.617 OA
HETATM   14  O10 UNL     1     -20.330 -65.480 -32.949  1.00  0.00    -0.617 OA
ENDBRANCH  10  11
ENDBRANCH   9  10
ENDBRANCH   8   9
ENDBRANCH   7   8
ENDBRANCH   6   7
ENDBRANCH   3   6
BRANCH   2  15
HETATM   15  C2  UNL     1     -12.185 -60.846 -30.832  1.00  0.00     0.287 C 
BRANCH  15  16
HETATM   16  O2  UNL     1     -12.241 -60.911 -29.489  1.00  0.00    -0.273 OA
BRANCH  16  17
HETATM   17  P1  UNL     1     -13.154 -59.624 -28.816  1.00  0.00     0.422 P 
HETATM   18  O3  UNL     1     -13.092 -59.865 -27.281  1.00  0.00    -0.617 OA
HETATM   19  O4  UNL     1     -12.254 -58.160 -29.077  1.00  0.00    -0.617 OA
HETATM   20  O5  UNL     1     -14.672 -59.425 -29.380  1.00  0.00    -0.617 OA
ENDBRANCH  16  17
ENDBRANCH  15  16
ENDBRANCH   2  15
TORSDOF 10
ENDMDL
