MODEL 10
REMARK VINA RESULT: -6.808065856      1.699      7.659
REMARK  10 active torsions:
REMARK  status: ('A' for Active; 'I' for Inactive)
REMARK    1  A    between atoms: C1_2  and  C2_3 
REMARK       I    between atoms: C1_2  and  N1_9 
REMARK    2  A    between atoms: C2_3  and  O2_4 
REMARK    3  A    between atoms: O2_4  and  P1_5 
REMARK    4  A    between atoms: N1_9  and  O6_10 
REMARK    5  A    between atoms: N1_9  and  C3_12 
REMARK    6  A    between atoms: C3_12  and  C4_13 
REMARK    7  A    between atoms: C4_13  and  C5_14 
REMARK    8  A    between atoms: C5_14  and  C6_15 
REMARK    9  A    between atoms: C6_15  and  O7_16 
REMARK   10  A    between atoms: O7_16  and  P2_17 
ROOT
HETATM    1  O1  UNL     1     -15.615 -63.710 -33.837  1.00  0.00    -0.268 OA
HETATM    2  C1  UNL     1     -15.965 -64.153 -32.808  1.00  0.00     0.271 C 
HETATM    3  N1  UNL     1     -15.156 -64.249 -31.639  1.00  0.00    -0.205 N 
ENDROOT
BRANCH   3   4
HETATM    4  O6  UNL     1     -15.678 -64.792 -30.530  1.00  0.00    -0.281 OA
ATOM      5  H6  UNL     1     -15.166 -65.426 -30.043  1.00  0.00     0.245 HD
ENDBRANCH   3   4
BRANCH   3   6
HETATM    6  C3  UNL     1     -13.872 -63.695 -31.648  1.00  0.00     0.099 C 
BRANCH   6   7
HETATM    7  C4  UNL     1     -13.688 -62.237 -31.345  1.00  0.00     0.049 C 
BRANCH   7   8
HETATM    8  C5  UNL     1     -12.252 -61.862 -31.296  1.00  0.00     0.032 C 
BRANCH   8   9
HETATM    9  C6  UNL     1     -11.956 -60.553 -30.577  1.00  0.00     0.182 C 
BRANCH   9  10
HETATM   10  O7  UNL     1     -12.330 -60.793 -29.251  1.00  0.00    -0.283 OA
BRANCH  10  11
HETATM   11  P2  UNL     1     -13.115 -59.427 -28.600  1.00  0.00     0.422 P 
HETATM   12  O8  UNL     1     -12.300 -58.179 -29.103  1.00  0.00    -0.617 OA
HETATM   13  O9  UNL     1     -14.626 -59.253 -29.265  1.00  0.00    -0.617 OA
HETATM   14  O10 UNL     1     -13.168 -59.320 -26.952  1.00  0.00    -0.617 OA
ENDBRANCH  10  11
ENDBRANCH   9  10
ENDBRANCH   8   9
ENDBRANCH   7   8
ENDBRANCH   6   7
ENDBRANCH   3   6
BRANCH   2  15
HETATM   15  C2  UNL     1     -17.439 -64.697 -32.656  1.00  0.00     0.287 C 
BRANCH  15  16
HETATM   16  O2  UNL     1     -17.390 -66.038 -32.745  1.00  0.00    -0.273 OA
BRANCH  16  17
HETATM   17  P1  UNL     1     -18.566 -66.658 -33.831  1.00  0.00     0.422 P 
HETATM   18  O3  UNL     1     -19.708 -67.175 -32.912  1.00  0.00    -0.617 OA
HETATM   19  O4  UNL     1     -19.250 -65.304 -34.679  1.00  0.00    -0.617 OA
HETATM   20  O5  UNL     1     -18.054 -67.764 -34.916  1.00  0.00    -0.617 OA
ENDBRANCH  16  17
ENDBRANCH  15  16
ENDBRANCH   2  15
TORSDOF 10
ENDMDL
