MODEL 2
REMARK VINA RESULT: -7.063272591      1.162      1.574
REMARK  10 active torsions:
REMARK  status: ('A' for Active; 'I' for Inactive)
REMARK    1  A    between atoms: C1_2  and  C2_3 
REMARK       I    between atoms: C1_2  and  N1_9 
REMARK    2  A    between atoms: C2_3  and  O2_4 
REMARK    3  A    between atoms: O2_4  and  P1_5 
REMARK    4  A    between atoms: N1_9  and  O6_10 
REMARK    5  A    between atoms: N1_9  and  C3_12 
REMARK    6  A    between atoms: C3_12  and  C4_13 
REMARK    7  A    between atoms: C4_13  and  C5_14 
REMARK    8  A    between atoms: C5_14  and  C6_15 
REMARK    9  A    between atoms: C6_15  and  O7_16 
REMARK   10  A    between atoms: O7_16  and  P2_17 
ROOT
HETATM    1  O1  UNL     1     -11.367 -62.686 -31.739  1.00  0.00    -0.268 OA
HETATM    2  C1  UNL     1     -12.327 -62.145 -31.335  1.00  0.00     0.271 C 
HETATM    3  N1  UNL     1     -13.644 -62.690 -31.347  1.00  0.00    -0.205 N 
ENDROOT
BRANCH   3   4
HETATM    4  O6  UNL     1     -14.656 -61.954 -30.866  1.00  0.00    -0.281 OA
ATOM      5  H6  UNL     1     -14.811 -61.942 -29.929  1.00  0.00     0.245 HD
ENDBRANCH   3   4
BRANCH   3   6
HETATM    6  C3  UNL     1     -13.834 -64.007 -31.776  1.00  0.00     0.099 C 
BRANCH   6   7
HETATM    7  C4  UNL     1     -15.035 -64.775 -31.308  1.00  0.00     0.049 C 
BRANCH   7   8
HETATM    8  C5  UNL     1     -15.914 -65.167 -32.439  1.00  0.00     0.032 C 
BRANCH   8   9
HETATM    9  C6  UNL     1     -16.939 -64.118 -32.847  1.00  0.00     0.182 C 
BRANCH   9  10
HETATM   10  O7  UNL     1     -17.240 -63.445 -31.659  1.00  0.00    -0.283 OA
BRANCH  10  11
HETATM   11  P2  UNL     1     -18.928 -63.281 -31.482  1.00  0.00     0.422 P 
HETATM   12  O8  UNL     1     -19.570 -64.311 -32.482  1.00  0.00    -0.617 OA
HETATM   13  O9  UNL     1     -19.406 -63.784 -29.974  1.00  0.00    -0.617 OA
HETATM   14  O10 UNL     1     -19.569 -61.804 -31.854  1.00  0.00    -0.617 OA
ENDBRANCH  10  11
ENDBRANCH   9  10
ENDBRANCH   8   9
ENDBRANCH   7   8
ENDBRANCH   6   7
ENDBRANCH   3   6
BRANCH   2  15
HETATM   15  C2  UNL     1     -12.201 -60.697 -30.718  1.00  0.00     0.287 C 
BRANCH  15  16
HETATM   16  O2  UNL     1     -12.277 -60.815 -29.381  1.00  0.00    -0.273 OA
BRANCH  16  17
HETATM   17  P1  UNL     1     -13.053 -59.467 -28.655  1.00  0.00     0.422 P 
HETATM   18  O3  UNL     1     -12.281 -58.233 -29.203  1.00  0.00    -0.617 OA
HETATM   19  O4  UNL     1     -14.641 -59.349 -29.351  1.00  0.00    -0.617 OA
HETATM   20  O5  UNL     1     -13.182 -59.481 -27.028  1.00  0.00    -0.617 OA
ENDBRANCH  16  17
ENDBRANCH  15  16
ENDBRANCH   2  15
TORSDOF 10
ENDMDL
