MODEL 18
REMARK VINA RESULT: -6.611309980      1.292      3.355
REMARK  6 active torsions:
REMARK  status: ('A' for Active; 'I' for Inactive)
REMARK    1  A    between atoms: C1_2  and  C2_4 
REMARK    2  A    between atoms: C2_4  and  C3_5 
REMARK    3  A    between atoms: C3_5  and  O3_6 
REMARK    4  A    between atoms: C3_5  and  C4_8 
REMARK    5  A    between atoms: C3_5  and  C6_12 
REMARK    6  A    between atoms: C4_8  and  C5_9 
ROOT
HETATM    1  C3  UNL     1     124.450  54.445  30.007  1.00  0.00     0.164 C 
ENDROOT
BRANCH   1   2
HETATM    2  C2  UNL     1     124.132  53.027  29.724  1.00  0.00     0.163 C 
BRANCH   2   3
HETATM    3  C1  UNL     1     123.941  52.147  30.889  1.00  0.00     0.176 C 
HETATM    4  O1  UNL     1     122.801  51.675  31.105  1.00  0.00    -0.648 OA
HETATM    5  O2  UNL     1     124.937  51.788  31.784  1.00  0.00    -0.648 OA
ENDBRANCH   2   3
ENDBRANCH   1   2
BRANCH   1   6
HETATM    6  O3  UNL     1     125.456  54.479  30.977  1.00  0.00    -0.378 OA
ATOM      7  H3  UNL     1     125.299  55.228  31.540  1.00  0.00     0.211 HD
ENDBRANCH   1   6
BRANCH   1   8
HETATM    8  C4  UNL     1     123.327  55.334  30.404  1.00  0.00     0.163 C 
BRANCH   8   9
HETATM    9  C5  UNL     1     122.867  55.190  31.800  1.00  0.00     0.176 C 
HETATM   10  O4  UNL     1     121.703  54.811  32.031  1.00  0.00    -0.648 OA
HETATM   11  O5  UNL     1     123.767  55.491  32.810  1.00  0.00    -0.648 OA
ENDBRANCH   8   9
ENDBRANCH   1   8
BRANCH   1  12
HETATM   12  C6  UNL     1     125.016  55.017  28.756  1.00  0.00     0.210 C 
HETATM   13  O6  UNL     1     126.136  55.563  28.812  1.00  0.00    -0.646 OA
HETATM   14  O7  UNL     1     124.345  54.959  27.557  1.00  0.00    -0.646 OA
ENDBRANCH   1  12
TORSDOF 6
ENDMDL
