MODEL 3
REMARK VINA RESULT: -7.014284877      3.002      8.448
REMARK  9 active torsions:
REMARK  status: ('A' for Active; 'I' for Inactive)
REMARK    1  A    between atoms: C2_2  and  C3_3 
REMARK    2  A    between atoms: C3_3  and  C4_4 
REMARK    3  A    between atoms: C4_4  and  C5_5 
REMARK    4  A    between atoms: C5_5  and  C6_6 
REMARK    5  A    between atoms: C8_8  and  O1_9 
REMARK    6  A    between atoms: C10_11  and  C11_12 
REMARK    7  A    between atoms: C11_12  and  C12_13 
REMARK    8  A    between atoms: C16_17  and  O2_18 
REMARK    9  A    between atoms: C17_20  and  C18_21 
ROOT
HETATM    1  C6  UNL     1     -16.506  22.794 -48.192  1.00  0.00    -0.036 A 
HETATM    2  C7  UNL     1     -15.458  21.898 -47.910  1.00  0.00     0.045 A 
HETATM    3  C8  UNL     1     -15.668  20.588 -47.586  1.00  0.00     0.078 A 
HETATM    4  C10 UNL     1     -16.964  20.178 -47.548  1.00  0.00     0.013 A 
HETATM    5  C16 UNL     1     -18.041  21.053 -47.825  1.00  0.00     0.092 A 
HETATM    6  C17 UNL     1     -17.821  22.385 -48.151  1.00  0.00     0.080 A 
ENDROOT
BRANCH   1   7
HETATM    7  C5  UNL     1     -16.146  24.151 -48.648  1.00  0.00     0.040 C 
BRANCH   7   8
HETATM    8  C4  UNL     1     -14.834  24.242 -49.330  1.00  0.00     0.005 C 
BRANCH   8   9
HETATM    9  C3  UNL     1     -14.601  25.151 -50.450  1.00  0.00    -0.000 C 
BRANCH   9  10
HETATM   10  C2  UNL     1     -14.719  26.580 -49.861  1.00  0.00    -0.005 C 
HETATM   11  C1  UNL     1     -13.869  27.502 -50.715  1.00  0.00     0.005 C 
ENDBRANCH   9  10
ENDBRANCH   8   9
ENDBRANCH   7   8
ENDBRANCH   1   7
BRANCH   6  12
HETATM   12  C18 UNL     1     -18.928  23.292 -48.366  1.00  0.00     0.212 C 
HETATM   13  O3  UNL     1     -19.435  23.591 -49.480  1.00  0.00    -0.644 OA
HETATM   14  O4  UNL     1     -19.571  23.950 -47.329  1.00  0.00    -0.644 OA
ENDBRANCH   6  12
BRANCH   3  15
HETATM   15  O1  UNL     1     -14.602  19.724 -47.311  1.00  0.00    -0.355 OA
HETATM   16  C9  UNL     1     -13.250  20.041 -47.559  1.00  0.00     0.210 C 
ENDBRANCH   3  15
BRANCH   5  17
HETATM   17  O2  UNL     1     -19.287  20.499 -47.749  1.00  0.00    -0.359 OA
ATOM     18  H2  UNL     1     -19.853  20.852 -47.072  1.00  0.00     0.217 HD
ENDBRANCH   5  17
BRANCH   4  19
HETATM   19  C11 UNL     1     -17.241  18.744 -47.215  1.00  0.00     0.072 C 
BRANCH  19  20
HETATM   20  C12 UNL     1     -17.270  18.551 -45.736  1.00  0.00    -0.020 C 
HETATM   21  C13 UNL     1     -18.284  18.047 -45.080  1.00  0.00    -0.091 C 
HETATM   22  C14 UNL     1     -19.564  17.587 -45.677  1.00  0.00     0.042 C 
HETATM   23  C15 UNL     1     -18.168  17.920 -43.578  1.00  0.00     0.042 C 
ENDBRANCH  19  20
ENDBRANCH   4  19
TORSDOF 9
ENDMDL
