MODEL 9
REMARK VINA RESULT: -6.814793193      2.879      7.699
REMARK  9 active torsions:
REMARK  status: ('A' for Active; 'I' for Inactive)
REMARK    1  A    between atoms: C2_2  and  C3_3 
REMARK    2  A    between atoms: C3_3  and  C4_4 
REMARK    3  A    between atoms: C4_4  and  C5_5 
REMARK    4  A    between atoms: C5_5  and  C6_6 
REMARK    5  A    between atoms: C8_8  and  O1_9 
REMARK    6  A    between atoms: C10_11  and  C11_12 
REMARK    7  A    between atoms: C11_12  and  C12_13 
REMARK    8  A    between atoms: C16_17  and  O2_18 
REMARK    9  A    between atoms: C17_20  and  C18_21 
ROOT
HETATM    1  C6  UNL     1     -16.600  22.263 -47.922  1.00  0.00    -0.036 A 
HETATM    2  C7  UNL     1     -15.411  21.532 -47.741  1.00  0.00     0.045 A 
HETATM    3  C8  UNL     1     -15.398  20.215 -47.375  1.00  0.00     0.078 A 
HETATM    4  C10 UNL     1     -16.611  19.630 -47.190  1.00  0.00     0.013 A 
HETATM    5  C16 UNL     1     -17.825  20.337 -47.361  1.00  0.00     0.092 A 
HETATM    6  C17 UNL     1     -17.832  21.676 -47.731  1.00  0.00     0.080 A 
ENDROOT
BRANCH   1   7
HETATM    7  C5  UNL     1     -16.487  23.642 -48.436  1.00  0.00     0.040 C 
BRANCH   7   8
HETATM    8  C4  UNL     1     -16.001  23.739 -49.832  1.00  0.00     0.005 C 
BRANCH   8   9
HETATM    9  C3  UNL     1     -16.447  24.794 -50.738  1.00  0.00    -0.000 C 
BRANCH   9  10
HETATM   10  C2  UNL     1     -17.676  25.444 -50.052  1.00  0.00    -0.005 C 
HETATM   11  C1  UNL     1     -18.922  24.890 -50.719  1.00  0.00     0.005 C 
ENDBRANCH   9  10
ENDBRANCH   8   9
ENDBRANCH   7   8
ENDBRANCH   1   7
BRANCH   6  12
HETATM   12  C18 UNL     1     -19.073  22.412 -47.839  1.00  0.00     0.212 C 
HETATM   13  O3  UNL     1     -20.133  22.001 -48.382  1.00  0.00    -0.644 OA
HETATM   14  O4  UNL     1     -19.231  23.694 -47.336  1.00  0.00    -0.644 OA
ENDBRANCH   6  12
BRANCH   3  15
HETATM   15  O1  UNL     1     -14.197  19.518 -47.203  1.00  0.00    -0.355 OA
HETATM   16  C9  UNL     1     -13.035  19.757 -47.966  1.00  0.00     0.210 C 
ENDBRANCH   3  15
BRANCH   5  17
HETATM   17  O2  UNL     1     -18.964  19.617 -47.141  1.00  0.00    -0.359 OA
ATOM     18  H2  UNL     1     -19.761  19.989 -47.502  1.00  0.00     0.217 HD
ENDBRANCH   5  17
BRANCH   4  19
HETATM   19  C11 UNL     1     -16.645  18.183 -46.805  1.00  0.00     0.072 C 
BRANCH  19  20
HETATM   20  C12 UNL     1     -16.201  18.010 -45.391  1.00  0.00    -0.020 C 
HETATM   21  C13 UNL     1     -17.011  17.794 -44.387  1.00  0.00    -0.091 C 
HETATM   22  C14 UNL     1     -18.490  17.683 -44.472  1.00  0.00     0.042 C 
HETATM   23  C15 UNL     1     -16.411  17.647 -43.007  1.00  0.00     0.042 C 
ENDBRANCH  19  20
ENDBRANCH   4  19
TORSDOF 9
ENDMDL
