MODEL 4
REMARK VINA RESULT: -6.930917156      2.428      4.394
REMARK  9 active torsions:
REMARK  status: ('A' for Active; 'I' for Inactive)
REMARK    1  A    between atoms: C2_2  and  C3_3 
REMARK    2  A    between atoms: C3_3  and  C4_4 
REMARK    3  A    between atoms: C4_4  and  C5_5 
REMARK    4  A    between atoms: C5_5  and  C6_6 
REMARK    5  A    between atoms: C8_8  and  O1_9 
REMARK    6  A    between atoms: C10_11  and  C11_12 
REMARK    7  A    between atoms: C11_12  and  C12_13 
REMARK    8  A    between atoms: C16_17  and  O2_18 
REMARK    9  A    between atoms: C17_20  and  C18_21 
ROOT
HETATM    1  C6  UNL     1     -17.777  20.097 -47.660  1.00  0.00    -0.036 A 
HETATM    2  C7  UNL     1     -18.867  20.936 -47.953  1.00  0.00     0.045 A 
HETATM    3  C8  UNL     1     -18.734  22.279 -48.168  1.00  0.00     0.078 A 
HETATM    4  C10 UNL     1     -17.472  22.779 -48.085  1.00  0.00     0.013 A 
HETATM    5  C16 UNL     1     -16.354  21.963 -47.790  1.00  0.00     0.092 A 
HETATM    6  C17 UNL     1     -16.496  20.599 -47.570  1.00  0.00     0.080 A 
ENDROOT
BRANCH   1   7
HETATM    7  C5  UNL     1     -18.031  18.646 -47.569  1.00  0.00     0.040 C 
BRANCH   7   8
HETATM    8  C4  UNL     1     -19.059  18.264 -46.573  1.00  0.00     0.005 C 
BRANCH   8   9
HETATM    9  C3  UNL     1     -18.714  17.897 -45.202  1.00  0.00    -0.000 C 
BRANCH   9  10
HETATM   10  C2  UNL     1     -19.933  17.105 -44.661  1.00  0.00    -0.005 C 
HETATM   11  C1  UNL     1     -19.468  16.311 -43.454  1.00  0.00     0.005 C 
ENDBRANCH   9  10
ENDBRANCH   8   9
ENDBRANCH   7   8
ENDBRANCH   1   7
BRANCH   6  12
HETATM   12  C18 UNL     1     -15.360  19.782 -47.202  1.00  0.00     0.212 C 
HETATM   13  O3  UNL     1     -14.275  19.695 -47.835  1.00  0.00    -0.644 OA
HETATM   14  O4  UNL     1     -15.348  18.981 -46.070  1.00  0.00    -0.644 OA
ENDBRANCH   6  12
BRANCH   3  15
HETATM   15  O1  UNL     1     -19.841  23.085 -48.458  1.00  0.00    -0.355 OA
HETATM   16  C9  UNL     1     -20.914  23.294 -47.567  1.00  0.00     0.210 C 
ENDBRANCH   3  15
BRANCH   5  17
HETATM   17  O2  UNL     1     -15.150  22.606 -47.741  1.00  0.00    -0.359 OA
ATOM     18  H2  UNL     1     -14.844  22.969 -48.564  1.00  0.00     0.217 HD
ENDBRANCH   5  17
BRANCH   4  19
HETATM   19  C11 UNL     1     -17.277  24.244 -48.331  1.00  0.00     0.072 C 
BRANCH  19  20
HETATM   20  C12 UNL     1     -16.942  24.490 -49.764  1.00  0.00    -0.020 C 
HETATM   21  C13 UNL     1     -15.939  25.227 -50.169  1.00  0.00    -0.091 C 
HETATM   22  C14 UNL     1     -14.973  25.938 -49.293  1.00  0.00     0.042 C 
HETATM   23  C15 UNL     1     -15.730  25.390 -51.658  1.00  0.00     0.042 C 
ENDBRANCH  19  20
ENDBRANCH   4  19
TORSDOF 9
ENDMDL
