MODEL 6
REMARK VINA RESULT: -6.884292862      2.820      8.135
REMARK  9 active torsions:
REMARK  status: ('A' for Active; 'I' for Inactive)
REMARK    1  A    between atoms: C2_2  and  C3_3 
REMARK    2  A    between atoms: C3_3  and  C4_4 
REMARK    3  A    between atoms: C4_4  and  C5_5 
REMARK    4  A    between atoms: C5_5  and  C6_6 
REMARK    5  A    between atoms: C8_8  and  O1_9 
REMARK    6  A    between atoms: C10_11  and  C11_12 
REMARK    7  A    between atoms: C11_12  and  C12_13 
REMARK    8  A    between atoms: C16_17  and  O2_18 
REMARK    9  A    between atoms: C17_20  and  C18_21 
ROOT
HETATM    1  C6  UNL     1     -16.690  22.138 -48.026  1.00  0.00    -0.036 A 
HETATM    2  C7  UNL     1     -15.485  21.433 -47.856  1.00  0.00     0.045 A 
HETATM    3  C8  UNL     1     -15.435  20.144 -47.405  1.00  0.00     0.078 A 
HETATM    4  C10 UNL     1     -16.630  19.559 -47.122  1.00  0.00     0.013 A 
HETATM    5  C16 UNL     1     -17.860  20.241 -47.280  1.00  0.00     0.092 A 
HETATM    6  C17 UNL     1     -17.904  21.552 -47.736  1.00  0.00     0.080 A 
ENDROOT
BRANCH   1   7
HETATM    7  C5  UNL     1     -16.621  23.481 -48.634  1.00  0.00     0.040 C 
BRANCH   7   8
HETATM    8  C4  UNL     1     -15.678  23.592 -49.771  1.00  0.00     0.005 C 
BRANCH   8   9
HETATM    9  C3  UNL     1     -14.600  24.577 -49.792  1.00  0.00    -0.000 C 
BRANCH   9  10
HETATM   10  C2  UNL     1     -15.039  25.657 -50.815  1.00  0.00    -0.005 C 
HETATM   11  C1  UNL     1     -14.217  26.904 -50.550  1.00  0.00     0.005 C 
ENDBRANCH   9  10
ENDBRANCH   8   9
ENDBRANCH   7   8
ENDBRANCH   1   7
BRANCH   6  12
HETATM   12  C18 UNL     1     -19.159  22.266 -47.831  1.00  0.00     0.212 C 
HETATM   13  O3  UNL     1     -20.225  21.824 -48.334  1.00  0.00    -0.644 OA
HETATM   14  O4  UNL     1     -19.323  23.559 -47.358  1.00  0.00    -0.644 OA
ENDBRANCH   6  12
BRANCH   3  15
HETATM   15  O1  UNL     1     -14.218  19.472 -47.248  1.00  0.00    -0.355 OA
HETATM   16  C9  UNL     1     -13.007  19.894 -47.835  1.00  0.00     0.210 C 
ENDBRANCH   3  15
BRANCH   5  17
HETATM   17  O2  UNL     1     -18.977  19.525 -46.957  1.00  0.00    -0.359 OA
ATOM     18  H2  UNL     1     -19.744  19.697 -47.492  1.00  0.00     0.217 HD
ENDBRANCH   5  17
BRANCH   4  19
HETATM   19  C11 UNL     1     -16.625  18.140 -46.642  1.00  0.00     0.072 C 
BRANCH  19  20
HETATM   20  C12 UNL     1     -16.226  18.080 -45.206  1.00  0.00    -0.020 C 
HETATM   21  C13 UNL     1     -17.044  17.782 -44.228  1.00  0.00    -0.091 C 
HETATM   22  C14 UNL     1     -18.487  17.459 -44.369  1.00  0.00     0.042 C 
HETATM   23  C15 UNL     1     -16.494  17.768 -42.819  1.00  0.00     0.042 C 
ENDBRANCH  19  20
ENDBRANCH   4  19
TORSDOF 9
ENDMDL
