MODEL 1
REMARK VINA RESULT: -7.240618226      0.000      0.000
REMARK  9 active torsions:
REMARK  status: ('A' for Active; 'I' for Inactive)
REMARK    1  A    between atoms: C2_2  and  C3_3 
REMARK    2  A    between atoms: C3_3  and  C4_4 
REMARK    3  A    between atoms: C4_4  and  C5_5 
REMARK    4  A    between atoms: C5_5  and  C6_6 
REMARK    5  A    between atoms: C8_8  and  O1_9 
REMARK    6  A    between atoms: C10_11  and  C11_12 
REMARK    7  A    between atoms: C11_12  and  C12_13 
REMARK    8  A    between atoms: C16_17  and  O2_18 
REMARK    9  A    between atoms: C17_20  and  C18_21 
ROOT
HETATM    1  C6  UNL     1     -19.126  17.380 -44.659  1.00  0.00    -0.036 A 
HETATM    2  C7  UNL     1     -19.969  17.534 -45.774  1.00  0.00     0.045 A 
HETATM    3  C8  UNL     1     -19.658  18.336 -46.835  1.00  0.00     0.078 A 
HETATM    4  C10 UNL     1     -18.471  18.994 -46.764  1.00  0.00     0.013 A 
HETATM    5  C16 UNL     1     -17.600  18.863 -45.655  1.00  0.00     0.092 A 
HETATM    6  C17 UNL     1     -17.923  18.048 -44.578  1.00  0.00     0.080 A 
ENDROOT
BRANCH   1   7
HETATM    7  C5  UNL     1     -19.516  16.392 -43.634  1.00  0.00     0.040 C 
BRANCH   7   8
HETATM    8  C4  UNL     1     -20.821  16.659 -42.987  1.00  0.00     0.005 C 
BRANCH   8   9
HETATM    9  C3  UNL     1     -21.820  15.612 -42.790  1.00  0.00    -0.000 C 
BRANCH   9  10
HETATM   10  C2  UNL     1     -21.880  14.833 -44.129  1.00  0.00    -0.005 C 
HETATM   11  C1  UNL     1     -23.335  14.757 -44.553  1.00  0.00     0.005 C 
ENDBRANCH   9  10
ENDBRANCH   8   9
ENDBRANCH   7   8
ENDBRANCH   1   7
BRANCH   6  12
HETATM   12  C18 UNL     1     -17.062  17.971 -43.418  1.00  0.00     0.212 C 
HETATM   13  O3  UNL     1     -17.356  18.346 -42.252  1.00  0.00    -0.644 OA
HETATM   14  O4  UNL     1     -15.777  17.455 -43.472  1.00  0.00    -0.644 OA
ENDBRANCH   6  12
BRANCH   3  15
HETATM   15  O1  UNL     1     -20.521  18.467 -47.929  1.00  0.00    -0.355 OA
HETATM   16  C9  UNL     1     -21.806  19.042 -47.851  1.00  0.00     0.210 C 
ENDBRANCH   3  15
BRANCH   5  17
HETATM   17  O2  UNL     1     -16.443  19.585 -45.725  1.00  0.00    -0.359 OA
ATOM     18  H2  UNL     1     -15.790  19.377 -45.066  1.00  0.00     0.217 HD
ENDBRANCH   5  17
BRANCH   4  19
HETATM   19  C11 UNL     1     -18.080  19.872 -47.913  1.00  0.00     0.072 C 
BRANCH  19  20
HETATM   20  C12 UNL     1     -18.783  21.185 -47.827  1.00  0.00    -0.020 C 
HETATM   21  C13 UNL     1     -18.178  22.346 -47.834  1.00  0.00    -0.091 C 
HETATM   22  C14 UNL     1     -16.711  22.560 -47.927  1.00  0.00     0.042 C 
HETATM   23  C15 UNL     1     -19.027  23.592 -47.732  1.00  0.00     0.042 C 
ENDBRANCH  19  20
ENDBRANCH   4  19
TORSDOF 9
ENDMDL
