MODEL 2
REMARK VINA RESULT: -7.096989388      1.496      1.726
REMARK  9 active torsions:
REMARK  status: ('A' for Active; 'I' for Inactive)
REMARK    1  A    between atoms: C2_2  and  C3_3 
REMARK    2  A    between atoms: C3_3  and  C4_4 
REMARK    3  A    between atoms: C4_4  and  C5_5 
REMARK    4  A    between atoms: C5_5  and  C6_6 
REMARK    5  A    between atoms: C8_8  and  O1_9 
REMARK    6  A    between atoms: C10_11  and  C11_12 
REMARK    7  A    between atoms: C11_12  and  C12_13 
REMARK    8  A    between atoms: C16_17  and  O2_18 
REMARK    9  A    between atoms: C17_20  and  C18_21 
ROOT
HETATM    1  C6  UNL     1     -18.739  17.559 -44.248  1.00  0.00    -0.036 A 
HETATM    2  C7  UNL     1     -19.422  17.800 -45.454  1.00  0.00     0.045 A 
HETATM    3  C8  UNL     1     -18.788  18.179 -46.604  1.00  0.00     0.078 A 
HETATM    4  C10 UNL     1     -17.437  18.316 -46.528  1.00  0.00     0.013 A 
HETATM    5  C16 UNL     1     -16.720  18.083 -45.330  1.00  0.00     0.092 A 
HETATM    6  C17 UNL     1     -17.370  17.701 -44.164  1.00  0.00     0.080 A 
ENDROOT
BRANCH   1   7
HETATM    7  C5  UNL     1     -19.519  17.037 -43.109  1.00  0.00     0.040 C 
BRANCH   7   8
HETATM    8  C4  UNL     1     -19.986  15.641 -43.273  1.00  0.00     0.005 C 
BRANCH   8   9
HETATM    9  C3  UNL     1     -21.369  15.248 -43.012  1.00  0.00    -0.000 C 
BRANCH   9  10
HETATM   10  C2  UNL     1     -22.163  15.638 -44.286  1.00  0.00    -0.005 C 
HETATM   11  C1  UNL     1     -23.132  14.510 -44.587  1.00  0.00     0.005 C 
ENDBRANCH   9  10
ENDBRANCH   8   9
ENDBRANCH   7   8
ENDBRANCH   1   7
BRANCH   6  12
HETATM   12  C18 UNL     1     -16.641  17.530 -42.927  1.00  0.00     0.212 C 
HETATM   13  O3  UNL     1     -16.961  18.012 -41.807  1.00  0.00    -0.644 OA
HETATM   14  O4  UNL     1     -15.472  16.791 -42.841  1.00  0.00    -0.644 OA
ENDBRANCH   6  12
BRANCH   3  15
HETATM   15  O1  UNL     1     -19.498  18.411 -47.786  1.00  0.00    -0.355 OA
HETATM   16  C9  UNL     1     -20.462  19.430 -47.936  1.00  0.00     0.210 C 
ENDBRANCH   3  15
BRANCH   5  17
HETATM   17  O2  UNL     1     -15.368  18.260 -45.407  1.00  0.00    -0.359 OA
ATOM     18  H2  UNL     1     -14.984  18.118 -46.265  1.00  0.00     0.217 HD
ENDBRANCH   5  17
BRANCH   4  19
HETATM   19  C11 UNL     1     -16.698  18.713 -47.769  1.00  0.00     0.072 C 
BRANCH  19  20
HETATM   20  C12 UNL     1     -16.513  20.193 -47.813  1.00  0.00    -0.020 C 
HETATM   21  C13 UNL     1     -15.359  20.785 -47.992  1.00  0.00    -0.091 C 
HETATM   22  C14 UNL     1     -14.052  20.104 -48.179  1.00  0.00     0.042 C 
HETATM   23  C15 UNL     1     -15.329  22.297 -48.004  1.00  0.00     0.042 C 
ENDBRANCH  19  20
ENDBRANCH   4  19
TORSDOF 9
ENDMDL
