MODEL 4
REMARK VINA RESULT: -8.855022280      3.202     10.170
REMARK  11 active torsions:
REMARK  status: ('A' for Active; 'I' for Inactive)
REMARK    1  A    between atoms: O1_2  and  C2_3 
REMARK    2  A    between atoms: C4_5  and  C5_6 
REMARK    3  A    between atoms: C5_6  and  C6_7 
REMARK    4  A    between atoms: C6_7  and  C7_8 
REMARK    5  A    between atoms: C13_14  and  C14_15 
REMARK    6  A    between atoms: C15_18  and  O4_19 
REMARK    7  A    between atoms: C16_21  and  C17_22 
REMARK    8  A    between atoms: C17_22  and  C18_23 
REMARK    9  A    between atoms: C19_24  and  C21_26 
REMARK   10  A    between atoms: C21_26  and  C22_27 
REMARK   11  A    between atoms: C22_27  and  C23_28 
ROOT
HETATM    1  C2  UNL     1     -17.828  20.407  -9.871  1.00  0.00     0.078 A 
HETATM    2  C3  UNL     1     -17.987  21.684  -9.431  1.00  0.00     0.045 A 
HETATM    3  C4  UNL     1     -16.928  22.553  -9.167  1.00  0.00    -0.035 A 
HETATM    4  C13 UNL     1     -15.647  22.056  -9.377  1.00  0.00     0.080 A 
HETATM    5  C15 UNL     1     -15.453  20.741  -9.831  1.00  0.00     0.092 A 
HETATM    6  C16 UNL     1     -16.570  19.917 -10.077  1.00  0.00     0.013 A 
ENDROOT
BRANCH   6   7
HETATM    7  C17 UNL     1     -16.352  18.497 -10.564  1.00  0.00     0.072 C 
BRANCH   7   8
HETATM    8  C18 UNL     1     -16.640  18.396 -11.997  1.00  0.00    -0.020 C 
HETATM    9  C19 UNL     1     -15.747  17.942 -12.863  1.00  0.00    -0.087 C 
HETATM   10  C20 UNL     1     -16.148  17.875 -14.325  1.00  0.00     0.043 C 
BRANCH   9  11
HETATM   11  C21 UNL     1     -14.361  17.583 -12.536  1.00  0.00     0.037 C 
BRANCH  11  12
HETATM   12  C22 UNL     1     -13.656  16.730 -13.516  1.00  0.00     0.031 C 
BRANCH  12  13
HETATM   13  C23 UNL     1     -12.570  15.937 -12.930  1.00  0.00    -0.024 C 
HETATM   14  C24 UNL     1     -11.774  15.234 -13.710  1.00  0.00    -0.091 C 
HETATM   15  C25 UNL     1     -11.970  15.241 -15.172  1.00  0.00     0.042 C 
HETATM   16  C26 UNL     1     -10.677  14.437 -13.128  1.00  0.00     0.042 C 
ENDBRANCH  12  13
ENDBRANCH  11  12
ENDBRANCH   9  11
ENDBRANCH   7   8
ENDBRANCH   6   7
BRANCH   1  17
HETATM   17  O1  UNL     1     -18.909  19.552 -10.129  1.00  0.00    -0.355 OA
HETATM   18  C1  UNL     1     -20.238  19.846  -9.835  1.00  0.00     0.210 C 
ENDBRANCH   1  17
BRANCH   5  19
HETATM   19  O4  UNL     1     -14.249  20.154 -10.067  1.00  0.00    -0.359 OA
ATOM     20  H4  UNL     1     -13.535  20.087  -9.445  1.00  0.00     0.217 HD
ENDBRANCH   5  19
BRANCH   4  21
HETATM   21  C14 UNL     1     -14.465  22.874  -9.162  1.00  0.00     0.212 C 
HETATM   22  O2  UNL     1     -13.801  23.263 -10.151  1.00  0.00    -0.644 OA
HETATM   23  O3  UNL     1     -13.997  23.276  -7.910  1.00  0.00    -0.644 OA
ENDBRANCH   4  21
BRANCH   3  24
HETATM   24  C5  UNL     1     -17.176  23.909  -8.652  1.00  0.00     0.044 C 
BRANCH  24  25
HETATM   25  C6  UNL     1     -18.412  24.070  -7.834  1.00  0.00     0.043 C 
BRANCH  25  26
HETATM   26  C7  UNL     1     -18.254  25.322  -7.023  1.00  0.00    -0.058 A 
HETATM   27  C8  UNL     1     -18.832  26.519  -7.444  1.00  0.00     0.007 A 
HETATM   28  C9  UNL     1     -18.725  27.691  -6.744  1.00  0.00     0.001 A 
HETATM   29  C10 UNL     1     -18.005  27.692  -5.554  1.00  0.00     0.000 A 
HETATM   30  C11 UNL     1     -17.415  26.525  -5.100  1.00  0.00     0.001 A 
HETATM   31  C12 UNL     1     -17.548  25.358  -5.841  1.00  0.00     0.007 A 
ENDBRANCH  25  26
ENDBRANCH  24  25
ENDBRANCH   3  24
TORSDOF 11
ENDMDL
