MODEL 2
REMARK VINA RESULT: -8.981829150      1.502      2.095
REMARK  11 active torsions:
REMARK  status: ('A' for Active; 'I' for Inactive)
REMARK    1  A    between atoms: O1_2  and  C2_3 
REMARK    2  A    between atoms: C4_5  and  C5_6 
REMARK    3  A    between atoms: C5_6  and  C6_7 
REMARK    4  A    between atoms: C6_7  and  C7_8 
REMARK    5  A    between atoms: C13_14  and  C14_15 
REMARK    6  A    between atoms: C15_18  and  O4_19 
REMARK    7  A    between atoms: C16_21  and  C17_22 
REMARK    8  A    between atoms: C17_22  and  C18_23 
REMARK    9  A    between atoms: C19_24  and  C21_26 
REMARK   10  A    between atoms: C21_26  and  C22_27 
REMARK   11  A    between atoms: C22_27  and  C23_28 
ROOT
HETATM    1  C2  UNL     1     -13.535  18.271 -10.618  1.00  0.00     0.078 A 
HETATM    2  C3  UNL     1     -12.968  17.494 -11.580  1.00  0.00     0.045 A 
HETATM    3  C4  UNL     1     -13.581  17.196 -12.798  1.00  0.00    -0.035 A 
HETATM    4  C13 UNL     1     -14.842  17.738 -13.011  1.00  0.00     0.080 A 
HETATM    5  C15 UNL     1     -15.451  18.542 -12.034  1.00  0.00     0.092 A 
HETATM    6  C16 UNL     1     -14.776  18.803 -10.825  1.00  0.00     0.013 A 
ENDROOT
BRANCH   6   7
HETATM    7  C17 UNL     1     -15.442  19.671  -9.774  1.00  0.00     0.072 C 
BRANCH   7   8
HETATM    8  C18 UNL     1     -14.837  21.005  -9.751  1.00  0.00    -0.020 C 
HETATM    9  C19 UNL     1     -15.546  22.093  -9.491  1.00  0.00    -0.087 C 
HETATM   10  C20 UNL     1     -14.822  23.427  -9.489  1.00  0.00     0.043 C 
BRANCH   9  11
HETATM   11  C21 UNL     1     -17.002  22.125  -9.294  1.00  0.00     0.037 C 
BRANCH  11  12
HETATM   12  C22 UNL     1     -17.474  22.601  -7.977  1.00  0.00     0.031 C 
BRANCH  12  13
HETATM   13  C23 UNL     1     -18.294  23.815  -8.052  1.00  0.00    -0.024 C 
HETATM   14  C24 UNL     1     -17.899  24.915  -7.444  1.00  0.00    -0.091 C 
HETATM   15  C25 UNL     1     -16.632  24.932  -6.689  1.00  0.00     0.042 C 
HETATM   16  C26 UNL     1     -18.717  26.140  -7.518  1.00  0.00     0.042 C 
ENDBRANCH  12  13
ENDBRANCH  11  12
ENDBRANCH   9  11
ENDBRANCH   7   8
ENDBRANCH   6   7
BRANCH   1  17
HETATM   17  O1  UNL     1     -12.900  18.557  -9.402  1.00  0.00    -0.355 OA
HETATM   18  C1  UNL     1     -11.585  19.002  -9.280  1.00  0.00     0.210 C 
ENDBRANCH   1  17
BRANCH   5  19
HETATM   19  O4  UNL     1     -16.678  19.120 -12.136  1.00  0.00    -0.359 OA
ATOM     20  H4  UNL     1     -16.923  19.790 -12.763  1.00  0.00     0.217 HD
ENDBRANCH   5  19
BRANCH   4  21
HETATM   21  C14 UNL     1     -15.569  17.519 -14.250  1.00  0.00     0.212 C 
HETATM   22  O2  UNL     1     -16.618  16.833 -14.232  1.00  0.00    -0.644 OA
HETATM   23  O3  UNL     1     -15.187  18.025 -15.494  1.00  0.00    -0.644 OA
ENDBRANCH   4  21
BRANCH   3  24
HETATM   24  C5  UNL     1     -12.923  16.314 -13.775  1.00  0.00     0.044 C 
BRANCH  24  25
HETATM   25  C6  UNL     1     -12.377  15.039 -13.227  1.00  0.00     0.043 C 
BRANCH  25  26
HETATM   26  C7  UNL     1     -10.955  14.924 -13.689  1.00  0.00    -0.058 A 
HETATM   27  C8  UNL     1      -9.936  14.623 -12.785  1.00  0.00     0.007 A 
HETATM   28  C9  UNL     1      -8.622  14.501 -13.149  1.00  0.00     0.001 A 
HETATM   29  C10 UNL     1      -8.282  14.685 -14.485  1.00  0.00     0.000 A 
HETATM   30  C11 UNL     1      -9.262  14.986 -15.416  1.00  0.00     0.001 A 
HETATM   31  C12 UNL     1     -10.583  15.100 -15.003  1.00  0.00     0.007 A 
ENDBRANCH  25  26
ENDBRANCH  24  25
ENDBRANCH   3  24
TORSDOF 11
ENDMDL
