MODEL 3
REMARK VINA RESULT: -8.909308518      1.270      2.508
REMARK  11 active torsions:
REMARK  status: ('A' for Active; 'I' for Inactive)
REMARK    1  A    between atoms: O1_2  and  C2_3 
REMARK    2  A    between atoms: C4_5  and  C5_6 
REMARK    3  A    between atoms: C5_6  and  C6_7 
REMARK    4  A    between atoms: C6_7  and  C7_8 
REMARK    5  A    between atoms: C13_14  and  C14_15 
REMARK    6  A    between atoms: C15_18  and  O4_19 
REMARK    7  A    between atoms: C16_21  and  C17_22 
REMARK    8  A    between atoms: C17_22  and  C18_23 
REMARK    9  A    between atoms: C19_24  and  C21_26 
REMARK   10  A    between atoms: C21_26  and  C22_27 
REMARK   11  A    between atoms: C22_27  and  C23_28 
ROOT
HETATM    1  C2  UNL     1     -13.708  18.205 -10.754  1.00  0.00     0.078 A 
HETATM    2  C3  UNL     1     -13.087  17.378 -11.638  1.00  0.00     0.045 A 
HETATM    3  C4  UNL     1     -13.602  17.058 -12.895  1.00  0.00    -0.035 A 
HETATM    4  C13 UNL     1     -14.820  17.634 -13.235  1.00  0.00     0.080 A 
HETATM    5  C15 UNL     1     -15.483  18.490 -12.341  1.00  0.00     0.092 A 
HETATM    6  C16 UNL     1     -14.907  18.770 -11.086  1.00  0.00     0.013 A 
ENDROOT
BRANCH   6   7
HETATM    7  C17 UNL     1     -15.630  19.693 -10.125  1.00  0.00     0.072 C 
BRANCH   7   8
HETATM    8  C18 UNL     1     -16.850  19.057  -9.622  1.00  0.00    -0.020 C 
HETATM    9  C19 UNL     1     -17.958  19.745  -9.391  1.00  0.00    -0.087 C 
HETATM   10  C20 UNL     1     -19.167  18.988  -8.873  1.00  0.00     0.043 C 
BRANCH   9  11
HETATM   11  C21 UNL     1     -18.086  21.203  -9.509  1.00  0.00     0.037 C 
BRANCH  11  12
HETATM   12  C22 UNL     1     -18.217  21.954  -8.243  1.00  0.00     0.031 C 
BRANCH  12  13
HETATM   13  C23 UNL     1     -17.040  22.765  -7.917  1.00  0.00    -0.024 C 
HETATM   14  C24 UNL     1     -17.187  24.027  -7.565  1.00  0.00    -0.091 C 
HETATM   15  C25 UNL     1     -18.533  24.627  -7.497  1.00  0.00     0.042 C 
HETATM   16  C26 UNL     1     -16.007  24.848  -7.233  1.00  0.00     0.042 C 
ENDBRANCH  12  13
ENDBRANCH  11  12
ENDBRANCH   9  11
ENDBRANCH   7   8
ENDBRANCH   6   7
BRANCH   1  17
HETATM   17  O1  UNL     1     -13.171  18.512  -9.496  1.00  0.00    -0.355 OA
HETATM   18  C1  UNL     1     -11.893  19.022  -9.284  1.00  0.00     0.210 C 
ENDBRANCH   1  17
BRANCH   5  19
HETATM   19  O4  UNL     1     -16.676  19.103 -12.569  1.00  0.00    -0.359 OA
ATOM     20  H4  UNL     1     -16.790  20.009 -12.832  1.00  0.00     0.217 HD
ENDBRANCH   5  19
BRANCH   4  21
HETATM   21  C14 UNL     1     -15.444  17.396 -14.527  1.00  0.00     0.212 C 
HETATM   22  O2  UNL     1     -16.470  16.679 -14.588  1.00  0.00    -0.644 OA
HETATM   23  O3  UNL     1     -14.984  17.917 -15.737  1.00  0.00    -0.644 OA
ENDBRANCH   4  21
BRANCH   3  24
HETATM   24  C5  UNL     1     -12.893  16.123 -13.783  1.00  0.00     0.044 C 
BRANCH  24  25
HETATM   25  C6  UNL     1     -12.245  14.961 -13.109  1.00  0.00     0.043 C 
BRANCH  25  26
HETATM   26  C7  UNL     1     -10.834  14.882 -13.608  1.00  0.00    -0.058 A 
HETATM   27  C8  UNL     1      -9.790  14.558 -12.741  1.00  0.00     0.007 A 
HETATM   28  C9  UNL     1      -8.484  14.467 -13.140  1.00  0.00     0.001 A 
HETATM   29  C10 UNL     1      -8.178  14.708 -14.475  1.00  0.00     0.000 A 
HETATM   30  C11 UNL     1      -9.182  15.033 -15.370  1.00  0.00     0.001 A 
HETATM   31  C12 UNL     1     -10.495  15.115 -14.923  1.00  0.00     0.007 A 
ENDBRANCH  25  26
ENDBRANCH  24  25
ENDBRANCH   3  24
TORSDOF 11
ENDMDL
