MODEL 1
REMARK VINA RESULT: -9.119408817      0.000      0.000
REMARK  11 active torsions:
REMARK  status: ('A' for Active; 'I' for Inactive)
REMARK    1  A    between atoms: O1_2  and  C2_3 
REMARK    2  A    between atoms: C4_5  and  C5_6 
REMARK    3  A    between atoms: C5_6  and  C6_7 
REMARK    4  A    between atoms: C6_7  and  C7_8 
REMARK    5  A    between atoms: C13_14  and  C14_15 
REMARK    6  A    between atoms: C15_18  and  O4_19 
REMARK    7  A    between atoms: C16_21  and  C17_22 
REMARK    8  A    between atoms: C17_22  and  C18_23 
REMARK    9  A    between atoms: C19_24  and  C21_26 
REMARK   10  A    between atoms: C21_26  and  C22_27 
REMARK   11  A    between atoms: C22_27  and  C23_28 
ROOT
HETATM    1  C2  UNL     1     -12.937  18.005 -10.820  1.00  0.00     0.078 A 
HETATM    2  C3  UNL     1     -12.454  17.330 -11.897  1.00  0.00     0.045 A 
HETATM    3  C4  UNL     1     -13.196  17.077 -13.052  1.00  0.00    -0.035 A 
HETATM    4  C13 UNL     1     -14.500  17.556 -13.073  1.00  0.00     0.080 A 
HETATM    5  C15 UNL     1     -15.024  18.256 -11.975  1.00  0.00     0.092 A 
HETATM    6  C16 UNL     1     -14.220  18.476 -10.839  1.00  0.00     0.013 A 
ENDROOT
BRANCH   6   7
HETATM    7  C17 UNL     1     -14.794  19.230  -9.655  1.00  0.00     0.072 C 
BRANCH   7   8
HETATM    8  C18 UNL     1     -14.150  20.539  -9.518  1.00  0.00    -0.020 C 
HETATM    9  C19 UNL     1     -14.816  21.671  -9.687  1.00  0.00    -0.087 C 
HETATM   10  C20 UNL     1     -14.055  22.973  -9.520  1.00  0.00     0.043 C 
BRANCH   9  11
HETATM   11  C21 UNL     1     -16.218  21.770 -10.117  1.00  0.00     0.037 C 
BRANCH  11  12
HETATM   12  C22 UNL     1     -17.229  21.832  -9.041  1.00  0.00     0.031 C 
BRANCH  12  13
HETATM   13  C23 UNL     1     -18.592  21.539  -9.499  1.00  0.00    -0.024 C 
HETATM   14  C24 UNL     1     -19.063  20.311  -9.418  1.00  0.00    -0.091 C 
HETATM   15  C25 UNL     1     -18.226  19.228  -8.868  1.00  0.00     0.042 C 
HETATM   16  C26 UNL     1     -20.433  20.009  -9.874  1.00  0.00     0.042 C 
ENDBRANCH  12  13
ENDBRANCH  11  12
ENDBRANCH   9  11
ENDBRANCH   7   8
ENDBRANCH   6   7
BRANCH   1  17
HETATM   17  O1  UNL     1     -12.173  18.247  -9.670  1.00  0.00    -0.355 OA
HETATM   18  C1  UNL     1     -10.865  18.727  -9.676  1.00  0.00     0.210 C 
ENDBRANCH   1  17
BRANCH   5  19
HETATM   19  O4  UNL     1     -16.283  18.765 -11.888  1.00  0.00    -0.359 OA
ATOM     20  H4  UNL     1     -17.087  18.264 -11.942  1.00  0.00     0.217 HD
ENDBRANCH   5  19
BRANCH   4  21
HETATM   21  C14 UNL     1     -15.362  17.377 -14.230  1.00  0.00     0.212 C 
HETATM   22  O2  UNL     1     -16.295  16.542 -14.175  1.00  0.00    -0.644 OA
HETATM   23  O3  UNL     1     -15.234  18.079 -15.430  1.00  0.00    -0.644 OA
ENDBRANCH   4  21
BRANCH   3  24
HETATM   24  C5  UNL     1     -12.619  16.302 -14.163  1.00  0.00     0.044 C 
BRANCH  24  25
HETATM   25  C6  UNL     1     -12.230  14.900 -13.836  1.00  0.00     0.043 C 
BRANCH  25  26
HETATM   26  C7  UNL     1     -10.736  14.814 -13.933  1.00  0.00    -0.058 A 
HETATM   27  C8  UNL     1      -9.970  14.480 -12.817  1.00  0.00     0.007 A 
HETATM   28  C9  UNL     1      -8.605  14.383 -12.846  1.00  0.00     0.001 A 
HETATM   29  C10 UNL     1      -7.946  14.628 -14.046  1.00  0.00     0.000 A 
HETATM   30  C11 UNL     1      -8.667  14.962 -15.178  1.00  0.00     0.001 A 
HETATM   31  C12 UNL     1     -10.052  15.051 -15.104  1.00  0.00     0.007 A 
ENDBRANCH  25  26
ENDBRANCH  24  25
ENDBRANCH   3  24
TORSDOF 11
ENDMDL
