MODEL 12
REMARK VINA RESULT: -8.638079399      4.511      7.641
REMARK  9 active torsions:
REMARK  status: ('A' for Active; 'I' for Inactive)
REMARK    1  A    between atoms: C2_2  and  O1_3 
REMARK    2  A    between atoms: C2_2  and  C22_30 
REMARK    3  A    between atoms: O1_3  and  C3_4 
REMARK    4  A    between atoms: C5_6  and  C6_7 
REMARK    5  A    between atoms: C8_9  and  C9_10 
REMARK    6  A    between atoms: C11_12  and  C12_13 
REMARK    7  A    between atoms: C12_13  and  N1_14 
REMARK    8  A    between atoms: C20_26  and  C21_27 
REMARK    9  A    between atoms: C27_35  and  C28_36 
ROOT
HETATM    1  C3  UNL     1       1.534 -10.536  11.199  1.00  0.00     0.085 A 
HETATM    2  C4  UNL     1       1.443 -11.536  12.180  1.00  0.00     0.050 A 
HETATM    3  C5  UNL     1       1.605 -12.859  11.872  1.00  0.00    -0.020 A 
HETATM    4  C18 UNL     1       1.865 -13.174  10.538  1.00  0.00     0.013 A 
HETATM    5  C19 UNL     1       1.956 -12.204   9.569  1.00  0.00     0.020 A 
HETATM    6  C20 UNL     1       1.796 -10.875   9.865  1.00  0.00     0.062 A 
ENDROOT
BRANCH   3   7
HETATM    7  C6  UNL     1       1.511 -13.931  12.869  1.00  0.00     0.016 A 
HETATM    8  C7  UNL     1       0.374 -14.650  13.131  1.00  0.00     0.030 A 
HETATM    9  C8  UNL     1       0.368 -15.661  14.048  1.00  0.00    -0.003 A 
HETATM   10  C16 UNL     1       1.511 -15.978  14.736  1.00  0.00     0.102 A 
HETATM   11  N2  UNL     1       2.631 -15.279  14.488  1.00  0.00    -0.353 N 
HETATM   12  C17 UNL     1       2.644 -14.288  13.588  1.00  0.00     0.127 A 
ATOM     13  H2  UNL     1       3.486 -15.507  14.993  1.00  0.00     0.166 HD
HETATM   14  N3  UNL     1       3.836 -13.579  13.357  1.00  0.00    -0.082 NA
BRANCH   9  15
HETATM   15  C9  UNL     1      -0.883 -16.429  14.282  1.00  0.00     0.017 A 
HETATM   16  C10 UNL     1      -1.964 -16.525  13.450  1.00  0.00     0.029 A 
HETATM   17  C11 UNL     1      -3.003 -17.260  13.871  1.00  0.00    -0.033 A 
HETATM   18  C15 UNL     1      -2.897 -17.854  15.099  1.00  0.00     0.059 A 
HETATM   19  S1  UNL     1      -1.349 -17.367  15.625  1.00  0.00    -0.101 SA
BRANCH  17  20
HETATM   20  C12 UNL     1      -4.280 -17.449  13.065  1.00  0.00     0.155 C 
BRANCH  20  21
HETATM   21  N1  UNL     1      -5.185 -16.368  13.307  1.00  0.00    -0.417 N 
HETATM   22  C13 UNL     1      -5.505 -15.571  12.165  1.00  0.00     0.142 C 
HETATM   23  C14 UNL     1      -6.307 -16.662  14.136  1.00  0.00     0.142 C 
ENDBRANCH  20  21
ENDBRANCH  17  20
ENDBRANCH   9  15
ENDBRANCH   3   7
BRANCH   1  24
HETATM   24  O1  UNL     1       1.380  -9.214  11.461  1.00  0.00    -0.341 OA
BRANCH  24  25
HETATM   25  C2  UNL     1       1.709  -8.527  12.625  1.00  0.00     0.158 C 
HETATM   26  C1  UNL     1       0.891  -7.199  12.570  1.00  0.00     0.045 C 
BRANCH  25  27
HETATM   27  C22 UNL     1       3.136  -8.064  12.643  1.00  0.00    -0.014 A 
HETATM   28  C23 UNL     1       3.665  -7.385  11.564  1.00  0.00     0.010 A 
HETATM   29  C24 UNL     1       5.001  -6.985  11.558  1.00  0.00     0.001 A 
HETATM   30  C25 UNL     1       5.828  -7.254  12.621  1.00  0.00     0.001 A 
HETATM   31  C26 UNL     1       5.310  -7.926  13.693  1.00  0.00     0.017 A 
HETATM   32  C27 UNL     1       3.958  -8.333  13.703  1.00  0.00     0.056 A 
BRANCH  32  33
HETATM   33  C28 UNL     1       3.442  -9.038  14.910  1.00  0.00     0.418 C 
HETATM   34  F1  UNL     1       4.518  -9.195  15.814  1.00  0.00    -0.166 F 
HETATM   35  F2  UNL     1       2.538  -8.211  15.556  1.00  0.00    -0.166 F 
HETATM   36  F3  UNL     1       2.921 -10.261  14.610  1.00  0.00    -0.166 F 
ENDBRANCH  32  33
ENDBRANCH  25  27
ENDBRANCH  24  25
ENDBRANCH   1  24
BRANCH   6  37
HETATM   37  C21 UNL     1       1.892  -9.824   8.855  1.00  0.00     0.267 C 
HETATM   38  N4  UNL     1       0.709  -9.442   8.166  1.00  0.00    -0.057 NA
HETATM   39  O2  UNL     1       2.958  -9.246   8.570  1.00  0.00    -0.271 OA
ENDBRANCH   6  37
TORSDOF 9
ENDMDL
