MODEL 10
REMARK VINA RESULT: -8.784811176      4.260      8.912
REMARK  9 active torsions:
REMARK  status: ('A' for Active; 'I' for Inactive)
REMARK    1  A    between atoms: C2_2  and  O1_3 
REMARK    2  A    between atoms: C2_2  and  C22_30 
REMARK    3  A    between atoms: O1_3  and  C3_4 
REMARK    4  A    between atoms: C5_6  and  C6_7 
REMARK    5  A    between atoms: C8_9  and  C9_10 
REMARK    6  A    between atoms: C11_12  and  C12_13 
REMARK    7  A    between atoms: C12_13  and  N1_14 
REMARK    8  A    between atoms: C20_26  and  C21_27 
REMARK    9  A    between atoms: C27_35  and  C28_36 
ROOT
HETATM    1  C3  UNL     1       1.442 -10.505  10.957  1.00  0.00     0.085 A 
HETATM    2  C4  UNL     1       1.128 -11.503  11.893  1.00  0.00     0.050 A 
HETATM    3  C5  UNL     1       1.112 -12.827  11.552  1.00  0.00    -0.020 A 
HETATM    4  C18 UNL     1       1.423 -13.146  10.229  1.00  0.00     0.013 A 
HETATM    5  C19 UNL     1       1.732 -12.178   9.304  1.00  0.00     0.020 A 
HETATM    6  C20 UNL     1       1.751 -10.847   9.634  1.00  0.00     0.062 A 
ENDROOT
BRANCH   3   7
HETATM    7  C6  UNL     1       0.784 -13.896  12.501  1.00  0.00     0.016 A 
HETATM    8  C7  UNL     1       1.674 -14.454  13.380  1.00  0.00     0.030 A 
HETATM    9  C8  UNL     1       1.290 -15.421  14.263  1.00  0.00    -0.003 A 
HETATM   10  C16 UNL     1      -0.008 -15.860  14.287  1.00  0.00     0.102 A 
HETATM   11  N2  UNL     1      -0.890 -15.320  13.429  1.00  0.00    -0.353 N 
HETATM   12  C17 UNL     1      -0.520 -14.370  12.562  1.00  0.00     0.127 A 
ATOM     13  H2  UNL     1      -1.858 -15.640  13.439  1.00  0.00     0.166 HD
HETATM   14  N3  UNL     1      -1.473 -13.831  11.680  1.00  0.00    -0.082 NA
BRANCH   9  15
HETATM   15  C9  UNL     1       2.287 -15.982  15.214  1.00  0.00     0.017 A 
HETATM   16  C10 UNL     1       2.257 -15.916  16.579  1.00  0.00     0.029 A 
HETATM   17  C11 UNL     1       3.278 -16.475  17.246  1.00  0.00    -0.033 A 
HETATM   18  C15 UNL     1       4.264 -17.065  16.505  1.00  0.00     0.059 A 
HETATM   19  S1  UNL     1       3.735 -16.821  14.901  1.00  0.00    -0.101 SA
BRANCH  17  20
HETATM   20  C12 UNL     1       3.393 -16.470  18.763  1.00  0.00     0.155 C 
BRANCH  20  21
HETATM   21  N1  UNL     1       2.095 -16.529  19.360  1.00  0.00    -0.417 N 
HETATM   22  C13 UNL     1       1.663 -17.833  19.755  1.00  0.00     0.142 C 
HETATM   23  C14 UNL     1       1.795 -15.511  20.312  1.00  0.00     0.142 C 
ENDBRANCH  20  21
ENDBRANCH  17  20
ENDBRANCH   9  15
ENDBRANCH   3   7
BRANCH   1  24
HETATM   24  O1  UNL     1       1.468  -9.181  11.254  1.00  0.00    -0.341 OA
BRANCH  24  25
HETATM   25  C2  UNL     1       1.766  -8.583  12.474  1.00  0.00     0.158 C 
HETATM   26  C1  UNL     1       0.902  -7.283  12.521  1.00  0.00     0.045 C 
BRANCH  25  27
HETATM   27  C22 UNL     1       3.175  -8.074  12.543  1.00  0.00    -0.014 A 
HETATM   28  C23 UNL     1       3.693  -7.304  11.521  1.00  0.00     0.010 A 
HETATM   29  C24 UNL     1       5.015  -6.860  11.561  1.00  0.00     0.001 A 
HETATM   30  C25 UNL     1       5.838  -7.173  12.615  1.00  0.00     0.001 A 
HETATM   31  C26 UNL     1       5.331  -7.936  13.630  1.00  0.00     0.017 A 
HETATM   32  C27 UNL     1       3.994  -8.388  13.594  1.00  0.00     0.056 A 
BRANCH  32  33
HETATM   33  C28 UNL     1       3.488  -9.192  14.742  1.00  0.00     0.418 C 
HETATM   34  F1  UNL     1       3.123 -10.467  14.250  1.00  0.00    -0.166 F 
HETATM   35  F2  UNL     1       4.536  -9.424  15.619  1.00  0.00    -0.166 F 
HETATM   36  F3  UNL     1       2.410  -8.614  15.343  1.00  0.00    -0.166 F 
ENDBRANCH  32  33
ENDBRANCH  25  27
ENDBRANCH  24  25
ENDBRANCH   1  24
BRANCH   6  37
HETATM   37  C21 UNL     1       2.080  -9.800   8.671  1.00  0.00     0.267 C 
HETATM   38  N4  UNL     1       1.066  -9.370   7.772  1.00  0.00    -0.057 NA
HETATM   39  O2  UNL     1       3.202  -9.264   8.602  1.00  0.00    -0.271 OA
ENDBRANCH   6  37
TORSDOF 9
ENDMDL
