MODEL 11
REMARK VINA RESULT: -8.752259745      4.684      9.744
REMARK  9 active torsions:
REMARK  status: ('A' for Active; 'I' for Inactive)
REMARK    1  A    between atoms: C2_2  and  O1_3 
REMARK    2  A    between atoms: C2_2  and  C22_30 
REMARK    3  A    between atoms: O1_3  and  C3_4 
REMARK    4  A    between atoms: C5_6  and  C6_7 
REMARK    5  A    between atoms: C8_9  and  C9_10 
REMARK    6  A    between atoms: C11_12  and  C12_13 
REMARK    7  A    between atoms: C12_13  and  N1_14 
REMARK    8  A    between atoms: C20_26  and  C21_27 
REMARK    9  A    between atoms: C27_35  and  C28_36 
ROOT
HETATM    1  C3  UNL     1       1.860 -11.385  12.114  1.00  0.00     0.085 A 
HETATM    2  C4  UNL     1       1.622 -12.160  13.261  1.00  0.00     0.050 A 
HETATM    3  C5  UNL     1       1.242 -13.471  13.174  1.00  0.00    -0.020 A 
HETATM    4  C18 UNL     1       1.100 -14.008  11.894  1.00  0.00     0.013 A 
HETATM    5  C19 UNL     1       1.329 -13.260  10.765  1.00  0.00     0.020 A 
HETATM    6  C20 UNL     1       1.711 -11.945  10.838  1.00  0.00     0.062 A 
ENDROOT
BRANCH   3   7
HETATM    7  C6  UNL     1       0.980 -14.308  14.349  1.00  0.00     0.016 A 
HETATM    8  C7  UNL     1       1.952 -14.855  15.145  1.00  0.00     0.030 A 
HETATM    9  C8  UNL     1       1.635 -15.596  16.247  1.00  0.00    -0.003 A 
HETATM   10  C16 UNL     1       0.324 -15.811  16.582  1.00  0.00     0.102 A 
HETATM   11  N2  UNL     1      -0.638 -15.280  15.809  1.00  0.00    -0.353 N 
HETATM   12  C17 UNL     1      -0.334 -14.552  14.728  1.00  0.00     0.127 A 
ATOM     13  H2  UNL     1      -1.617 -15.434  16.050  1.00  0.00     0.166 HD
HETATM   14  N3  UNL     1      -1.369 -14.013  13.944  1.00  0.00    -0.082 NA
BRANCH   9  15
HETATM   15  C9  UNL     1       2.725 -16.151  17.093  1.00  0.00     0.017 A 
HETATM   16  C10 UNL     1       2.794 -16.153  18.458  1.00  0.00     0.029 A 
HETATM   17  C11 UNL     1       3.886 -16.692  19.021  1.00  0.00    -0.033 A 
HETATM   18  C15 UNL     1       4.841 -17.195  18.181  1.00  0.00     0.059 A 
HETATM   19  S1  UNL     1       4.183 -16.901  16.634  1.00  0.00    -0.101 SA
BRANCH  17  20
HETATM   20  C12 UNL     1       4.113 -16.754  20.524  1.00  0.00     0.155 C 
BRANCH  20  21
HETATM   21  N1  UNL     1       4.653 -15.517  20.996  1.00  0.00    -0.417 N 
HETATM   22  C13 UNL     1       3.746 -14.697  21.737  1.00  0.00     0.142 C 
HETATM   23  C14 UNL     1       5.962 -15.576  21.557  1.00  0.00     0.142 C 
ENDBRANCH  20  21
ENDBRANCH  17  20
ENDBRANCH   9  15
ENDBRANCH   3   7
BRANCH   1  24
HETATM   24  O1  UNL     1       2.238 -10.083  12.155  1.00  0.00    -0.341 OA
BRANCH  24  25
HETATM   25  C2  UNL     1       2.272  -9.236  13.258  1.00  0.00     0.158 C 
HETATM   26  C1  UNL     1       1.377  -8.016  12.874  1.00  0.00     0.045 C 
BRANCH  25  27
HETATM   27  C22 UNL     1       3.625  -8.626  13.480  1.00  0.00    -0.014 A 
HETATM   28  C23 UNL     1       4.218  -7.860  12.497  1.00  0.00     0.010 A 
HETATM   29  C24 UNL     1       5.492  -7.322  12.683  1.00  0.00     0.001 A 
HETATM   30  C25 UNL     1       6.192  -7.537  13.844  1.00  0.00     0.001 A 
HETATM   31  C26 UNL     1       5.610  -8.294  14.822  1.00  0.00     0.017 A 
HETATM   32  C27 UNL     1       4.321  -8.842  14.639  1.00  0.00     0.056 A 
BRANCH  32  33
HETATM   33  C28 UNL     1       3.726  -9.636  15.750  1.00  0.00     0.418 C 
HETATM   34  F1  UNL     1       4.677  -9.699  16.796  1.00  0.00    -0.166 F 
HETATM   35  F2  UNL     1       2.652  -8.934  16.274  1.00  0.00    -0.166 F 
HETATM   36  F3  UNL     1       3.396 -10.900  15.362  1.00  0.00    -0.166 F 
ENDBRANCH  32  33
ENDBRANCH  25  27
ENDBRANCH  24  25
ENDBRANCH   1  24
BRANCH   6  37
HETATM   37  C21 UNL     1       1.965 -11.130   9.654  1.00  0.00     0.267 C 
HETATM   38  N4  UNL     1       0.935 -10.262   9.200  1.00  0.00    -0.057 NA
HETATM   39  O2  UNL     1       3.040 -11.155   9.025  1.00  0.00    -0.271 OA
ENDBRANCH   6  37
TORSDOF 9
ENDMDL
