MODEL 1
REMARK VINA RESULT: -9.879287403      0.000      0.000
REMARK  9 active torsions:
REMARK  status: ('A' for Active; 'I' for Inactive)
REMARK    1  A    between atoms: C2_2  and  O1_3 
REMARK    2  A    between atoms: C2_2  and  C22_30 
REMARK    3  A    between atoms: O1_3  and  C3_4 
REMARK    4  A    between atoms: C5_6  and  C6_7 
REMARK    5  A    between atoms: C8_9  and  C9_10 
REMARK    6  A    between atoms: C11_12  and  C12_13 
REMARK    7  A    between atoms: C12_13  and  N1_14 
REMARK    8  A    between atoms: C20_26  and  C21_27 
REMARK    9  A    between atoms: C27_35  and  C28_36 
ROOT
HETATM    1  C3  UNL     1       3.412  -9.234  14.269  1.00  0.00     0.085 A 
HETATM    2  C4  UNL     1       2.763  -9.009  13.044  1.00  0.00     0.050 A 
HETATM    3  C5  UNL     1       3.307  -8.204  12.081  1.00  0.00    -0.020 A 
HETATM    4  C18 UNL     1       4.538  -7.613  12.368  1.00  0.00     0.013 A 
HETATM    5  C19 UNL     1       5.182  -7.825  13.563  1.00  0.00     0.020 A 
HETATM    6  C20 UNL     1       4.648  -8.630  14.536  1.00  0.00     0.062 A 
ENDROOT
BRANCH   3   7
HETATM    7  C6  UNL     1       2.655  -7.942  10.794  1.00  0.00     0.016 A 
HETATM    8  C7  UNL     1       2.015  -8.892  10.041  1.00  0.00     0.030 A 
HETATM    9  C8  UNL     1       1.397  -8.570   8.867  1.00  0.00    -0.003 A 
HETATM   10  C16 UNL     1       1.406  -7.277   8.412  1.00  0.00     0.102 A 
HETATM   11  N2  UNL     1       2.031  -6.338   9.142  1.00  0.00    -0.353 N 
HETATM   12  C17 UNL     1       2.637  -6.647  10.294  1.00  0.00     0.127 A 
ATOM     13  H2  UNL     1       2.042  -5.373   8.813  1.00  0.00     0.166 HD
HETATM   14  N3  UNL     1       3.281  -5.635  11.029  1.00  0.00    -0.082 NA
BRANCH   9  15
HETATM   15  C9  UNL     1       0.696  -9.630   8.095  1.00  0.00     0.017 A 
HETATM   16  C10 UNL     1      -0.265  -9.460   7.139  1.00  0.00     0.029 A 
HETATM   17  C11 UNL     1      -0.783 -10.564   6.580  1.00  0.00    -0.033 A 
HETATM   18  C15 UNL     1      -0.305 -11.770   7.013  1.00  0.00     0.059 A 
HETATM   19  S1  UNL     1       0.851 -11.323   8.186  1.00  0.00    -0.101 SA
BRANCH  17  20
HETATM   20  C12 UNL     1      -1.869 -10.536   5.514  1.00  0.00     0.155 C 
BRANCH  20  21
HETATM   21  N1  UNL     1      -3.059  -9.937   6.033  1.00  0.00    -0.417 N 
HETATM   22  C13 UNL     1      -3.546  -8.811   5.300  1.00  0.00     0.142 C 
HETATM   23  C14 UNL     1      -4.082 -10.836   6.454  1.00  0.00     0.142 C 
ENDBRANCH  20  21
ENDBRANCH  17  20
ENDBRANCH   9  15
ENDBRANCH   3   7
BRANCH   1  24
HETATM   24  O1  UNL     1       2.908 -10.024  15.250  1.00  0.00    -0.341 OA
BRANCH  24  25
HETATM   25  C2  UNL     1       1.838 -10.910  15.171  1.00  0.00     0.158 C 
HETATM   26  C1  UNL     1       1.889 -11.740  16.492  1.00  0.00     0.045 C 
BRANCH  25  27
HETATM   27  C22 UNL     1       2.017 -11.942  14.097  1.00  0.00    -0.014 A 
HETATM   28  C23 UNL     1       3.166 -12.705  14.043  1.00  0.00     0.010 A 
HETATM   29  C24 UNL     1       3.355 -13.639  13.025  1.00  0.00     0.001 A 
HETATM   30  C25 UNL     1       2.407 -13.829  12.049  1.00  0.00     0.001 A 
HETATM   31  C26 UNL     1       1.267 -13.077  12.097  1.00  0.00     0.017 A 
HETATM   32  C27 UNL     1       1.071 -12.129  13.126  1.00  0.00     0.056 A 
BRANCH  32  33
HETATM   33  C28 UNL     1      -0.203 -11.358  13.143  1.00  0.00     0.418 C 
HETATM   34  F1  UNL     1      -1.128 -12.029  12.308  1.00  0.00    -0.166 F 
HETATM   35  F2  UNL     1      -0.746 -11.422  14.416  1.00  0.00    -0.166 F 
HETATM   36  F3  UNL     1      -0.039 -10.080  12.699  1.00  0.00    -0.166 F 
ENDBRANCH  32  33
ENDBRANCH  25  27
ENDBRANCH  24  25
ENDBRANCH   1  24
BRANCH   6  37
HETATM   37  C21 UNL     1       5.314  -8.875  15.812  1.00  0.00     0.267 C 
HETATM   38  N4  UNL     1       6.513  -9.639  15.809  1.00  0.00    -0.057 NA
HETATM   39  O2  UNL     1       4.887  -8.444  16.900  1.00  0.00    -0.271 OA
ENDBRANCH   6  37
TORSDOF 9
ENDMDL
