MODEL 5
REMARK VINA RESULT: -9.557211518      1.267      1.622
REMARK  9 active torsions:
REMARK  status: ('A' for Active; 'I' for Inactive)
REMARK    1  A    between atoms: C2_2  and  O1_3 
REMARK    2  A    between atoms: C2_2  and  C22_30 
REMARK    3  A    between atoms: O1_3  and  C3_4 
REMARK    4  A    between atoms: C5_6  and  C6_7 
REMARK    5  A    between atoms: C8_9  and  C9_10 
REMARK    6  A    between atoms: C11_12  and  C12_13 
REMARK    7  A    between atoms: C12_13  and  N1_14 
REMARK    8  A    between atoms: C20_26  and  C21_27 
REMARK    9  A    between atoms: C27_35  and  C28_36 
ROOT
HETATM    1  C3  UNL     1       3.375  -8.987  13.959  1.00  0.00     0.085 A 
HETATM    2  C4  UNL     1       2.709  -8.968  12.723  1.00  0.00     0.050 A 
HETATM    3  C5  UNL     1       3.196  -8.262  11.657  1.00  0.00    -0.020 A 
HETATM    4  C18 UNL     1       4.385  -7.558  11.851  1.00  0.00     0.013 A 
HETATM    5  C19 UNL     1       5.045  -7.568  13.056  1.00  0.00     0.020 A 
HETATM    6  C20 UNL     1       4.568  -8.273  14.131  1.00  0.00     0.062 A 
ENDROOT
BRANCH   3   7
HETATM    7  C6  UNL     1       2.525  -8.215  10.354  1.00  0.00     0.016 A 
HETATM    8  C7  UNL     1       2.001  -9.307   9.711  1.00  0.00     0.030 A 
HETATM    9  C8  UNL     1       1.356  -9.184   8.514  1.00  0.00    -0.003 A 
HETATM   10  C16 UNL     1       1.220  -7.955   7.924  1.00  0.00     0.102 A 
HETATM   11  N2  UNL     1       1.729  -6.878   8.545  1.00  0.00    -0.353 N 
HETATM   12  C17 UNL     1       2.361  -6.991   9.720  1.00  0.00     0.127 A 
ATOM     13  H2  UNL     1       1.632  -5.959   8.115  1.00  0.00     0.166 HD
HETATM   14  N3  UNL     1       2.881  -5.840  10.338  1.00  0.00    -0.082 NA
BRANCH   9  15
HETATM   15  C9  UNL     1       0.785 -10.394   7.865  1.00  0.00     0.017 A 
HETATM   16  C10 UNL     1       0.104 -10.455   6.681  1.00  0.00     0.029 A 
HETATM   17  C11 UNL     1      -0.345 -11.656   6.289  1.00  0.00    -0.033 A 
HETATM   18  C15 UNL     1      -0.085 -12.722   7.105  1.00  0.00     0.059 A 
HETATM   19  S1  UNL     1       0.779 -12.012   8.394  1.00  0.00    -0.101 SA
BRANCH  17  20
HETATM   20  C12 UNL     1      -1.131 -11.881   5.005  1.00  0.00     0.155 C 
BRANCH  20  21
HETATM   21  N1  UNL     1      -0.467 -12.839   4.177  1.00  0.00    -0.417 N 
HETATM   22  C13 UNL     1      -1.328 -13.706   3.435  1.00  0.00     0.142 C 
HETATM   23  C14 UNL     1       0.648 -12.359   3.430  1.00  0.00     0.142 C 
ENDBRANCH  20  21
ENDBRANCH  17  20
ENDBRANCH   9  15
ENDBRANCH   3   7
BRANCH   1  24
HETATM   24  O1  UNL     1       2.927  -9.673  15.041  1.00  0.00    -0.341 OA
BRANCH  24  25
HETATM   25  C2  UNL     1       1.914 -10.625  15.091  1.00  0.00     0.158 C 
HETATM   26  C1  UNL     1       2.069 -11.322  16.480  1.00  0.00     0.045 C 
BRANCH  25  27
HETATM   27  C22 UNL     1       2.116 -11.741  14.110  1.00  0.00    -0.014 A 
HETATM   28  C23 UNL     1       3.294 -12.461  14.101  1.00  0.00     0.010 A 
HETATM   29  C24 UNL     1       3.503 -13.475  13.166  1.00  0.00     0.001 A 
HETATM   30  C25 UNL     1       2.547 -13.788  12.231  1.00  0.00     0.001 A 
HETATM   31  C26 UNL     1       1.379 -13.079  12.235  1.00  0.00     0.017 A 
HETATM   32  C27 UNL     1       1.162 -12.051  13.179  1.00  0.00     0.056 A 
BRANCH  32  33
HETATM   33  C28 UNL     1      -0.142 -11.331  13.153  1.00  0.00     0.418 C 
HETATM   34  F1  UNL     1      -1.032 -12.075  12.344  1.00  0.00    -0.166 F 
HETATM   35  F2  UNL     1      -0.691 -11.360  14.424  1.00  0.00    -0.166 F 
HETATM   36  F3  UNL     1      -0.025 -10.068  12.654  1.00  0.00    -0.166 F 
ENDBRANCH  32  33
ENDBRANCH  25  27
ENDBRANCH  24  25
ENDBRANCH   1  24
BRANCH   6  37
HETATM   37  C21 UNL     1       5.253  -8.303  15.421  1.00  0.00     0.267 C 
HETATM   38  N4  UNL     1       6.417  -9.109  15.546  1.00  0.00    -0.057 NA
HETATM   39  O2  UNL     1       4.869  -7.656  16.414  1.00  0.00    -0.271 OA
ENDBRANCH   6  37
TORSDOF 9
ENDMDL
