MODEL 7
REMARK VINA RESULT: -9.174366628      1.047      1.078
REMARK  9 active torsions:
REMARK  status: ('A' for Active; 'I' for Inactive)
REMARK    1  A    between atoms: C2_2  and  O1_3 
REMARK    2  A    between atoms: C2_2  and  C22_30 
REMARK    3  A    between atoms: O1_3  and  C3_4 
REMARK    4  A    between atoms: C5_6  and  C6_7 
REMARK    5  A    between atoms: C8_9  and  C9_10 
REMARK    6  A    between atoms: C11_12  and  C12_13 
REMARK    7  A    between atoms: C12_13  and  N1_14 
REMARK    8  A    between atoms: C20_26  and  C21_27 
REMARK    9  A    between atoms: C27_35  and  C28_36 
ROOT
HETATM    1  C3  UNL     1       2.864  -9.341  13.796  1.00  0.00     0.085 A 
HETATM    2  C4  UNL     1       2.247  -9.263  12.537  1.00  0.00     0.050 A 
HETATM    3  C5  UNL     1       2.762  -8.492  11.532  1.00  0.00    -0.020 A 
HETATM    4  C18 UNL     1       3.931  -7.783  11.810  1.00  0.00     0.013 A 
HETATM    5  C19 UNL     1       4.544  -7.850  13.038  1.00  0.00     0.020 A 
HETATM    6  C20 UNL     1       4.038  -8.620  14.053  1.00  0.00     0.062 A 
ENDROOT
BRANCH   3   7
HETATM    7  C6  UNL     1       2.141  -8.382  10.208  1.00  0.00     0.016 A 
HETATM    8  C7  UNL     1       1.533  -9.418   9.548  1.00  0.00     0.030 A 
HETATM    9  C8  UNL     1       0.941  -9.236   8.331  1.00  0.00    -0.003 A 
HETATM   10  C16 UNL     1       0.946  -8.001   7.738  1.00  0.00     0.102 A 
HETATM   11  N2  UNL     1       1.539  -6.978   8.375  1.00  0.00    -0.353 N 
HETATM   12  C17 UNL     1       2.119  -7.150   9.569  1.00  0.00     0.127 A 
ATOM     13  H2  UNL     1       1.548  -6.055   7.942  1.00  0.00     0.166 HD
HETATM   14  N3  UNL     1       2.731  -6.054  10.204  1.00  0.00    -0.082 NA
BRANCH   9  15
HETATM   15  C9  UNL     1       0.274 -10.385   7.663  1.00  0.00     0.017 A 
HETATM   16  C10 UNL     1      -0.683 -10.334   6.688  1.00  0.00     0.029 A 
HETATM   17  C11 UNL     1      -1.167 -11.501   6.238  1.00  0.00    -0.033 A 
HETATM   18  C15 UNL     1      -0.664 -12.646   6.791  1.00  0.00     0.059 A 
HETATM   19  S1  UNL     1       0.470 -12.056   7.922  1.00  0.00    -0.101 SA
BRANCH  17  20
HETATM   20  C12 UNL     1      -2.244 -11.607   5.168  1.00  0.00     0.155 C 
BRANCH  20  21
HETATM   21  N1  UNL     1      -2.861 -10.334   4.956  1.00  0.00    -0.417 N 
HETATM   22  C13 UNL     1      -2.836  -9.859   3.608  1.00  0.00     0.142 C 
HETATM   23  C14 UNL     1      -4.105 -10.122   5.618  1.00  0.00     0.142 C 
ENDBRANCH  20  21
ENDBRANCH  17  20
ENDBRANCH   9  15
ENDBRANCH   3   7
BRANCH   1  24
HETATM   24  O1  UNL     1       2.387 -10.092  14.820  1.00  0.00    -0.341 OA
BRANCH  24  25
HETATM   25  C2  UNL     1       1.489 -11.152  14.757  1.00  0.00     0.158 C 
HETATM   26  C1  UNL     1       1.582 -11.857  16.147  1.00  0.00     0.045 C 
BRANCH  25  27
HETATM   27  C22 UNL     1       1.914 -12.218  13.791  1.00  0.00    -0.014 A 
HETATM   28  C23 UNL     1       3.182 -12.760  13.859  1.00  0.00     0.010 A 
HETATM   29  C24 UNL     1       3.597 -13.723  12.939  1.00  0.00     0.001 A 
HETATM   30  C25 UNL     1       2.759 -14.161  11.942  1.00  0.00     0.001 A 
HETATM   31  C26 UNL     1       1.502 -13.629  11.870  1.00  0.00     0.017 A 
HETATM   32  C27 UNL     1       1.078 -12.652  12.798  1.00  0.00     0.056 A 
BRANCH  32  33
HETATM   33  C28 UNL     1      -0.312 -12.128  12.687  1.00  0.00     0.418 C 
HETATM   34  F1  UNL     1      -0.878 -12.649  11.500  1.00  0.00    -0.166 F 
HETATM   35  F2  UNL     1      -1.071 -12.657  13.718  1.00  0.00    -0.166 F 
HETATM   36  F3  UNL     1      -0.348 -10.766  12.645  1.00  0.00    -0.166 F 
ENDBRANCH  32  33
ENDBRANCH  25  27
ENDBRANCH  24  25
ENDBRANCH   1  24
BRANCH   6  37
HETATM   37  C21 UNL     1       4.674  -8.712  15.365  1.00  0.00     0.267 C 
HETATM   38  N4  UNL     1       4.114  -7.966  16.438  1.00  0.00    -0.057 NA
HETATM   39  O2  UNL     1       5.678  -9.414  15.590  1.00  0.00    -0.271 OA
ENDBRANCH   6  37
TORSDOF 9
ENDMDL
