MODEL 3
REMARK VINA RESULT: -9.699979762      1.325      1.917
REMARK  9 active torsions:
REMARK  status: ('A' for Active; 'I' for Inactive)
REMARK    1  A    between atoms: C2_2  and  O1_3 
REMARK    2  A    between atoms: C2_2  and  C22_30 
REMARK    3  A    between atoms: O1_3  and  C3_4 
REMARK    4  A    between atoms: C5_6  and  C6_7 
REMARK    5  A    between atoms: C8_9  and  C9_10 
REMARK    6  A    between atoms: C11_12  and  C12_13 
REMARK    7  A    between atoms: C12_13  and  N1_14 
REMARK    8  A    between atoms: C20_26  and  C21_27 
REMARK    9  A    between atoms: C27_35  and  C28_36 
ROOT
HETATM    1  C3  UNL     1       3.404  -9.224  14.235  1.00  0.00     0.085 A 
HETATM    2  C4  UNL     1       2.754  -9.022  13.007  1.00  0.00     0.050 A 
HETATM    3  C5  UNL     1       3.285  -8.217  12.038  1.00  0.00    -0.020 A 
HETATM    4  C18 UNL     1       4.506  -7.602  12.321  1.00  0.00     0.013 A 
HETATM    5  C19 UNL     1       5.151  -7.792  13.519  1.00  0.00     0.020 A 
HETATM    6  C20 UNL     1       4.629  -8.597  14.499  1.00  0.00     0.062 A 
ENDROOT
BRANCH   3   7
HETATM    7  C6  UNL     1       2.631  -7.979  10.747  1.00  0.00     0.016 A 
HETATM    8  C7  UNL     1       2.008  -8.946  10.002  1.00  0.00     0.030 A 
HETATM    9  C8  UNL     1       1.387  -8.646   8.825  1.00  0.00    -0.003 A 
HETATM   10  C16 UNL     1       1.375  -7.357   8.357  1.00  0.00     0.102 A 
HETATM   11  N2  UNL     1       1.983  -6.401   9.079  1.00  0.00    -0.353 N 
HETATM   12  C17 UNL     1       2.593  -6.689  10.235  1.00  0.00     0.127 A 
ATOM     13  H2  UNL     1       1.980  -5.439   8.740  1.00  0.00     0.166 HD
HETATM   14  N3  UNL     1       3.219  -5.659  10.961  1.00  0.00    -0.082 NA
BRANCH   9  15
HETATM   15  C9  UNL     1       0.704  -9.725   8.063  1.00  0.00     0.017 A 
HETATM   16  C10 UNL     1       0.780 -11.071   8.285  1.00  0.00     0.029 A 
HETATM   17  C11 UNL     1       0.094 -11.873   7.457  1.00  0.00    -0.033 A 
HETATM   18  C15 UNL     1      -0.626 -11.278   6.459  1.00  0.00     0.059 A 
HETATM   19  S1  UNL     1      -0.322  -9.617   6.708  1.00  0.00    -0.101 SA
BRANCH  17  20
HETATM   20  C12 UNL     1       0.092 -13.391   7.568  1.00  0.00     0.155 C 
BRANCH  20  21
HETATM   21  N1  UNL     1       0.070 -13.984   6.267  1.00  0.00    -0.417 N 
HETATM   22  C13 UNL     1       1.353 -14.248   5.694  1.00  0.00     0.142 C 
HETATM   23  C14 UNL     1      -0.874 -15.034   6.072  1.00  0.00     0.142 C 
ENDBRANCH  20  21
ENDBRANCH  17  20
ENDBRANCH   9  15
ENDBRANCH   3   7
BRANCH   1  24
HETATM   24  O1  UNL     1       2.912 -10.013  15.223  1.00  0.00    -0.341 OA
BRANCH  24  25
HETATM   25  C2  UNL     1       1.853 -10.913  15.152  1.00  0.00     0.158 C 
HETATM   26  C1  UNL     1       1.930 -11.748  16.470  1.00  0.00     0.045 C 
BRANCH  25  27
HETATM   27  C22 UNL     1       2.033 -11.938  14.072  1.00  0.00    -0.014 A 
HETATM   28  C23 UNL     1       3.186 -12.695  14.009  1.00  0.00     0.010 A 
HETATM   29  C24 UNL     1       3.376 -13.623  12.985  1.00  0.00     0.001 A 
HETATM   30  C25 UNL     1       2.426 -13.812  12.012  1.00  0.00     0.001 A 
HETATM   31  C26 UNL     1       1.281 -13.066  12.069  1.00  0.00     0.017 A 
HETATM   32  C27 UNL     1       1.084 -12.125  13.104  1.00  0.00     0.056 A 
BRANCH  32  33
HETATM   33  C28 UNL     1      -0.194 -11.361  13.130  1.00  0.00     0.418 C 
HETATM   34  F1  UNL     1      -1.118 -12.033  12.296  1.00  0.00    -0.166 F 
HETATM   35  F2  UNL     1      -0.730 -11.434  14.405  1.00  0.00    -0.166 F 
HETATM   36  F3  UNL     1      -0.038 -10.079  12.692  1.00  0.00    -0.166 F 
ENDBRANCH  32  33
ENDBRANCH  25  27
ENDBRANCH  24  25
ENDBRANCH   1  24
BRANCH   6  37
HETATM   37  C21 UNL     1       5.297  -8.818  15.778  1.00  0.00     0.267 C 
HETATM   38  N4  UNL     1       6.488  -9.595  15.790  1.00  0.00    -0.057 NA
HETATM   39  O2  UNL     1       4.878  -8.357  16.856  1.00  0.00    -0.271 OA
ENDBRANCH   6  37
TORSDOF 9
ENDMDL
