MODEL 4
REMARK VINA RESULT: -9.561225023      1.151      1.364
REMARK  9 active torsions:
REMARK  status: ('A' for Active; 'I' for Inactive)
REMARK    1  A    between atoms: C2_2  and  O1_3 
REMARK    2  A    between atoms: C2_2  and  C22_30 
REMARK    3  A    between atoms: O1_3  and  C3_4 
REMARK    4  A    between atoms: C5_6  and  C6_7 
REMARK    5  A    between atoms: C8_9  and  C9_10 
REMARK    6  A    between atoms: C11_12  and  C12_13 
REMARK    7  A    between atoms: C12_13  and  N1_14 
REMARK    8  A    between atoms: C20_26  and  C21_27 
REMARK    9  A    between atoms: C27_35  and  C28_36 
ROOT
HETATM    1  C3  UNL     1       3.397  -9.746  14.414  1.00  0.00     0.085 A 
HETATM    2  C4  UNL     1       2.776  -9.455  13.189  1.00  0.00     0.050 A 
HETATM    3  C5  UNL     1       3.267  -8.497  12.345  1.00  0.00    -0.020 A 
HETATM    4  C18 UNL     1       4.416  -7.818  12.755  1.00  0.00     0.013 A 
HETATM    5  C19 UNL     1       5.032  -8.093  13.951  1.00  0.00     0.020 A 
HETATM    6  C20 UNL     1       4.550  -9.051  14.805  1.00  0.00     0.062 A 
ENDROOT
BRANCH   3   7
HETATM    7  C6  UNL     1       2.642  -8.164  11.061  1.00  0.00     0.016 A 
HETATM    8  C7  UNL     1       2.007  -9.067  10.250  1.00  0.00     0.030 A 
HETATM    9  C8  UNL     1       1.413  -8.679   9.083  1.00  0.00    -0.003 A 
HETATM   10  C16 UNL     1       1.443  -7.365   8.695  1.00  0.00     0.102 A 
HETATM   11  N2  UNL     1       2.063  -6.471   9.483  1.00  0.00    -0.353 N 
HETATM   12  C17 UNL     1       2.646  -6.844  10.629  1.00  0.00     0.127 A 
ATOM     13  H2  UNL     1       2.091  -5.490   9.203  1.00  0.00     0.166 HD
HETATM   14  N3  UNL     1       3.286  -5.878  11.425  1.00  0.00    -0.082 NA
BRANCH   9  15
HETATM   15  C9  UNL     1       0.716  -9.691   8.246  1.00  0.00     0.017 A 
HETATM   16  C10 UNL     1      -0.211  -9.460   7.268  1.00  0.00     0.029 A 
HETATM   17  C11 UNL     1      -0.732 -10.529   6.647  1.00  0.00    -0.033 A 
HETATM   18  C15 UNL     1      -0.292 -11.762   7.043  1.00  0.00     0.059 A 
HETATM   19  S1  UNL     1       0.834 -11.389   8.269  1.00  0.00    -0.101 SA
BRANCH  17  20
HETATM   20  C12 UNL     1      -1.783 -10.434   5.551  1.00  0.00     0.155 C 
BRANCH  20  21
HETATM   21  N1  UNL     1      -3.018  -9.955   6.087  1.00  0.00    -0.417 N 
HETATM   22  C13 UNL     1      -3.512  -8.748   5.501  1.00  0.00     0.142 C 
HETATM   23  C14 UNL     1      -4.026 -10.936   6.317  1.00  0.00     0.142 C 
ENDBRANCH  20  21
ENDBRANCH  17  20
ENDBRANCH   9  15
ENDBRANCH   3   7
BRANCH   1  24
HETATM   24  O1  UNL     1       2.943 -10.687  15.280  1.00  0.00    -0.341 OA
BRANCH  24  25
HETATM   25  C2  UNL     1       1.625 -10.975  15.616  1.00  0.00     0.158 C 
HETATM   26  C1  UNL     1       1.488 -10.594  17.124  1.00  0.00     0.045 C 
BRANCH  25  27
HETATM   27  C22 UNL     1       1.328 -12.445  15.594  1.00  0.00    -0.014 A 
HETATM   28  C23 UNL     1       1.728 -13.257  16.637  1.00  0.00     0.010 A 
HETATM   29  C24 UNL     1       1.488 -14.630  16.605  1.00  0.00     0.001 A 
HETATM   30  C25 UNL     1       0.849 -15.216  15.540  1.00  0.00     0.001 A 
HETATM   31  C26 UNL     1       0.451 -14.418  14.504  1.00  0.00     0.017 A 
HETATM   32  C27 UNL     1       0.691 -13.026  14.531  1.00  0.00     0.056 A 
BRANCH  32  33
HETATM   33  C28 UNL     1       0.209 -12.203  13.387  1.00  0.00     0.418 C 
HETATM   34  F1  UNL     1      -0.815 -12.927  12.733  1.00  0.00    -0.166 F 
HETATM   35  F2  UNL     1      -0.406 -11.066  13.884  1.00  0.00    -0.166 F 
HETATM   36  F3  UNL     1       1.203 -11.923  12.498  1.00  0.00    -0.166 F 
ENDBRANCH  32  33
ENDBRANCH  25  27
ENDBRANCH  24  25
ENDBRANCH   1  24
BRANCH   6  37
HETATM   37  C21 UNL     1       5.189  -9.366  16.080  1.00  0.00     0.267 C 
HETATM   38  N4  UNL     1       6.514  -9.879  16.060  1.00  0.00    -0.057 NA
HETATM   39  O2  UNL     1       4.631  -9.203  17.182  1.00  0.00    -0.271 OA
ENDBRANCH   6  37
TORSDOF 9
ENDMDL
