MODEL 10
REMARK VINA RESULT: -8.698622894      1.593      2.245
REMARK  6 active torsions:
REMARK  status: ('A' for Active; 'I' for Inactive)
REMARK    1  A    between atoms: N1_1  and  C1_5 
REMARK    2  A    between atoms: C1_5  and  C2_6 
REMARK    3  A    between atoms: C6_10  and  C7_11 
REMARK       I    between atoms: N2_14  and  C10_15 
REMARK    4  A    between atoms: C10_15  and  C11_17 
REMARK    5  A    between atoms: C14_20  and  C15_21 
REMARK    6  A    between atoms: C16_22  and  C17_23 
ROOT
HETATM    1  C7  UNL     1      -9.640  51.921  -6.675  1.00  0.00     0.021 C 
HETATM    2  C8  UNL     1      -9.283  53.123  -5.892  1.00  0.00     0.029 C 
HETATM    3  C9  UNL     1      -8.779  52.940  -4.510  1.00  0.00     0.127 C 
HETATM    4  N2  UNL     1      -9.285  51.783  -3.826  1.00  0.00    -0.346 N 
HETATM    5  C10 UNL     1      -8.908  51.563  -2.487  1.00  0.00     0.277 C 
HETATM    6  O1  UNL     1      -9.357  50.541  -1.886  1.00  0.00    -0.265 OA
HETATM    7  C23 UNL     1     -10.170  50.824  -4.461  1.00  0.00     0.127 C 
HETATM    8  C24 UNL     1      -9.826  50.649  -5.923  1.00  0.00     0.029 C 
ENDROOT
BRANCH   5   9
HETATM    9  C11 UNL     1      -8.015  52.504  -1.824  1.00  0.00     0.144 A 
HETATM   10  C12 UNL     1      -7.591  52.311  -0.504  1.00  0.00     0.046 A 
HETATM   11  C13 UNL     1      -6.775  53.382  -0.225  1.00  0.00     0.050 A 
HETATM   12  C14 UNL     1      -6.726  54.177  -1.358  1.00  0.00     0.130 A 
HETATM   13  O2  UNL     1      -7.473  53.610  -2.262  1.00  0.00    -0.296 OA
BRANCH  12  14
HETATM   14  C15 UNL     1      -5.975  55.405  -1.485  1.00  0.00    -0.036 C 
HETATM   15  C16 UNL     1      -5.348  56.427  -1.611  1.00  0.00    -0.056 C 
BRANCH  15  16
HETATM   16  C17 UNL     1      -4.611  57.648  -1.784  1.00  0.00     0.056 A 
HETATM   17  C18 UNL     1      -3.689  58.068  -0.839  1.00  0.00     0.024 A 
HETATM   18  C19 UNL     1      -2.979  59.240  -1.003  1.00  0.00     0.002 A 
HETATM   19  C20 UNL     1      -3.158  60.039  -2.107  1.00  0.00     0.003 A 
HETATM   20  C21 UNL     1      -4.078  59.629  -3.061  1.00  0.00     0.044 A 
HETATM   21  C22 UNL     1      -4.782  58.455  -2.887  1.00  0.00     0.135 A 
HETATM   22  F1  UNL     1      -5.668  58.111  -3.856  1.00  0.00    -0.205 F 
ENDBRANCH  15  16
ENDBRANCH  12  14
ENDBRANCH   5   9
BRANCH   1  23
HETATM   23  C6  UNL     1     -10.812  52.165  -7.590  1.00  0.00    -0.053 A 
HETATM   24  C5  UNL     1     -12.088  52.318  -7.102  1.00  0.00     0.007 A 
HETATM   25  C4  UNL     1     -13.151  52.540  -7.953  1.00  0.00     0.001 A 
HETATM   26  C3  UNL     1     -12.939  52.612  -9.332  1.00  0.00     0.009 A 
HETATM   27  C2  UNL     1     -11.661  52.459  -9.837  1.00  0.00    -0.033 A 
HETATM   28  C25 UNL     1     -10.643  52.241  -8.951  1.00  0.00     0.016 A 
BRANCH  27  29
HETATM   29  C1  UNL     1     -11.474  52.542 -11.313  1.00  0.00     0.268 C 
BRANCH  29  30
HETATM   30  N1  UNL     1     -12.086  51.358 -11.907  1.00  0.00    -0.075 N 
ATOM     31  H13 UNL     1     -11.941  50.515 -11.350  1.00  0.00     0.274 HD
ATOM     32  H12 UNL     1     -13.105  51.375 -11.863  1.00  0.00     0.274 HD
ATOM     33  H11 UNL     1     -11.732  51.269 -12.859  1.00  0.00     0.274 HD
ENDBRANCH  29  30
ENDBRANCH  27  29
ENDBRANCH   1  23
TORSDOF 6
ENDMDL
