MODEL 2
REMARK VINA RESULT: -9.504902061      0.949      1.281
REMARK  6 active torsions:
REMARK  status: ('A' for Active; 'I' for Inactive)
REMARK    1  A    between atoms: N1_1  and  C1_5 
REMARK    2  A    between atoms: C1_5  and  C2_6 
REMARK    3  A    between atoms: C6_10  and  C7_11 
REMARK       I    between atoms: N2_14  and  C10_15 
REMARK    4  A    between atoms: C10_15  and  C11_17 
REMARK    5  A    between atoms: C14_20  and  C15_21 
REMARK    6  A    between atoms: C16_22  and  C17_23 
ROOT
HETATM    1  C7  UNL     1      -9.474  52.301  -7.187  1.00  0.00     0.021 C 
HETATM    2  C8  UNL     1      -9.001  53.649  -6.806  1.00  0.00     0.029 C 
HETATM    3  C9  UNL     1      -8.100  53.775  -5.635  1.00  0.00     0.127 C 
HETATM    4  N2  UNL     1      -8.287  52.783  -4.614  1.00  0.00    -0.346 N 
HETATM    5  C10 UNL     1      -7.517  52.861  -3.438  1.00  0.00     0.277 C 
HETATM    6  O1  UNL     1      -7.686  51.985  -2.537  1.00  0.00    -0.265 OA
HETATM    7  C23 UNL     1      -9.240  51.696  -4.744  1.00  0.00     0.127 C 
HETATM    8  C24 UNL     1      -9.327  51.217  -6.176  1.00  0.00     0.029 C 
ENDROOT
BRANCH   5   9
HETATM    9  C11 UNL     1      -6.547  53.937  -3.278  1.00  0.00     0.144 A 
HETATM   10  C12 UNL     1      -5.371  53.765  -2.539  1.00  0.00     0.046 A 
HETATM   11  C13 UNL     1      -4.719  54.973  -2.611  1.00  0.00     0.050 A 
HETATM   12  C14 UNL     1      -5.499  55.826  -3.374  1.00  0.00     0.130 A 
HETATM   13  O2  UNL     1      -6.558  55.162  -3.738  1.00  0.00    -0.296 OA
BRANCH  12  14
HETATM   14  C15 UNL     1      -5.171  57.197  -3.693  1.00  0.00    -0.036 C 
HETATM   15  C16 UNL     1      -4.912  58.341  -3.974  1.00  0.00    -0.056 C 
BRANCH  15  16
HETATM   16  C17 UNL     1      -4.626  59.706  -4.317  1.00  0.00     0.056 A 
HETATM   17  C18 UNL     1      -4.709  60.148  -5.627  1.00  0.00     0.024 A 
HETATM   18  C19 UNL     1      -4.436  61.459  -5.960  1.00  0.00     0.002 A 
HETATM   19  C20 UNL     1      -4.069  62.379  -5.006  1.00  0.00     0.003 A 
HETATM   20  C21 UNL     1      -3.982  61.950  -3.690  1.00  0.00     0.044 A 
HETATM   21  C22 UNL     1      -4.258  60.637  -3.369  1.00  0.00     0.135 A 
HETATM   22  F1  UNL     1      -4.155  60.279  -2.064  1.00  0.00    -0.205 F 
ENDBRANCH  15  16
ENDBRANCH  12  14
ENDBRANCH   5   9
BRANCH   1  23
HETATM   23  C6  UNL     1     -10.879  52.324  -7.731  1.00  0.00    -0.053 A 
HETATM   24  C5  UNL     1     -11.965  52.529  -6.915  1.00  0.00     0.007 A 
HETATM   25  C4  UNL     1     -13.245  52.546  -7.428  1.00  0.00     0.001 A 
HETATM   26  C3  UNL     1     -13.452  52.354  -8.796  1.00  0.00     0.009 A 
HETATM   27  C2  UNL     1     -12.368  52.146  -9.630  1.00  0.00    -0.033 A 
HETATM   28  C25 UNL     1     -11.121  52.138  -9.071  1.00  0.00     0.016 A 
BRANCH  27  29
HETATM   29  C1  UNL     1     -12.629  51.945 -11.083  1.00  0.00     0.268 C 
BRANCH  29  30
HETATM   30  N1  UNL     1     -11.341  51.770 -11.746  1.00  0.00    -0.075 N 
ATOM     31  H13 UNL     1     -10.843  52.650 -11.885  1.00  0.00     0.274 HD
ATOM     32  H12 UNL     1     -10.649  51.314 -11.152  1.00  0.00     0.274 HD
ATOM     33  H11 UNL     1     -11.506  51.268 -12.618  1.00  0.00     0.274 HD
ENDBRANCH  29  30
ENDBRANCH  27  29
ENDBRANCH   1  23
TORSDOF 6
ENDMDL
