MODEL 1
REMARK VINA RESULT: -9.629788149      0.000      0.000
REMARK  6 active torsions:
REMARK  status: ('A' for Active; 'I' for Inactive)
REMARK    1  A    between atoms: N1_1  and  C1_5 
REMARK    2  A    between atoms: C1_5  and  C2_6 
REMARK    3  A    between atoms: C6_10  and  C7_11 
REMARK       I    between atoms: N2_14  and  C10_15 
REMARK    4  A    between atoms: C10_15  and  C11_17 
REMARK    5  A    between atoms: C14_20  and  C15_21 
REMARK    6  A    between atoms: C16_22  and  C17_23 
ROOT
HETATM    1  C7  UNL     1      -9.395  52.196  -7.097  1.00  0.00     0.021 C 
HETATM    2  C8  UNL     1      -8.888  53.555  -6.809  1.00  0.00     0.029 C 
HETATM    3  C9  UNL     1      -8.153  53.779  -5.541  1.00  0.00     0.127 C 
HETATM    4  N2  UNL     1      -8.548  52.933  -4.451  1.00  0.00    -0.346 N 
HETATM    5  C10 UNL     1      -7.945  53.117  -3.191  1.00  0.00     0.277 C 
HETATM    6  O1  UNL     1      -8.299  52.369  -2.230  1.00  0.00    -0.265 OA
HETATM    7  C23 UNL     1      -9.546  51.889  -4.593  1.00  0.00     0.127 C 
HETATM    8  C24 UNL     1      -9.466  51.241  -5.957  1.00  0.00     0.029 C 
ENDROOT
BRANCH   5   9
HETATM    9  C11 UNL     1      -6.936  54.153  -3.017  1.00  0.00     0.144 A 
HETATM   10  C12 UNL     1      -5.795  53.945  -2.233  1.00  0.00     0.046 A 
HETATM   11  C13 UNL     1      -5.089  55.122  -2.303  1.00  0.00     0.050 A 
HETATM   12  C14 UNL     1      -5.802  55.992  -3.111  1.00  0.00     0.130 A 
HETATM   13  O2  UNL     1      -6.876  55.367  -3.500  1.00  0.00    -0.296 OA
BRANCH  12  14
HETATM   14  C15 UNL     1      -5.403  57.341  -3.443  1.00  0.00    -0.036 C 
HETATM   15  C16 UNL     1      -5.081  58.464  -3.738  1.00  0.00    -0.056 C 
BRANCH  15  16
HETATM   16  C17 UNL     1      -4.716  59.805  -4.104  1.00  0.00     0.056 A 
HETATM   17  C18 UNL     1      -4.362  60.738  -3.145  1.00  0.00     0.024 A 
HETATM   18  C19 UNL     1      -4.011  62.027  -3.493  1.00  0.00     0.002 A 
HETATM   19  C20 UNL     1      -4.000  62.437  -4.805  1.00  0.00     0.003 A 
HETATM   20  C21 UNL     1      -4.353  61.511  -5.777  1.00  0.00     0.044 A 
HETATM   21  C22 UNL     1      -4.702  60.226  -5.417  1.00  0.00     0.135 A 
HETATM   22  F1  UNL     1      -5.037  59.369  -6.413  1.00  0.00    -0.205 F 
ENDBRANCH  15  16
ENDBRANCH  12  14
ENDBRANCH   5   9
BRANCH   1  23
HETATM   23  C6  UNL     1     -10.706  52.224  -7.840  1.00  0.00    -0.053 A 
HETATM   24  C5  UNL     1     -11.909  52.134  -7.183  1.00  0.00     0.007 A 
HETATM   25  C4  UNL     1     -13.100  52.160  -7.877  1.00  0.00     0.001 A 
HETATM   26  C3  UNL     1     -13.095  52.279  -9.270  1.00  0.00     0.009 A 
HETATM   27  C2  UNL     1     -11.892  52.370  -9.944  1.00  0.00    -0.033 A 
HETATM   28  C25 UNL     1     -10.740  52.339  -9.209  1.00  0.00     0.016 A 
BRANCH  27  29
HETATM   29  C1  UNL     1     -11.926  52.495 -11.429  1.00  0.00     0.268 C 
BRANCH  29  30
HETATM   30  N1  UNL     1     -12.002  51.150 -11.988  1.00  0.00    -0.075 N 
ATOM     31  H13 UNL     1     -11.142  50.867 -12.458  1.00  0.00     0.274 HD
ATOM     32  H12 UNL     1     -12.010  50.424 -11.272  1.00  0.00     0.274 HD
ATOM     33  H11 UNL     1     -12.817  51.112 -12.599  1.00  0.00     0.274 HD
ENDBRANCH  29  30
ENDBRANCH  27  29
ENDBRANCH   1  23
TORSDOF 6
ENDMDL
