MODEL 3
REMARK VINA RESULT: -9.170939354      3.231      9.858
REMARK  6 active torsions:
REMARK  status: ('A' for Active; 'I' for Inactive)
REMARK    1  A    between atoms: N1_1  and  C1_5 
REMARK    2  A    between atoms: C1_5  and  C2_6 
REMARK    3  A    between atoms: C6_10  and  C7_11 
REMARK       I    between atoms: N2_14  and  C10_15 
REMARK    4  A    between atoms: C10_15  and  C11_17 
REMARK    5  A    between atoms: C14_20  and  C15_21 
REMARK    6  A    between atoms: C16_22  and  C17_23 
ROOT
HETATM    1  C7  UNL     1      -5.245  57.342  -2.327  1.00  0.00     0.021 C 
HETATM    2  C8  UNL     1      -6.283  56.951  -3.304  1.00  0.00     0.029 C 
HETATM    3  C9  UNL     1      -6.457  55.511  -3.609  1.00  0.00     0.127 C 
HETATM    4  N2  UNL     1      -5.267  54.716  -3.496  1.00  0.00    -0.346 N 
HETATM    5  C10 UNL     1      -5.325  53.349  -3.826  1.00  0.00     0.277 C 
HETATM    6  O1  UNL     1      -4.271  52.651  -3.727  1.00  0.00    -0.265 OA
HETATM    7  C23 UNL     1      -3.999  55.266  -3.051  1.00  0.00     0.127 C 
HETATM    8  C24 UNL     1      -4.207  56.328  -1.994  1.00  0.00     0.029 C 
ENDROOT
BRANCH   5   9
HETATM    9  C11 UNL     1      -6.584  52.765  -4.271  1.00  0.00     0.144 A 
HETATM   10  C12 UNL     1      -7.259  51.803  -3.510  1.00  0.00     0.046 A 
HETATM   11  C13 UNL     1      -8.385  51.494  -4.235  1.00  0.00     0.050 A 
HETATM   12  C14 UNL     1      -8.365  52.260  -5.389  1.00  0.00     0.130 A 
HETATM   13  O2  UNL     1      -7.284  52.986  -5.353  1.00  0.00    -0.296 OA
BRANCH  12  14
HETATM   14  C15 UNL     1      -9.372  52.237  -6.425  1.00  0.00    -0.036 C 
HETATM   15  C16 UNL     1     -10.205  52.236  -7.296  1.00  0.00    -0.056 C 
BRANCH  15  16
HETATM   16  C17 UNL     1     -11.183  52.249  -8.348  1.00  0.00     0.056 A 
HETATM   17  C18 UNL     1     -10.807  52.386  -9.674  1.00  0.00     0.024 A 
HETATM   18  C19 UNL     1     -11.744  52.399 -10.688  1.00  0.00     0.002 A 
HETATM   19  C20 UNL     1     -13.088  52.278 -10.423  1.00  0.00     0.003 A 
HETATM   20  C21 UNL     1     -13.478  52.140  -9.099  1.00  0.00     0.044 A 
HETATM   21  C22 UNL     1     -12.533  52.129  -8.094  1.00  0.00     0.135 A 
HETATM   22  F1  UNL     1     -12.979  51.991  -6.820  1.00  0.00    -0.205 F 
ENDBRANCH  15  16
ENDBRANCH  12  14
ENDBRANCH   5   9
BRANCH   1  23
HETATM   23  C6  UNL     1      -4.599  58.657  -2.678  1.00  0.00    -0.053 A 
HETATM   24  C5  UNL     1      -3.659  59.240  -1.862  1.00  0.00     0.007 A 
HETATM   25  C4  UNL     1      -3.077  60.444  -2.197  1.00  0.00     0.001 A 
HETATM   26  C3  UNL     1      -3.441  61.091  -3.381  1.00  0.00     0.009 A 
HETATM   27  C2  UNL     1      -4.386  60.517  -4.212  1.00  0.00    -0.033 A 
HETATM   28  C25 UNL     1      -4.931  59.322  -3.833  1.00  0.00     0.016 A 
BRANCH  27  29
HETATM   29  C1  UNL     1      -4.748  61.236  -5.466  1.00  0.00     0.268 C 
BRANCH  29  30
HETATM   30  N1  UNL     1      -4.207  62.588  -5.376  1.00  0.00    -0.075 N 
ATOM     31  H13 UNL     1      -4.580  63.112  -4.584  1.00  0.00     0.274 HD
ATOM     32  H12 UNL     1      -3.226  62.604  -5.100  1.00  0.00     0.274 HD
ATOM     33  H11 UNL     1      -4.374  63.050  -6.270  1.00  0.00     0.274 HD
ENDBRANCH  29  30
ENDBRANCH  27  29
ENDBRANCH   1  23
TORSDOF 6
ENDMDL
