MODEL 1
REMARK VINA RESULT: -6.385929591      0.000      0.000
REMARK  7 active torsions:
REMARK  status: ('A' for Active; 'I' for Inactive)
REMARK    1  A    between atoms: O1_1  and  C1_3 
REMARK    2  A    between atoms: C1_3  and  C2_4 
REMARK    3  A    between atoms: C3_6  and  S1_7 
REMARK    4  A    between atoms: S1_7  and  C4_8 
REMARK    5  A    between atoms: C14_18  and  O3_19 
REMARK    6  A    between atoms: C15_21  and  O4_22 
REMARK    7  A    between atoms: C16_24  and  O5_25 
ROOT
HETATM    1  C2  UNL     1      12.829  13.805  66.672  1.00  0.00     0.178 C 
HETATM    2  O2  UNL     1      13.694  14.625  67.318  1.00  0.00    -0.362 OA
HETATM    3  C3  UNL     1      14.930  14.822  66.809  1.00  0.00     0.219 C 
HETATM    4  C14 UNL     1      15.111  14.448  65.366  1.00  0.00     0.188 C 
HETATM    5  C15 UNL     1      13.859  14.685  64.551  1.00  0.00     0.181 C 
HETATM    6  C16 UNL     1      12.667  14.051  65.200  1.00  0.00     0.180 C 
ENDROOT
BRANCH   3   7
HETATM    7  S1  UNL     1      16.206  14.045  67.851  1.00  0.00    -0.095 SA
BRANCH   7   8
HETATM    8  C4  UNL     1      16.805  12.536  67.157  1.00  0.00     0.004 A 
HETATM    9  C5  UNL     1      16.461  11.338  67.717  1.00  0.00     0.019 A 
HETATM   10  C6  UNL     1      16.924  10.129  67.186  1.00  0.00     0.013 A 
HETATM   11  C7  UNL     1      17.739  10.187  66.079  1.00  0.00    -0.026 A 
HETATM   12  C8  UNL     1      18.212   9.008  65.529  1.00  0.00     0.012 A 
HETATM   13  C12 UNL     1      18.103  11.384  65.489  1.00  0.00    -0.025 A 
HETATM   14  C9  UNL     1      19.024   9.057  64.426  1.00  0.00     0.001 A 
HETATM   15  C10 UNL     1      19.388  10.246  63.841  1.00  0.00     0.001 A 
HETATM   16  C11 UNL     1      18.913  11.433  64.390  1.00  0.00     0.012 A 
HETATM   17  C13 UNL     1      17.616  12.551  66.056  1.00  0.00     0.030 A 
ENDBRANCH   7   8
ENDBRANCH   3   7
BRANCH   4  18
HETATM   18  O3  UNL     1      16.132  15.179  64.759  1.00  0.00    -0.389 OA
ATOM     19  H3  UNL     1      16.710  14.628  64.246  1.00  0.00     0.210 HD
ENDBRANCH   4  18
BRANCH   1  20
HETATM   20  C1  UNL     1      13.070  12.320  66.979  1.00  0.00     0.198 C 
BRANCH  20  21
HETATM   21  O1  UNL     1      11.837  11.658  66.893  1.00  0.00    -0.398 OA
ATOM     22  H1  UNL     1      11.761  11.085  67.648  1.00  0.00     0.209 HD
ENDBRANCH  20  21
ENDBRANCH   1  20
BRANCH   5  23
HETATM   23  O4  UNL     1      14.067  14.177  63.278  1.00  0.00    -0.390 OA
ATOM     24  H4  UNL     1      14.728  14.709  62.849  1.00  0.00     0.210 HD
ENDBRANCH   5  23
BRANCH   6  25
HETATM   25  O5  UNL     1      12.369  12.856  64.530  1.00  0.00    -0.390 OA
ATOM     26  H5  UNL     1      12.294  13.007  63.595  1.00  0.00     0.210 HD
ENDBRANCH   6  25
TORSDOF 7
ENDMDL
