MODEL 4
REMARK VINA RESULT: -6.175667235      1.220      1.924
REMARK  7 active torsions:
REMARK  status: ('A' for Active; 'I' for Inactive)
REMARK    1  A    between atoms: O1_1  and  C1_3 
REMARK    2  A    between atoms: C1_3  and  C2_4 
REMARK    3  A    between atoms: C3_6  and  S1_7 
REMARK    4  A    between atoms: S1_7  and  C4_8 
REMARK    5  A    between atoms: C14_18  and  O3_19 
REMARK    6  A    between atoms: C15_21  and  O4_22 
REMARK    7  A    between atoms: C16_24  and  O5_25 
ROOT
HETATM    1  C2  UNL     1      13.486  15.054  67.051  1.00  0.00     0.178 C 
HETATM    2  O2  UNL     1      14.394  15.575  66.190  1.00  0.00    -0.362 OA
HETATM    3  C3  UNL     1      14.960  14.777  65.257  1.00  0.00     0.219 C 
HETATM    4  C14 UNL     1      14.245  13.486  64.979  1.00  0.00     0.188 C 
HETATM    5  C15 UNL     1      12.745  13.619  65.120  1.00  0.00     0.181 C 
HETATM    6  C16 UNL     1      12.382  14.247  66.431  1.00  0.00     0.180 C 
ENDROOT
BRANCH   3   7
HETATM    7  S1  UNL     1      16.722  14.486  65.616  1.00  0.00    -0.095 SA
BRANCH   7   8
HETATM    8  C4  UNL     1      17.104  12.765  65.724  1.00  0.00     0.004 A 
HETATM    9  C5  UNL     1      16.622  12.018  66.762  1.00  0.00     0.019 A 
HETATM   10  C6  UNL     1      16.913  10.653  66.869  1.00  0.00     0.013 A 
HETATM   11  C7  UNL     1      17.701  10.088  65.893  1.00  0.00    -0.026 A 
HETATM   12  C8  UNL     1      18.005   8.740  65.971  1.00  0.00     0.012 A 
HETATM   13  C12 UNL     1      18.202  10.819  64.831  1.00  0.00    -0.025 A 
HETATM   14  C9  UNL     1      18.789   8.169  65.003  1.00  0.00     0.001 A 
HETATM   15  C10 UNL     1      19.289   8.894  63.948  1.00  0.00     0.001 A 
HETATM   16  C11 UNL     1      18.984  10.249  63.866  1.00  0.00     0.012 A 
HETATM   17  C13 UNL     1      17.883  12.166  64.773  1.00  0.00     0.030 A 
ENDBRANCH   7   8
ENDBRANCH   3   7
BRANCH   4  18
HETATM   18  O3  UNL     1      14.489  13.020  63.688  1.00  0.00    -0.389 OA
ATOM     19  H3  UNL     1      14.001  13.507  63.034  1.00  0.00     0.210 HD
ENDBRANCH   4  18
BRANCH   1  20
HETATM   20  C1  UNL     1      14.134  14.320  68.233  1.00  0.00     0.198 C 
BRANCH  20  21
HETATM   21  O1  UNL     1      13.434  14.673  69.395  1.00  0.00    -0.398 OA
ATOM     22  H1  UNL     1      12.992  13.896  69.717  1.00  0.00     0.209 HD
ENDBRANCH  20  21
ENDBRANCH   1  20
BRANCH   5  23
HETATM   23  O4  UNL     1      12.184  12.358  64.994  1.00  0.00    -0.390 OA
ATOM     24  H4  UNL     1      11.964  12.220  64.081  1.00  0.00     0.210 HD
ENDBRANCH   5  23
BRANCH   6  25
HETATM   25  O5  UNL     1      11.951  13.243  67.310  1.00  0.00    -0.390 OA
ATOM     26  H5  UNL     1      11.544  12.531  66.831  1.00  0.00     0.210 HD
ENDBRANCH   6  25
TORSDOF 7
ENDMDL
