MODEL 3
REMARK VINA RESULT: -6.219732498      1.475      2.496
REMARK  7 active torsions:
REMARK  status: ('A' for Active; 'I' for Inactive)
REMARK    1  A    between atoms: O1_1  and  C1_3 
REMARK    2  A    between atoms: C1_3  and  C2_4 
REMARK    3  A    between atoms: C3_6  and  S1_7 
REMARK    4  A    between atoms: S1_7  and  C4_8 
REMARK    5  A    between atoms: C14_18  and  O3_19 
REMARK    6  A    between atoms: C15_21  and  O4_22 
REMARK    7  A    between atoms: C16_24  and  O5_25 
ROOT
HETATM    1  C2  UNL     1      13.545  13.982  67.864  1.00  0.00     0.178 C 
HETATM    2  O2  UNL     1      14.848  14.133  67.524  1.00  0.00    -0.362 OA
HETATM    3  C3  UNL     1      15.388  13.327  66.583  1.00  0.00     0.219 C 
HETATM    4  C14 UNL     1      14.411  12.607  65.699  1.00  0.00     0.188 C 
HETATM    5  C15 UNL     1      13.163  13.422  65.440  1.00  0.00     0.181 C 
HETATM    6  C16 UNL     1      12.572  13.922  66.722  1.00  0.00     0.180 C 
ENDROOT
BRANCH   3   7
HETATM    7  S1  UNL     1      16.587  12.167  67.314  1.00  0.00    -0.095 SA
BRANCH   7   8
HETATM    8  C4  UNL     1      17.567  11.360  66.087  1.00  0.00     0.004 A 
HETATM    9  C5  UNL     1      18.387  12.090  65.273  1.00  0.00     0.019 A 
HETATM   10  C6  UNL     1      19.171  11.473  64.292  1.00  0.00     0.013 A 
HETATM   11  C7  UNL     1      19.090  10.105  64.174  1.00  0.00    -0.026 A 
HETATM   12  C8  UNL     1      19.854   9.466  63.213  1.00  0.00     0.012 A 
HETATM   13  C12 UNL     1      18.269   9.340  64.983  1.00  0.00    -0.025 A 
HETATM   14  C9  UNL     1      19.779   8.103  63.089  1.00  0.00     0.001 A 
HETATM   15  C10 UNL     1      18.964   7.342  63.892  1.00  0.00     0.001 A 
HETATM   16  C11 UNL     1      18.194   7.981  64.859  1.00  0.00     0.012 A 
HETATM   17  C13 UNL     1      17.514  10.001  65.938  1.00  0.00     0.030 A 
ENDBRANCH   7   8
ENDBRANCH   3   7
BRANCH   4  18
HETATM   18  O3  UNL     1      14.958  12.300  64.454  1.00  0.00    -0.389 OA
ATOM     19  H3  UNL     1      15.879  12.078  64.514  1.00  0.00     0.210 HD
ENDBRANCH   4  18
BRANCH   1  20
HETATM   20  C1  UNL     1      13.316  12.843  68.868  1.00  0.00     0.198 C 
BRANCH  20  21
HETATM   21  O1  UNL     1      12.349  13.271  69.790  1.00  0.00    -0.398 OA
ATOM     22  H1  UNL     1      12.686  14.044  70.227  1.00  0.00     0.209 HD
ENDBRANCH  20  21
ENDBRANCH   1  20
BRANCH   5  23
HETATM   23  O4  UNL     1      12.262  12.629  64.746  1.00  0.00    -0.390 OA
ATOM     24  H4  UNL     1      11.538  13.177  64.466  1.00  0.00     0.210 HD
ENDBRANCH   5  23
BRANCH   6  25
HETATM   25  O5  UNL     1      11.469  13.122  67.054  1.00  0.00    -0.390 OA
ATOM     26  H5  UNL     1      11.742  12.226  67.213  1.00  0.00     0.210 HD
ENDBRANCH   6  25
TORSDOF 7
ENDMDL
