MODEL 3
REMARK VINA RESULT: -8.248377530      1.014      1.232
REMARK  7 active torsions:
REMARK  status: ('A' for Active; 'I' for Inactive)
REMARK    1  A    between atoms: C2_2  and  N1_4 
REMARK    2  A    between atoms: C6_7  and  N2_8 
REMARK    3  A    between atoms: N2_8  and  S1_10 
REMARK    4  A    between atoms: S1_10  and  C7_13 
REMARK    5  A    between atoms: C7_13  and  C8_14 
REMARK    6  A    between atoms: C8_14  and  N3_15 
REMARK       I    between atoms: N3_15  and  C9_17 
REMARK    7  A    between atoms: C9_17  and  C10_19 
ROOT
HETATM    1  S1  UNL     1      51.226   5.731  55.255  1.00  0.00     0.228 S 
HETATM    2  O1  UNL     1      51.952   5.242  54.034  1.00  0.00    -0.206 OA
HETATM    3  O2  UNL     1      52.215   6.139  56.291  1.00  0.00    -0.206 OA
ENDROOT
BRANCH   1   4
HETATM    4  N2  UNL     1      50.204   4.536  55.915  1.00  0.00    -0.315 N 
ATOM      5  H2  UNL     1      49.528   4.010  55.361  1.00  0.00     0.172 HD
BRANCH   4   6
HETATM    6  C6  UNL     1      50.389   4.340  57.338  1.00  0.00     0.096 C 
HETATM    7  C5  UNL     1      49.184   4.938  58.029  1.00  0.00     0.056 C 
HETATM    8  C4  UNL     1      48.823   4.217  59.292  1.00  0.00     0.275 C 
HETATM    9  N1  UNL     1      48.751   2.795  59.168  1.00  0.00     0.092 N 
HETATM   10  C15 UNL     1      49.136   2.328  57.871  1.00  0.00     0.275 C 
HETATM   11  C14 UNL     1      50.540   2.876  57.599  1.00  0.00     0.056 C 
BRANCH   9  12
HETATM   12  C2  UNL     1      47.447   2.285  59.569  1.00  0.00     0.215 C 
HETATM   13  C1  UNL     1      47.049   1.169  58.630  1.00  0.00     0.042 C 
HETATM   14  C3  UNL     1      47.522   1.858  60.999  1.00  0.00     0.042 C 
ENDBRANCH   9  12
ENDBRANCH   4   6
ENDBRANCH   1   4
BRANCH   1  15
HETATM   15  C7  UNL     1      50.216   7.139  54.801  1.00  0.00     0.182 C 
BRANCH  15  16
HETATM   16  C8  UNL     1      50.331   7.406  53.335  1.00  0.00     0.139 C 
BRANCH  16  17
HETATM   17  N3  UNL     1      49.062   7.164  52.692  1.00  0.00    -0.355 N 
HETATM   18  C9  UNL     1      48.100   8.168  52.505  1.00  0.00     0.258 C 
HETATM   19  O3  UNL     1      48.306   9.331  52.896  1.00  0.00    -0.267 OA
ATOM     20  H3  UNL     1      48.854   6.222  52.359  1.00  0.00     0.162 HD
BRANCH  18  21
HETATM   21  C10 UNL     1      46.841   7.856  51.848  1.00  0.00     0.074 A 
HETATM   22  C11 UNL     1      46.624   7.092  50.735  1.00  0.00     0.027 A 
HETATM   23  C12 UNL     1      45.363   6.950  50.316  1.00  0.00     0.033 A 
HETATM   24  C13 UNL     1      44.384   7.584  51.036  1.00  0.00     0.075 A 
HETATM   25 CL1  UNL     1      42.639   7.581  50.728  1.00  0.00    -0.076 Cl
HETATM   26  S2  UNL     1      45.266   8.357  52.277  1.00  0.00    -0.072 SA
ENDBRANCH  18  21
ENDBRANCH  16  17
ENDBRANCH  15  16
ENDBRANCH   1  15
TORSDOF 7
ENDMDL
