MODEL 1
REMARK VINA RESULT: -8.533671356      0.000      0.000
REMARK  7 active torsions:
REMARK  status: ('A' for Active; 'I' for Inactive)
REMARK    1  A    between atoms: C2_2  and  N1_4 
REMARK    2  A    between atoms: C6_7  and  N2_8 
REMARK    3  A    between atoms: N2_8  and  S1_10 
REMARK    4  A    between atoms: S1_10  and  C7_13 
REMARK    5  A    between atoms: C7_13  and  C8_14 
REMARK    6  A    between atoms: C8_14  and  N3_15 
REMARK       I    between atoms: N3_15  and  C9_17 
REMARK    7  A    between atoms: C9_17  and  C10_19 
ROOT
HETATM    1  S1  UNL     1      49.963   6.890  55.704  1.00  0.00     0.228 S 
HETATM    2  O1  UNL     1      51.091   7.174  56.655  1.00  0.00    -0.206 OA
HETATM    3  O2  UNL     1      49.017   8.040  55.698  1.00  0.00    -0.206 OA
ENDROOT
BRANCH   1   4
HETATM    4  N2  UNL     1      49.106   5.478  56.130  1.00  0.00    -0.315 N 
ATOM      5  H2  UNL     1      48.266   5.166  55.643  1.00  0.00     0.172 HD
BRANCH   4   6
HETATM    6  C6  UNL     1      49.685   4.766  57.251  1.00  0.00     0.096 C 
HETATM    7  C5  UNL     1      48.894   5.154  58.480  1.00  0.00     0.056 C 
HETATM    8  C4  UNL     1      48.814   4.050  59.490  1.00  0.00     0.275 C 
HETATM    9  N1  UNL     1      48.438   2.778  58.956  1.00  0.00     0.092 N 
HETATM   10  C15 UNL     1      48.302   2.789  57.531  1.00  0.00     0.275 C 
HETATM   11  C14 UNL     1      49.628   3.302  56.962  1.00  0.00     0.056 C 
BRANCH   9  12
HETATM   12  C2  UNL     1      47.253   2.248  59.616  1.00  0.00     0.215 C 
HETATM   13  C1  UNL     1      46.763   1.044  58.844  1.00  0.00     0.042 C 
HETATM   14  C3  UNL     1      47.596   1.940  61.037  1.00  0.00     0.042 C 
ENDBRANCH   9  12
ENDBRANCH   4   6
ENDBRANCH   1   4
BRANCH   1  15
HETATM   15  C7  UNL     1      50.638   6.658  54.061  1.00  0.00     0.182 C 
BRANCH  15  16
HETATM   16  C8  UNL     1      50.216   7.778  53.167  1.00  0.00     0.139 C 
BRANCH  16  17
HETATM   17  N3  UNL     1      48.963   7.450  52.528  1.00  0.00    -0.355 N 
HETATM   18  C9  UNL     1      47.875   8.334  52.490  1.00  0.00     0.258 C 
HETATM   19  O3  UNL     1      47.945   9.458  53.019  1.00  0.00    -0.267 OA
ATOM     20  H3  UNL     1      48.866   6.537  52.084  1.00  0.00     0.162 HD
BRANCH  18  21
HETATM   21  C10 UNL     1      46.641   7.941  51.828  1.00  0.00     0.074 A 
HETATM   22  C11 UNL     1      46.477   7.131  50.739  1.00  0.00     0.027 A 
HETATM   23  C12 UNL     1      45.230   6.915  50.309  1.00  0.00     0.033 A 
HETATM   24  C13 UNL     1      44.212   7.524  50.996  1.00  0.00     0.075 A 
HETATM   25 CL1  UNL     1      42.474   7.427  50.666  1.00  0.00    -0.076 Cl
HETATM   26  S2  UNL     1      45.038   8.379  52.221  1.00  0.00    -0.072 SA
ENDBRANCH  18  21
ENDBRANCH  16  17
ENDBRANCH  15  16
ENDBRANCH   1  15
TORSDOF 7
ENDMDL
