MODEL 5
REMARK VINA RESULT: -8.026194475      1.284      1.651
REMARK  7 active torsions:
REMARK  status: ('A' for Active; 'I' for Inactive)
REMARK    1  A    between atoms: C2_2  and  N1_4 
REMARK    2  A    between atoms: C6_7  and  N2_8 
REMARK    3  A    between atoms: N2_8  and  S1_10 
REMARK    4  A    between atoms: S1_10  and  C7_13 
REMARK    5  A    between atoms: C7_13  and  C8_14 
REMARK    6  A    between atoms: C8_14  and  N3_15 
REMARK       I    between atoms: N3_15  and  C9_17 
REMARK    7  A    between atoms: C9_17  and  C10_19 
ROOT
HETATM    1  S1  UNL     1      51.457   6.189  54.996  1.00  0.00     0.228 S 
HETATM    2  O1  UNL     1      52.003   5.619  53.717  1.00  0.00    -0.206 OA
HETATM    3  O2  UNL     1      52.527   6.956  55.693  1.00  0.00    -0.206 OA
ENDROOT
BRANCH   1   4
HETATM    4  N2  UNL     1      50.883   4.974  56.046  1.00  0.00    -0.315 N 
ATOM      5  H2  UNL     1      51.229   4.015  56.034  1.00  0.00     0.172 HD
BRANCH   4   6
HETATM    6  C6  UNL     1      49.857   5.436  56.957  1.00  0.00     0.096 C 
HETATM    7  C5  UNL     1      48.700   4.467  56.852  1.00  0.00     0.056 C 
HETATM    8  C4  UNL     1      47.953   4.314  58.142  1.00  0.00     0.275 C 
HETATM    9  N1  UNL     1      48.778   4.084  59.286  1.00  0.00     0.092 N 
HETATM   10  C15 UNL     1      50.177   4.140  58.987  1.00  0.00     0.275 C 
HETATM   11  C14 UNL     1      50.437   5.500  58.333  1.00  0.00     0.056 C 
BRANCH   9  12
HETATM   12  C2  UNL     1      48.414   2.851  59.972  1.00  0.00     0.215 C 
HETATM   13  C1  UNL     1      47.090   2.364  59.430  1.00  0.00     0.042 C 
HETATM   14  C3  UNL     1      49.523   1.865  59.801  1.00  0.00     0.042 C 
ENDBRANCH   9  12
ENDBRANCH   4   6
ENDBRANCH   1   4
BRANCH   1  15
HETATM   15  C7  UNL     1      50.092   7.280  54.606  1.00  0.00     0.182 C 
BRANCH  15  16
HETATM   16  C8  UNL     1      50.148   7.683  53.168  1.00  0.00     0.139 C 
BRANCH  16  17
HETATM   17  N3  UNL     1      48.890   7.382  52.525  1.00  0.00    -0.355 N 
HETATM   18  C9  UNL     1      47.815   8.282  52.499  1.00  0.00     0.258 C 
HETATM   19  O3  UNL     1      47.903   9.399  53.041  1.00  0.00    -0.267 OA
ATOM     20  H3  UNL     1      48.779   6.475  52.071  1.00  0.00     0.162 HD
BRANCH  18  21
HETATM   21  C10 UNL     1      46.576   7.916  51.833  1.00  0.00     0.074 A 
HETATM   22  C11 UNL     1      46.396   7.104  50.748  1.00  0.00     0.027 A 
HETATM   23  C12 UNL     1      45.146   6.916  50.313  1.00  0.00     0.033 A 
HETATM   24  C13 UNL     1      44.141   7.554  50.991  1.00  0.00     0.075 A 
HETATM   25 CL1  UNL     1      42.402   7.499  50.652  1.00  0.00    -0.076 Cl
HETATM   26  S2  UNL     1      44.982   8.396  52.215  1.00  0.00    -0.072 SA
ENDBRANCH  18  21
ENDBRANCH  16  17
ENDBRANCH  15  16
ENDBRANCH   1  15
TORSDOF 7
ENDMDL
