MODEL 12
REMARK VINA RESULT: -7.626607594      3.621      8.270
REMARK  7 active torsions:
REMARK  status: ('A' for Active; 'I' for Inactive)
REMARK    1  A    between atoms: C2_2  and  N1_4 
REMARK    2  A    between atoms: C6_7  and  N2_8 
REMARK    3  A    between atoms: N2_8  and  S1_10 
REMARK    4  A    between atoms: S1_10  and  C7_13 
REMARK    5  A    between atoms: C7_13  and  C8_14 
REMARK    6  A    between atoms: C8_14  and  N3_15 
REMARK       I    between atoms: N3_15  and  C9_17 
REMARK    7  A    between atoms: C9_17  and  C10_19 
ROOT
HETATM    1  S1  UNL     1      47.552   8.930  56.451  1.00  0.00     0.228 S 
HETATM    2  O1  UNL     1      46.949   8.595  57.786  1.00  0.00    -0.206 OA
HETATM    3  O2  UNL     1      47.692  10.408  56.327  1.00  0.00    -0.206 OA
ENDROOT
BRANCH   1   4
HETATM    4  N2  UNL     1      46.599   8.360  55.156  1.00  0.00    -0.315 N 
ATOM      5  H2  UNL     1      45.869   7.657  55.266  1.00  0.00     0.172 HD
BRANCH   4   6
HETATM    6  C6  UNL     1      46.928   8.972  53.885  1.00  0.00     0.096 C 
HETATM    7  C5  UNL     1      47.430   7.870  52.979  1.00  0.00     0.056 C 
HETATM    8  C4  UNL     1      47.101   8.109  51.537  1.00  0.00     0.275 C 
HETATM    9  N1  UNL     1      45.740   8.466  51.287  1.00  0.00     0.092 N 
HETATM   10  C15 UNL     1      44.973   8.619  52.486  1.00  0.00     0.275 C 
HETATM   11  C14 UNL     1      45.705   9.647  53.354  1.00  0.00     0.056 C 
BRANCH   9  12
HETATM   12  C2  UNL     1      45.108   7.551  50.346  1.00  0.00     0.215 C 
HETATM   13  C1  UNL     1      45.936   6.289  50.262  1.00  0.00     0.042 C 
HETATM   14  C3  UNL     1      43.702   7.309  50.788  1.00  0.00     0.042 C 
ENDBRANCH   9  12
ENDBRANCH   4   6
ENDBRANCH   1   4
BRANCH   1  15
HETATM   15  C7  UNL     1      49.166   8.163  56.337  1.00  0.00     0.182 C 
BRANCH  15  16
HETATM   16  C8  UNL     1      49.610   7.692  57.683  1.00  0.00     0.139 C 
BRANCH  16  17
HETATM   17  N3  UNL     1      48.929   6.465  58.023  1.00  0.00    -0.355 N 
HETATM   18  C9  UNL     1      49.545   5.427  58.738  1.00  0.00     0.258 C 
HETATM   19  O3  UNL     1      50.727   5.522  59.113  1.00  0.00    -0.267 OA
ATOM     20  H3  UNL     1      47.959   6.348  57.731  1.00  0.00     0.162 HD
BRANCH  18  21
HETATM   21  C10 UNL     1      48.801   4.216  59.047  1.00  0.00     0.074 A 
HETATM   22  C11 UNL     1      47.627   3.771  58.503  1.00  0.00     0.027 A 
HETATM   23  C12 UNL     1      47.132   2.616  58.957  1.00  0.00     0.033 A 
HETATM   24  C13 UNL     1      47.840   1.967  59.935  1.00  0.00     0.075 A 
HETATM   25 CL1  UNL     1      47.438   0.433  60.726  1.00  0.00    -0.076 Cl
HETATM   26  S2  UNL     1      49.176   2.999  60.184  1.00  0.00    -0.072 SA
ENDBRANCH  18  21
ENDBRANCH  16  17
ENDBRANCH  15  16
ENDBRANCH   1  15
TORSDOF 7
ENDMDL
