MODEL 4
REMARK VINA RESULT: -8.190591378      0.886      1.469
REMARK  7 active torsions:
REMARK  status: ('A' for Active; 'I' for Inactive)
REMARK    1  A    between atoms: C2_2  and  N1_4 
REMARK    2  A    between atoms: C6_7  and  N2_8 
REMARK    3  A    between atoms: N2_8  and  S1_10 
REMARK    4  A    between atoms: S1_10  and  C7_13 
REMARK    5  A    between atoms: C7_13  and  C8_14 
REMARK    6  A    between atoms: C8_14  and  N3_15 
REMARK       I    between atoms: N3_15  and  C9_17 
REMARK    7  A    between atoms: C9_17  and  C10_19 
ROOT
HETATM    1  S1  UNL     1      49.744   6.844  55.686  1.00  0.00     0.228 S 
HETATM    2  O1  UNL     1      50.179   8.133  56.323  1.00  0.00    -0.206 OA
HETATM    3  O2  UNL     1      48.279   6.890  55.422  1.00  0.00    -0.206 OA
ENDROOT
BRANCH   1   4
HETATM    4  N2  UNL     1      50.079   5.495  56.676  1.00  0.00    -0.315 N 
ATOM      5  H2  UNL     1      50.983   5.339  57.121  1.00  0.00     0.172 HD
BRANCH   4   6
HETATM    6  C6  UNL     1      48.955   4.593  56.822  1.00  0.00     0.096 C 
HETATM    7  C5  UNL     1      49.490   3.188  56.657  1.00  0.00     0.056 C 
HETATM    8  C4  UNL     1      48.738   2.182  57.475  1.00  0.00     0.275 C 
HETATM    9  N1  UNL     1      48.539   2.552  58.841  1.00  0.00     0.092 N 
HETATM   10  C15 UNL     1      49.019   3.867  59.139  1.00  0.00     0.275 C 
HETATM   11  C14 UNL     1      48.332   4.824  58.160  1.00  0.00     0.056 C 
BRANCH   9  12
HETATM   12  C2  UNL     1      49.078   1.552  59.753  1.00  0.00     0.215 C 
HETATM   13  C1  UNL     1      50.213   2.169  60.538  1.00  0.00     0.042 C 
HETATM   14  C3  UNL     1      47.968   1.047  60.615  1.00  0.00     0.042 C 
ENDBRANCH   9  12
ENDBRANCH   4   6
ENDBRANCH   1   4
BRANCH   1  15
HETATM   15  C7  UNL     1      50.626   6.636  54.142  1.00  0.00     0.182 C 
BRANCH  15  16
HETATM   16  C8  UNL     1      50.267   7.731  53.191  1.00  0.00     0.139 C 
BRANCH  16  17
HETATM   17  N3  UNL     1      49.019   7.421  52.534  1.00  0.00    -0.355 N 
HETATM   18  C9  UNL     1      47.927   8.301  52.523  1.00  0.00     0.258 C 
HETATM   19  O3  UNL     1      47.990   9.406  53.092  1.00  0.00    -0.267 OA
ATOM     20  H3  UNL     1      48.928   6.524  52.058  1.00  0.00     0.162 HD
BRANCH  18  21
HETATM   21  C10 UNL     1      46.698   7.926  51.842  1.00  0.00     0.074 A 
HETATM   22  C11 UNL     1      46.537   7.108  50.758  1.00  0.00     0.027 A 
HETATM   23  C12 UNL     1      45.294   6.913  50.307  1.00  0.00     0.033 A 
HETATM   24  C13 UNL     1      44.277   7.552  50.967  1.00  0.00     0.075 A 
HETATM   25 CL1  UNL     1      42.544   7.489  50.604  1.00  0.00    -0.076 Cl
HETATM   26  S2  UNL     1      45.098   8.403  52.198  1.00  0.00    -0.072 SA
ENDBRANCH  18  21
ENDBRANCH  16  17
ENDBRANCH  15  16
ENDBRANCH   1  15
TORSDOF 7
ENDMDL
