MODEL 2
REMARK VINA RESULT: -8.301297947      0.897      1.349
REMARK  7 active torsions:
REMARK  status: ('A' for Active; 'I' for Inactive)
REMARK    1  A    between atoms: C2_2  and  N1_4 
REMARK    2  A    between atoms: C6_7  and  N2_8 
REMARK    3  A    between atoms: N2_8  and  S1_10 
REMARK    4  A    between atoms: S1_10  and  C7_13 
REMARK    5  A    between atoms: C7_13  and  C8_14 
REMARK    6  A    between atoms: C8_14  and  N3_15 
REMARK       I    between atoms: N3_15  and  C9_17 
REMARK    7  A    between atoms: C9_17  and  C10_19 
ROOT
HETATM    1  S1  UNL     1      50.224   7.232  55.796  1.00  0.00     0.228 S 
HETATM    2  O1  UNL     1      51.135   8.355  56.203  1.00  0.00    -0.206 OA
HETATM    3  O2  UNL     1      48.814   7.710  55.800  1.00  0.00    -0.206 OA
ENDROOT
BRANCH   1   4
HETATM    4  N2  UNL     1      50.350   5.892  56.845  1.00  0.00    -0.315 N 
ATOM      5  H2  UNL     1      51.117   5.221  56.805  1.00  0.00     0.172 HD
BRANCH   4   6
HETATM    6  C6  UNL     1      49.263   5.800  57.797  1.00  0.00     0.096 C 
HETATM    7  C5  UNL     1      48.385   4.649  57.359  1.00  0.00     0.056 C 
HETATM    8  C4  UNL     1      47.731   3.947  58.510  1.00  0.00     0.275 C 
HETATM    9  N1  UNL     1      48.616   3.605  59.579  1.00  0.00     0.092 N 
HETATM   10  C15 UNL     1      49.948   4.089  59.380  1.00  0.00     0.275 C 
HETATM   11  C14 UNL     1      49.843   5.601  59.160  1.00  0.00     0.056 C 
BRANCH   9  12
HETATM   12  C2  UNL     1      48.589   2.176  59.862  1.00  0.00     0.215 C 
HETATM   13  C1  UNL     1      47.741   1.937  61.090  1.00  0.00     0.042 C 
HETATM   14  C3  UNL     1      48.090   1.460  58.649  1.00  0.00     0.042 C 
ENDBRANCH   9  12
ENDBRANCH   4   6
ENDBRANCH   1   4
BRANCH   1  15
HETATM   15  C7  UNL     1      50.672   6.694  54.147  1.00  0.00     0.182 C 
BRANCH  15  16
HETATM   16  C8  UNL     1      50.329   7.752  53.149  1.00  0.00     0.139 C 
BRANCH  16  17
HETATM   17  N3  UNL     1      49.076   7.433  52.507  1.00  0.00    -0.355 N 
HETATM   18  C9  UNL     1      47.981   8.310  52.501  1.00  0.00     0.258 C 
HETATM   19  O3  UNL     1      48.046   9.418  53.062  1.00  0.00    -0.267 OA
ATOM     20  H3  UNL     1      48.982   6.532  52.038  1.00  0.00     0.162 HD
BRANCH  18  21
HETATM   21  C10 UNL     1      46.746   7.926  51.835  1.00  0.00     0.074 A 
HETATM   22  C11 UNL     1      46.574   7.078  50.777  1.00  0.00     0.027 A 
HETATM   23  C12 UNL     1      45.327   6.881  50.335  1.00  0.00     0.033 A 
HETATM   24  C13 UNL     1      44.318   7.548  50.980  1.00  0.00     0.075 A 
HETATM   25 CL1  UNL     1      42.583   7.490  50.625  1.00  0.00    -0.076 Cl
HETATM   26  S2  UNL     1      45.151   8.427  52.183  1.00  0.00    -0.072 SA
ENDBRANCH  18  21
ENDBRANCH  16  17
ENDBRANCH  15  16
ENDBRANCH   1  15
TORSDOF 7
ENDMDL
