MODEL 17
REMARK VINA RESULT: -6.867279567      3.703      4.753
REMARK  7 active torsions:
REMARK  status: ('A' for Active; 'I' for Inactive)
REMARK    1  A    between atoms: C2_2  and  N1_4 
REMARK    2  A    between atoms: C6_7  and  N2_8 
REMARK    3  A    between atoms: N2_8  and  S1_10 
REMARK    4  A    between atoms: S1_10  and  C7_13 
REMARK    5  A    between atoms: C7_13  and  C8_14 
REMARK    6  A    between atoms: C8_14  and  N3_15 
REMARK       I    between atoms: N3_15  and  C9_17 
REMARK    7  A    between atoms: C9_17  and  C10_19 
ROOT
HETATM    1  S1  UNL     1      48.718   8.114  57.057  1.00  0.00     0.228 S 
HETATM    2  O1  UNL     1      50.184   8.258  56.763  1.00  0.00    -0.206 OA
HETATM    3  O2  UNL     1      48.323   9.092  58.108  1.00  0.00    -0.206 OA
ENDROOT
BRANCH   1   4
HETATM    4  N2  UNL     1      48.324   6.544  57.596  1.00  0.00    -0.315 N 
ATOM      5  H2  UNL     1      47.369   6.244  57.794  1.00  0.00     0.172 HD
BRANCH   4   6
HETATM    6  C6  UNL     1      49.475   5.678  57.744  1.00  0.00     0.096 C 
HETATM    7  C5  UNL     1      49.452   5.148  59.161  1.00  0.00     0.056 C 
HETATM    8  C4  UNL     1      50.025   3.768  59.273  1.00  0.00     0.275 C 
HETATM    9  N1  UNL     1      49.523   2.834  58.314  1.00  0.00     0.092 N 
HETATM   10  C15 UNL     1      48.633   3.431  57.365  1.00  0.00     0.275 C 
HETATM   11  C14 UNL     1      49.389   4.595  56.718  1.00  0.00     0.056 C 
BRANCH   9  12
HETATM   12  C2  UNL     1      48.935   1.666  58.958  1.00  0.00     0.215 C 
HETATM   13  C1  UNL     1      49.152   1.771  60.450  1.00  0.00     0.042 C 
HETATM   14  C3  UNL     1      47.494   1.586  58.573  1.00  0.00     0.042 C 
ENDBRANCH   9  12
ENDBRANCH   4   6
ENDBRANCH   1   4
BRANCH   1  15
HETATM   15  C7  UNL     1      47.794   8.437  55.558  1.00  0.00     0.182 C 
BRANCH  15  16
HETATM   16  C8  UNL     1      48.037   7.354  54.557  1.00  0.00     0.139 C 
BRANCH  16  17
HETATM   17  N3  UNL     1      49.444   7.288  54.239  1.00  0.00    -0.355 N 
HETATM   18  C9  UNL     1      50.022   8.025  53.194  1.00  0.00     0.258 C 
HETATM   19  O3  UNL     1      49.332   8.778  52.484  1.00  0.00    -0.267 OA
ATOM     20  H3  UNL     1      50.044   6.681  54.797  1.00  0.00     0.162 HD
BRANCH  18  21
HETATM   21  C10 UNL     1      51.447   7.913  52.927  1.00  0.00     0.074 A 
HETATM   22  C11 UNL     1      52.309   6.915  53.291  1.00  0.00     0.027 A 
HETATM   23  C12 UNL     1      53.589   7.037  52.926  1.00  0.00     0.033 A 
HETATM   24  C13 UNL     1      53.938   8.156  52.215  1.00  0.00     0.075 A 
HETATM   25 CL1  UNL     1      55.542   8.591  51.600  1.00  0.00    -0.076 Cl
HETATM   26  S2  UNL     1      52.459   8.998  52.083  1.00  0.00    -0.072 SA
ENDBRANCH  18  21
ENDBRANCH  16  17
ENDBRANCH  15  16
ENDBRANCH   1  15
TORSDOF 7
ENDMDL
