MODEL 13
REMARK VINA RESULT: -7.529001702      3.231      8.311
REMARK  7 active torsions:
REMARK  status: ('A' for Active; 'I' for Inactive)
REMARK    1  A    between atoms: C2_2  and  N1_4 
REMARK    2  A    between atoms: C6_7  and  N2_8 
REMARK    3  A    between atoms: N2_8  and  S1_10 
REMARK    4  A    between atoms: S1_10  and  C7_13 
REMARK    5  A    between atoms: C7_13  and  C8_14 
REMARK    6  A    between atoms: C8_14  and  N3_15 
REMARK       I    between atoms: N3_15  and  C9_17 
REMARK    7  A    between atoms: C9_17  and  C10_19 
ROOT
HETATM    1  S1  UNL     1      48.729   7.525  55.586  1.00  0.00     0.228 S 
HETATM    2  O1  UNL     1      49.934   7.859  54.754  1.00  0.00    -0.206 OA
HETATM    3  O2  UNL     1      48.547   6.048  55.628  1.00  0.00    -0.206 OA
ENDROOT
BRANCH   1   4
HETATM    4  N2  UNL     1      47.306   8.233  54.968  1.00  0.00    -0.315 N 
ATOM      5  H2  UNL     1      46.428   8.269  55.486  1.00  0.00     0.172 HD
BRANCH   4   6
HETATM    6  C6  UNL     1      47.464   8.779  53.636  1.00  0.00     0.096 C 
HETATM    7  C5  UNL     1      47.546   7.608  52.683  1.00  0.00     0.056 C 
HETATM    8  C4  UNL     1      46.967   7.915  51.335  1.00  0.00     0.275 C 
HETATM    9  N1  UNL     1      45.676   8.527  51.366  1.00  0.00     0.092 N 
HETATM   10  C15 UNL     1      45.225   8.815  52.693  1.00  0.00     0.275 C 
HETATM   11  C14 UNL     1      46.305   9.679  53.351  1.00  0.00     0.056 C 
BRANCH   9  12
HETATM   12  C2  UNL     1      44.698   7.755  50.610  1.00  0.00     0.215 C 
HETATM   13  C1  UNL     1      45.331   6.452  50.180  1.00  0.00     0.042 C 
HETATM   14  C3  UNL     1      43.481   7.571  51.457  1.00  0.00     0.042 C 
ENDBRANCH   9  12
ENDBRANCH   4   6
ENDBRANCH   1   4
BRANCH   1  15
HETATM   15  C7  UNL     1      48.984   8.145  57.247  1.00  0.00     0.182 C 
BRANCH  15  16
HETATM   16  C8  UNL     1      49.887   7.228  58.007  1.00  0.00     0.139 C 
BRANCH  16  17
HETATM   17  N3  UNL     1      49.199   5.993  58.298  1.00  0.00    -0.355 N 
HETATM   18  C9  UNL     1      49.558   5.157  59.365  1.00  0.00     0.258 C 
HETATM   19  O3  UNL     1      50.504   5.450  60.118  1.00  0.00    -0.267 OA
ATOM     20  H3  UNL     1      48.419   5.716  57.702  1.00  0.00     0.162 HD
BRANCH  18  21
HETATM   21  C10 UNL     1      48.822   3.925  59.603  1.00  0.00     0.074 A 
HETATM   22  C11 UNL     1      48.864   3.101  60.694  1.00  0.00     0.027 A 
HETATM   23  C12 UNL     1      48.086   2.014  60.681  1.00  0.00     0.033 A 
HETATM   24  C13 UNL     1      47.306   1.811  59.572  1.00  0.00     0.075 A 
HETATM   25 CL1  UNL     1      46.185   0.473  59.269  1.00  0.00    -0.076 Cl
HETATM   26  S2  UNL     1      47.690   3.150  58.586  1.00  0.00    -0.072 SA
ENDBRANCH  18  21
ENDBRANCH  16  17
ENDBRANCH  15  16
ENDBRANCH   1  15
TORSDOF 7
ENDMDL
