MODEL 3
REMARK VINA RESULT: -7.975749943      2.380      5.564
REMARK  7 active torsions:
REMARK  status: ('A' for Active; 'I' for Inactive)
REMARK    1  A    between atoms: C2_2  and  C3_3 
REMARK    2  A    between atoms: C3_3  and  C4_4 
REMARK    3  A    between atoms: C4_4  and  C5_5 
REMARK    4  A    between atoms: C11_13  and  O1_14 
REMARK    5  A    between atoms: C15_18  and  S1_19 
REMARK    6  A    between atoms: S1_19  and  C16_20 
REMARK    7  A    between atoms: C16_20  and  C17_21 
ROOT
HETATM    1  C17 UNL     1      23.611  47.918  58.776  1.00  0.00     0.134 C 
HETATM    2  C18 UNL     1      24.797  47.216  58.293  1.00  0.00     0.059 C 
HETATM    3  N2  UNL     1      25.731  46.646  57.926  1.00  0.00    -0.197 NA
ENDROOT
BRANCH   1   4
HETATM    4  C16 UNL     1      22.538  46.998  59.259  1.00  0.00     0.093 C 
BRANCH   4   5
HETATM    5  S1  UNL     1      22.847  46.243  60.863  1.00  0.00    -0.128 SA
BRANCH   5   6
HETATM    6  C15 UNL     1      22.830  47.462  62.204  1.00  0.00     0.021 A 
HETATM    7  C5  UNL     1      24.078  47.909  62.677  1.00  0.00    -0.018 A 
HETATM    8  C6  UNL     1      24.141  48.814  63.681  1.00  0.00     0.013 A 
HETATM    9  C7  UNL     1      25.404  49.306  64.291  1.00  0.00     0.068 C 
HETATM   10  N1  UNL     1      22.976  49.278  64.215  1.00  0.00    -0.359 N 
HETATM   11  C8  UNL     1      21.774  48.872  63.781  1.00  0.00     0.044 A 
ATOM     12  H1  UNL     1      23.020  49.960  64.973  1.00  0.00     0.166 HD
HETATM   13  C9  UNL     1      20.605  49.378  64.335  1.00  0.00     0.033 A 
HETATM   14  C14 UNL     1      21.703  47.953  62.762  1.00  0.00     0.011 A 
HETATM   15  C10 UNL     1      19.397  48.954  63.856  1.00  0.00     0.039 A 
HETATM   16  C11 UNL     1      19.320  48.024  62.824  1.00  0.00     0.069 A 
HETATM   17  C13 UNL     1      20.472  47.516  62.268  1.00  0.00     0.051 A 
BRANCH   7  18
HETATM   18  C4  UNL     1      25.292  47.420  61.967  1.00  0.00     0.042 C 
BRANCH  18  19
HETATM   19  C3  UNL     1      25.894  46.182  62.508  1.00  0.00     0.004 C 
BRANCH  19  20
HETATM   20  C2  UNL     1      26.365  45.104  61.637  1.00  0.00    -0.004 C 
HETATM   21  C1  UNL     1      27.578  44.338  62.105  1.00  0.00     0.005 C 
ENDBRANCH  19  20
ENDBRANCH  18  19
ENDBRANCH   7  18
BRANCH  16  22
HETATM   22  O1  UNL     1      18.090  47.611  62.358  1.00  0.00    -0.356 OA
HETATM   23  C12 UNL     1      17.403  48.379  61.403  1.00  0.00     0.210 C 
ENDBRANCH  16  22
ENDBRANCH   5   6
ENDBRANCH   4   5
ENDBRANCH   1   4
TORSDOF 7
ENDMDL
