MODEL 6
REMARK VINA RESULT: -7.732612279      2.456      5.421
REMARK  7 active torsions:
REMARK  status: ('A' for Active; 'I' for Inactive)
REMARK    1  A    between atoms: C2_2  and  C3_3 
REMARK    2  A    between atoms: C3_3  and  C4_4 
REMARK    3  A    between atoms: C4_4  and  C5_5 
REMARK    4  A    between atoms: C11_13  and  O1_14 
REMARK    5  A    between atoms: C15_18  and  S1_19 
REMARK    6  A    between atoms: S1_19  and  C16_20 
REMARK    7  A    between atoms: C16_20  and  C17_21 
ROOT
HETATM    1  C17 UNL     1      22.363  48.249  59.616  1.00  0.00     0.134 C 
HETATM    2  C18 UNL     1      21.087  48.183  60.322  1.00  0.00     0.059 C 
HETATM    3  N2  UNL     1      20.073  48.113  60.871  1.00  0.00    -0.197 NA
ENDROOT
BRANCH   1   4
HETATM    4  C16 UNL     1      22.984  46.908  59.396  1.00  0.00     0.093 C 
BRANCH   4   5
HETATM    5  S1  UNL     1      23.404  46.008  60.898  1.00  0.00    -0.128 SA
BRANCH   5   6
HETATM    6  C15 UNL     1      24.822  46.740  61.756  1.00  0.00     0.021 A 
HETATM    7  C5  UNL     1      26.100  46.285  61.380  1.00  0.00    -0.018 A 
HETATM    8  C6  UNL     1      27.205  46.783  61.984  1.00  0.00     0.013 A 
HETATM    9  C7  UNL     1      28.592  46.331  61.703  1.00  0.00     0.068 C 
HETATM   10  N1  UNL     1      27.048  47.729  62.954  1.00  0.00    -0.359 N 
HETATM   11  C8  UNL     1      25.843  48.182  63.328  1.00  0.00     0.044 A 
ATOM     12  H1  UNL     1      27.879  48.105  63.411  1.00  0.00     0.166 HD
HETATM   13  C9  UNL     1      25.719  49.159  64.307  1.00  0.00     0.033 A 
HETATM   14  C14 UNL     1      24.718  47.680  62.720  1.00  0.00     0.011 A 
HETATM   15  C10 UNL     1      24.475  49.609  64.652  1.00  0.00     0.039 A 
HETATM   16  C11 UNL     1      23.333  49.105  64.038  1.00  0.00     0.069 A 
HETATM   17  C13 UNL     1      23.444  48.137  63.067  1.00  0.00     0.051 A 
BRANCH   7  18
HETATM   18  C4  UNL     1      26.177  45.324  60.245  1.00  0.00     0.042 C 
BRANCH  18  19
HETATM   19  C3  UNL     1      26.585  45.902  58.947  1.00  0.00     0.004 C 
BRANCH  19  20
HETATM   20  C2  UNL     1      26.617  47.347  58.716  1.00  0.00    -0.004 C 
HETATM   21  C1  UNL     1      26.390  47.811  57.299  1.00  0.00     0.005 C 
ENDBRANCH  19  20
ENDBRANCH  18  19
ENDBRANCH   7  18
BRANCH  16  22
HETATM   22  O1  UNL     1      22.089  49.575  64.403  1.00  0.00    -0.356 OA
HETATM   23  C12 UNL     1      20.959  48.747  64.283  1.00  0.00     0.210 C 
ENDBRANCH  16  22
ENDBRANCH   5   6
ENDBRANCH   4   5
ENDBRANCH   1   4
TORSDOF 7
ENDMDL
