MODEL 5
REMARK VINA RESULT: -7.796128971      1.937      2.356
REMARK  7 active torsions:
REMARK  status: ('A' for Active; 'I' for Inactive)
REMARK    1  A    between atoms: C2_2  and  C3_3 
REMARK    2  A    between atoms: C3_3  and  C4_4 
REMARK    3  A    between atoms: C4_4  and  C5_5 
REMARK    4  A    between atoms: C11_13  and  O1_14 
REMARK    5  A    between atoms: C15_18  and  S1_19 
REMARK    6  A    between atoms: S1_19  and  C16_20 
REMARK    7  A    between atoms: C16_20  and  C17_21 
ROOT
HETATM    1  C17 UNL     1      22.947  45.383  61.710  1.00  0.00     0.134 C 
HETATM    2  C18 UNL     1      21.668  45.233  62.396  1.00  0.00     0.059 C 
HETATM    3  N2  UNL     1      20.649  45.132  62.930  1.00  0.00    -0.197 NA
ENDROOT
BRANCH   1   4
HETATM    4  C16 UNL     1      22.815  45.961  60.338  1.00  0.00     0.093 C 
BRANCH   4   5
HETATM    5  S1  UNL     1      22.555  47.742  60.285  1.00  0.00    -0.128 SA
BRANCH   5   6
HETATM    6  C15 UNL     1      22.452  48.464  61.944  1.00  0.00     0.021 A 
HETATM    7  C5  UNL     1      21.177  48.861  62.389  1.00  0.00    -0.018 A 
HETATM    8  C6  UNL     1      21.025  49.415  63.615  1.00  0.00     0.013 A 
HETATM    9  C7  UNL     1      19.736  49.919  64.157  1.00  0.00     0.068 C 
HETATM   10  N1  UNL     1      22.129  49.574  64.400  1.00  0.00    -0.359 N 
HETATM   11  C8  UNL     1      23.354  49.202  64.001  1.00  0.00     0.044 A 
ATOM     12  H1  UNL     1      22.019  49.992  65.324  1.00  0.00     0.166 HD
HETATM   13  C9  UNL     1      24.455  49.361  64.832  1.00  0.00     0.033 A 
HETATM   14  C14 UNL     1      23.515  48.639  62.758  1.00  0.00     0.011 A 
HETATM   15  C10 UNL     1      25.687  48.955  64.399  1.00  0.00     0.039 A 
HETATM   16  C11 UNL     1      25.855  48.385  63.141  1.00  0.00     0.069 A 
HETATM   17  C13 UNL     1      24.770  48.221  62.310  1.00  0.00     0.051 A 
BRANCH   7  18
HETATM   18  C4  UNL     1      20.019  48.558  61.504  1.00  0.00     0.042 C 
BRANCH  18  19
HETATM   19  C3  UNL     1      18.833  47.985  62.176  1.00  0.00     0.004 C 
BRANCH  19  20
HETATM   20  C2  UNL     1      17.478  48.174  61.653  1.00  0.00    -0.004 C 
HETATM   21  C1  UNL     1      16.982  49.596  61.560  1.00  0.00     0.005 C 
ENDBRANCH  19  20
ENDBRANCH  18  19
ENDBRANCH   7  18
BRANCH  16  22
HETATM   22  O1  UNL     1      27.106  47.983  62.727  1.00  0.00    -0.356 OA
HETATM   23  C12 UNL     1      27.299  46.687  62.218  1.00  0.00     0.210 C 
ENDBRANCH  16  22
ENDBRANCH   5   6
ENDBRANCH   4   5
ENDBRANCH   1   4
TORSDOF 7
ENDMDL
