MODEL 2
REMARK VINA RESULT: -8.052138230      2.196      5.352
REMARK  7 active torsions:
REMARK  status: ('A' for Active; 'I' for Inactive)
REMARK    1  A    between atoms: C2_2  and  C3_3 
REMARK    2  A    between atoms: C3_3  and  C4_4 
REMARK    3  A    between atoms: C4_4  and  C5_5 
REMARK    4  A    between atoms: C11_13  and  O1_14 
REMARK    5  A    between atoms: C15_18  and  S1_19 
REMARK    6  A    between atoms: S1_19  and  C16_20 
REMARK    7  A    between atoms: C16_20  and  C17_21 
ROOT
HETATM    1  C17 UNL     1      22.466  48.417  59.268  1.00  0.00     0.134 C 
HETATM    2  C18 UNL     1      23.323  49.081  58.290  1.00  0.00     0.059 C 
HETATM    3  N2  UNL     1      24.015  49.593  57.520  1.00  0.00    -0.197 NA
ENDROOT
BRANCH   1   4
HETATM    4  C16 UNL     1      22.629  46.932  59.281  1.00  0.00     0.093 C 
BRANCH   4   5
HETATM    5  S1  UNL     1      22.654  46.183  60.918  1.00  0.00    -0.128 SA
BRANCH   5   6
HETATM    6  C15 UNL     1      22.699  47.427  62.234  1.00  0.00     0.021 A 
HETATM    7  C5  UNL     1      23.969  47.852  62.668  1.00  0.00    -0.018 A 
HETATM    8  C6  UNL     1      24.079  48.774  63.653  1.00  0.00     0.013 A 
HETATM    9  C7  UNL     1      25.368  49.247  64.221  1.00  0.00     0.068 C 
HETATM   10  N1  UNL     1      22.939  49.276  64.206  1.00  0.00    -0.359 N 
HETATM   11  C8  UNL     1      21.717  48.891  63.810  1.00  0.00     0.044 A 
ATOM     12  H1  UNL     1      23.018  49.970  64.950  1.00  0.00     0.166 HD
HETATM   13  C9  UNL     1      20.575  49.435  64.383  1.00  0.00     0.033 A 
HETATM   14  C14 UNL     1      21.598  47.955  62.811  1.00  0.00     0.011 A 
HETATM   15  C10 UNL     1      19.345  49.030  63.942  1.00  0.00     0.039 A 
HETATM   16  C11 UNL     1      19.220  48.084  62.931  1.00  0.00     0.069 A 
HETATM   17  C13 UNL     1      20.345  47.538  62.356  1.00  0.00     0.051 A 
BRANCH   7  18
HETATM   18  C4  UNL     1      25.153  47.322  61.937  1.00  0.00     0.042 C 
BRANCH  18  19
HETATM   19  C3  UNL     1      25.761  46.100  62.508  1.00  0.00     0.004 C 
BRANCH  19  20
HETATM   20  C2  UNL     1      26.415  45.095  61.669  1.00  0.00    -0.004 C 
HETATM   21  C1  UNL     1      26.102  45.139  60.194  1.00  0.00     0.005 C 
ENDBRANCH  19  20
ENDBRANCH  18  19
ENDBRANCH   7  18
BRANCH  16  22
HETATM   22  O1  UNL     1      17.970  47.691  62.503  1.00  0.00    -0.356 OA
HETATM   23  C12 UNL     1      17.358  48.343  61.419  1.00  0.00     0.210 C 
ENDBRANCH  16  22
ENDBRANCH   5   6
ENDBRANCH   4   5
ENDBRANCH   1   4
TORSDOF 7
ENDMDL
