MODEL 1
REMARK VINA RESULT: -8.075565556      0.000      0.000
REMARK  11 active torsions:
REMARK  status: ('A' for Active; 'I' for Inactive)
REMARK    1  A    between atoms: P1_2  and  O4_5 
REMARK    2  A    between atoms: O4_5  and  C1_6 
REMARK    3  A    between atoms: C3_8  and  O5_9 
REMARK    4  A    between atoms: O5_9  and  P2_10 
REMARK    5  A    between atoms: C5_15  and  C6_16 
REMARK    6  A    between atoms: C7_17  and  O9_18 
REMARK    7  A    between atoms: O9_18  and  P3_19 
REMARK    8  A    between atoms: C9_24  and  O13_25 
REMARK    9  A    between atoms: O13_25  and  P4_26 
REMARK   10  A    between atoms: C11_31  and  O17_32 
REMARK   11  A    between atoms: O17_32  and  P5_33 
ROOT
HETATM    1  C6  UNL     1       2.664  47.503 -51.314  1.00  0.00     0.043 A 
HETATM    2  C7  UNL     1       1.703  47.248 -52.270  1.00  0.00     0.099 A 
HETATM    3  C8  UNL     1       1.025  48.305 -52.826  1.00  0.00     0.076 A 
HETATM    4  C9  UNL     1       1.262  49.611 -52.473  1.00  0.00     0.088 A 
HETATM    5  C10 UNL     1       2.244  49.844 -51.501  1.00  0.00     0.076 A 
HETATM    6  C11 UNL     1       2.943  48.803 -50.922  1.00  0.00     0.099 A 
ENDROOT
BRANCH   1   7
HETATM    7  C5  UNL     1       3.372  46.366 -50.743  1.00  0.00    -0.015 A 
HETATM    8  C4  UNL     1       4.614  45.930 -51.152  1.00  0.00     0.050 A 
HETATM    9  C3  UNL     1       5.226  44.818 -50.563  1.00  0.00     0.086 A 
HETATM   10  C2  UNL     1       4.600  44.125 -49.555  1.00  0.00     0.074 A 
HETATM   11  C1  UNL     1       3.358  44.561 -49.149  1.00  0.00     0.086 A 
HETATM   12  C12 UNL     1       2.739  45.660 -49.718  1.00  0.00     0.050 A 
BRANCH   9  13
HETATM   13  O5  UNL     1       6.465  44.449 -51.024  1.00  0.00    -0.240 OA
BRANCH  13  14
HETATM   14  P2  UNL     1       7.530  43.403 -50.227  1.00  0.00     0.427 P 
HETATM   15  O6  UNL     1       8.825  43.377 -51.039  1.00  0.00    -0.617 OA
HETATM   16  O7  UNL     1       7.912  44.088 -48.721  1.00  0.00    -0.617 OA
HETATM   17  O8  UNL     1       6.989  41.836 -50.063  1.00  0.00    -0.617 OA
ENDBRANCH  13  14
ENDBRANCH   9  13
BRANCH  11  18
HETATM   18  O4  UNL     1       2.737  43.831 -48.117  1.00  0.00    -0.240 OA
BRANCH  18  19
HETATM   19  P1  UNL     1       1.172  44.446 -47.675  1.00  0.00     0.427 P 
HETATM   20  O1  UNL     1       0.758  43.659 -46.428  1.00  0.00    -0.617 OA
HETATM   21  O2  UNL     1       1.228  46.069 -47.295  1.00  0.00    -0.617 OA
HETATM   22  O3  UNL     1       0.086  44.065 -48.887  1.00  0.00    -0.617 OA
ENDBRANCH  18  19
ENDBRANCH  11  18
ENDBRANCH   1   7
BRANCH   2  23
HETATM   23  O9  UNL     1       1.456  45.952 -52.634  1.00  0.00    -0.239 OA
BRANCH  23  24
HETATM   24  P3  UNL     1       1.948  45.407 -54.180  1.00  0.00     0.427 P 
HETATM   25  O10 UNL     1       0.901  45.678 -55.233  1.00  0.00    -0.617 OA
HETATM   26  O11 UNL     1       3.332  46.296 -54.646  1.00  0.00    -0.617 OA
HETATM   27  O12 UNL     1       2.332  43.754 -54.149  1.00  0.00    -0.617 OA
ENDBRANCH  23  24
ENDBRANCH   2  23
BRANCH   6  28
HETATM   28  O17 UNL     1       3.913  48.998 -49.967  1.00  0.00    -0.239 OA
BRANCH  28  29
HETATM   29  P5  UNL     1       3.621  49.764 -48.473  1.00  0.00     0.427 P 
HETATM   30  O18 UNL     1       4.914  50.383 -48.004  1.00  0.00    -0.617 OA
HETATM   31  O19 UNL     1       2.415  50.940 -48.547  1.00  0.00    -0.617 OA
HETATM   32  O20 UNL     1       3.155  48.645 -47.274  1.00  0.00    -0.617 OA
ENDBRANCH  28  29
ENDBRANCH   6  28
BRANCH   4  33
HETATM   33  O13 UNL     1       0.589  50.704 -53.018  1.00  0.00    -0.240 OA
BRANCH  33  34
HETATM   34  P4  UNL     1      -0.853  51.207 -52.203  1.00  0.00     0.427 P 
HETATM   35  O14 UNL     1      -0.479  51.679 -50.837  1.00  0.00    -0.617 OA
HETATM   36  O15 UNL     1      -1.868  49.830 -52.057  1.00  0.00    -0.617 OA
HETATM   37  O16 UNL     1      -1.625  52.350 -53.138  1.00  0.00    -0.617 OA
ENDBRANCH  33  34
ENDBRANCH   4  33
TORSDOF 11
ENDMDL
