MODEL 2
REMARK VINA RESULT: -7.995159794      0.204      4.174
REMARK  11 active torsions:
REMARK  status: ('A' for Active; 'I' for Inactive)
REMARK    1  A    between atoms: P1_2  and  O4_5 
REMARK    2  A    between atoms: O4_5  and  C1_6 
REMARK    3  A    between atoms: C3_8  and  O5_9 
REMARK    4  A    between atoms: O5_9  and  P2_10 
REMARK    5  A    between atoms: C5_15  and  C6_16 
REMARK    6  A    between atoms: C7_17  and  O9_18 
REMARK    7  A    between atoms: O9_18  and  P3_19 
REMARK    8  A    between atoms: C9_24  and  O13_25 
REMARK    9  A    between atoms: O13_25  and  P4_26 
REMARK   10  A    between atoms: C11_31  and  O17_32 
REMARK   11  A    between atoms: O17_32  and  P5_33 
ROOT
HETATM    1  C6  UNL     1       2.616  47.387 -51.407  1.00  0.00     0.043 A 
HETATM    2  C7  UNL     1       2.926  48.661 -50.980  1.00  0.00     0.099 A 
HETATM    3  C8  UNL     1       2.250  49.726 -51.525  1.00  0.00     0.076 A 
HETATM    4  C9  UNL     1       1.275  49.578 -52.480  1.00  0.00     0.088 A 
HETATM    5  C10 UNL     1       0.977  48.274 -52.897  1.00  0.00     0.076 A 
HETATM    6  C11 UNL     1       1.638  47.183 -52.368  1.00  0.00     0.099 A 
ENDROOT
BRANCH   1   7
HETATM    7  C5  UNL     1       3.343  46.275 -50.811  1.00  0.00    -0.015 A 
HETATM    8  C4  UNL     1       4.588  45.846 -51.217  1.00  0.00     0.050 A 
HETATM    9  C3  UNL     1       5.219  44.758 -50.603  1.00  0.00     0.086 A 
HETATM   10  C2  UNL     1       4.609  44.082 -49.573  1.00  0.00     0.074 A 
HETATM   11  C1  UNL     1       3.363  44.513 -49.171  1.00  0.00     0.086 A 
HETATM   12  C12 UNL     1       2.726  45.587 -49.765  1.00  0.00     0.050 A 
BRANCH   9  13
HETATM   13  O5  UNL     1       6.460  44.394 -51.063  1.00  0.00    -0.240 OA
BRANCH  13  14
HETATM   14  P2  UNL     1       7.504  43.305 -50.294  1.00  0.00     0.427 P 
HETATM   15  O6  UNL     1       8.760  43.203 -51.158  1.00  0.00    -0.617 OA
HETATM   16  O7  UNL     1       7.982  43.990 -48.816  1.00  0.00    -0.617 OA
HETATM   17  O8  UNL     1       6.892  41.770 -50.085  1.00  0.00    -0.617 OA
ENDBRANCH  13  14
ENDBRANCH   9  13
BRANCH  11  18
HETATM   18  O4  UNL     1       2.759  43.801 -48.116  1.00  0.00    -0.240 OA
BRANCH  18  19
HETATM   19  P1  UNL     1       1.210  44.436 -47.648  1.00  0.00     0.427 P 
HETATM   20  O1  UNL     1       0.770  43.600 -46.442  1.00  0.00    -0.617 OA
HETATM   21  O2  UNL     1       1.308  46.036 -47.188  1.00  0.00    -0.617 OA
HETATM   22  O3  UNL     1       0.118  44.146 -48.880  1.00  0.00    -0.617 OA
ENDBRANCH  18  19
ENDBRANCH  11  18
ENDBRANCH   1   7
BRANCH   2  23
HETATM   23  O9  UNL     1       3.895  48.825 -50.027  1.00  0.00    -0.239 OA
BRANCH  23  24
HETATM   24  P3  UNL     1       3.488  49.550 -48.532  1.00  0.00     0.427 P 
HETATM   25  O10 UNL     1       3.145  48.522 -47.482  1.00  0.00    -0.617 OA
HETATM   26  O11 UNL     1       4.861  50.385 -47.949  1.00  0.00    -0.617 OA
HETATM   27  O12 UNL     1       2.205  50.646 -48.717  1.00  0.00    -0.617 OA
ENDBRANCH  23  24
ENDBRANCH   2  23
BRANCH   6  28
HETATM   28  O17 UNL     1       1.368  45.891 -52.755  1.00  0.00    -0.239 OA
BRANCH  28  29
HETATM   29  P5  UNL     1       1.880  45.226 -54.238  1.00  0.00     0.427 P 
HETATM   30  O18 UNL     1       2.526  43.893 -53.955  1.00  0.00    -0.617 OA
HETATM   31  O19 UNL     1       0.630  45.034 -55.353  1.00  0.00    -0.617 OA
HETATM   32  O20 UNL     1       3.069  46.194 -54.984  1.00  0.00    -0.617 OA
ENDBRANCH  28  29
ENDBRANCH   6  28
BRANCH   4  33
HETATM   33  O13 UNL     1       0.573  50.639 -53.053  1.00  0.00    -0.240 OA
BRANCH  33  34
HETATM   34  P4  UNL     1      -0.871  51.138 -52.238  1.00  0.00     0.427 P 
HETATM   35  O14 UNL     1      -1.476  52.267 -53.007  1.00  0.00    -0.617 OA
HETATM   36  O15 UNL     1      -0.415  51.706 -50.684  1.00  0.00    -0.617 OA
HETATM   37  O16 UNL     1      -1.868  49.816 -52.059  1.00  0.00    -0.617 OA
ENDBRANCH  33  34
ENDBRANCH   4  33
TORSDOF 11
ENDMDL
