MODEL 3
REMARK VINA RESULT: -7.730291498      1.922      7.804
REMARK  11 active torsions:
REMARK  status: ('A' for Active; 'I' for Inactive)
REMARK    1  A    between atoms: P1_2  and  O4_5 
REMARK    2  A    between atoms: O4_5  and  C1_6 
REMARK    3  A    between atoms: C3_8  and  O5_9 
REMARK    4  A    between atoms: O5_9  and  P2_10 
REMARK    5  A    between atoms: C5_15  and  C6_16 
REMARK    6  A    between atoms: C7_17  and  O9_18 
REMARK    7  A    between atoms: O9_18  and  P3_19 
REMARK    8  A    between atoms: C9_24  and  O13_25 
REMARK    9  A    between atoms: O13_25  and  P4_26 
REMARK   10  A    between atoms: C11_31  and  O17_32 
REMARK   11  A    between atoms: O17_32  and  P5_33 
ROOT
HETATM    1  C6  UNL     1       4.121  46.204 -51.057  1.00  0.00     0.043 A 
HETATM    2  C7  UNL     1       5.081  46.055 -52.036  1.00  0.00     0.099 A 
HETATM    3  C8  UNL     1       5.953  44.997 -51.954  1.00  0.00     0.076 A 
HETATM    4  C9  UNL     1       5.910  44.075 -50.938  1.00  0.00     0.088 A 
HETATM    5  C10 UNL     1       4.926  44.247 -49.956  1.00  0.00     0.076 A 
HETATM    6  C11 UNL     1       4.034  45.301 -50.010  1.00  0.00     0.099 A 
ENDROOT
BRANCH   1   7
HETATM    7  C5  UNL     1       3.206  47.332 -51.169  1.00  0.00    -0.015 A 
HETATM    8  C4  UNL     1       2.094  47.360 -51.982  1.00  0.00     0.050 A 
HETATM    9  C3  UNL     1       1.267  48.488 -52.047  1.00  0.00     0.086 A 
HETATM   10  C2  UNL     1       1.547  49.606 -51.297  1.00  0.00     0.074 A 
HETATM   11  C1  UNL     1       2.661  49.575 -50.487  1.00  0.00     0.086 A 
HETATM   12  C12 UNL     1       3.486  48.468 -50.409  1.00  0.00     0.050 A 
BRANCH   9  13
HETATM   13  O5  UNL     1       0.177  48.437 -52.878  1.00  0.00    -0.240 OA
BRANCH  13  14
HETATM   14  P2  UNL     1      -0.848  49.740 -53.223  1.00  0.00     0.427 P 
HETATM   15  O6  UNL     1      -1.729  49.318 -54.399  1.00  0.00    -0.617 OA
HETATM   16  O7  UNL     1      -1.882  49.962 -51.894  1.00  0.00    -0.617 OA
HETATM   17  O8  UNL     1      -0.074  51.155 -53.636  1.00  0.00    -0.617 OA
ENDBRANCH  13  14
ENDBRANCH   9  13
BRANCH  11  18
HETATM   18  O4  UNL     1       2.926  50.735 -49.733  1.00  0.00    -0.240 OA
BRANCH  18  19
HETATM   19  P1  UNL     1       3.012  50.445 -48.021  1.00  0.00     0.427 P 
HETATM   20  O1  UNL     1       2.791  51.810 -47.361  1.00  0.00    -0.617 OA
HETATM   21  O2  UNL     1       1.818  49.400 -47.508  1.00  0.00    -0.617 OA
HETATM   22  O3  UNL     1       4.562  49.952 -47.638  1.00  0.00    -0.617 OA
ENDBRANCH  18  19
ENDBRANCH  11  18
ENDBRANCH   1   7
BRANCH   2  23
HETATM   23  O9  UNL     1       5.135  46.965 -53.058  1.00  0.00    -0.239 OA
BRANCH  23  24
HETATM   24  P3  UNL     1       6.452  48.054 -53.142  1.00  0.00     0.427 P 
HETATM   25  O10 UNL     1       7.007  48.374 -51.775  1.00  0.00    -0.617 OA
HETATM   26  O11 UNL     1       7.720  47.295 -54.003  1.00  0.00    -0.617 OA
HETATM   27  O12 UNL     1       6.011  49.483 -53.943  1.00  0.00    -0.617 OA
ENDBRANCH  23  24
ENDBRANCH   2  23
BRANCH   6  28
HETATM   28  O17 UNL     1       3.056  45.496 -49.063  1.00  0.00    -0.239 OA
BRANCH  28  29
HETATM   29  P5  UNL     1       1.628  44.570 -48.981  1.00  0.00     0.427 P 
HETATM   30  O18 UNL     1       0.724  45.195 -47.948  1.00  0.00    -0.617 OA
HETATM   31  O19 UNL     1       0.820  44.452 -50.456  1.00  0.00    -0.617 OA
HETATM   32  O20 UNL     1       1.940  42.979 -48.454  1.00  0.00    -0.617 OA
ENDBRANCH  28  29
ENDBRANCH   6  28
BRANCH   4  33
HETATM   33  O13 UNL     1       6.782  42.992 -50.827  1.00  0.00    -0.240 OA
BRANCH  33  34
HETATM   34  P4  UNL     1       8.387  43.346 -50.282  1.00  0.00     0.427 P 
HETATM   35  O14 UNL     1       8.321  43.718 -48.837  1.00  0.00    -0.617 OA
HETATM   36  O15 UNL     1       8.948  44.697 -51.179  1.00  0.00    -0.617 OA
HETATM   37  O16 UNL     1       9.364  42.037 -50.611  1.00  0.00    -0.617 OA
ENDBRANCH  33  34
ENDBRANCH   4  33
TORSDOF 11
ENDMDL
