MODEL 3
REMARK VINA RESULT: -5.870086628      2.351     10.271
REMARK  17 active torsions:
REMARK  status: ('A' for Active; 'I' for Inactive)
REMARK    1  A    between atoms: O1_2  and  C2_3 
REMARK    2  A    between atoms: C4_5  and  O2_6 
REMARK    3  A    between atoms: C6_8  and  S1_9 
REMARK    4  A    between atoms: S1_9  and  N1_12 
REMARK    5  A    between atoms: N1_12  and  C7_14 
REMARK    6  A    between atoms: C7_14  and  C8_15 
REMARK    7  A    between atoms: C13_20  and  N2_21 
REMARK    8  A    between atoms: C16_24  and  C17_25 
REMARK    9  A    between atoms: C17_25  and  O5_26 
REMARK   10  A    between atoms: O5_26  and  C18_27 
REMARK   11  A    between atoms: C18_27  and  C19_29 
REMARK   12  A    between atoms: C19_29  and  C20_30 
REMARK   13  A    between atoms: C20_30  and  C21_31 
REMARK   14  A    between atoms: C25_37  and  N3_38 
REMARK       I    between atoms: N3_38  and  C26_40 
REMARK   15  A    between atoms: C26_40  and  C27_42 
REMARK   16  A    between atoms: C27_42  and  C28_43 
REMARK   17  A    between atoms: C28_43  and  C29_44 
ROOT
HETATM    1  N1  UNL     1      53.801  23.989 -20.420  1.00  0.00    -0.311 N 
ATOM      2  H1  UNL     1      53.323  24.815 -20.781  1.00  0.00     0.172 HD
ENDROOT
BRANCH   1   3
HETATM    3  S1  UNL     1      53.305  22.430 -20.847  1.00  0.00     0.261 S 
HETATM    4  O3  UNL     1      53.711  21.404 -19.796  1.00  0.00    -0.200 OA
HETATM    5  O4  UNL     1      51.784  22.435 -20.895  1.00  0.00    -0.200 OA
BRANCH   3   6
HETATM    6  C6  UNL     1      53.945  21.876 -22.367  1.00  0.00     0.115 A 
HETATM    7  C4  UNL     1      54.204  22.735 -23.401  1.00  0.00     0.094 A 
HETATM    8  C3  UNL     1      54.781  22.259 -24.581  1.00  0.00     0.077 A 
HETATM    9  C2  UNL     1      55.100  20.938 -24.742  1.00  0.00     0.097 A 
HETATM   10  C25 UNL     1      54.832  20.051 -23.681  1.00  0.00     0.070 A 
HETATM   11  C24 UNL     1      54.269  20.511 -22.524  1.00  0.00     0.060 A 
BRANCH   7  12
HETATM   12  O2  UNL     1      53.893  24.079 -23.295  1.00  0.00    -0.354 OA
HETATM   13  C5  UNL     1      54.757  25.030 -23.895  1.00  0.00     0.210 C 
ENDBRANCH   7  12
BRANCH   9  14
HETATM   14  O1  UNL     1      55.672  20.464 -25.913  1.00  0.00    -0.354 OA
HETATM   15  C1  UNL     1      55.284  21.056 -27.137  1.00  0.00     0.210 C 
ENDBRANCH   9  14
BRANCH  10  16
HETATM   16  N3  UNL     1      55.191  18.700 -23.922  1.00  0.00    -0.325 N 
HETATM   17  C26 UNL     1      56.282  18.060 -23.308  1.00  0.00     0.222 C 
HETATM   18  O9  UNL     1      57.034  18.604 -22.500  1.00  0.00    -0.273 OA
ATOM     19  H3  UNL     1      54.626  18.162 -24.579  1.00  0.00     0.169 HD
BRANCH  17  20
HETATM   20  C27 UNL     1      56.568  16.619 -23.643  1.00  0.00     0.113 C 
BRANCH  20  21
HETATM   21  C28 UNL     1      56.708  16.459 -25.128  1.00  0.00     0.122 C 
BRANCH  21  22
HETATM   22  C29 UNL     1      55.795  15.387 -25.622  1.00  0.00     0.172 C 
HETATM   23  O10 UNL     1      56.252  14.245 -25.828  1.00  0.00    -0.648 OA
HETATM   24  O11 UNL     1      54.456  15.630 -25.858  1.00  0.00    -0.648 OA
ENDBRANCH  21  22
ENDBRANCH  20  21
ENDBRANCH  17  20
ENDBRANCH  10  16
ENDBRANCH   3   6
ENDBRANCH   1   3
BRANCH   1  25
HETATM   25  C7  UNL     1      54.920  24.106 -19.528  1.00  0.00     0.173 C 
BRANCH  25  26
HETATM   26  C8  UNL     1      55.417  25.507 -19.451  1.00  0.00    -0.013 A 
HETATM   27  C9  UNL     1      56.013  26.076 -20.545  1.00  0.00     0.011 A 
HETATM   28  C10 UNL     1      56.444  27.386 -20.431  1.00  0.00     0.001 A 
HETATM   29  C11 UNL     1      56.281  28.101 -19.255  1.00  0.00     0.002 A 
HETATM   30  C12 UNL     1      55.681  27.515 -18.164  1.00  0.00     0.030 A 
HETATM   31  C13 UNL     1      55.240  26.189 -18.266  1.00  0.00     0.038 A 
BRANCH  31  32
HETATM   32  N2  UNL     1      54.652  25.589 -17.139  1.00  0.00    -0.380 N 
HETATM   33  C14 UNL     1      53.215  25.436 -16.921  1.00  0.00     0.123 C 
HETATM   34  C15 UNL     1      52.846  24.027 -16.613  1.00  0.00     0.026 C 
HETATM   35  C16 UNL     1      54.061  23.076 -16.675  1.00  0.00     0.013 C 
HETATM   36  C22 UNL     1      55.130  23.638 -15.836  1.00  0.00     0.026 C 
HETATM   37  C23 UNL     1      55.481  25.072 -16.079  1.00  0.00     0.123 C 
BRANCH  35  38
HETATM   38  C17 UNL     1      53.623  21.680 -16.460  1.00  0.00     0.183 C 
BRANCH  38  39
HETATM   39  O5  UNL     1      54.492  20.639 -16.558  1.00  0.00    -0.321 OA
BRANCH  39  40
HETATM   40  C18 UNL     1      55.575  20.254 -15.850  1.00  0.00     0.259 C 
HETATM   41  O6  UNL     1      56.580  19.860 -16.483  1.00  0.00    -0.265 OA
BRANCH  40  42
HETATM   42  C19 UNL     1      55.686  20.259 -14.368  1.00  0.00     0.121 C 
BRANCH  42  43
HETATM   43  C20 UNL     1      54.896  19.172 -13.725  1.00  0.00     0.123 C 
BRANCH  43  44
HETATM   44  C21 UNL     1      55.728  18.123 -13.116  1.00  0.00     0.172 C 
HETATM   45  O7  UNL     1      56.882  18.388 -12.732  1.00  0.00    -0.648 OA
HETATM   46  O8  UNL     1      55.232  16.846 -12.970  1.00  0.00    -0.648 OA
ENDBRANCH  43  44
ENDBRANCH  42  43
ENDBRANCH  40  42
ENDBRANCH  39  40
ENDBRANCH  38  39
ENDBRANCH  35  38
ENDBRANCH  31  32
ENDBRANCH  25  26
ENDBRANCH   1  25
TORSDOF 17
ENDMDL
