MODEL 2
REMARK VINA RESULT: -5.944139837      2.357     10.538
REMARK  17 active torsions:
REMARK  status: ('A' for Active; 'I' for Inactive)
REMARK    1  A    between atoms: O1_2  and  C2_3 
REMARK    2  A    between atoms: C4_5  and  O2_6 
REMARK    3  A    between atoms: C6_8  and  S1_9 
REMARK    4  A    between atoms: S1_9  and  N1_12 
REMARK    5  A    between atoms: N1_12  and  C7_14 
REMARK    6  A    between atoms: C7_14  and  C8_15 
REMARK    7  A    between atoms: C13_20  and  N2_21 
REMARK    8  A    between atoms: C16_24  and  C17_25 
REMARK    9  A    between atoms: C17_25  and  O5_26 
REMARK   10  A    between atoms: O5_26  and  C18_27 
REMARK   11  A    between atoms: C18_27  and  C19_29 
REMARK   12  A    between atoms: C19_29  and  C20_30 
REMARK   13  A    between atoms: C20_30  and  C21_31 
REMARK   14  A    between atoms: C25_37  and  N3_38 
REMARK       I    between atoms: N3_38  and  C26_40 
REMARK   15  A    between atoms: C26_40  and  C27_42 
REMARK   16  A    between atoms: C27_42  and  C28_43 
REMARK   17  A    between atoms: C28_43  and  C29_44 
ROOT
HETATM    1  N1  UNL     1      54.442  24.875 -21.797  1.00  0.00    -0.311 N 
ATOM      2  H1  UNL     1      53.653  25.523 -21.785  1.00  0.00     0.172 HD
ENDROOT
BRANCH   1   3
HETATM    3  S1  UNL     1      54.858  24.024 -23.197  1.00  0.00     0.261 S 
HETATM    4  O3  UNL     1      54.402  24.754 -24.455  1.00  0.00    -0.200 OA
HETATM    5  O4  UNL     1      56.377  23.955 -23.252  1.00  0.00    -0.200 OA
BRANCH   3   6
HETATM    6  C6  UNL     1      54.189  22.419 -23.275  1.00  0.00     0.115 A 
HETATM    7  C4  UNL     1      52.852  22.182 -23.104  1.00  0.00     0.094 A 
HETATM    8  C3  UNL     1      52.345  20.887 -23.242  1.00  0.00     0.077 A 
HETATM    9  C2  UNL     1      53.156  19.828 -23.545  1.00  0.00     0.097 A 
HETATM   10  C25 UNL     1      54.534  20.068 -23.719  1.00  0.00     0.070 A 
HETATM   11  C24 UNL     1      55.035  21.333 -23.587  1.00  0.00     0.060 A 
BRANCH   7  12
HETATM   12  O2  UNL     1      51.988  23.216 -22.787  1.00  0.00    -0.354 OA
HETATM   13  C5  UNL     1      51.185  23.104 -21.624  1.00  0.00     0.210 C 
ENDBRANCH   7  12
BRANCH   9  14
HETATM   14  O1  UNL     1      52.655  18.542 -23.682  1.00  0.00    -0.354 OA
HETATM   15  C1  UNL     1      51.427  18.370 -24.362  1.00  0.00     0.210 C 
ENDBRANCH   9  14
BRANCH  10  16
HETATM   16  N3  UNL     1      55.308  18.922 -24.033  1.00  0.00    -0.325 N 
HETATM   17  C26 UNL     1      56.019  18.174 -23.078  1.00  0.00     0.222 C 
HETATM   18  O9  UNL     1      56.043  18.436 -21.876  1.00  0.00    -0.273 OA
ATOM     19  H3  UNL     1      55.351  18.623 -25.007  1.00  0.00     0.169 HD
BRANCH  17  20
HETATM   20  C27 UNL     1      56.808  16.973 -23.530  1.00  0.00     0.113 C 
BRANCH  20  21
HETATM   21  C28 UNL     1      56.297  16.497 -24.857  1.00  0.00     0.122 C 
BRANCH  21  22
HETATM   22  C29 UNL     1      57.436  16.158 -25.760  1.00  0.00     0.172 C 
HETATM   23  O10 UNL     1      58.037  17.075 -26.355  1.00  0.00    -0.648 OA
HETATM   24  O11 UNL     1      57.841  14.851 -25.952  1.00  0.00    -0.648 OA
ENDBRANCH  21  22
ENDBRANCH  20  21
ENDBRANCH  17  20
ENDBRANCH  10  16
ENDBRANCH   3   6
ENDBRANCH   1   3
BRANCH   1  25
HETATM   25  C7  UNL     1      55.240  24.652 -20.625  1.00  0.00     0.173 C 
BRANCH  25  26
HETATM   26  C8  UNL     1      55.508  25.919 -19.892  1.00  0.00    -0.013 A 
HETATM   27  C9  UNL     1      55.698  27.080 -20.593  1.00  0.00     0.011 A 
HETATM   28  C10 UNL     1      55.926  28.237 -19.868  1.00  0.00     0.001 A 
HETATM   29  C11 UNL     1      55.964  28.225 -18.483  1.00  0.00     0.002 A 
HETATM   30  C12 UNL     1      55.772  27.050 -17.793  1.00  0.00     0.030 A 
HETATM   31  C13 UNL     1      55.540  25.872 -18.515  1.00  0.00     0.038 A 
BRANCH  31  32
HETATM   32  N2  UNL     1      55.371  24.671 -17.804  1.00  0.00    -0.380 N 
HETATM   33  C14 UNL     1      56.436  23.720 -17.495  1.00  0.00     0.123 C 
HETATM   34  C15 UNL     1      56.491  23.399 -16.043  1.00  0.00     0.026 C 
HETATM   35  C16 UNL     1      55.460  24.206 -15.224  1.00  0.00     0.013 C 
HETATM   36  C22 UNL     1      54.140  24.037 -15.850  1.00  0.00     0.026 C 
HETATM   37  C23 UNL     1      54.066  24.292 -17.323  1.00  0.00     0.123 C 
BRANCH  35  38
HETATM   38  C17 UNL     1      55.624  23.923 -13.782  1.00  0.00     0.183 C 
BRANCH  38  39
HETATM   39  O5  UNL     1      54.970  22.893 -13.181  1.00  0.00    -0.321 OA
BRANCH  39  40
HETATM   40  C18 UNL     1      55.165  21.558 -13.140  1.00  0.00     0.259 C 
HETATM   41  O6  UNL     1      55.907  21.101 -12.242  1.00  0.00    -0.265 OA
BRANCH  40  42
HETATM   42  C19 UNL     1      54.570  20.567 -14.075  1.00  0.00     0.121 C 
BRANCH  42  43
HETATM   43  C20 UNL     1      55.560  20.020 -15.045  1.00  0.00     0.123 C 
BRANCH  43  44
HETATM   44  C21 UNL     1      55.190  20.245 -16.451  1.00  0.00     0.172 C 
HETATM   45  O7  UNL     1      56.035  20.084 -17.350  1.00  0.00    -0.648 OA
HETATM   46  O8  UNL     1      53.908  20.634 -16.774  1.00  0.00    -0.648 OA
ENDBRANCH  43  44
ENDBRANCH  42  43
ENDBRANCH  40  42
ENDBRANCH  39  40
ENDBRANCH  38  39
ENDBRANCH  35  38
ENDBRANCH  31  32
ENDBRANCH  25  26
ENDBRANCH   1  25
TORSDOF 17
ENDMDL
