MODEL 1
REMARK VINA RESULT: -5.989414908      0.000      0.000
REMARK  17 active torsions:
REMARK  status: ('A' for Active; 'I' for Inactive)
REMARK    1  A    between atoms: O1_2  and  C2_3 
REMARK    2  A    between atoms: C4_5  and  O2_6 
REMARK    3  A    between atoms: C6_8  and  S1_9 
REMARK    4  A    between atoms: S1_9  and  N1_12 
REMARK    5  A    between atoms: N1_12  and  C7_14 
REMARK    6  A    between atoms: C7_14  and  C8_15 
REMARK    7  A    between atoms: C13_20  and  N2_21 
REMARK    8  A    between atoms: C16_24  and  C17_25 
REMARK    9  A    between atoms: C17_25  and  O5_26 
REMARK   10  A    between atoms: O5_26  and  C18_27 
REMARK   11  A    between atoms: C18_27  and  C19_29 
REMARK   12  A    between atoms: C19_29  and  C20_30 
REMARK   13  A    between atoms: C20_30  and  C21_31 
REMARK   14  A    between atoms: C25_37  and  N3_38 
REMARK       I    between atoms: N3_38  and  C26_40 
REMARK   15  A    between atoms: C26_40  and  C27_42 
REMARK   16  A    between atoms: C27_42  and  C28_43 
REMARK   17  A    between atoms: C28_43  and  C29_44 
ROOT
HETATM    1  N1  UNL     1      54.168  21.250 -22.956  1.00  0.00    -0.311 N 
ATOM      2  H1  UNL     1      54.924  21.900 -23.173  1.00  0.00     0.172 HD
ENDROOT
BRANCH   1   3
HETATM    3  S1  UNL     1      53.058  21.576 -21.723  1.00  0.00     0.261 S 
HETATM    4  O3  UNL     1      52.010  22.591 -22.164  1.00  0.00    -0.200 OA
HETATM    5  O4  UNL     1      52.318  20.280 -21.424  1.00  0.00    -0.200 OA
BRANCH   3   6
HETATM    6  C6  UNL     1      53.780  22.196 -20.266  1.00  0.00     0.115 A 
HETATM    7  C4  UNL     1      54.447  23.391 -20.240  1.00  0.00     0.094 A 
HETATM    8  C3  UNL     1      54.953  23.886 -19.034  1.00  0.00     0.077 A 
HETATM    9  C2  UNL     1      54.804  23.202 -17.859  1.00  0.00     0.097 A 
HETATM   10  C25 UNL     1      54.120  21.970 -17.884  1.00  0.00     0.070 A 
HETATM   11  C24 UNL     1      53.621  21.482 -19.058  1.00  0.00     0.060 A 
BRANCH   7  12
HETATM   12  O2  UNL     1      54.634  24.119 -21.401  1.00  0.00    -0.354 OA
HETATM   13  C5  UNL     1      55.357  25.337 -21.336  1.00  0.00     0.210 C 
ENDBRANCH   7  12
BRANCH   9  14
HETATM   14  O1  UNL     1      55.306  23.691 -16.663  1.00  0.00    -0.354 OA
HETATM   15  C1  UNL     1      56.705  23.655 -16.458  1.00  0.00     0.210 C 
ENDBRANCH   9  14
BRANCH  10  16
HETATM   16  N3  UNL     1      54.004  21.323 -16.627  1.00  0.00    -0.325 N 
HETATM   17  C26 UNL     1      54.924  20.372 -16.151  1.00  0.00     0.222 C 
HETATM   18  O9  UNL     1      55.919  20.005 -16.773  1.00  0.00    -0.273 OA
ATOM     19  H3  UNL     1      53.209  21.562 -16.034  1.00  0.00     0.169 HD
BRANCH  17  20
HETATM   20  C27 UNL     1      54.697  19.750 -14.797  1.00  0.00     0.113 C 
BRANCH  20  21
HETATM   21  C28 UNL     1      55.642  20.347 -13.797  1.00  0.00     0.122 C 
BRANCH  21  22
HETATM   22  C29 UNL     1      56.001  19.338 -12.757  1.00  0.00     0.172 C 
HETATM   23  O10 UNL     1      56.017  19.678 -11.558  1.00  0.00    -0.648 OA
HETATM   24  O11 UNL     1      56.318  18.036 -13.093  1.00  0.00    -0.648 OA
ENDBRANCH  21  22
ENDBRANCH  20  21
ENDBRANCH  17  20
ENDBRANCH  10  16
ENDBRANCH   3   6
ENDBRANCH   1   3
BRANCH   1  25
HETATM   25  C7  UNL     1      54.006  20.024 -23.684  1.00  0.00     0.173 C 
BRANCH  25  26
HETATM   26  C8  UNL     1      55.102  19.062 -23.392  1.00  0.00    -0.013 A 
HETATM   27  C9  UNL     1      55.482  18.841 -22.095  1.00  0.00     0.011 A 
HETATM   28  C10 UNL     1      56.494  17.924 -21.870  1.00  0.00     0.001 A 
HETATM   29  C11 UNL     1      57.105  17.251 -22.917  1.00  0.00     0.002 A 
HETATM   30  C12 UNL     1      56.713  17.485 -24.215  1.00  0.00     0.030 A 
HETATM   31  C13 UNL     1      55.689  18.411 -24.456  1.00  0.00     0.038 A 
BRANCH  31  32
HETATM   32  N2  UNL     1      55.312  18.664 -25.787  1.00  0.00    -0.380 N 
HETATM   33  C14 UNL     1      55.615  19.885 -26.529  1.00  0.00     0.123 C 
HETATM   34  C15 UNL     1      56.275  19.595 -27.830  1.00  0.00     0.026 C 
HETATM   35  C16 UNL     1      56.540  18.087 -28.031  1.00  0.00     0.013 C 
HETATM   36  C22 UNL     1      55.282  17.363 -27.797  1.00  0.00     0.026 C 
HETATM   37  C23 UNL     1      54.560  17.679 -26.524  1.00  0.00     0.123 C 
BRANCH  35  38
HETATM   38  C17 UNL     1      57.284  17.867 -29.290  1.00  0.00     0.183 C 
BRANCH  38  39
HETATM   39  O5  UNL     1      58.440  17.149 -29.316  1.00  0.00    -0.321 OA
BRANCH  39  40
HETATM   40  C18 UNL     1      59.151  16.488 -28.379  1.00  0.00     0.259 C 
HETATM   41  O6  UNL     1      60.153  17.058 -27.893  1.00  0.00    -0.265 OA
BRANCH  40  42
HETATM   42  C19 UNL     1      58.848  15.128 -27.862  1.00  0.00     0.121 C 
BRANCH  42  43
HETATM   43  C20 UNL     1      58.127  15.152 -26.559  1.00  0.00     0.123 C 
BRANCH  43  44
HETATM   44  C21 UNL     1      57.045  14.159 -26.468  1.00  0.00     0.172 C 
HETATM   45  O7  UNL     1      57.181  13.041 -26.998  1.00  0.00    -0.648 OA
HETATM   46  O8  UNL     1      55.881  14.465 -25.798  1.00  0.00    -0.648 OA
ENDBRANCH  43  44
ENDBRANCH  42  43
ENDBRANCH  40  42
ENDBRANCH  39  40
ENDBRANCH  38  39
ENDBRANCH  35  38
ENDBRANCH  31  32
ENDBRANCH  25  26
ENDBRANCH   1  25
TORSDOF 17
ENDMDL
