MODEL 3
REMARK VINA RESULT: -4.647516702      1.478      1.854
REMARK  6 active torsions:
REMARK  status: ('A' for Active; 'I' for Inactive)
REMARK       I    between atoms: C2_2  and  N1_4 
REMARK    1  A    between atoms: N1_4  and  C3_6 
REMARK    2  A    between atoms: C4_7  and  O2_8 
REMARK    3  A    between atoms: C5_11  and  C6_12 
REMARK    4  A    between atoms: C6_12  and  O4_13 
REMARK    5  A    between atoms: C7_15  and  O5_16 
REMARK    6  A    between atoms: C8_18  and  O6_19 
ROOT
HETATM    1  C3  UNL     1     -25.636  -9.833 -22.919  1.00  0.00     0.170 C 
HETATM    2  C4  UNL     1     -25.904  -9.695 -24.376  1.00  0.00     0.282 C 
HETATM    3  O3  UNL     1     -26.974  -8.946 -24.739  1.00  0.00    -0.349 OA
HETATM    4  C5  UNL     1     -27.248  -7.833 -24.008  1.00  0.00     0.179 C 
HETATM    5  C7  UNL     1     -26.205  -7.465 -22.995  1.00  0.00     0.180 C 
HETATM    6  C8  UNL     1     -26.078  -8.673 -22.084  1.00  0.00     0.177 C 
ENDROOT
BRANCH   1   7
HETATM    7  N1  UNL     1     -26.154 -11.091 -22.409  1.00  0.00    -0.349 N 
HETATM    8  C2  UNL     1     -25.692 -11.726 -21.237  1.00  0.00     0.214 C 
HETATM    9  C1  UNL     1     -26.244 -13.020 -20.736  1.00  0.00     0.117 C 
HETATM   10  O1  UNL     1     -24.777 -11.178 -20.587  1.00  0.00    -0.274 OA
ATOM     11  H1  UNL     1     -26.901 -11.546 -22.933  1.00  0.00     0.163 HD
ENDBRANCH   1   7
BRANCH   2  12
HETATM   12  O2  UNL     1     -24.738  -9.282 -25.060  1.00  0.00    -0.369 OA
ATOM     13  H2  UNL     1     -24.961  -8.734 -25.804  1.00  0.00     0.212 HD
ENDBRANCH   2  12
BRANCH   6  14
HETATM   14  O6  UNL     1     -25.227  -8.421 -21.013  1.00  0.00    -0.391 OA
ATOM     15  H6  UNL     1     -24.486  -7.877 -21.249  1.00  0.00     0.210 HD
ENDBRANCH   6  14
BRANCH   5  16
HETATM   16  O5  UNL     1     -24.989  -7.137 -23.546  1.00  0.00    -0.390 OA
ATOM     17  H5  UNL     1     -24.288  -7.732 -23.307  1.00  0.00     0.210 HD
ENDBRANCH   5  16
BRANCH   4  18
HETATM   18  C6  UNL     1     -27.598  -6.676 -24.919  1.00  0.00     0.198 C 
BRANCH  18  19
HETATM   19  O4  UNL     1     -27.323  -5.448 -24.324  1.00  0.00    -0.398 OA
ATOM     20  H4  UNL     1     -27.534  -4.722 -24.899  1.00  0.00     0.209 HD
ENDBRANCH  18  19
ENDBRANCH   4  18
TORSDOF 6
ENDMDL
