MODEL 2
REMARK VINA RESULT: -4.877224099      7.220      8.715
REMARK  6 active torsions:
REMARK  status: ('A' for Active; 'I' for Inactive)
REMARK       I    between atoms: C2_2  and  N1_4 
REMARK    1  A    between atoms: N1_4  and  C3_6 
REMARK    2  A    between atoms: C4_7  and  O2_8 
REMARK    3  A    between atoms: C5_11  and  C6_12 
REMARK    4  A    between atoms: C6_12  and  O4_13 
REMARK    5  A    between atoms: C7_15  and  O5_16 
REMARK    6  A    between atoms: C8_18  and  O6_19 
ROOT
HETATM    1  C3  UNL     1     -23.690  -2.956 -27.512  1.00  0.00     0.170 C 
HETATM    2  C4  UNL     1     -23.961  -1.498 -27.403  1.00  0.00     0.282 C 
HETATM    3  O3  UNL     1     -24.360  -1.033 -26.193  1.00  0.00    -0.349 OA
HETATM    4  C5  UNL     1     -23.801  -1.587 -25.084  1.00  0.00     0.179 C 
HETATM    5  C7  UNL     1     -22.659  -2.523 -25.347  1.00  0.00     0.180 C 
HETATM    6  C8  UNL     1     -23.221  -3.608 -26.249  1.00  0.00     0.177 C 
ENDROOT
BRANCH   1   7
HETATM    7  N1  UNL     1     -24.823  -3.658 -28.090  1.00  0.00    -0.349 N 
HETATM    8  C2  UNL     1     -24.807  -4.298 -29.347  1.00  0.00     0.214 C 
HETATM    9  C1  UNL     1     -25.989  -5.012 -29.916  1.00  0.00     0.117 C 
HETATM   10  O1  UNL     1     -23.753  -4.265 -30.017  1.00  0.00    -0.274 OA
ATOM     11  H1  UNL     1     -25.688  -3.690 -27.551  1.00  0.00     0.163 HD
ENDBRANCH   1   7
BRANCH   2  12
HETATM   12  O2  UNL     1     -22.871  -0.749 -27.902  1.00  0.00    -0.369 OA
ATOM     13  H2  UNL     1     -23.123  -0.270 -28.683  1.00  0.00     0.212 HD
ENDBRANCH   2  12
BRANCH   6  14
HETATM   14  O6  UNL     1     -22.295  -4.620 -26.472  1.00  0.00    -0.391 OA
ATOM     15  H6  UNL     1     -22.499  -5.148 -27.235  1.00  0.00     0.210 HD
ENDBRANCH   6  14
BRANCH   5  16
HETATM   16  O5  UNL     1     -21.570  -1.919 -25.928  1.00  0.00    -0.390 OA
ATOM     17  H5  UNL     1     -21.047  -2.504 -26.463  1.00  0.00     0.210 HD
ENDBRANCH   5  16
BRANCH   4  18
HETATM   18  C6  UNL     1     -23.444  -0.512 -24.079  1.00  0.00     0.198 C 
BRANCH  18  19
HETATM   19  O4  UNL     1     -23.695   0.764 -24.576  1.00  0.00    -0.398 OA
ATOM     20  H4  UNL     1     -23.035   1.033 -25.205  1.00  0.00     0.209 HD
ENDBRANCH  18  19
ENDBRANCH   4  18
TORSDOF 6
ENDMDL
