MODEL 1
REMARK VINA RESULT: -4.978411368      0.000      0.000
REMARK  6 active torsions:
REMARK  status: ('A' for Active; 'I' for Inactive)
REMARK       I    between atoms: C2_2  and  N1_4 
REMARK    1  A    between atoms: N1_4  and  C3_6 
REMARK    2  A    between atoms: C4_7  and  O2_8 
REMARK    3  A    between atoms: C5_11  and  C6_12 
REMARK    4  A    between atoms: C6_12  and  O4_13 
REMARK    5  A    between atoms: C7_15  and  O5_16 
REMARK    6  A    between atoms: C8_18  and  O6_19 
ROOT
HETATM    1  C3  UNL     1     -26.221  -9.103 -22.348  1.00  0.00     0.170 C 
HETATM    2  C4  UNL     1     -25.014  -8.709 -23.123  1.00  0.00     0.282 C 
HETATM    3  O3  UNL     1     -25.167  -8.535 -24.459  1.00  0.00    -0.349 OA
HETATM    4  C5  UNL     1     -26.325  -7.975 -24.897  1.00  0.00     0.179 C 
HETATM    5  C7  UNL     1     -27.220  -7.437 -23.821  1.00  0.00     0.180 C 
HETATM    6  C8  UNL     1     -27.519  -8.618 -22.913  1.00  0.00     0.177 C 
ENDROOT
BRANCH   1   7
HETATM    7  N1  UNL     1     -26.243 -10.534 -22.103  1.00  0.00    -0.349 N 
HETATM    8  C2  UNL     1     -25.655 -11.160 -20.984  1.00  0.00     0.214 C 
HETATM    9  C1  UNL     1     -25.693 -12.636 -20.758  1.00  0.00     0.117 C 
HETATM   10  O1  UNL     1     -25.073 -10.444 -20.141  1.00  0.00    -0.274 OA
ATOM     11  H1  UNL     1     -26.716 -11.126 -22.786  1.00  0.00     0.163 HD
ENDBRANCH   1   7
BRANCH   2  12
HETATM   12  O2  UNL     1     -24.385  -7.590 -22.532  1.00  0.00    -0.369 OA
ATOM     13  H2  UNL     1     -23.500  -7.488 -22.864  1.00  0.00     0.212 HD
ENDBRANCH   2  12
BRANCH   6  14
HETATM   14  O6  UNL     1     -28.449  -8.289 -21.933  1.00  0.00    -0.391 OA
ATOM     15  H6  UNL     1     -29.317  -8.132 -22.283  1.00  0.00     0.210 HD
ENDBRANCH   6  14
BRANCH   5  16
HETATM   16  O5  UNL     1     -26.668  -6.400 -23.108  1.00  0.00    -0.390 OA
ATOM     17  H5  UNL     1     -27.194  -6.121 -22.368  1.00  0.00     0.210 HD
ENDBRANCH   5  16
BRANCH   4  18
HETATM   18  C6  UNL     1     -26.040  -6.948 -25.974  1.00  0.00     0.198 C 
BRANCH  18  19
HETATM   19  O4  UNL     1     -24.999  -6.097 -25.614  1.00  0.00    -0.398 OA
ATOM     20  H4  UNL     1     -25.320  -5.252 -25.320  1.00  0.00     0.209 HD
ENDBRANCH  18  19
ENDBRANCH   4  18
TORSDOF 6
ENDMDL
