MODEL 3
REMARK VINA RESULT: -4.993746661      1.170      2.071
REMARK  2 active torsions:
REMARK  status: ('A' for Active; 'I' for Inactive)
REMARK    1  A    between atoms: N1_1  and  C1_5 
REMARK    2  A    between atoms: C1_5  and  C2_6 
ROOT
HETATM    1  C2  UNL     1       1.677 -14.789  17.710  1.00  0.00    -0.032 A 
HETATM    2  C3  UNL     1       1.904 -13.447  17.925  1.00  0.00     0.011 A 
HETATM    3  C4  UNL     1       1.604 -12.503  16.960  1.00  0.00     0.039 A 
HETATM    4  C5  UNL     1       1.059 -12.878  15.734  1.00  0.00     0.085 A 
HETATM    5  O1  UNL     1       0.685 -12.222  14.662  1.00  0.00    -0.322 OA
HETATM    6  C6  UNL     1       0.225 -13.038  13.752  1.00  0.00     0.143 A 
HETATM    7  C7  UNL     1       0.288 -14.320  14.226  1.00  0.00     0.039 A 
HETATM    8  C8  UNL     1       0.831 -14.201  15.510  1.00  0.00     0.000 A 
HETATM    9  C9  UNL     1       1.136 -15.137  16.487  1.00  0.00     0.023 A 
ENDROOT
BRANCH   1  10
HETATM   10  C1  UNL     1       2.006 -15.798  18.762  1.00  0.00     0.268 C 
BRANCH  10  11
HETATM   11  N1  UNL     1       2.147 -15.136  20.062  1.00  0.00    -0.075 N 
ATOM     12  H13 UNL     1       2.676 -14.267  19.994  1.00  0.00     0.274 HD
ATOM     13  H12 UNL     1       1.264 -14.745  20.391  1.00  0.00     0.274 HD
ATOM     14  H11 UNL     1       2.556 -15.781  20.738  1.00  0.00     0.274 HD
ENDBRANCH  10  11
ENDBRANCH   1  10
TORSDOF 2
ENDMDL
