MODEL 18
REMARK VINA RESULT: -4.159524370      2.785      4.278
REMARK  2 active torsions:
REMARK  status: ('A' for Active; 'I' for Inactive)
REMARK    1  A    between atoms: N1_1  and  C1_5 
REMARK    2  A    between atoms: C1_5  and  C2_6 
ROOT
HETATM    1  C2  UNL     1      -0.441 -10.234  15.560  1.00  0.00    -0.032 A 
HETATM    2  C3  UNL     1      -0.868 -10.374  14.257  1.00  0.00     0.011 A 
HETATM    3  C4  UNL     1      -0.579 -11.511  13.524  1.00  0.00     0.039 A 
HETATM    4  C5  UNL     1       0.154 -12.556  14.080  1.00  0.00     0.085 A 
HETATM    5  O1  UNL     1       0.566 -13.720  13.636  1.00  0.00    -0.322 OA
HETATM    6  C6  UNL     1       1.237 -14.360  14.556  1.00  0.00     0.143 A 
HETATM    7  C7  UNL     1       1.286 -13.594  15.690  1.00  0.00     0.039 A 
HETATM    8  C8  UNL     1       0.582 -12.429  15.366  1.00  0.00     0.000 A 
HETATM    9  C9  UNL     1       0.285 -11.283  16.090  1.00  0.00     0.023 A 
ENDROOT
BRANCH   1  10
HETATM   10  C1  UNL     1      -0.760  -9.000  16.340  1.00  0.00     0.268 C 
BRANCH  10  11
HETATM   11  N1  UNL     1      -1.377  -9.363  17.619  1.00  0.00    -0.075 N 
ATOM     12  H13 UNL     1      -2.357  -9.622  17.511  1.00  0.00     0.274 HD
ATOM     13  H12 UNL     1      -1.027 -10.254  17.974  1.00  0.00     0.274 HD
ATOM     14  H11 UNL     1      -1.252  -8.607  18.292  1.00  0.00     0.274 HD
ENDBRANCH  10  11
ENDBRANCH   1  10
TORSDOF 2
ENDMDL
