MODEL 20
REMARK VINA RESULT: -4.097072100      2.975      4.332
REMARK  2 active torsions:
REMARK  status: ('A' for Active; 'I' for Inactive)
REMARK    1  A    between atoms: N1_1  and  C1_5 
REMARK    2  A    between atoms: C1_5  and  C2_6 
ROOT
HETATM    1  C2  UNL     1       0.767 -12.247  13.699  1.00  0.00    -0.032 A 
HETATM    2  C3  UNL     1       1.346 -11.451  12.734  1.00  0.00     0.011 A 
HETATM    3  C4  UNL     1       0.661 -10.388  12.171  1.00  0.00     0.039 A 
HETATM    4  C5  UNL     1      -0.640 -10.086  12.563  1.00  0.00     0.085 A 
HETATM    5  O1  UNL     1      -1.509  -9.167  12.213  1.00  0.00    -0.322 OA
HETATM    6  C6  UNL     1      -2.623  -9.300  12.881  1.00  0.00     0.143 A 
HETATM    7  C7  UNL     1      -2.512 -10.366  13.733  1.00  0.00     0.039 A 
HETATM    8  C8  UNL     1      -1.223 -10.865  13.515  1.00  0.00     0.000 A 
HETATM    9  C9  UNL     1      -0.525 -11.927  14.071  1.00  0.00     0.023 A 
ENDROOT
BRANCH   1  10
HETATM   10  C1  UNL     1       1.518 -13.391  14.297  1.00  0.00     0.268 C 
BRANCH  10  11
HETATM   11  N1  UNL     1       1.350 -14.587  13.467  1.00  0.00    -0.075 N 
ATOM     12  H13 UNL     1       2.245 -14.973  13.167  1.00  0.00     0.274 HD
ATOM     13  H12 UNL     1       1.018 -15.386  14.009  1.00  0.00     0.274 HD
ATOM     14  H11 UNL     1       0.738 -14.379  12.678  1.00  0.00     0.274 HD
ENDBRANCH  10  11
ENDBRANCH   1  10
TORSDOF 2
ENDMDL
