MODEL 2
REMARK VINA RESULT: -5.291163831      2.837      4.258
REMARK  2 active torsions:
REMARK  status: ('A' for Active; 'I' for Inactive)
REMARK    1  A    between atoms: N1_1  and  C1_5 
REMARK    2  A    between atoms: C1_5  and  C2_6 
ROOT
HETATM    1  C2  UNL     1       1.187 -13.395  14.643  1.00  0.00    -0.032 A 
HETATM    2  C3  UNL     1       0.392 -14.494  14.398  1.00  0.00     0.011 A 
HETATM    3  C4  UNL     1       0.251 -15.503  15.334  1.00  0.00     0.039 A 
HETATM    4  C5  UNL     1       0.909 -15.441  16.559  1.00  0.00     0.085 A 
HETATM    5  O1  UNL     1       0.961 -16.228  17.608  1.00  0.00    -0.322 OA
HETATM    6  C6  UNL     1       1.736 -15.724  18.531  1.00  0.00     0.143 A 
HETATM    7  C7  UNL     1       2.240 -14.531  18.092  1.00  0.00     0.039 A 
HETATM    8  C8  UNL     1       1.697 -14.361  16.813  1.00  0.00     0.000 A 
HETATM    9  C9  UNL     1       1.829 -13.356  15.866  1.00  0.00     0.023 A 
ENDROOT
BRANCH   1  10
HETATM   10  C1  UNL     1       1.330 -12.312  13.623  1.00  0.00     0.268 C 
BRANCH  10  11
HETATM   11  N1  UNL     1       0.018 -11.983  13.058  1.00  0.00    -0.075 N 
ATOM     12  H13 UNL     1      -0.737 -12.145  13.724  1.00  0.00     0.274 HD
ATOM     13  H12 UNL     1      -0.104 -10.977  12.936  1.00  0.00     0.274 HD
ATOM     14  H11 UNL     1      -0.123 -12.494  12.187  1.00  0.00     0.274 HD
ENDBRANCH  10  11
ENDBRANCH   1  10
TORSDOF 2
ENDMDL
