MODEL 7
REMARK VINA RESULT: -4.834644388      2.840      5.714
REMARK  3 active torsions:
REMARK  status: ('A' for Active; 'I' for Inactive)
REMARK    1  A    between atoms: N1_1  and  C1_5 
REMARK    2  A    between atoms: C1_5  and  C2_6 
REMARK    3  A    between atoms: C4_9  and  C5_10 
ROOT
HETATM    1  C2  UNL     1       1.448 -11.474  12.629  1.00  0.00     0.042 A 
HETATM    2  C3  UNL     1       2.156 -10.491  13.265  1.00  0.00     0.078 A 
HETATM    3  S1  UNL     1       2.433 -11.196  14.797  1.00  0.00    -0.081 SA
HETATM    4  C4  UNL     1       1.637 -12.688  14.536  1.00  0.00     0.091 A 
HETATM    5  N2  UNL     1       1.205 -12.568  13.303  1.00  0.00    -0.351 N 
ATOM      6  H2  UNL     1       0.681 -13.329  12.870  1.00  0.00     0.166 HD
ENDROOT
BRANCH   1   7
HETATM    7  C1  UNL     1       0.965 -11.297  11.203  1.00  0.00     0.286 C 
BRANCH   7   8
HETATM    8  N1  UNL     1       1.415 -12.412  10.392  1.00  0.00    -0.074 N 
ATOM      9  H13 UNL     1       2.166 -12.935  10.842  1.00  0.00     0.274 HD
ATOM     10  H12 UNL     1       0.722 -13.158  10.347  1.00  0.00     0.274 HD
ATOM     11  H11 UNL     1       1.680 -12.078   9.466  1.00  0.00     0.274 HD
ENDBRANCH   7   8
ENDBRANCH   1   7
BRANCH   4  12
HETATM   12  C5  UNL     1       1.478 -13.825  15.471  1.00  0.00     0.038 A 
HETATM   13  C6  UNL     1       0.716 -14.950  15.378  1.00  0.00     0.022 A 
HETATM   14  C7  UNL     1       0.783 -15.814  16.402  1.00  0.00     0.008 A 
HETATM   15  C8  UNL     1       1.599 -15.501  17.448  1.00  0.00     0.050 A 
HETATM   16  S2  UNL     1       2.261 -13.992  16.966  1.00  0.00    -0.099 SA
ENDBRANCH   4  12
TORSDOF 3
ENDMDL
