MODEL 5
REMARK VINA RESULT: -4.896476050      3.280      5.606
REMARK  3 active torsions:
REMARK  status: ('A' for Active; 'I' for Inactive)
REMARK    1  A    between atoms: N1_1  and  C1_5 
REMARK    2  A    between atoms: C1_5  and  C2_6 
REMARK    3  A    between atoms: C4_9  and  C5_10 
ROOT
HETATM    1  C2  UNL     1      -0.577 -11.072  13.383  1.00  0.00     0.042 A 
HETATM    2  C3  UNL     1       0.502 -10.898  12.559  1.00  0.00     0.078 A 
HETATM    3  S1  UNL     1       1.604 -12.047  13.180  1.00  0.00    -0.081 SA
HETATM    4  C4  UNL     1       0.632 -12.674  14.439  1.00  0.00     0.091 A 
HETATM    5  N2  UNL     1      -0.473 -11.978  14.320  1.00  0.00    -0.351 N 
ATOM      6  H2  UNL     1      -1.252 -12.143  14.958  1.00  0.00     0.166 HD
ENDROOT
BRANCH   1   7
HETATM    7  C1  UNL     1      -1.837 -10.246  13.213  1.00  0.00     0.286 C 
BRANCH   7   8
HETATM    8  N1  UNL     1      -2.942 -10.896  13.888  1.00  0.00    -0.074 N 
ATOM      9  H13 UNL     1      -2.877 -11.913  13.840  1.00  0.00     0.274 HD
ATOM     10  H12 UNL     1      -2.888 -10.793  14.901  1.00  0.00     0.274 HD
ATOM     11  H11 UNL     1      -3.825 -10.549  13.513  1.00  0.00     0.274 HD
ENDBRANCH   7   8
ENDBRANCH   1   7
BRANCH   4  12
HETATM   12  C5  UNL     1       0.960 -13.736  15.417  1.00  0.00     0.038 A 
HETATM   13  C6  UNL     1       0.584 -15.045  15.467  1.00  0.00     0.022 A 
HETATM   14  C7  UNL     1       1.051 -15.772  16.493  1.00  0.00     0.008 A 
HETATM   15  C8  UNL     1       1.860 -15.151  17.399  1.00  0.00     0.050 A 
HETATM   16  S2  UNL     1       1.947 -13.550  16.785  1.00  0.00    -0.099 SA
ENDBRANCH   4  12
TORSDOF 3
ENDMDL
