MODEL 2
REMARK VINA RESULT: -5.212214842      1.153      1.265
REMARK  3 active torsions:
REMARK  status: ('A' for Active; 'I' for Inactive)
REMARK    1  A    between atoms: N1_1  and  C1_5 
REMARK    2  A    between atoms: C1_5  and  C2_6 
REMARK    3  A    between atoms: C4_9  and  C5_10 
ROOT
HETATM    1  C2  UNL     1       1.765 -15.010  17.346  1.00  0.00     0.042 A 
HETATM    2  C3  UNL     1       1.192 -15.502  16.205  1.00  0.00     0.078 A 
HETATM    3  S1  UNL     1       1.499 -14.244  15.089  1.00  0.00    -0.081 SA
HETATM    4  C4  UNL     1       2.332 -13.178  16.135  1.00  0.00     0.091 A 
HETATM    5  N2  UNL     1       2.331 -13.833  17.271  1.00  0.00    -0.351 N 
ATOM      6  H2  UNL     1       2.771 -13.426  18.096  1.00  0.00     0.166 HD
ENDROOT
BRANCH   1   7
HETATM    7  C1  UNL     1       1.741 -15.799  18.640  1.00  0.00     0.286 C 
BRANCH   7   8
HETATM    8  N1  UNL     1       2.418 -15.050  19.681  1.00  0.00    -0.074 N 
ATOM      9  H13 UNL     1       3.014 -14.315  19.300  1.00  0.00     0.274 HD
ATOM     10  H12 UNL     1       1.775 -14.460  20.209  1.00  0.00     0.274 HD
ATOM     11  H11 UNL     1       2.934 -15.690  20.284  1.00  0.00     0.274 HD
ENDBRANCH   7   8
ENDBRANCH   1   7
BRANCH   4  12
HETATM   12  C5  UNL     1       2.907 -11.848  15.830  1.00  0.00     0.038 A 
HETATM   13  C6  UNL     1       3.025 -11.182  14.647  1.00  0.00     0.022 A 
HETATM   14  C7  UNL     1       3.601  -9.971  14.688  1.00  0.00     0.008 A 
HETATM   15  C8  UNL     1       4.021  -9.505  15.898  1.00  0.00     0.050 A 
HETATM   16  S2  UNL     1       3.594 -10.785  16.959  1.00  0.00    -0.099 SA
ENDBRANCH   4  12
TORSDOF 3
ENDMDL
