MODEL 11
REMARK VINA RESULT: -4.731956905      1.264      1.333
REMARK  3 active torsions:
REMARK  status: ('A' for Active; 'I' for Inactive)
REMARK    1  A    between atoms: N1_1  and  C1_5 
REMARK    2  A    between atoms: C1_5  and  C2_6 
REMARK    3  A    between atoms: C4_9  and  C5_10 
ROOT
HETATM    1  C2  UNL     1       1.985 -14.407  17.475  1.00  0.00     0.042 A 
HETATM    2  C3  UNL     1       1.485 -14.874  16.290  1.00  0.00     0.078 A 
HETATM    3  S1  UNL     1       1.856 -13.592  15.224  1.00  0.00    -0.081 SA
HETATM    4  C4  UNL     1       2.620 -12.547  16.343  1.00  0.00     0.091 A 
HETATM    5  N2  UNL     1       2.551 -13.228  17.461  1.00  0.00    -0.351 N 
ATOM      6  H2  UNL     1       2.938 -12.838  18.321  1.00  0.00     0.166 HD
ENDROOT
BRANCH   1   7
HETATM    7  C1  UNL     1       1.884 -15.224  18.748  1.00  0.00     0.286 C 
BRANCH   7   8
HETATM    8  N1  UNL     1       1.905 -16.637  18.425  1.00  0.00    -0.074 N 
ATOM      9  H13 UNL     1       2.793 -17.075  18.672  1.00  0.00     0.274 HD
ATOM     10  H12 UNL     1       1.297 -17.180  19.038  1.00  0.00     0.274 HD
ATOM     11  H11 UNL     1       1.673 -16.768  17.440  1.00  0.00     0.274 HD
ENDBRANCH   7   8
ENDBRANCH   1   7
BRANCH   4  12
HETATM   12  C5  UNL     1       3.210 -11.210  16.103  1.00  0.00     0.038 A 
HETATM   13  C6  UNL     1       3.856 -10.360  16.948  1.00  0.00     0.022 A 
HETATM   14  C7  UNL     1       4.285  -9.199  16.431  1.00  0.00     0.008 A 
HETATM   15  C8  UNL     1       4.042  -8.961  15.110  1.00  0.00     0.050 A 
HETATM   16  S2  UNL     1       3.213 -10.383  14.621  1.00  0.00    -0.099 SA
ENDBRANCH   4  12
TORSDOF 3
ENDMDL
