MODEL 3
REMARK VINA RESULT: -4.967337122      1.159      1.345
REMARK  3 active torsions:
REMARK  status: ('A' for Active; 'I' for Inactive)
REMARK    1  A    between atoms: N1_1  and  C1_5 
REMARK    2  A    between atoms: C1_5  and  C2_6 
REMARK    3  A    between atoms: C4_9  and  C5_10 
ROOT
HETATM    1  C2  UNL     1       1.488 -14.976  17.166  1.00  0.00     0.042 A 
HETATM    2  C3  UNL     1       0.925 -15.616  16.095  1.00  0.00     0.078 A 
HETATM    3  S1  UNL     1       0.767 -14.340  14.969  1.00  0.00    -0.081 SA
HETATM    4  C4  UNL     1       1.421 -13.080  15.923  1.00  0.00     0.091 A 
HETATM    5  N2  UNL     1       1.723 -13.696  17.041  1.00  0.00    -0.351 N 
ATOM      6  H2  UNL     1       2.141 -13.177  17.813  1.00  0.00     0.166 HD
ENDROOT
BRANCH   1   7
HETATM    7  C1  UNL     1       1.821 -15.724  18.442  1.00  0.00     0.286 C 
BRANCH   7   8
HETATM    8  N1  UNL     1       3.075 -15.236  18.981  1.00  0.00    -0.074 N 
ATOM      9  H13 UNL     1       3.459 -14.469  18.428  1.00  0.00     0.274 HD
ATOM     10  H12 UNL     1       2.946 -14.735  19.859  1.00  0.00     0.274 HD
ATOM     11  H11 UNL     1       3.733 -16.010  19.074  1.00  0.00     0.274 HD
ENDBRANCH   7   8
ENDBRANCH   1   7
BRANCH   4  12
HETATM   12  C5  UNL     1       1.599 -11.653  15.571  1.00  0.00     0.038 A 
HETATM   13  C6  UNL     1       1.018 -10.533  16.083  1.00  0.00     0.022 A 
HETATM   14  C7  UNL     1       1.388  -9.359  15.549  1.00  0.00     0.008 A 
HETATM   15  C8  UNL     1       2.309  -9.377  14.544  1.00  0.00     0.050 A 
HETATM   16  S2  UNL     1       2.638 -11.053  14.370  1.00  0.00    -0.099 SA
ENDBRANCH   4  12
TORSDOF 3
ENDMDL
