MODEL 1
REMARK VINA RESULT: -5.297075256      0.000      0.000
REMARK  3 active torsions:
REMARK  status: ('A' for Active; 'I' for Inactive)
REMARK    1  A    between atoms: N1_1  and  C1_5 
REMARK    2  A    between atoms: C1_5  and  C2_6 
REMARK    3  A    between atoms: C4_9  and  C5_10 
ROOT
HETATM    1  C2  UNL     1       1.640 -15.047  17.066  1.00  0.00     0.042 A 
HETATM    2  C3  UNL     1       0.871 -15.554  16.054  1.00  0.00     0.078 A 
HETATM    3  S1  UNL     1       1.067 -14.369  14.838  1.00  0.00    -0.081 SA
HETATM    4  C4  UNL     1       2.108 -13.309  15.686  1.00  0.00     0.091 A 
HETATM    5  N2  UNL     1       2.249 -13.912  16.842  1.00  0.00    -0.351 N 
ATOM      6  H2  UNL     1       2.833 -13.495  17.567  1.00  0.00     0.166 HD
ENDROOT
BRANCH   1   7
HETATM    7  C1  UNL     1       1.776 -15.774  18.389  1.00  0.00     0.286 C 
BRANCH   7   8
HETATM    8  N1  UNL     1       2.878 -15.211  19.145  1.00  0.00    -0.074 N 
ATOM      9  H13 UNL     1       3.779 -15.387  18.699  1.00  0.00     0.274 HD
ATOM     10  H12 UNL     1       2.890 -14.192  19.105  1.00  0.00     0.274 HD
ATOM     11  H11 UNL     1       2.849 -15.558  20.103  1.00  0.00     0.274 HD
ENDBRANCH   7   8
ENDBRANCH   1   7
BRANCH   4  12
HETATM   12  C5  UNL     1       2.699 -12.032  15.225  1.00  0.00     0.038 A 
HETATM   13  C6  UNL     1       3.830 -11.384  15.619  1.00  0.00     0.022 A 
HETATM   14  C7  UNL     1       4.110 -10.224  15.006  1.00  0.00     0.008 A 
HETATM   15  C8  UNL     1       3.249  -9.788  14.043  1.00  0.00     0.050 A 
HETATM   16  S2  UNL     1       2.058 -11.024  14.021  1.00  0.00    -0.099 SA
ENDBRANCH   4  12
TORSDOF 3
ENDMDL
