MODEL 4
REMARK VINA RESULT: -4.900523702      3.328      5.705
REMARK  3 active torsions:
REMARK  status: ('A' for Active; 'I' for Inactive)
REMARK    1  A    between atoms: N1_1  and  C1_5 
REMARK    2  A    between atoms: C1_5  and  C2_6 
REMARK    3  A    between atoms: C4_9  and  C5_10 
ROOT
HETATM    1  C2  UNL     1       0.428 -11.310  12.442  1.00  0.00     0.042 A 
HETATM    2  C3  UNL     1      -0.501 -10.510  13.048  1.00  0.00     0.078 A 
HETATM    3  S1  UNL     1      -0.617 -11.221  14.597  1.00  0.00    -0.081 SA
HETATM    4  C4  UNL     1       0.516 -12.484  14.380  1.00  0.00     0.091 A 
HETATM    5  N2  UNL     1       0.918 -12.297  13.146  1.00  0.00    -0.351 N 
ATOM      6  H2  UNL     1       1.614 -12.920  12.735  1.00  0.00     0.166 HD
ENDROOT
BRANCH   1   7
HETATM    7  C1  UNL     1       0.867 -11.061  11.012  1.00  0.00     0.286 C 
BRANCH   7   8
HETATM    8  N1  UNL     1       1.333 -12.300  10.420  1.00  0.00    -0.074 N 
ATOM      9  H13 UNL     1       1.295 -13.078  11.080  1.00  0.00     0.274 HD
ATOM     10  H12 UNL     1       0.680 -12.663   9.726  1.00  0.00     0.274 HD
ATOM     11  H11 UNL     1       2.267 -12.166  10.035  1.00  0.00     0.274 HD
ENDBRANCH   7   8
ENDBRANCH   1   7
BRANCH   4  12
HETATM   12  C5  UNL     1       0.933 -13.526  15.346  1.00  0.00     0.038 A 
HETATM   13  C6  UNL     1       0.641 -14.856  15.399  1.00  0.00     0.022 A 
HETATM   14  C7  UNL     1       1.177 -15.554  16.412  1.00  0.00     0.008 A 
HETATM   15  C8  UNL     1       1.964 -14.886  17.301  1.00  0.00     0.050 A 
HETATM   16  S2  UNL     1       1.936 -13.281  16.693  1.00  0.00    -0.099 SA
ENDBRANCH   4  12
TORSDOF 3
ENDMDL
