MODEL 1
REMARK VINA RESULT: -5.490631582      0.000      0.000
REMARK  2 active torsions:
REMARK  status: ('A' for Active; 'I' for Inactive)
REMARK    1  A    between atoms: N1_1  and  C1_5 
REMARK    2  A    between atoms: C1_5  and  C2_6 
ROOT
HETATM    1  C2  UNL     1       1.559 -14.612  16.670  1.00  0.00    -0.015 A 
HETATM    2  C3  UNL     1       0.773 -15.475  16.008  1.00  0.00     0.060 A 
HETATM    3  S1  UNL     1       0.483 -14.617  14.542  1.00  0.00    -0.101 SA
HETATM    4  C4  UNL     1       1.380 -13.208  14.814  1.00  0.00     0.015 A 
HETATM    5  C5  UNL     1       1.639 -12.117  14.039  1.00  0.00     0.019 A 
HETATM    6  C6  UNL     1       2.463 -11.149  14.497  1.00  0.00     0.001 A 
HETATM    7  C7  UNL     1       3.001 -11.299  15.740  1.00  0.00     0.001 A 
HETATM    8  C8  UNL     1       2.740 -12.388  16.520  1.00  0.00     0.013 A 
HETATM    9  C9  UNL     1       1.885 -13.425  16.059  1.00  0.00    -0.011 A 
ENDROOT
BRANCH   1  10
HETATM   10  C1  UNL     1       1.937 -14.880  18.125  1.00  0.00     0.269 C 
BRANCH  10  11
HETATM   11  N1  UNL     1       1.835 -16.312  18.383  1.00  0.00    -0.075 N 
ATOM     12  H13 UNL     1       0.901 -16.677  18.195  1.00  0.00     0.274 HD
ATOM     13  H12 UNL     1       2.345 -16.868  17.696  1.00  0.00     0.274 HD
ATOM     14  H11 UNL     1       2.140 -16.498  19.338  1.00  0.00     0.274 HD
ENDBRANCH  10  11
ENDBRANCH   1  10
TORSDOF 2
ENDMDL
