MODEL 10
REMARK VINA RESULT: -4.436034107      1.387      1.779
REMARK  2 active torsions:
REMARK  status: ('A' for Active; 'I' for Inactive)
REMARK    1  A    between atoms: N1_1  and  C1_5 
REMARK    2  A    between atoms: C1_5  and  C2_6 
ROOT
HETATM    1  C2  UNL     1       1.688 -13.405  15.590  1.00  0.00    -0.015 A 
HETATM    2  C3  UNL     1       0.546 -13.733  14.965  1.00  0.00     0.060 A 
HETATM    3  S1  UNL     1       0.263 -12.324  14.012  1.00  0.00    -0.101 SA
HETATM    4  C4  UNL     1       1.607 -11.382  14.427  1.00  0.00     0.015 A 
HETATM    5  C5  UNL     1       2.046 -10.166  13.999  1.00  0.00     0.019 A 
HETATM    6  C6  UNL     1       3.216  -9.673  14.462  1.00  0.00     0.001 A 
HETATM    7  C7  UNL     1       3.914 -10.419  15.364  1.00  0.00     0.001 A 
HETATM    8  C8  UNL     1       3.475 -11.636  15.798  1.00  0.00     0.013 A 
HETATM    9  C9  UNL     1       2.253 -12.182  15.318  1.00  0.00    -0.011 A 
ENDROOT
BRANCH   1  10
HETATM   10  C1  UNL     1       2.243 -14.304  16.693  1.00  0.00     0.269 C 
BRANCH  10  11
HETATM   11  N1  UNL     1       1.774 -15.667  16.472  1.00  0.00    -0.075 N 
ATOM     12  H13 UNL     1       2.537 -16.343  16.454  1.00  0.00     0.274 HD
ATOM     13  H12 UNL     1       1.271 -16.040  17.276  1.00  0.00     0.274 HD
ATOM     14  H11 UNL     1       1.215 -15.689  15.619  1.00  0.00     0.274 HD
ENDBRANCH  10  11
ENDBRANCH   1  10
TORSDOF 2
ENDMDL
