MODEL 4
REMARK VINA RESULT: -4.723225501      2.782      4.531
REMARK  2 active torsions:
REMARK  status: ('A' for Active; 'I' for Inactive)
REMARK    1  A    between atoms: N1_1  and  C1_5 
REMARK    2  A    between atoms: C1_5  and  C2_6 
ROOT
HETATM    1  C2  UNL     1       1.533 -11.810  14.518  1.00  0.00    -0.015 A 
HETATM    2  C3  UNL     1       2.368 -10.869  14.984  1.00  0.00     0.060 A 
HETATM    3  S1  UNL     1       2.958 -11.616  16.421  1.00  0.00    -0.101 SA
HETATM    4  C4  UNL     1       2.140 -13.097  16.370  1.00  0.00     0.015 A 
HETATM    5  C5  UNL     1       2.179 -14.199  17.170  1.00  0.00     0.019 A 
HETATM    6  C6  UNL     1       1.453 -15.290  16.846  1.00  0.00     0.001 A 
HETATM    7  C7  UNL     1       0.687 -15.241  15.720  1.00  0.00     0.001 A 
HETATM    8  C8  UNL     1       0.642 -14.137  14.918  1.00  0.00     0.013 A 
HETATM    9  C9  UNL     1       1.404 -12.979  15.231  1.00  0.00    -0.011 A 
ENDROOT
BRANCH   1  10
HETATM   10  C1  UNL     1       0.632 -11.513  13.322  1.00  0.00     0.269 C 
BRANCH  10  11
HETATM   11  N1  UNL     1       1.385 -11.749  12.095  1.00  0.00    -0.075 N 
ATOM     12  H13 UNL     1       2.356 -12.006  12.277  1.00  0.00     0.274 HD
ATOM     13  H12 UNL     1       1.098 -12.604  11.621  1.00  0.00     0.274 HD
ATOM     14  H11 UNL     1       1.306 -10.927  11.496  1.00  0.00     0.274 HD
ENDBRANCH  10  11
ENDBRANCH   1  10
TORSDOF 2
ENDMDL
