MODEL 2
REMARK VINA RESULT: -4.838642041      2.710      4.440
REMARK  2 active torsions:
REMARK  status: ('A' for Active; 'I' for Inactive)
REMARK    1  A    between atoms: N1_1  and  C1_5 
REMARK    2  A    between atoms: C1_5  and  C2_6 
ROOT
HETATM    1  C2  UNL     1       0.946 -11.864  14.849  1.00  0.00    -0.015 A 
HETATM    2  C3  UNL     1       1.590 -10.802  15.357  1.00  0.00     0.060 A 
HETATM    3  S1  UNL     1       2.304 -11.480  16.772  1.00  0.00    -0.101 SA
HETATM    4  C4  UNL     1       1.775 -13.083  16.660  1.00  0.00     0.015 A 
HETATM    5  C5  UNL     1       2.017 -14.188  17.420  1.00  0.00     0.019 A 
HETATM    6  C6  UNL     1       1.507 -15.383  17.049  1.00  0.00     0.001 A 
HETATM    7  C7  UNL     1       0.749 -15.434  15.918  1.00  0.00     0.001 A 
HETATM    8  C8  UNL     1       0.501 -14.328  15.157  1.00  0.00     0.013 A 
HETATM    9  C9  UNL     1       1.034 -13.062  15.518  1.00  0.00    -0.011 A 
ENDROOT
BRANCH   1  10
HETATM   10  C1  UNL     1       0.009 -11.695  13.655  1.00  0.00     0.269 C 
BRANCH  10  11
HETATM   11  N1  UNL     1      -1.336 -11.421  14.146  1.00  0.00    -0.075 N 
ATOM     12  H13 UNL     1      -2.013 -11.315  13.390  1.00  0.00     0.274 HD
ATOM     13  H12 UNL     1      -1.757 -12.231  14.601  1.00  0.00     0.274 HD
ATOM     14  H11 UNL     1      -1.305 -10.605  14.757  1.00  0.00     0.274 HD
ENDBRANCH  10  11
ENDBRANCH   1  10
TORSDOF 2
ENDMDL
