MODEL 5
REMARK VINA RESULT: -4.721020286      1.359      1.456
REMARK  2 active torsions:
REMARK  status: ('A' for Active; 'I' for Inactive)
REMARK    1  A    between atoms: N1_1  and  C1_5 
REMARK    2  A    between atoms: C1_5  and  C2_6 
ROOT
HETATM    1  C2  UNL     1       1.680 -14.069  16.601  1.00  0.00    -0.015 A 
HETATM    2  C3  UNL     1       1.598 -15.254  15.975  1.00  0.00     0.060 A 
HETATM    3  S1  UNL     1       0.740 -14.824  14.543  1.00  0.00    -0.101 SA
HETATM    4  C4  UNL     1       0.532 -13.162  14.781  1.00  0.00     0.015 A 
HETATM    5  C5  UNL     1      -0.017 -12.182  14.010  1.00  0.00     0.019 A 
HETATM    6  C6  UNL     1       0.014 -10.899  14.431  1.00  0.00     0.001 A 
HETATM    7  C7  UNL     1       0.592 -10.633  15.635  1.00  0.00     0.001 A 
HETATM    8  C8  UNL     1       1.139 -11.612  16.413  1.00  0.00     0.013 A 
HETATM    9  C9  UNL     1       1.129 -12.968  15.989  1.00  0.00    -0.011 A 
ENDROOT
BRANCH   1  10
HETATM   10  C1  UNL     1       2.224 -13.991  18.025  1.00  0.00     0.269 C 
BRANCH  10  11
HETATM   11  N1  UNL     1       2.576 -15.334  18.471  1.00  0.00    -0.075 N 
ATOM     12  H13 UNL     1       1.917 -15.702  19.157  1.00  0.00     0.274 HD
ATOM     13  H12 UNL     1       2.430 -16.035  17.744  1.00  0.00     0.274 HD
ATOM     14  H11 UNL     1       3.535 -15.326  18.817  1.00  0.00     0.274 HD
ENDBRANCH  10  11
ENDBRANCH   1  10
TORSDOF 2
ENDMDL
