MODEL 14
REMARK VINA RESULT: -4.002453861      3.180      4.863
REMARK  2 active torsions:
REMARK  status: ('A' for Active; 'I' for Inactive)
REMARK    1  A    between atoms: N1_1  and  C1_5 
REMARK    2  A    between atoms: C1_5  and  C2_6 
ROOT
HETATM    1  C2  UNL     1       1.853 -10.970  13.798  1.00  0.00    -0.015 A 
HETATM    2  C3  UNL     1       2.827 -10.137  14.194  1.00  0.00     0.060 A 
HETATM    3  S1  UNL     1       3.450 -10.970  15.569  1.00  0.00    -0.101 SA
HETATM    4  C4  UNL     1       2.466 -12.347  15.581  1.00  0.00     0.015 A 
HETATM    5  C5  UNL     1       2.448 -13.459  16.368  1.00  0.00     0.019 A 
HETATM    6  C6  UNL     1       1.576 -14.456  16.102  1.00  0.00     0.001 A 
HETATM    7  C7  UNL     1       0.726 -14.301  15.048  1.00  0.00     0.001 A 
HETATM    8  C8  UNL     1       0.738 -13.186  14.260  1.00  0.00     0.013 A 
HETATM    9  C9  UNL     1       1.653 -12.128  14.512  1.00  0.00    -0.011 A 
ENDROOT
BRANCH   1  10
HETATM   10  C1  UNL     1       0.892 -10.553  12.687  1.00  0.00     0.269 C 
BRANCH  10  11
HETATM   11  N1  UNL     1       1.415 -11.022  11.409  1.00  0.00    -0.075 N 
ATOM     12  H13 UNL     1       1.738 -10.258  10.816  1.00  0.00     0.274 HD
ATOM     13  H12 UNL     1       2.305 -11.510  11.510  1.00  0.00     0.274 HD
ATOM     14  H11 UNL     1       0.706 -11.596  10.953  1.00  0.00     0.274 HD
ENDBRANCH  10  11
ENDBRANCH   1  10
TORSDOF 2
ENDMDL
