MODEL 7
REMARK VINA RESULT: -5.158613171      1.629      1.914
REMARK  3 active torsions:
REMARK  status: ('A' for Active; 'I' for Inactive)
REMARK    1  A    between atoms: N1_1  and  C1_5 
REMARK    2  A    between atoms: C1_5  and  C2_6 
REMARK    3  A    between atoms: C6_10  and  N2_11 
ROOT
HETATM    1  C2  UNL     1       1.839 -14.668  17.267  1.00  0.00    -0.031 A 
HETATM    2  C3  UNL     1       1.337 -15.512  16.298  1.00  0.00     0.009 A 
HETATM    3  C4  UNL     1       0.757 -15.001  15.138  1.00  0.00     0.003 A 
HETATM    4  C5  UNL     1       0.676 -13.643  14.943  1.00  0.00     0.030 A 
HETATM    5  C6  UNL     1       1.166 -12.768  15.888  1.00  0.00     0.038 A 
HETATM    6  C11 UNL     1       1.737 -13.321  17.029  1.00  0.00     0.038 A 
ENDROOT
BRANCH   1   7
HETATM    7  C1  UNL     1       2.449 -15.252  18.489  1.00  0.00     0.268 C 
BRANCH   7   8
HETATM    8  N1  UNL     1       2.111 -16.643  18.658  1.00  0.00    -0.075 N 
ATOM      9  H13 UNL     1       1.568 -16.790  19.508  1.00  0.00     0.274 HD
ATOM     10  H12 UNL     1       1.419 -16.940  17.970  1.00  0.00     0.274 HD
ATOM     11  H11 UNL     1       2.934 -17.247  18.637  1.00  0.00     0.274 HD
ENDBRANCH   7   8
ENDBRANCH   1   7
BRANCH   5  12
HETATM   12  N2  UNL     1       1.105 -11.357  15.728  1.00  0.00    -0.333 N 
HETATM   13  C7  UNL     1       2.117 -10.554  15.376  1.00  0.00     0.096 A 
HETATM   14  C8  UNL     1       1.693  -9.242  15.319  1.00  0.00     0.019 A 
HETATM   15  C9  UNL     1       0.362  -9.252  15.651  1.00  0.00     0.019 A 
HETATM   16  C10 UNL     1       0.042 -10.584  15.897  1.00  0.00     0.096 A 
ENDBRANCH   5  12
TORSDOF 3
ENDMDL
