MODEL 1
REMARK VINA RESULT: -5.881016729      0.000      0.000
REMARK  3 active torsions:
REMARK  status: ('A' for Active; 'I' for Inactive)
REMARK    1  A    between atoms: N1_1  and  C1_5 
REMARK    2  A    between atoms: C1_5  and  C2_6 
REMARK    3  A    between atoms: C6_10  and  N2_11 
ROOT
HETATM    1  C2  UNL     1       1.642 -15.119  17.198  1.00  0.00    -0.031 A 
HETATM    2  C3  UNL     1       0.822 -15.684  16.244  1.00  0.00     0.009 A 
HETATM    3  C4  UNL     1       0.647 -15.075  15.003  1.00  0.00     0.003 A 
HETATM    4  C5  UNL     1       1.291 -13.896  14.712  1.00  0.00     0.030 A 
HETATM    5  C6  UNL     1       2.119 -13.302  15.639  1.00  0.00     0.038 A 
HETATM    6  C11 UNL     1       2.265 -13.944  16.863  1.00  0.00     0.038 A 
ENDROOT
BRANCH   1   7
HETATM    7  C1  UNL     1       1.803 -15.801  18.509  1.00  0.00     0.268 C 
BRANCH   7   8
HETATM    8  N1  UNL     1       3.073 -15.510  19.125  1.00  0.00    -0.075 N 
ATOM      9  H13 UNL     1       3.835 -15.590  18.452  1.00  0.00     0.274 HD
ATOM     10  H12 UNL     1       3.156 -14.518  19.347  1.00  0.00     0.274 HD
ATOM     11  H11 UNL     1       3.246 -16.087  19.948  1.00  0.00     0.274 HD
ENDBRANCH   7   8
ENDBRANCH   1   7
BRANCH   5  12
HETATM   12  N2  UNL     1       2.807 -12.085  15.381  1.00  0.00    -0.333 N 
HETATM   13  C7  UNL     1       2.526 -11.206  14.411  1.00  0.00     0.096 A 
HETATM   14  C8  UNL     1       3.401 -10.140  14.459  1.00  0.00     0.019 A 
HETATM   15  C9  UNL     1       4.251 -10.385  15.508  1.00  0.00     0.019 A 
HETATM   16  C10 UNL     1       3.844 -11.602  16.049  1.00  0.00     0.096 A 
ENDBRANCH   5  12
TORSDOF 3
ENDMDL
