MODEL 3
REMARK VINA RESULT: -5.350459569      1.070      1.313
REMARK  3 active torsions:
REMARK  status: ('A' for Active; 'I' for Inactive)
REMARK    1  A    between atoms: N1_1  and  C1_5 
REMARK    2  A    between atoms: C1_5  and  C2_6 
REMARK    3  A    between atoms: C6_10  and  N2_11 
ROOT
HETATM    1  C2  UNL     1       1.738 -14.699  17.264  1.00  0.00    -0.031 A 
HETATM    2  C3  UNL     1       1.046 -15.512  16.390  1.00  0.00     0.009 A 
HETATM    3  C4  UNL     1       0.606 -15.026  15.160  1.00  0.00     0.003 A 
HETATM    4  C5  UNL     1       0.855 -13.723  14.800  1.00  0.00     0.030 A 
HETATM    5  C6  UNL     1       1.543 -12.880  15.647  1.00  0.00     0.038 A 
HETATM    6  C11 UNL     1       1.964 -13.408  16.862  1.00  0.00     0.038 A 
ENDROOT
BRANCH   1   7
HETATM    7  C1  UNL     1       2.190 -15.257  18.565  1.00  0.00     0.268 C 
BRANCH   7   8
HETATM    8  N1  UNL     1       2.087 -16.694  18.610  1.00  0.00    -0.075 N 
ATOM      9  H13 UNL     1       1.236 -17.016  18.150  1.00  0.00     0.274 HD
ATOM     10  H12 UNL     1       2.777 -17.132  18.000  1.00  0.00     0.274 HD
ATOM     11  H11 UNL     1       2.152 -17.057  19.561  1.00  0.00     0.274 HD
ENDBRANCH   7   8
ENDBRANCH   1   7
BRANCH   5  12
HETATM   12  N2  UNL     1       1.825 -11.527  15.316  1.00  0.00    -0.333 N 
HETATM   13  C7  UNL     1       1.235 -10.445  15.837  1.00  0.00     0.096 A 
HETATM   14  C8  UNL     1       1.759  -9.295  15.280  1.00  0.00     0.019 A 
HETATM   15  C9  UNL     1       2.711  -9.702  14.380  1.00  0.00     0.019 A 
HETATM   16  C10 UNL     1       2.715 -11.093  14.436  1.00  0.00     0.096 A 
ENDBRANCH   5  12
TORSDOF 3
ENDMDL
