MODEL 2
REMARK VINA RESULT: -5.815304048      0.097      1.001
REMARK  3 active torsions:
REMARK  status: ('A' for Active; 'I' for Inactive)
REMARK    1  A    between atoms: N1_1  and  C1_5 
REMARK    2  A    between atoms: C1_5  and  C2_6 
REMARK    3  A    between atoms: C6_10  and  N2_11 
ROOT
HETATM    1  C2  UNL     1       1.600 -15.092  17.099  1.00  0.00    -0.031 A 
HETATM    2  C3  UNL     1       0.814 -15.663  16.120  1.00  0.00     0.009 A 
HETATM    3  C4  UNL     1       0.674 -15.056  14.872  1.00  0.00     0.003 A 
HETATM    4  C5  UNL     1       1.319 -13.874  14.601  1.00  0.00     0.030 A 
HETATM    5  C6  UNL     1       2.114 -13.272  15.553  1.00  0.00     0.038 A 
HETATM    6  C11 UNL     1       2.225 -13.913  16.782  1.00  0.00     0.038 A 
ENDROOT
BRANCH   1   7
HETATM    7  C1  UNL     1       1.723 -15.771  18.415  1.00  0.00     0.268 C 
BRANCH   7   8
HETATM    8  N1  UNL     1       2.999 -15.526  19.039  1.00  0.00    -0.075 N 
ATOM      9  H13 UNL     1       3.675 -15.163  18.367  1.00  0.00     0.274 HD
ATOM     10  H12 UNL     1       2.953 -14.726  19.671  1.00  0.00     0.274 HD
ATOM     11  H11 UNL     1       3.362 -16.352  19.516  1.00  0.00     0.274 HD
ENDBRANCH   7   8
ENDBRANCH   1   7
BRANCH   5  12
HETATM   12  N2  UNL     1       2.800 -12.051  15.316  1.00  0.00    -0.333 N 
HETATM   13  C7  UNL     1       3.830 -11.570  16.022  1.00  0.00     0.096 A 
HETATM   14  C8  UNL     1       4.244 -10.358  15.507  1.00  0.00     0.019 A 
HETATM   15  C9  UNL     1       3.426 -10.094  14.437  1.00  0.00     0.019 A 
HETATM   16  C10 UNL     1       2.546 -11.171  14.359  1.00  0.00     0.096 A 
ENDBRANCH   5  12
TORSDOF 3
ENDMDL
