MODEL 6
REMARK VINA RESULT: -5.196678545      1.990      5.452
REMARK  3 active torsions:
REMARK  status: ('A' for Active; 'I' for Inactive)
REMARK    1  A    between atoms: N1_1  and  C1_5 
REMARK    2  A    between atoms: C1_5  and  C2_6 
REMARK    3  A    between atoms: C6_10  and  N2_11 
ROOT
HETATM    1  C2  UNL     1       1.718 -11.313  12.788  1.00  0.00    -0.031 A 
HETATM    2  C3  UNL     1       2.539 -10.332  13.303  1.00  0.00     0.009 A 
HETATM    3  C4  UNL     1       3.118 -10.475  14.563  1.00  0.00     0.003 A 
HETATM    4  C5  UNL     1       2.877 -11.601  15.313  1.00  0.00     0.030 A 
HETATM    5  C6  UNL     1       2.062 -12.604  14.833  1.00  0.00     0.038 A 
HETATM    6  C11 UNL     1       1.507 -12.419  13.572  1.00  0.00     0.038 A 
ENDROOT
BRANCH   1   7
HETATM    7  C1  UNL     1       1.121 -11.123  11.441  1.00  0.00     0.268 C 
BRANCH   7   8
HETATM    8  N1  UNL     1       1.317 -12.268  10.588  1.00  0.00    -0.075 N 
ATOM      9  H13 UNL     1       2.014 -12.902  10.978  1.00  0.00     0.274 HD
ATOM     10  H12 UNL     1       0.506 -12.887  10.610  1.00  0.00     0.274 HD
ATOM     11  H11 UNL     1       1.553 -12.003   9.632  1.00  0.00     0.274 HD
ENDBRANCH   7   8
ENDBRANCH   1   7
BRANCH   5  12
HETATM   12  N2  UNL     1       1.786 -13.785  15.573  1.00  0.00    -0.333 N 
HETATM   13  C7  UNL     1       0.849 -14.697  15.289  1.00  0.00     0.096 A 
HETATM   14  C8  UNL     1       0.864 -15.712  16.224  1.00  0.00     0.019 A 
HETATM   15  C9  UNL     1       1.859 -15.398  17.116  1.00  0.00     0.019 A 
HETATM   16  C10 UNL     1       2.401 -14.195  16.672  1.00  0.00     0.096 A 
ENDBRANCH   5  12
TORSDOF 3
ENDMDL
