MODEL 4
REMARK VINA RESULT: -5.349245248      0.984      1.228
REMARK  3 active torsions:
REMARK  status: ('A' for Active; 'I' for Inactive)
REMARK    1  A    between atoms: N1_1  and  C1_5 
REMARK    2  A    between atoms: C1_5  and  C2_6 
REMARK    3  A    between atoms: C6_10  and  N2_11 
ROOT
HETATM    1  C2  UNL     1       1.837 -15.023  17.153  1.00  0.00    -0.031 A 
HETATM    2  C3  UNL     1       1.330 -15.389  15.923  1.00  0.00     0.009 A 
HETATM    3  C4  UNL     1       1.436 -14.536  14.825  1.00  0.00     0.003 A 
HETATM    4  C5  UNL     1       2.049 -13.313  14.954  1.00  0.00     0.030 A 
HETATM    5  C6  UNL     1       2.568 -12.912  16.166  1.00  0.00     0.038 A 
HETATM    6  C11 UNL     1       2.441 -13.794  17.233  1.00  0.00     0.038 A 
ENDROOT
BRANCH   1   7
HETATM    7  C1  UNL     1       1.704 -15.961  18.297  1.00  0.00     0.268 C 
BRANCH   7   8
HETATM    8  N1  UNL     1       2.615 -15.648  19.370  1.00  0.00    -0.075 N 
ATOM      9  H13 UNL     1       2.671 -14.642  19.524  1.00  0.00     0.274 HD
ATOM     10  H12 UNL     1       2.232 -15.929  20.273  1.00  0.00     0.274 HD
ATOM     11  H11 UNL     1       3.541 -16.050  19.221  1.00  0.00     0.274 HD
ENDBRANCH   7   8
ENDBRANCH   1   7
BRANCH   5  12
HETATM   12  N2  UNL     1       3.211 -11.658  16.345  1.00  0.00    -0.333 N 
HETATM   13  C7  UNL     1       4.207 -11.164  15.601  1.00  0.00     0.096 A 
HETATM   14  C8  UNL     1       4.585  -9.920  16.064  1.00  0.00     0.019 A 
HETATM   15  C9  UNL     1       3.777  -9.648  17.140  1.00  0.00     0.019 A 
HETATM   16  C10 UNL     1       2.943 -10.754  17.276  1.00  0.00     0.096 A 
ENDBRANCH   5  12
TORSDOF 3
ENDMDL
