MODEL 9
REMARK VINA RESULT: -4.989104827      2.331      5.385
REMARK  3 active torsions:
REMARK  status: ('A' for Active; 'I' for Inactive)
REMARK    1  A    between atoms: N1_1  and  C1_5 
REMARK    2  A    between atoms: C1_5  and  C2_6 
REMARK    3  A    between atoms: C6_10  and  N2_11 
ROOT
HETATM    1  C2  UNL     1      -0.006 -10.890  13.841  1.00  0.00    -0.031 A 
HETATM    2  C3  UNL     1       1.168 -10.228  13.547  1.00  0.00     0.009 A 
HETATM    3  C4  UNL     1       2.397 -10.733  13.968  1.00  0.00     0.003 A 
HETATM    4  C5  UNL     1       2.456 -11.903  14.687  1.00  0.00     0.030 A 
HETATM    5  C6  UNL     1       1.305 -12.594  14.999  1.00  0.00     0.038 A 
HETATM    6  C11 UNL     1       0.102 -12.054  14.558  1.00  0.00     0.038 A 
ENDROOT
BRANCH   1   7
HETATM    7  C1  UNL     1      -1.295 -10.318  13.373  1.00  0.00     0.268 C 
BRANCH   7   8
HETATM    8  N1  UNL     1      -2.429 -10.906  14.041  1.00  0.00    -0.075 N 
ATOM      9  H13 UNL     1      -2.389 -11.924  14.007  1.00  0.00     0.274 HD
ATOM     10  H12 UNL     1      -2.370 -10.775  15.051  1.00  0.00     0.274 HD
ATOM     11  H11 UNL     1      -3.316 -10.560  13.676  1.00  0.00     0.274 HD
ENDBRANCH   7   8
ENDBRANCH   1   7
BRANCH   5  12
HETATM   12  N2  UNL     1       1.318 -13.808  15.738  1.00  0.00    -0.333 N 
HETATM   13  C7  UNL     1       1.976 -14.032  16.882  1.00  0.00     0.096 A 
HETATM   14  C8  UNL     1       1.761 -15.325  17.315  1.00  0.00     0.019 A 
HETATM   15  C9  UNL     1       0.934 -15.910  16.391  1.00  0.00     0.019 A 
HETATM   16  C10 UNL     1       0.687 -14.931  15.431  1.00  0.00     0.096 A 
ENDBRANCH   5  12
TORSDOF 3
ENDMDL
