MODEL 11
REMARK VINA RESULT: -4.858132003      2.183      5.291
REMARK  3 active torsions:
REMARK  status: ('A' for Active; 'I' for Inactive)
REMARK    1  A    between atoms: N1_1  and  C1_5 
REMARK    2  A    between atoms: C1_5  and  C2_6 
REMARK    3  A    between atoms: C6_10  and  N2_11 
ROOT
HETATM    1  C2  UNL     1       1.235 -11.230  13.135  1.00  0.00    -0.031 A 
HETATM    2  C3  UNL     1       0.660 -10.139  13.753  1.00  0.00     0.009 A 
HETATM    3  C4  UNL     1       0.298 -10.190  15.098  1.00  0.00     0.003 A 
HETATM    4  C5  UNL     1       0.509 -11.334  15.830  1.00  0.00     0.030 A 
HETATM    5  C6  UNL     1       1.081 -12.445  15.248  1.00  0.00     0.038 A 
HETATM    6  C11 UNL     1       1.427 -12.349  13.905  1.00  0.00     0.038 A 
ENDROOT
BRANCH   1   7
HETATM    7  C1  UNL     1       1.608 -11.134  11.700  1.00  0.00     0.268 C 
BRANCH   7   8
HETATM    8  N1  UNL     1       1.636 -12.423  11.055  1.00  0.00    -0.075 N 
ATOM      9  H13 UNL     1       0.702 -12.829  11.001  1.00  0.00     0.274 HD
ATOM     10  H12 UNL     1       1.830 -12.332  10.057  1.00  0.00     0.274 HD
ATOM     11  H11 UNL     1       2.291 -13.065  11.500  1.00  0.00     0.274 HD
ENDBRANCH   7   8
ENDBRANCH   1   7
BRANCH   5  12
HETATM   12  N2  UNL     1       1.319 -13.648  15.966  1.00  0.00    -0.333 N 
HETATM   13  C7  UNL     1       0.883 -14.869  15.634  1.00  0.00     0.096 A 
HETATM   14  C8  UNL     1       1.304 -15.800  16.562  1.00  0.00     0.019 A 
HETATM   15  C9  UNL     1       2.030 -15.109  17.499  1.00  0.00     0.019 A 
HETATM   16  C10 UNL     1       2.011 -13.779  17.088  1.00  0.00     0.096 A 
ENDBRANCH   5  12
TORSDOF 3
ENDMDL
