MODEL 2
REMARK VINA RESULT: -5.873819378      0.572      1.009
REMARK  3 active torsions:
REMARK  status: ('A' for Active; 'I' for Inactive)
REMARK    1  A    between atoms: N1_1  and  C1_5 
REMARK    2  A    between atoms: C1_5  and  C2_6 
REMARK    3  A    between atoms: C6_10  and  N2_11 
ROOT
HETATM    1  C2  UNL     1      -1.584  15.172  17.159  1.00  0.00    -0.031 A 
HETATM    2  C3  UNL     1      -0.744  15.705  16.193  1.00  0.00     0.009 A 
HETATM    3  C4  UNL     1      -0.553  15.106  14.970  1.00  0.00     0.003 A 
HETATM    4  C5  UNL     1      -1.204  13.934  14.656  1.00  0.00     0.031 A 
HETATM    5  C6  UNL     1      -2.045  13.379  15.595  1.00  0.00     0.056 A 
HETATM    6  C10 UNL     1      -2.219  13.998  16.813  1.00  0.00     0.040 A 
ENDROOT
BRANCH   5   7
HETATM    7  N2  UNL     1      -2.733  12.154  15.284  1.00  0.00    -0.268 N 
HETATM    8  C7  UNL     1      -2.296  11.210  14.432  1.00  0.00     0.118 A 
HETATM    9  C8  UNL     1      -3.217  10.174  14.385  1.00  0.00     0.038 A 
HETATM   10  C9  UNL     1      -4.230  10.553  15.260  1.00  0.00     0.109 A 
HETATM   11  N3  UNL     1      -3.878  11.735  15.756  1.00  0.00    -0.305 N 
ATOM     12  H3  UNL     1      -4.439  12.257  16.429  1.00  0.00     0.186 HD
ENDBRANCH   5   7
BRANCH   1  13
HETATM   13  C1  UNL     1      -1.770  15.843  18.473  1.00  0.00     0.268 C 
BRANCH  13  14
HETATM   14  N1  UNL     1      -2.998  15.470  19.119  1.00  0.00    -0.075 N 
ATOM     15  H13 UNL     1      -3.689  15.158  18.437  1.00  0.00     0.274 HD
ATOM     16  H12 UNL     1      -2.884  14.604  19.647  1.00  0.00     0.274 HD
ATOM     17  H11 UNL     1      -3.375  16.211  19.709  1.00  0.00     0.274 HD
ENDBRANCH  13  14
ENDBRANCH   1  13
TORSDOF 3
ENDMDL
