MODEL 11
REMARK VINA RESULT: -5.121927402      1.889      5.325
REMARK  3 active torsions:
REMARK  status: ('A' for Active; 'I' for Inactive)
REMARK    1  A    between atoms: N1_1  and  C1_5 
REMARK    2  A    between atoms: C1_5  and  C2_6 
REMARK    3  A    between atoms: C6_10  and  N2_11 
ROOT
HETATM    1  C2  UNL     1      -1.921  11.280  13.220  1.00  0.00    -0.031 A 
HETATM    2  C3  UNL     1      -2.804  10.411  13.842  1.00  0.00     0.009 A 
HETATM    3  C4  UNL     1      -3.333  10.661  15.086  1.00  0.00     0.003 A 
HETATM    4  C5  UNL     1      -2.998  11.808  15.771  1.00  0.00     0.031 A 
HETATM    5  C6  UNL     1      -2.122  12.692  15.179  1.00  0.00     0.056 A 
HETATM    6  C10 UNL     1      -1.605  12.418  13.932  1.00  0.00     0.040 A 
ENDROOT
BRANCH   5   7
HETATM    7  N2  UNL     1      -1.759  13.895  15.880  1.00  0.00    -0.268 N 
HETATM    8  C7  UNL     1      -2.261  14.288  17.064  1.00  0.00     0.118 A 
HETATM    9  C8  UNL     1      -1.680  15.493  17.430  1.00  0.00     0.038 A 
HETATM   10  C9  UNL     1      -0.801  15.797  16.397  1.00  0.00     0.109 A 
HETATM   11  N3  UNL     1      -0.900  14.810  15.513  1.00  0.00    -0.305 N 
ATOM     12  H3  UNL     1      -0.365  14.770  14.646  1.00  0.00     0.186 HD
ENDBRANCH   5   7
BRANCH   1  13
HETATM   13  C1  UNL     1      -1.366  10.981  11.872  1.00  0.00     0.268 C 
BRANCH  13  14
HETATM   14  N1  UNL     1      -1.609  12.033  10.926  1.00  0.00    -0.075 N 
ATOM     15  H13 UNL     1      -2.303  12.691  11.280  1.00  0.00     0.274 HD
ATOM     16  H12 UNL     1      -0.806  12.659  10.860  1.00  0.00     0.274 HD
ATOM     17  H11 UNL     1      -1.876  11.682  10.006  1.00  0.00     0.274 HD
ENDBRANCH  13  14
ENDBRANCH   1  13
TORSDOF 3
ENDMDL
