MODEL 10
REMARK VINA RESULT: -5.188233303      1.541      5.293
REMARK  3 active torsions:
REMARK  status: ('A' for Active; 'I' for Inactive)
REMARK    1  A    between atoms: N1_1  and  C1_5 
REMARK    2  A    between atoms: C1_5  and  C2_6 
REMARK    3  A    between atoms: C6_10  and  N2_11 
ROOT
HETATM    1  C2  UNL     1      -2.248  11.211  13.740  1.00  0.00    -0.031 A 
HETATM    2  C3  UNL     1      -3.095  10.285  14.330  1.00  0.00     0.009 A 
HETATM    3  C4  UNL     1      -3.628  10.467  15.584  1.00  0.00     0.003 A 
HETATM    4  C5  UNL     1      -3.333  11.599  16.312  1.00  0.00     0.031 A 
HETATM    5  C6  UNL     1      -2.493  12.537  15.753  1.00  0.00     0.056 A 
HETATM    6  C10 UNL     1      -1.972  12.331  14.495  1.00  0.00     0.040 A 
ENDROOT
BRANCH   5   7
HETATM    7  N2  UNL     1      -2.173  13.725  16.500  1.00  0.00    -0.268 N 
HETATM    8  C7  UNL     1      -1.466  14.770  16.034  1.00  0.00     0.118 A 
HETATM    9  C8  UNL     1      -1.358  15.728  17.031  1.00  0.00     0.038 A 
HETATM   10  C9  UNL     1      -2.041  15.197  18.118  1.00  0.00     0.109 A 
HETATM   11  N3  UNL     1      -2.497  14.009  17.734  1.00  0.00    -0.305 N 
ATOM     12  H3  UNL     1      -3.039  13.388  18.335  1.00  0.00     0.186 HD
ENDBRANCH   5   7
BRANCH   1  13
HETATM   13  C1  UNL     1      -1.687  10.985  12.381  1.00  0.00     0.268 C 
BRANCH  13  14
HETATM   14  N1  UNL     1      -1.696  12.172  11.573  1.00  0.00    -0.075 N 
ATOM     15  H13 UNL     1      -2.644  12.414  11.288  1.00  0.00     0.274 HD
ATOM     16  H12 UNL     1      -1.476  12.997  12.132  1.00  0.00     0.274 HD
ATOM     17  H11 UNL     1      -1.078  12.104  10.764  1.00  0.00     0.274 HD
ENDBRANCH  13  14
ENDBRANCH   1  13
TORSDOF 3
ENDMDL
