MODEL 5
REMARK VINA RESULT: -5.469553690      1.149      1.265
REMARK  3 active torsions:
REMARK  status: ('A' for Active; 'I' for Inactive)
REMARK    1  A    between atoms: N1_1  and  C1_5 
REMARK    2  A    between atoms: C1_5  and  C2_6 
REMARK    3  A    between atoms: C6_10  and  N2_11 
ROOT
HETATM    1  C2  UNL     1      -1.776  14.912  17.025  1.00  0.00    -0.031 A 
HETATM    2  C3  UNL     1      -1.221  15.224  15.793  1.00  0.00     0.009 A 
HETATM    3  C4  UNL     1      -1.358  14.408  14.695  1.00  0.00     0.003 A 
HETATM    4  C5  UNL     1      -2.067  13.230  14.782  1.00  0.00     0.031 A 
HETATM    5  C6  UNL     1      -2.630  12.893  15.993  1.00  0.00     0.056 A 
HETATM    6  C10 UNL     1      -2.478  13.727  17.079  1.00  0.00     0.040 A 
ENDROOT
BRANCH   5   7
HETATM    7  N2  UNL     1      -3.374  11.666  16.104  1.00  0.00    -0.268 N 
HETATM    8  C7  UNL     1      -3.312  10.808  17.138  1.00  0.00     0.118 A 
HETATM    9  C8  UNL     1      -4.163   9.740  16.897  1.00  0.00     0.038 A 
HETATM   10  C9  UNL     1      -4.738  10.009  15.660  1.00  0.00     0.109 A 
HETATM   11  N3  UNL     1      -4.225  11.164  15.248  1.00  0.00    -0.305 N 
ATOM     12  H3  UNL     1      -4.468  11.608  14.363  1.00  0.00     0.186 HD
ENDBRANCH   5   7
BRANCH   1  13
HETATM   13  C1  UNL     1      -1.610  15.816  18.196  1.00  0.00     0.268 C 
BRANCH  13  14
HETATM   14  N1  UNL     1      -2.640  15.643  19.181  1.00  0.00    -0.075 N 
ATOM     15  H13 UNL     1      -3.271  14.885  18.921  1.00  0.00     0.274 HD
ATOM     16  H12 UNL     1      -2.260  15.252  20.043  1.00  0.00     0.274 HD
ATOM     17  H11 UNL     1      -3.158  16.502  19.366  1.00  0.00     0.274 HD
ENDBRANCH  13  14
ENDBRANCH   1  13
TORSDOF 3
ENDMDL
