MODEL 1
REMARK VINA RESULT: -5.887035505      0.000      0.000
REMARK  3 active torsions:
REMARK  status: ('A' for Active; 'I' for Inactive)
REMARK    1  A    between atoms: N1_1  and  C1_5 
REMARK    2  A    between atoms: C1_5  and  C2_6 
REMARK    3  A    between atoms: C6_10  and  N2_11 
ROOT
HETATM    1  C2  UNL     1      -1.591  15.070  17.055  1.00  0.00    -0.031 A 
HETATM    2  C3  UNL     1      -0.787  15.647  16.084  1.00  0.00     0.009 A 
HETATM    3  C4  UNL     1      -0.590  15.071  14.851  1.00  0.00     0.003 A 
HETATM    4  C5  UNL     1      -1.198  13.877  14.532  1.00  0.00     0.031 A 
HETATM    5  C6  UNL     1      -2.003  13.279  15.476  1.00  0.00     0.056 A 
HETATM    6  C10 UNL     1      -2.184  13.875  16.704  1.00  0.00     0.040 A 
ENDROOT
BRANCH   5   7
HETATM    7  N2  UNL     1      -2.646  12.030  15.161  1.00  0.00    -0.268 N 
HETATM    8  C7  UNL     1      -3.723  11.528  15.790  1.00  0.00     0.118 A 
HETATM    9  C8  UNL     1      -4.062  10.312  15.216  1.00  0.00     0.038 A 
HETATM   10  C9  UNL     1      -3.126  10.116  14.207  1.00  0.00     0.109 A 
HETATM   11  N3  UNL     1      -2.318  11.171  14.231  1.00  0.00    -0.305 N 
ATOM     12  H3  UNL     1      -1.531  11.296  13.596  1.00  0.00     0.186 HD
ENDBRANCH   5   7
BRANCH   1  13
HETATM   13  C1  UNL     1      -1.785  15.718  18.380  1.00  0.00     0.268 C 
BRANCH  13  14
HETATM   14  N1  UNL     1      -2.989  15.292  19.036  1.00  0.00    -0.075 N 
ATOM     15  H13 UNL     1      -3.765  15.916  18.816  1.00  0.00     0.274 HD
ATOM     16  H12 UNL     1      -3.346  14.431  18.621  1.00  0.00     0.274 HD
ATOM     17  H11 UNL     1      -2.875  15.193  20.044  1.00  0.00     0.274 HD
ENDBRANCH  13  14
ENDBRANCH   1  13
TORSDOF 3
ENDMDL
