MODEL 3
REMARK VINA RESULT: -5.781709647      1.114      1.426
REMARK  3 active torsions:
REMARK  status: ('A' for Active; 'I' for Inactive)
REMARK    1  A    between atoms: N1_1  and  C1_5 
REMARK    2  A    between atoms: C1_5  and  C2_6 
REMARK    3  A    between atoms: C6_10  and  N2_11 
ROOT
HETATM    1  C2  UNL     1      -1.762  15.140  17.282  1.00  0.00    -0.031 A 
HETATM    2  C3  UNL     1      -1.260  15.513  16.045  1.00  0.00     0.009 A 
HETATM    3  C4  UNL     1      -1.352  14.704  14.937  1.00  0.00     0.003 A 
HETATM    4  C5  UNL     1      -1.960  13.471  15.019  1.00  0.00     0.031 A 
HETATM    5  C6  UNL     1      -2.469  13.072  16.236  1.00  0.00     0.056 A 
HETATM    6  C10 UNL     1      -2.363  13.900  17.331  1.00  0.00     0.040 A 
ENDROOT
BRANCH   5   7
HETATM    7  N2  UNL     1      -3.107  11.786  16.341  1.00  0.00    -0.268 N 
HETATM    8  C7  UNL     1      -3.796  11.176  15.361  1.00  0.00     0.118 A 
HETATM    9  C8  UNL     1      -4.265   9.955  15.824  1.00  0.00     0.038 A 
HETATM   10  C9  UNL     1      -3.817   9.871  17.137  1.00  0.00     0.109 A 
HETATM   11  N3  UNL     1      -3.139  10.989  17.377  1.00  0.00    -0.305 N 
ATOM     12  H3  UNL     1      -2.694  11.201  18.270  1.00  0.00     0.186 HD
ENDBRANCH   5   7
BRANCH   1  13
HETATM   13  C1  UNL     1      -1.647  16.038  18.463  1.00  0.00     0.268 C 
BRANCH  13  14
HETATM   14  N1  UNL     1      -2.384  15.559  19.598  1.00  0.00    -0.075 N 
ATOM     15  H13 UNL     1      -1.756  15.189  20.311  1.00  0.00     0.274 HD
ATOM     16  H12 UNL     1      -2.792  16.333  20.123  1.00  0.00     0.274 HD
ATOM     17  H11 UNL     1      -3.096  14.873  19.346  1.00  0.00     0.274 HD
ENDBRANCH  13  14
ENDBRANCH   1  13
TORSDOF 3
ENDMDL
