MODEL 7
REMARK VINA RESULT: -5.348759448      1.857      5.099
REMARK  3 active torsions:
REMARK  status: ('A' for Active; 'I' for Inactive)
REMARK    1  A    between atoms: N1_1  and  C1_5 
REMARK    2  A    between atoms: C1_5  and  C2_6 
REMARK    3  A    between atoms: C6_10  and  N2_11 
ROOT
HETATM    1  C2  UNL     1      -0.907  11.836  14.183  1.00  0.00    -0.031 A 
HETATM    2  C3  UNL     1      -2.089  11.116  14.104  1.00  0.00     0.009 A 
HETATM    3  C4  UNL     1      -3.176  11.393  14.898  1.00  0.00     0.003 A 
HETATM    4  C5  UNL     1      -3.128  12.418  15.817  1.00  0.00     0.031 A 
HETATM    5  C6  UNL     1      -1.967  13.152  15.920  1.00  0.00     0.056 A 
HETATM    6  C10 UNL     1      -0.891  12.854  15.114  1.00  0.00     0.040 A 
ENDROOT
BRANCH   5   7
HETATM    7  N2  UNL     1      -1.898  14.226  16.876  1.00  0.00    -0.268 N 
HETATM    8  C7  UNL     1      -1.213  15.371  16.711  1.00  0.00     0.118 A 
HETATM    9  C8  UNL     1      -1.377  16.167  17.836  1.00  0.00     0.038 A 
HETATM   10  C9  UNL     1      -2.199  15.430  18.681  1.00  0.00     0.109 A 
HETATM   11  N3  UNL     1      -2.468  14.292  18.050  1.00  0.00    -0.305 N 
ATOM     12  H3  UNL     1      -3.054  13.553  18.439  1.00  0.00     0.186 HD
ENDBRANCH   5   7
BRANCH   1  13
HETATM   13  C1  UNL     1       0.253  11.512  13.310  1.00  0.00     0.268 C 
BRANCH  13  14
HETATM   14  N1  UNL     1       1.492  11.446  14.033  1.00  0.00    -0.075 N 
ATOM     15  H13 UNL     1       1.747  12.361  14.404  1.00  0.00     0.274 HD
ATOM     16  H12 UNL     1       1.376  10.939  14.911  1.00  0.00     0.274 HD
ATOM     17  H11 UNL     1       2.252  11.051  13.480  1.00  0.00     0.274 HD
ENDBRANCH  13  14
ENDBRANCH   1  13
TORSDOF 3
ENDMDL
