MODEL 6
REMARK VINA RESULT: -5.438801434      1.250      1.480
REMARK  3 active torsions:
REMARK  status: ('A' for Active; 'I' for Inactive)
REMARK    1  A    between atoms: N1_1  and  C1_5 
REMARK    2  A    between atoms: C1_5  and  C2_6 
REMARK    3  A    between atoms: C6_10  and  N2_11 
ROOT
HETATM    1  C2  UNL     1      -1.886  14.690  16.934  1.00  0.00    -0.031 A 
HETATM    2  C3  UNL     1      -0.989  15.646  16.483  1.00  0.00     0.009 A 
HETATM    3  C4  UNL     1      -0.336  15.536  15.278  1.00  0.00     0.003 A 
HETATM    4  C5  UNL     1      -0.557  14.450  14.460  1.00  0.00     0.031 A 
HETATM    5  C6  UNL     1      -1.442  13.482  14.881  1.00  0.00     0.056 A 
HETATM    6  C10 UNL     1      -2.083  13.615  16.093  1.00  0.00     0.040 A 
ENDROOT
BRANCH   5   7
HETATM    7  N2  UNL     1      -1.685  12.339  14.040  1.00  0.00    -0.268 N 
HETATM    8  C7  UNL     1      -2.292  11.203  14.426  1.00  0.00     0.118 A 
HETATM    9  C8  UNL     1      -2.349  10.328  13.352  1.00  0.00     0.038 A 
HETATM   10  C9  UNL     1      -1.742  11.006  12.301  1.00  0.00     0.109 A 
HETATM   11  N3  UNL     1      -1.372  12.190  12.779  1.00  0.00    -0.305 N 
ATOM     12  H3  UNL     1      -0.897  12.902  12.225  1.00  0.00     0.186 HD
ENDBRANCH   5   7
BRANCH   1  13
HETATM   13  C1  UNL     1      -2.576  14.838  18.244  1.00  0.00     0.268 C 
BRANCH  13  14
HETATM   14  N1  UNL     1      -2.267  16.079  18.897  1.00  0.00    -0.075 N 
ATOM     15  H13 UNL     1      -1.461  16.528  18.464  1.00  0.00     0.274 HD
ATOM     16  H12 UNL     1      -2.976  16.784  18.697  1.00  0.00     0.274 HD
ATOM     17  H11 UNL     1      -2.130  15.972  19.902  1.00  0.00     0.274 HD
ENDBRANCH  13  14
ENDBRANCH   1  13
TORSDOF 3
ENDMDL
