MODEL 11
REMARK VINA RESULT: -4.312987510      3.733      5.178
REMARK  2 active torsions:
REMARK  status: ('A' for Active; 'I' for Inactive)
REMARK    1  A    between atoms: N1_1  and  C1_5 
REMARK    2  A    between atoms: C1_5  and  C2_6 
ROOT
HETATM    1  C2  UNL     1       1.693 -10.746  13.175  1.00  0.00    -0.015 A 
HETATM    2  C3  UNL     1       2.389  -9.607  13.097  1.00  0.00     0.060 A 
HETATM    3  S1  UNL     1       3.366  -9.706  14.498  1.00  0.00    -0.101 SA
HETATM    4  C4  UNL     1       2.846 -11.193  15.132  1.00  0.00     0.015 A 
HETATM    5  C5  UNL     1       3.252 -11.974  16.213  1.00  0.00     0.021 A 
HETATM    6  C6  UNL     1       2.700 -13.241  16.422  1.00  0.00     0.020 A 
HETATM    7  C7  UNL     1       1.762 -13.629  15.522  1.00  0.00     0.011 A 
HETATM    8 BR1  UNL     1       0.996 -15.386  15.754  1.00  0.00    -0.051 Br
HETATM    9  C8  UNL     1       1.351 -12.869  14.456  1.00  0.00     0.032 A 
HETATM   10  C9  UNL     1       1.922 -11.584  14.235  1.00  0.00    -0.009 A 
ENDROOT
BRANCH   1  11
HETATM   11  C1  UNL     1       0.549 -11.091  12.172  1.00  0.00     0.269 C 
BRANCH  11  12
HETATM   12  N1  UNL     1       1.347 -11.625  11.033  1.00  0.00    -0.075 N 
ATOM     13  H13 UNL     1       1.033 -12.518  10.651  1.00  0.00     0.274 HD
ATOM     14  H12 UNL     1       1.254 -11.120  10.152  1.00  0.00     0.274 HD
ATOM     15  H11 UNL     1       2.279 -11.625  11.449  1.00  0.00     0.274 HD
ENDBRANCH  11  12
ENDBRANCH   1  11
TORSDOF 2
ENDMDL
