MODEL 12
REMARK VINA RESULT: -4.120648197      3.420      4.611
REMARK  2 active torsions:
REMARK  status: ('A' for Active; 'I' for Inactive)
REMARK    1  A    between atoms: N1_1  and  C1_5 
REMARK    2  A    between atoms: C1_5  and  C2_6 
ROOT
HETATM    1  C2  UNL     1       3.650 -10.383  15.296  1.00  0.00    -0.015 A 
HETATM    2  C3  UNL     1       3.541  -9.367  14.434  1.00  0.00     0.060 A 
HETATM    3  S1  UNL     1       2.344  -9.956  13.363  1.00  0.00    -0.101 SA
HETATM    4  C4  UNL     1       2.034 -11.476  14.052  1.00  0.00     0.015 A 
HETATM    5  C5  UNL     1       1.116 -12.490  13.778  1.00  0.00     0.021 A 
HETATM    6  C6  UNL     1       1.018 -13.605  14.615  1.00  0.00     0.020 A 
HETATM    7  C7  UNL     1       1.866 -13.623  15.672  1.00  0.00     0.011 A 
HETATM    8 BR1  UNL     1       1.742 -15.131  16.873  1.00  0.00    -0.051 Br
HETATM    9  C8  UNL     1       2.777 -12.635  15.951  1.00  0.00     0.032 A 
HETATM   10  C9  UNL     1       2.869 -11.492  15.107  1.00  0.00    -0.009 A 
ENDROOT
BRANCH   1  11
HETATM   11  C1  UNL     1       4.721 -10.396  16.432  1.00  0.00     0.269 C 
BRANCH  11  12
HETATM   12  N1  UNL     1       5.969 -10.381  15.619  1.00  0.00    -0.075 N 
ATOM     13  H13 UNL     1       6.768 -10.872  16.024  1.00  0.00     0.274 HD
ATOM     14  H12 UNL     1       5.950 -10.941  14.767  1.00  0.00     0.274 HD
ATOM     15  H11 UNL     1       6.088  -9.376  15.488  1.00  0.00     0.274 HD
ENDBRANCH  11  12
ENDBRANCH   1  11
TORSDOF 2
ENDMDL
