MODEL 1
REMARK VINA RESULT: -5.765144095      0.000      0.000
REMARK  2 active torsions:
REMARK  status: ('A' for Active; 'I' for Inactive)
REMARK    1  A    between atoms: N1_1  and  C1_5 
REMARK    2  A    between atoms: C1_5  and  C2_6 
ROOT
HETATM    1  C2  UNL     1       1.578 -14.785  16.736  1.00  0.00    -0.015 A 
HETATM    2  C3  UNL     1       0.796 -15.633  16.060  1.00  0.00     0.060 A 
HETATM    3  S1  UNL     1       0.566 -14.787  14.590  1.00  0.00    -0.101 SA
HETATM    4  C4  UNL     1       1.469 -13.383  14.898  1.00  0.00     0.015 A 
HETATM    5  C5  UNL     1       1.816 -12.273  14.129  1.00  0.00     0.021 A 
HETATM    6  C6  UNL     1       2.693 -11.306  14.630  1.00  0.00     0.020 A 
HETATM    7  C7  UNL     1       3.155 -11.527  15.886  1.00  0.00     0.011 A 
HETATM    8 BR1  UNL     1       4.395 -10.234  16.606  1.00  0.00    -0.051 Br
HETATM    9  C8  UNL     1       2.819 -12.613  16.655  1.00  0.00     0.032 A 
HETATM   10  C9  UNL     1       1.936 -13.604  16.141  1.00  0.00    -0.009 A 
ENDROOT
BRANCH   1  11
HETATM   11  C1  UNL     1       1.991 -15.039  18.219  1.00  0.00     0.269 C 
BRANCH  11  12
HETATM   12  N1  UNL     1       1.798 -16.514  18.299  1.00  0.00    -0.075 N 
ATOM     13  H13 UNL     1       2.379 -17.072  17.673  1.00  0.00     0.274 HD
ATOM     14  H12 UNL     1       2.141 -16.960  19.150  1.00  0.00     0.274 HD
ATOM     15  H11 UNL     1       0.792 -16.574  18.140  1.00  0.00     0.274 HD
ENDBRANCH  11  12
ENDBRANCH   1  11
TORSDOF 2
ENDMDL
