MODEL 6
REMARK VINA RESULT: -4.669336206      1.746      1.818
REMARK  2 active torsions:
REMARK  status: ('A' for Active; 'I' for Inactive)
REMARK    1  A    between atoms: N1_1  and  C1_5 
REMARK    2  A    between atoms: C1_5  and  C2_6 
ROOT
HETATM    1  C2  UNL     1       1.794 -14.235  16.663  1.00  0.00    -0.015 A 
HETATM    2  C3  UNL     1       1.763 -15.406  16.020  1.00  0.00     0.060 A 
HETATM    3  S1  UNL     1       0.940 -14.984  14.581  1.00  0.00    -0.101 SA
HETATM    4  C4  UNL     1       0.662 -13.332  14.857  1.00  0.00     0.015 A 
HETATM    5  C5  UNL     1       0.120 -12.304  14.088  1.00  0.00     0.021 A 
HETATM    6  C6  UNL     1       0.131 -10.986  14.552  1.00  0.00     0.020 A 
HETATM    7  C7  UNL     1       0.686 -10.799  15.775  1.00  0.00     0.011 A 
HETATM    8 BR1  UNL     1       0.752  -8.988  16.442  1.00  0.00    -0.051 Br
HETATM    9  C8  UNL     1       1.221 -11.802  16.545  1.00  0.00     0.032 A 
HETATM   10  C9  UNL     1       1.221 -13.143  16.067  1.00  0.00    -0.009 A 
ENDROOT
BRANCH   1  11
HETATM   11  C1  UNL     1       2.349 -14.099  18.116  1.00  0.00     0.269 C 
BRANCH  11  12
HETATM   12  N1  UNL     1       2.489 -15.537  18.481  1.00  0.00    -0.075 N 
ATOM     13  H13 UNL     1       1.939 -16.192  17.924  1.00  0.00     0.274 HD
ATOM     14  H12 UNL     1       3.386 -15.965  18.253  1.00  0.00     0.274 HD
ATOM     15  H11 UNL     1       2.257 -15.495  19.474  1.00  0.00     0.274 HD
ENDBRANCH  11  12
ENDBRANCH   1  11
TORSDOF 2
ENDMDL
