MODEL 10
REMARK VINA RESULT: -4.405056092      3.834      5.023
REMARK  2 active torsions:
REMARK  status: ('A' for Active; 'I' for Inactive)
REMARK    1  A    between atoms: N1_1  and  C1_5 
REMARK    2  A    between atoms: C1_5  and  C2_6 
ROOT
HETATM    1  C2  UNL     1      -0.067 -10.523  14.559  1.00  0.00    -0.015 A 
HETATM    2  C3  UNL     1       0.018  -9.229  14.882  1.00  0.00     0.060 A 
HETATM    3  S1  UNL     1       0.968  -9.295  16.304  1.00  0.00    -0.101 SA
HETATM    4  C4  UNL     1       1.213 -10.970  16.435  1.00  0.00     0.015 A 
HETATM    5  C5  UNL     1       1.964 -11.769  17.295  1.00  0.00     0.021 A 
HETATM    6  C6  UNL     1       2.068 -13.146  17.077  1.00  0.00     0.020 A 
HETATM    7  C7  UNL     1       1.393 -13.623  16.002  1.00  0.00     0.011 A 
HETATM    8 BR1  UNL     1       1.535 -15.516  15.645  1.00  0.00    -0.051 Br
HETATM    9  C8  UNL     1       0.647 -12.848  15.149  1.00  0.00     0.032 A 
HETATM   10  C9  UNL     1       0.552 -11.444  15.363  1.00  0.00    -0.009 A 
ENDROOT
BRANCH   1  11
HETATM   11  C1  UNL     1      -0.947 -11.027  13.372  1.00  0.00     0.269 C 
BRANCH  11  12
HETATM   12  N1  UNL     1      -2.294 -10.994  14.008  1.00  0.00    -0.075 N 
ATOM     13  H13 UNL     1      -2.478 -11.725  14.695  1.00  0.00     0.274 HD
ATOM     14  H12 UNL     1      -2.458 -10.225  14.659  1.00  0.00     0.274 HD
ATOM     15  H11 UNL     1      -2.887 -11.007  13.178  1.00  0.00     0.274 HD
ENDBRANCH  11  12
ENDBRANCH   1  11
TORSDOF 2
ENDMDL
