MODEL 8
REMARK VINA RESULT: -5.244489005      2.325      5.331
REMARK  3 active torsions:
REMARK  status: ('A' for Active; 'I' for Inactive)
REMARK    1  A    between atoms: N2_5  and  C4_6 
REMARK    2  A    between atoms: C8_10  and  C9_11 
REMARK    3  A    between atoms: C9_11  and  N3_12 
ROOT
HETATM    1  C4  UNL     1     -24.209   2.739  14.746  1.00  0.00     0.030 A 
HETATM    2  C5  UNL     1     -24.723   3.053  13.514  1.00  0.00     0.029 A 
HETATM    3  C6  UNL     1     -26.100   3.014  13.253  1.00  0.00     0.003 A 
HETATM    4  C7  UNL     1     -26.967   2.650  14.261  1.00  0.00     0.009 A 
HETATM    5  C8  UNL     1     -26.474   2.331  15.503  1.00  0.00    -0.031 A 
HETATM    6  C10 UNL     1     -25.101   2.379  15.733  1.00  0.00     0.038 A 
ENDROOT
BRANCH   1   7
HETATM    7  N2  UNL     1     -22.831   2.796  14.971  1.00  0.00    -0.378 N 
HETATM    8  C3  UNL     1     -22.175   3.739  15.890  1.00  0.00     0.153 C 
HETATM    9  C2  UNL     1     -21.570   2.861  16.973  1.00  0.00     0.291 C 
HETATM   10  N1  UNL     1     -20.601   2.001  16.320  1.00  0.00     0.087 N 
HETATM   11  C1  UNL     1     -19.861   1.201  17.263  1.00  0.00     0.310 C 
HETATM   12  C12 UNL     1     -21.272   1.065  15.413  1.00  0.00     0.291 C 
HETATM   13  C11 UNL     1     -21.862   1.929  14.318  1.00  0.00     0.153 C 
ENDBRANCH   1   7
BRANCH   5  14
HETATM   14  C9  UNL     1     -27.426   1.942  16.568  1.00  0.00     0.268 C 
BRANCH  14  15
HETATM   15  N3  UNL     1     -26.845   1.964  17.871  1.00  0.00    -0.075 N 
ATOM     16  H33 UNL     1     -26.909   2.896  18.282  1.00  0.00     0.274 HD
ATOM     17  H32 UNL     1     -27.422   1.449  18.536  1.00  0.00     0.274 HD
ATOM     18  H31 UNL     1     -25.883   1.626  17.884  1.00  0.00     0.274 HD
ENDBRANCH  14  15
ENDBRANCH   5  14
TORSDOF 3
ENDMDL
