MODEL 10
REMARK VINA RESULT: -5.202928566      1.511      2.028
REMARK  3 active torsions:
REMARK  status: ('A' for Active; 'I' for Inactive)
REMARK    1  A    between atoms: N2_5  and  C4_6 
REMARK    2  A    between atoms: C8_10  and  C9_11 
REMARK    3  A    between atoms: C9_11  and  N3_12 
ROOT
HETATM    1  C4  UNL     1     -23.114   3.709  15.915  1.00  0.00     0.030 A 
HETATM    2  C5  UNL     1     -23.129   3.330  14.598  1.00  0.00     0.029 A 
HETATM    3  C6  UNL     1     -22.252   2.360  14.094  1.00  0.00     0.003 A 
HETATM    4  C7  UNL     1     -21.345   1.765  14.946  1.00  0.00     0.009 A 
HETATM    5  C8  UNL     1     -21.312   2.128  16.270  1.00  0.00    -0.031 A 
HETATM    6  C10 UNL     1     -22.196   3.096  16.741  1.00  0.00     0.038 A 
ENDROOT
BRANCH   1   7
HETATM    7  N2  UNL     1     -24.010   4.675  16.383  1.00  0.00    -0.378 N 
HETATM    8  C3  UNL     1     -23.987   5.247  17.738  1.00  0.00     0.153 C 
HETATM    9  C2  UNL     1     -23.657   6.716  17.530  1.00  0.00     0.291 C 
HETATM   10  N1  UNL     1     -24.736   7.277  16.739  1.00  0.00     0.087 N 
HETATM   11  C1  UNL     1     -24.607   8.703  16.576  1.00  0.00     0.310 C 
HETATM   12  C12 UNL     1     -24.740   6.701  15.390  1.00  0.00     0.291 C 
HETATM   13  C11 UNL     1     -25.088   5.240  15.585  1.00  0.00     0.153 C 
ENDBRANCH   1   7
BRANCH   5  14
HETATM   14  C9  UNL     1     -20.329   1.475  17.163  1.00  0.00     0.268 C 
BRANCH  14  15
HETATM   15  N3  UNL     1     -19.987   0.155  16.746  1.00  0.00    -0.075 N 
ATOM     16  H33 UNL     1     -19.069   0.140  16.302  1.00  0.00     0.274 HD
ATOM     17  H32 UNL     1     -19.793  -0.442  17.550  1.00  0.00     0.274 HD
ATOM     18  H31 UNL     1     -20.691  -0.267  16.141  1.00  0.00     0.274 HD
ENDBRANCH  14  15
ENDBRANCH   5  14
TORSDOF 3
ENDMDL
