MODEL 1
REMARK VINA RESULT: -5.894001157      0.000      0.000
REMARK  3 active torsions:
REMARK  status: ('A' for Active; 'I' for Inactive)
REMARK    1  A    between atoms: N2_5  and  C4_6 
REMARK    2  A    between atoms: C8_10  and  C9_11 
REMARK    3  A    between atoms: C9_11  and  N3_12 
ROOT
HETATM    1  C4  UNL     1     -22.496   3.373  15.657  1.00  0.00     0.030 A 
HETATM    2  C5  UNL     1     -22.568   2.671  14.482  1.00  0.00     0.029 A 
HETATM    3  C6  UNL     1     -21.808   1.513  14.262  1.00  0.00     0.003 A 
HETATM    4  C7  UNL     1     -20.963   1.063  15.254  1.00  0.00     0.009 A 
HETATM    5  C8  UNL     1     -20.876   1.751  16.440  1.00  0.00    -0.031 A 
HETATM    6  C10 UNL     1     -21.643   2.899  16.629  1.00  0.00     0.038 A 
ENDROOT
BRANCH   1   7
HETATM    7  N2  UNL     1     -23.274   4.520  15.842  1.00  0.00    -0.378 N 
HETATM    8  C3  UNL     1     -24.220   5.055  14.850  1.00  0.00     0.153 C 
HETATM    9  C2  UNL     1     -25.583   4.920  15.508  1.00  0.00     0.291 C 
HETATM   10  N1  UNL     1     -25.553   5.741  16.703  1.00  0.00     0.087 N 
HETATM   11  C1  UNL     1     -26.836   5.799  17.356  1.00  0.00     0.310 C 
HETATM   12  C12 UNL     1     -24.610   5.190  17.682  1.00  0.00     0.291 C 
HETATM   13  C11 UNL     1     -23.244   5.339  17.045  1.00  0.00     0.153 C 
ENDBRANCH   1   7
BRANCH   5  14
HETATM   14  C9  UNL     1     -19.961   1.248  17.489  1.00  0.00     0.268 C 
BRANCH  14  15
HETATM   15  N3  UNL     1     -19.360   2.292  18.253  1.00  0.00    -0.075 N 
ATOM     16  H33 UNL     1     -18.477   1.983  18.661  1.00  0.00     0.274 HD
ATOM     17  H32 UNL     1     -19.011   3.033  17.646  1.00  0.00     0.274 HD
ATOM     18  H31 UNL     1     -19.980   2.669  18.970  1.00  0.00     0.274 HD
ENDBRANCH  14  15
ENDBRANCH   5  14
TORSDOF 3
ENDMDL
