MODEL 6
REMARK VINA RESULT: -5.493083204      2.732      5.633
REMARK  3 active torsions:
REMARK  status: ('A' for Active; 'I' for Inactive)
REMARK    1  A    between atoms: N2_5  and  C4_6 
REMARK    2  A    between atoms: C8_10  and  C9_11 
REMARK    3  A    between atoms: C9_11  and  N3_12 
ROOT
HETATM    1  C4  UNL     1     -24.039   2.912  14.150  1.00  0.00     0.030 A 
HETATM    2  C5  UNL     1     -24.473   3.830  13.230  1.00  0.00     0.029 A 
HETATM    3  C6  UNL     1     -25.793   3.841  12.758  1.00  0.00     0.003 A 
HETATM    4  C7  UNL     1     -26.686   2.902  13.230  1.00  0.00     0.009 A 
HETATM    5  C8  UNL     1     -26.272   1.972  14.153  1.00  0.00    -0.031 A 
HETATM    6  C10 UNL     1     -24.954   1.987  14.603  1.00  0.00     0.038 A 
ENDROOT
BRANCH   1   7
HETATM    7  N2  UNL     1     -22.716   2.937  14.603  1.00  0.00    -0.378 N 
HETATM    8  C3  UNL     1     -22.201   3.866  15.621  1.00  0.00     0.153 C 
HETATM    9  C2  UNL     1     -21.807   2.976  16.787  1.00  0.00     0.291 C 
HETATM   10  N1  UNL     1     -20.763   2.092  16.304  1.00  0.00     0.087 N 
HETATM   11  C1  UNL     1     -20.210   1.276  17.355  1.00  0.00     0.310 C 
HETATM   12  C12 UNL     1     -21.295   1.170  15.295  1.00  0.00     0.291 C 
HETATM   13  C11 UNL     1     -21.673   2.046  14.118  1.00  0.00     0.153 C 
ENDBRANCH   1   7
BRANCH   5  14
HETATM   14  C9  UNL     1     -27.249   0.975  14.645  1.00  0.00     0.268 C 
BRANCH  14  15
HETATM   15  N3  UNL     1     -28.457   0.956  13.886  1.00  0.00    -0.075 N 
ATOM     16  H33 UNL     1     -28.635   1.867  13.462  1.00  0.00     0.274 HD
ATOM     17  H32 UNL     1     -28.346   0.398  13.039  1.00  0.00     0.274 HD
ATOM     18  H31 UNL     1     -29.263   0.642  14.426  1.00  0.00     0.274 HD
ENDBRANCH  14  15
ENDBRANCH   5  14
TORSDOF 3
ENDMDL
