MODEL 4
REMARK VINA RESULT: -5.679710386      1.126      1.363
REMARK  3 active torsions:
REMARK  status: ('A' for Active; 'I' for Inactive)
REMARK    1  A    between atoms: N2_5  and  C4_6 
REMARK    2  A    between atoms: C8_10  and  C9_11 
REMARK    3  A    between atoms: C9_11  and  N3_12 
ROOT
HETATM    1  C4  UNL     1     -22.782   3.121  15.677  1.00  0.00     0.030 A 
HETATM    2  C5  UNL     1     -22.604   2.599  14.422  1.00  0.00     0.029 A 
HETATM    3  C6  UNL     1     -21.592   1.670  14.141  1.00  0.00     0.003 A 
HETATM    4  C7  UNL     1     -20.748   1.266  15.153  1.00  0.00     0.009 A 
HETATM    5  C8  UNL     1     -20.908   1.776  16.419  1.00  0.00    -0.031 A 
HETATM    6  C10 UNL     1     -21.922   2.697  16.668  1.00  0.00     0.038 A 
ENDROOT
BRANCH   1   7
HETATM    7  N2  UNL     1     -23.806   4.040  15.921  1.00  0.00    -0.378 N 
HETATM    8  C3  UNL     1     -23.848   5.406  15.377  1.00  0.00     0.153 C 
HETATM    9  C2  UNL     1     -25.059   5.417  14.460  1.00  0.00     0.291 C 
HETATM   10  N1  UNL     1     -26.216   5.146  15.292  1.00  0.00     0.087 N 
HETATM   11  C1  UNL     1     -27.451   5.253  14.559  1.00  0.00     0.310 C 
HETATM   12  C12 UNL     1     -26.161   3.779  15.821  1.00  0.00     0.291 C 
HETATM   13  C11 UNL     1     -24.968   3.763  16.753  1.00  0.00     0.153 C 
ENDBRANCH   1   7
BRANCH   5  14
HETATM   14  C9  UNL     1     -19.988   1.326  17.488  1.00  0.00     0.268 C 
BRANCH  14  15
HETATM   15  N3  UNL     1     -19.385   2.408  18.197  1.00  0.00    -0.075 N 
ATOM     16  H33 UNL     1     -18.463   2.145  18.546  1.00  0.00     0.274 HD
ATOM     17  H32 UNL     1     -19.114   3.155  17.558  1.00  0.00     0.274 HD
ATOM     18  H31 UNL     1     -19.972   2.767  18.950  1.00  0.00     0.274 HD
ENDBRANCH  14  15
ENDBRANCH   5  14
TORSDOF 3
ENDMDL
