MODEL 3
REMARK VINA RESULT: -5.799231114      1.029      1.756
REMARK  3 active torsions:
REMARK  status: ('A' for Active; 'I' for Inactive)
REMARK    1  A    between atoms: N2_5  and  C4_6 
REMARK    2  A    between atoms: C8_10  and  C9_11 
REMARK    3  A    between atoms: C9_11  and  N3_12 
ROOT
HETATM    1  C4  UNL     1     -22.834   3.075  15.992  1.00  0.00     0.030 A 
HETATM    2  C5  UNL     1     -22.930   2.424  14.790  1.00  0.00     0.029 A 
HETATM    3  C6  UNL     1     -22.050   1.394  14.431  1.00  0.00     0.003 A 
HETATM    4  C7  UNL     1     -21.056   1.020  15.310  1.00  0.00     0.009 A 
HETATM    5  C8  UNL     1     -20.940   1.659  16.521  1.00  0.00    -0.031 A 
HETATM    6  C10 UNL     1     -21.829   2.679  16.849  1.00  0.00     0.038 A 
ENDROOT
BRANCH   1   7
HETATM    7  N2  UNL     1     -23.734   4.094  16.318  1.00  0.00    -0.378 N 
HETATM    8  C3  UNL     1     -23.576   5.014  17.455  1.00  0.00     0.153 C 
HETATM    9  C2  UNL     1     -23.400   6.383  16.818  1.00  0.00     0.291 C 
HETATM   10  N1  UNL     1     -24.618   6.660  16.081  1.00  0.00     0.087 N 
HETATM   11  C1  UNL     1     -24.629   7.991  15.529  1.00  0.00     0.310 C 
HETATM   12  C12 UNL     1     -24.756   5.737  14.949  1.00  0.00     0.291 C 
HETATM   13  C11 UNL     1     -24.953   4.372  15.573  1.00  0.00     0.153 C 
ENDBRANCH   1   7
BRANCH   5  14
HETATM   14  C9  UNL     1     -19.864   1.240  17.447  1.00  0.00     0.268 C 
BRANCH  14  15
HETATM   15  N3  UNL     1     -19.347   2.317  18.226  1.00  0.00    -0.075 N 
ATOM     16  H33 UNL     1     -18.587   2.788  17.736  1.00  0.00     0.274 HD
ATOM     17  H32 UNL     1     -20.016   3.086  18.273  1.00  0.00     0.274 HD
ATOM     18  H31 UNL     1     -19.056   2.029  19.160  1.00  0.00     0.274 HD
ENDBRANCH  14  15
ENDBRANCH   5  14
TORSDOF 3
ENDMDL
