MODEL 2
REMARK VINA RESULT: -5.858451918      1.042      1.605
REMARK  3 active torsions:
REMARK  status: ('A' for Active; 'I' for Inactive)
REMARK    1  A    between atoms: N2_5  and  C4_6 
REMARK    2  A    between atoms: C8_10  and  C9_11 
REMARK    3  A    between atoms: C9_11  and  N3_12 
ROOT
HETATM    1  C4  UNL     1     -22.815   3.033  15.763  1.00  0.00     0.030 A 
HETATM    2  C5  UNL     1     -22.882   2.292  14.611  1.00  0.00     0.029 A 
HETATM    3  C6  UNL     1     -22.000   1.231  14.359  1.00  0.00     0.003 A 
HETATM    4  C7  UNL     1     -21.036   0.920  15.294  1.00  0.00     0.009 A 
HETATM    5  C8  UNL     1     -20.950   1.649  16.455  1.00  0.00    -0.031 A 
HETATM    6  C10 UNL     1     -21.840   2.698  16.677  1.00  0.00     0.038 A 
ENDROOT
BRANCH   1   7
HETATM    7  N2  UNL     1     -23.715   4.080  15.982  1.00  0.00    -0.378 N 
HETATM    8  C3  UNL     1     -24.681   4.129  17.090  1.00  0.00     0.153 C 
HETATM    9  C2  UNL     1     -24.240   5.315  17.931  1.00  0.00     0.291 C 
HETATM   10  N1  UNL     1     -24.347   6.489  17.086  1.00  0.00     0.087 N 
HETATM   11  C1  UNL     1     -24.074   7.706  17.808  1.00  0.00     0.310 C 
HETATM   12  C12 UNL     1     -23.373   6.425  15.991  1.00  0.00     0.291 C 
HETATM   13  C11 UNL     1     -23.817   5.258  15.134  1.00  0.00     0.153 C 
ENDBRANCH   1   7
BRANCH   5  14
HETATM   14  C9  UNL     1     -19.906   1.296  17.443  1.00  0.00     0.268 C 
BRANCH  14  15
HETATM   15  N3  UNL     1     -19.489   2.406  18.236  1.00  0.00    -0.075 N 
ATOM     16  H33 UNL     1     -20.216   3.121  18.272  1.00  0.00     0.274 HD
ATOM     17  H32 UNL     1     -19.453   2.155  19.223  1.00  0.00     0.274 HD
ATOM     18  H31 UNL     1     -18.601   2.804  17.929  1.00  0.00     0.274 HD
ENDBRANCH  14  15
ENDBRANCH   5  14
TORSDOF 3
ENDMDL
