MODEL 5
REMARK VINA RESULT: -5.564390933      2.587      5.739
REMARK  3 active torsions:
REMARK  status: ('A' for Active; 'I' for Inactive)
REMARK    1  A    between atoms: N2_5  and  C4_6 
REMARK    2  A    between atoms: C8_10  and  C9_11 
REMARK    3  A    between atoms: C9_11  and  N3_12 
ROOT
HETATM    1  C4  UNL     1     -23.905   2.769  14.450  1.00  0.00     0.030 A 
HETATM    2  C5  UNL     1     -24.850   2.143  15.220  1.00  0.00     0.029 A 
HETATM    3  C6  UNL     1     -26.192   2.056  14.822  1.00  0.00     0.003 A 
HETATM    4  C7  UNL     1     -26.577   2.617  13.623  1.00  0.00     0.009 A 
HETATM    5  C8  UNL     1     -25.646   3.249  12.835  1.00  0.00    -0.031 A 
HETATM    6  C10 UNL     1     -24.320   3.319  13.257  1.00  0.00     0.038 A 
ENDROOT
BRANCH   1   7
HETATM    7  N2  UNL     1     -22.575   2.829  14.876  1.00  0.00    -0.378 N 
HETATM    8  C3  UNL     1     -22.062   3.780  15.875  1.00  0.00     0.153 C 
HETATM    9  C2  UNL     1     -21.624   2.911  17.042  1.00  0.00     0.291 C 
HETATM   10  N1  UNL     1     -20.570   2.047  16.547  1.00  0.00     0.087 N 
HETATM   11  C1  UNL     1     -19.978   1.254  17.595  1.00  0.00     0.310 C 
HETATM   12  C12 UNL     1     -21.100   1.103  15.558  1.00  0.00     0.291 C 
HETATM   13  C11 UNL     1     -21.521   1.958  14.380  1.00  0.00     0.153 C 
ENDBRANCH   1   7
BRANCH   5  14
HETATM   14  C9  UNL     1     -26.084   3.843  11.552  1.00  0.00     0.268 C 
BRANCH  14  15
HETATM   15  N3  UNL     1     -25.227   3.511  10.462  1.00  0.00    -0.075 N 
ATOM     16  H33 UNL     1     -25.078   2.503  10.409  1.00  0.00     0.274 HD
ATOM     17  H32 UNL     1     -25.699   3.656   9.570  1.00  0.00     0.274 HD
ATOM     18  H31 UNL     1     -24.337   4.010  10.488  1.00  0.00     0.274 HD
ENDBRANCH  14  15
ENDBRANCH   5  14
TORSDOF 3
ENDMDL
