MODEL 7
REMARK VINA RESULT: -4.982461792      1.667      5.427
REMARK  3 active torsions:
REMARK  status: ('A' for Active; 'I' for Inactive)
REMARK    1  A    between atoms: N1_1  and  C1_5 
REMARK    2  A    between atoms: C1_5  and  C2_6 
REMARK    3  A    between atoms: C6_10  and  N2_11 
ROOT
HETATM    1  C2  UNL     1       1.841 -11.433  13.245  1.00  0.00    -0.031 A 
HETATM    2  C3  UNL     1       2.674 -10.517  13.868  1.00  0.00     0.009 A 
HETATM    3  C4  UNL     1       3.254 -10.777  15.093  1.00  0.00     0.003 A 
HETATM    4  C5  UNL     1       3.026 -11.965  15.752  1.00  0.00     0.029 A 
HETATM    5  C6  UNL     1       2.194 -12.888  15.137  1.00  0.00     0.030 A 
HETATM    6  C11 UNL     1       1.618 -12.613  13.904  1.00  0.00     0.038 A 
ENDROOT
BRANCH   1   7
HETATM    7  C1  UNL     1       1.277 -11.057  11.946  1.00  0.00     0.268 C 
BRANCH   7   8
HETATM    8  N1  UNL     1       1.337 -12.121  10.969  1.00  0.00    -0.075 N 
ATOM      9  H13 UNL     1       2.092 -12.771  11.187  1.00  0.00     0.274 HD
ATOM     10  H12 UNL     1       0.540 -12.750  11.068  1.00  0.00     0.274 HD
ATOM     11  H11 UNL     1       1.415 -11.782  10.010  1.00  0.00     0.274 HD
ENDBRANCH   7   8
ENDBRANCH   1   7
BRANCH   5  12
HETATM   12  N2  UNL     1       1.949 -14.105  15.791  1.00  0.00    -0.381 N 
HETATM   13  C7  UNL     1       0.922 -15.071  15.495  1.00  0.00     0.123 C 
HETATM   14  C8  UNL     1       0.876 -16.050  16.630  1.00  0.00     0.021 C 
HETATM   15  C9  UNL     1       1.603 -15.303  17.730  1.00  0.00     0.021 C 
HETATM   16  C10 UNL     1       2.706 -14.620  16.909  1.00  0.00     0.123 C 
ENDBRANCH   5  12
TORSDOF 3
ENDMDL
