MODEL 6
REMARK VINA RESULT: -5.075772749      1.774      5.449
REMARK  3 active torsions:
REMARK  status: ('A' for Active; 'I' for Inactive)
REMARK    1  A    between atoms: N1_1  and  C1_5 
REMARK    2  A    between atoms: C1_5  and  C2_6 
REMARK    3  A    between atoms: C6_10  and  N2_11 
ROOT
HETATM    1  C2  UNL     1       1.804 -11.112  12.798  1.00  0.00    -0.031 A 
HETATM    2  C3  UNL     1       2.585 -10.131  13.390  1.00  0.00     0.009 A 
HETATM    3  C4  UNL     1       3.066 -10.264  14.677  1.00  0.00     0.003 A 
HETATM    4  C5  UNL     1       2.785 -11.382  15.431  1.00  0.00     0.029 A 
HETATM    5  C6  UNL     1       2.004 -12.368  14.848  1.00  0.00     0.030 A 
HETATM    6  C11 UNL     1       1.529 -12.221  13.552  1.00  0.00     0.038 A 
ENDROOT
BRANCH   1   7
HETATM    7  C1  UNL     1       1.346 -10.871  11.427  1.00  0.00     0.268 C 
BRANCH   7   8
HETATM    8  N1  UNL     1       1.186 -12.085  10.658  1.00  0.00    -0.075 N 
ATOM      9  H13 UNL     1       2.088 -12.529  10.489  1.00  0.00     0.274 HD
ATOM     10  H12 UNL     1       0.742 -12.813  11.218  1.00  0.00     0.274 HD
ATOM     11  H11 UNL     1       0.682 -11.943   9.783  1.00  0.00     0.274 HD
ENDBRANCH   7   8
ENDBRANCH   1   7
BRANCH   5  12
HETATM   12  N2  UNL     1       1.707 -13.515  15.598  1.00  0.00    -0.381 N 
HETATM   13  C7  UNL     1       2.177 -13.848  16.919  1.00  0.00     0.123 C 
HETATM   14  C8  UNL     1       1.831 -15.284  17.178  1.00  0.00     0.021 C 
HETATM   15  C9  UNL     1       1.569 -15.810  15.781  1.00  0.00     0.021 C 
HETATM   16  C10 UNL     1       0.853 -14.598  15.167  1.00  0.00     0.123 C 
ENDBRANCH   5  12
TORSDOF 3
ENDMDL
