MODEL 2
REMARK VINA RESULT: -5.944199832      0.583      1.216
REMARK  3 active torsions:
REMARK  status: ('A' for Active; 'I' for Inactive)
REMARK    1  A    between atoms: N1_1  and  C1_5 
REMARK    2  A    between atoms: C1_5  and  C2_6 
REMARK    3  A    between atoms: C6_10  and  N2_11 
ROOT
HETATM    1  C2  UNL     1       1.719 -15.057  17.102  1.00  0.00    -0.031 A 
HETATM    2  C3  UNL     1       1.111 -15.630  15.996  1.00  0.00     0.009 A 
HETATM    3  C4  UNL     1       1.064 -14.983  14.777  1.00  0.00     0.003 A 
HETATM    4  C5  UNL     1       1.620 -13.735  14.611  1.00  0.00     0.029 A 
HETATM    5  C6  UNL     1       2.229 -13.154  15.712  1.00  0.00     0.030 A 
HETATM    6  C11 UNL     1       2.270 -13.816  16.931  1.00  0.00     0.038 A 
ENDROOT
BRANCH   1   7
HETATM    7  C1  UNL     1       1.713 -15.829  18.349  1.00  0.00     0.268 C 
BRANCH   7   8
HETATM    8  N1  UNL     1       2.845 -15.542  19.201  1.00  0.00    -0.075 N 
ATOM      9  H13 UNL     1       3.004 -16.303  19.861  1.00  0.00     0.274 HD
ATOM     10  H12 UNL     1       3.718 -15.591  18.675  1.00  0.00     0.274 HD
ATOM     11  H11 UNL     1       2.765 -14.650  19.688  1.00  0.00     0.274 HD
ENDBRANCH   7   8
ENDBRANCH   1   7
BRANCH   5  12
HETATM   12  N2  UNL     1       2.803 -11.881  15.563  1.00  0.00    -0.381 N 
HETATM   13  C7  UNL     1       2.740 -11.017  14.413  1.00  0.00     0.123 C 
HETATM   14  C8  UNL     1       3.732  -9.911  14.617  1.00  0.00     0.021 C 
HETATM   15  C9  UNL     1       4.627 -10.478  15.701  1.00  0.00     0.021 C 
HETATM   16  C10 UNL     1       3.580 -11.194  16.568  1.00  0.00     0.123 C 
ENDBRANCH   5  12
TORSDOF 3
ENDMDL
