MODEL 3
REMARK VINA RESULT: -5.433004403      1.044      1.391
REMARK  3 active torsions:
REMARK  status: ('A' for Active; 'I' for Inactive)
REMARK    1  A    between atoms: N1_1  and  C1_5 
REMARK    2  A    between atoms: C1_5  and  C2_6 
REMARK    3  A    between atoms: C6_10  and  N2_11 
ROOT
HETATM    1  C2  UNL     1       1.832 -14.648  17.144  1.00  0.00    -0.031 A 
HETATM    2  C3  UNL     1       1.167 -15.422  16.206  1.00  0.00     0.009 A 
HETATM    3  C4  UNL     1       0.748 -14.900  14.999  1.00  0.00     0.003 A 
HETATM    4  C5  UNL     1       0.972 -13.580  14.677  1.00  0.00     0.029 A 
HETATM    5  C6  UNL     1       1.636 -12.798  15.609  1.00  0.00     0.030 A 
HETATM    6  C11 UNL     1       2.053 -13.336  16.818  1.00  0.00     0.038 A 
ENDROOT
BRANCH   1   7
HETATM    7  C1  UNL     1       2.234 -15.301  18.394  1.00  0.00     0.268 C 
BRANCH   7   8
HETATM    8  N1  UNL     1       1.898 -16.706  18.436  1.00  0.00    -0.075 N 
ATOM      9  H13 UNL     1       2.654 -17.272  18.053  1.00  0.00     0.274 HD
ATOM     10  H12 UNL     1       1.899 -17.051  19.396  1.00  0.00     0.274 HD
ATOM     11  H11 UNL     1       1.014 -16.921  17.975  1.00  0.00     0.274 HD
ENDBRANCH   7   8
ENDBRANCH   1   7
BRANCH   5  12
HETATM   12  N2  UNL     1       1.875 -11.450  15.300  1.00  0.00    -0.381 N 
HETATM   13  C7  UNL     1       1.001 -10.327  15.527  1.00  0.00     0.123 C 
HETATM   14  C8  UNL     1       1.560  -9.155  14.777  1.00  0.00     0.021 C 
HETATM   15  C9  UNL     1       2.502  -9.820  13.794  1.00  0.00     0.021 C 
HETATM   16  C10 UNL     1       3.075 -10.935  14.682  1.00  0.00     0.123 C 
ENDBRANCH   5  12
TORSDOF 3
ENDMDL
