MODEL 9
REMARK VINA RESULT: -4.913447211      2.402      5.366
REMARK  3 active torsions:
REMARK  status: ('A' for Active; 'I' for Inactive)
REMARK    1  A    between atoms: N1_1  and  C1_5 
REMARK    2  A    between atoms: C1_5  and  C2_6 
REMARK    3  A    between atoms: C6_10  and  N2_11 
ROOT
HETATM    1  C2  UNL     1      -0.233 -10.732  13.627  1.00  0.00    -0.031 A 
HETATM    2  C3  UNL     1       0.947 -10.113  13.246  1.00  0.00     0.009 A 
HETATM    3  C4  UNL     1       2.181 -10.617  13.606  1.00  0.00     0.003 A 
HETATM    4  C5  UNL     1       2.290 -11.761  14.365  1.00  0.00     0.029 A 
HETATM    5  C6  UNL     1       1.115 -12.387  14.752  1.00  0.00     0.030 A 
HETATM    6  C11 UNL     1      -0.119 -11.869  14.382  1.00  0.00     0.038 A 
ENDROOT
BRANCH   1   7
HETATM    7  C1  UNL     1      -1.489 -10.114  13.192  1.00  0.00     0.268 C 
BRANCH   7   8
HETATM    8  N1  UNL     1      -2.660 -10.745  13.757  1.00  0.00    -0.075 N 
ATOM      9  H13 UNL     1      -2.399 -11.542  14.338  1.00  0.00     0.274 HD
ATOM     10  H12 UNL     1      -3.086 -10.150  14.468  1.00  0.00     0.274 HD
ATOM     11  H11 UNL     1      -3.347 -11.019  13.054  1.00  0.00     0.274 HD
ENDBRANCH   7   8
ENDBRANCH   1   7
BRANCH   5  12
HETATM   12  N2  UNL     1       1.203 -13.554  15.525  1.00  0.00    -0.381 N 
HETATM   13  C7  UNL     1       1.930 -13.742  16.754  1.00  0.00     0.123 C 
HETATM   14  C8  UNL     1       1.963 -15.212  17.046  1.00  0.00     0.021 C 
HETATM   15  C9  UNL     1       1.619 -15.815  15.699  1.00  0.00     0.021 C 
HETATM   16  C10 UNL     1       0.562 -14.811  15.216  1.00  0.00     0.123 C 
ENDBRANCH   5  12
TORSDOF 3
ENDMDL
