MODEL 1
REMARK VINA RESULT: -5.946775385      0.000      0.000
REMARK  3 active torsions:
REMARK  status: ('A' for Active; 'I' for Inactive)
REMARK    1  A    between atoms: N1_1  and  C1_5 
REMARK    2  A    between atoms: C1_5  and  C2_6 
REMARK    3  A    between atoms: C6_10  and  N2_11 
ROOT
HETATM    1  C2  UNL     1       1.657 -15.117  17.054  1.00  0.00    -0.031 A 
HETATM    2  C3  UNL     1       0.786 -15.693  16.143  1.00  0.00     0.009 A 
HETATM    3  C4  UNL     1       0.549 -15.128  14.905  1.00  0.00     0.003 A 
HETATM    4  C5  UNL     1       1.172 -13.959  14.525  1.00  0.00     0.029 A 
HETATM    5  C6  UNL     1       2.045 -13.376  15.430  1.00  0.00     0.030 A 
HETATM    6  C11 UNL     1       2.274 -13.956  16.670  1.00  0.00     0.038 A 
ENDROOT
BRANCH   1   7
HETATM    7  C1  UNL     1       1.837 -15.800  18.339  1.00  0.00     0.268 C 
BRANCH   7   8
HETATM    8  N1  UNL     1       3.021 -15.374  19.049  1.00  0.00    -0.075 N 
ATOM      9  H13 UNL     1       3.816 -15.297  18.416  1.00  0.00     0.274 HD
ATOM     10  H12 UNL     1       2.941 -14.399  19.338  1.00  0.00     0.274 HD
ATOM     11  H11 UNL     1       3.248 -15.970  19.845  1.00  0.00     0.274 HD
ENDBRANCH   7   8
ENDBRANCH   1   7
BRANCH   5  12
HETATM   12  N2  UNL     1       2.690 -12.185  15.062  1.00  0.00    -0.381 N 
HETATM   13  C7  UNL     1       3.821 -11.564  15.703  1.00  0.00     0.123 C 
HETATM   14  C8  UNL     1       3.965 -10.183  15.136  1.00  0.00     0.021 C 
HETATM   15  C9  UNL     1       2.605  -9.948  14.510  1.00  0.00     0.021 C 
HETATM   16  C10 UNL     1       2.324 -11.348  13.944  1.00  0.00     0.123 C 
ENDBRANCH   5  12
TORSDOF 3
ENDMDL
