MODEL 3
REMARK VINA RESULT: -8.000565722      4.087     10.174
REMARK  8 active torsions:
REMARK  status: ('A' for Active; 'I' for Inactive)
REMARK    1  A    between atoms: N1_2  and  C3_4 
REMARK    2  A    between atoms: C3_4  and  C4_5 
REMARK    3  A    between atoms: C4_5  and  N2_6 
REMARK    4  A    between atoms: N2_6  and  S1_8 
REMARK    5  A    between atoms: S1_8  and  C5_11 
REMARK    6  A    between atoms: C8_14  and  C9_15 
REMARK    7  A    between atoms: C12_21  and  C13_22 
REMARK       I    between atoms: C13_22  and  N5_24 
REMARK    8  A    between atoms: N5_24  and  C14_26 
ROOT
HETATM    1  C9  UNL     1      20.110  13.394  13.024  1.00  0.00     0.058 A 
HETATM    2  C10 UNL     1      18.756  13.509  12.833  1.00  0.00     0.119 A 
HETATM    3  N3  UNL     1      17.833  12.931  13.660  1.00  0.00    -0.350 N 
ATOM      4  H3  UNL     1      16.832  13.033  13.492  1.00  0.00     0.166 HD
HETATM    5  C11 UNL     1      18.303  12.213  14.716  1.00  0.00     0.148 A 
HETATM    6  N4  UNL     1      17.415  11.576  15.628  1.00  0.00    -0.080 NA
HETATM    7  C12 UNL     1      19.651  12.075  14.939  1.00  0.00     0.143 A 
HETATM    8  N7  UNL     1      20.515  12.661  14.099  1.00  0.00    -0.347 N 
ATOM      9  H7  UNL     1      21.515  12.555  14.271  1.00  0.00     0.166 HD
ENDROOT
BRANCH   1  10
HETATM   10  C8  UNL     1      21.083  14.014  12.136  1.00  0.00    -0.008 A 
HETATM   11  C7  UNL     1      22.432  13.922  12.338  1.00  0.00     0.015 A 
HETATM   12  C6  UNL     1      23.300  14.550  11.432  1.00  0.00     0.026 A 
HETATM   13  C5  UNL     1      22.857  15.261  10.343  1.00  0.00     0.079 A 
HETATM   14  C20 UNL     1      21.494  15.337  10.166  1.00  0.00     0.026 A 
HETATM   15  C19 UNL     1      20.608  14.735  11.029  1.00  0.00     0.015 A 
BRANCH  13  16
HETATM   16  S1  UNL     1      23.987  16.027   9.242  1.00  0.00     0.258 S 
HETATM   17  O1  UNL     1      24.496  17.294   9.872  1.00  0.00    -0.201 OA
HETATM   18  O2  UNL     1      25.124  15.088   8.953  1.00  0.00    -0.201 OA
BRANCH  16  19
HETATM   19  N2  UNL     1      23.219  16.440   7.773  1.00  0.00    -0.314 N 
ATOM     20  H2  UNL     1      23.052  15.787   7.006  1.00  0.00     0.172 HD
BRANCH  19  21
HETATM   21  C4  UNL     1      22.835  17.844   7.756  1.00  0.00     0.162 C 
BRANCH  21  22
HETATM   22  C3  UNL     1      21.429  17.996   7.196  1.00  0.00     0.291 C 
BRANCH  22  23
HETATM   23  N1  UNL     1      20.769  19.068   7.919  1.00  0.00     0.081 N 
HETATM   24  C1  UNL     1      20.026  18.536   9.058  1.00  0.00     0.309 C 
HETATM   25  C2  UNL     1      19.812  19.710   7.023  1.00  0.00     0.309 C 
ENDBRANCH  22  23
ENDBRANCH  21  22
ENDBRANCH  19  21
ENDBRANCH  16  19
ENDBRANCH  13  16
ENDBRANCH   1  10
BRANCH   7  26
HETATM   26  C13 UNL     1      20.134  11.287  16.095  1.00  0.00     0.276 C 
HETATM   27  O3  UNL     1      20.837  10.281  15.869  1.00  0.00    -0.266 OA
HETATM   28  N5  UNL     1      19.829  11.630  17.414  1.00  0.00    -0.320 N 
ATOM     29  H5  UNL     1      19.253  12.465  17.522  1.00  0.00     0.169 HD
BRANCH  28  30
HETATM   30  C14 UNL     1      20.197  10.997  18.614  1.00  0.00     0.050 A 
HETATM   31  C15 UNL     1      21.255  11.500  19.383  1.00  0.00     0.032 A 
HETATM   32  C16 UNL     1      21.574  10.862  20.550  1.00  0.00     0.019 A 
HETATM   33  C17 UNL     1      20.868   9.751  20.954  1.00  0.00     0.088 A 
HETATM   34  N6  UNL     1      19.857   9.261  20.231  1.00  0.00    -0.373 N 
HETATM   35  C18 UNL     1      19.537   9.894  19.070  1.00  0.00     0.117 A 
ATOM     36  H6  UNL     1      19.340   8.437  20.539  1.00  0.00     0.164 HD
ENDBRANCH  28  30
ENDBRANCH   7  26
TORSDOF 8
ENDMDL
