MODEL 1
REMARK VINA RESULT: -8.267034797      0.000      0.000
REMARK  8 active torsions:
REMARK  status: ('A' for Active; 'I' for Inactive)
REMARK    1  A    between atoms: N1_2  and  C3_4 
REMARK    2  A    between atoms: C3_4  and  C4_5 
REMARK    3  A    between atoms: C4_5  and  N2_6 
REMARK    4  A    between atoms: N2_6  and  S1_8 
REMARK    5  A    between atoms: S1_8  and  C5_11 
REMARK    6  A    between atoms: C8_14  and  C9_15 
REMARK    7  A    between atoms: C12_21  and  C13_22 
REMARK       I    between atoms: C13_22  and  N5_24 
REMARK    8  A    between atoms: N5_24  and  C14_26 
ROOT
HETATM    1  C9  UNL     1      20.630  15.465  10.803  1.00  0.00     0.058 A 
HETATM    2  C10 UNL     1      21.620  15.896   9.957  1.00  0.00     0.119 A 
HETATM    3  N3  UNL     1      21.439  16.895   9.040  1.00  0.00    -0.350 N 
ATOM      4  H3  UNL     1      22.195  17.193   8.423  1.00  0.00     0.166 HD
HETATM    5  C11 UNL     1      20.209  17.474   8.984  1.00  0.00     0.148 A 
HETATM    6  N4  UNL     1      19.930  18.521   8.061  1.00  0.00    -0.080 NA
HETATM    7  C12 UNL     1      19.192  17.070   9.814  1.00  0.00     0.143 A 
HETATM    8  N7  UNL     1      19.422  16.086  10.695  1.00  0.00    -0.347 N 
ATOM      9  H7  UNL     1      18.662  15.790  11.308  1.00  0.00     0.166 HD
ENDROOT
BRANCH   1  10
HETATM   10  C8  UNL     1      20.835  14.400  11.774  1.00  0.00    -0.008 A 
HETATM   11  C7  UNL     1      22.068  14.082  12.272  1.00  0.00     0.015 A 
HETATM   12  C6  UNL     1      22.176  13.040  13.206  1.00  0.00     0.026 A 
HETATM   13  C5  UNL     1      21.095  12.316  13.646  1.00  0.00     0.079 A 
HETATM   14  C20 UNL     1      19.868  12.659  13.127  1.00  0.00     0.026 A 
HETATM   15  C19 UNL     1      19.717  13.673  12.211  1.00  0.00     0.015 A 
BRANCH  13  16
HETATM   16  S1  UNL     1      21.288  11.023  14.816  1.00  0.00     0.258 S 
HETATM   17  O1  UNL     1      21.912  11.586  16.063  1.00  0.00    -0.201 OA
HETATM   18  O2  UNL     1      19.948  10.417  15.123  1.00  0.00    -0.201 OA
BRANCH  16  19
HETATM   19  N2  UNL     1      22.323   9.806  14.210  1.00  0.00    -0.314 N 
ATOM     20  H2  UNL     1      22.491   9.632  13.219  1.00  0.00     0.172 HD
BRANCH  19  21
HETATM   21  C4  UNL     1      22.932   9.047  15.293  1.00  0.00     0.162 C 
BRANCH  21  22
HETATM   22  C3  UNL     1      24.316   8.567  14.882  1.00  0.00     0.291 C 
BRANCH  22  23
HETATM   23  N1  UNL     1      25.138   9.734  14.619  1.00  0.00     0.081 N 
HETATM   24  C1  UNL     1      26.391   9.344  13.980  1.00  0.00     0.309 C 
HETATM   25  C2  UNL     1      25.465  10.367  15.892  1.00  0.00     0.309 C 
ENDBRANCH  22  23
ENDBRANCH  21  22
ENDBRANCH  19  21
ENDBRANCH  16  19
ENDBRANCH  13  16
ENDBRANCH   1  10
BRANCH   7  26
HETATM   26  C13 UNL     1      17.864  17.718   9.730  1.00  0.00     0.276 C 
HETATM   27  O3  UNL     1      16.877  17.003   9.461  1.00  0.00    -0.266 OA
HETATM   28  N5  UNL     1      17.686  19.087   9.938  1.00  0.00    -0.320 N 
ATOM     29  H5  UNL     1      18.536  19.606  10.156  1.00  0.00     0.169 HD
BRANCH  28  30
HETATM   30  C14 UNL     1      16.510  19.856   9.891  1.00  0.00     0.050 A 
HETATM   31  C15 UNL     1      15.726  20.019  11.042  1.00  0.00     0.032 A 
HETATM   32  C16 UNL     1      14.596  20.784  10.957  1.00  0.00     0.019 A 
HETATM   33  C17 UNL     1      14.240  21.377   9.766  1.00  0.00     0.088 A 
HETATM   34  N6  UNL     1      14.978  21.230   8.662  1.00  0.00    -0.373 N 
HETATM   35  C18 UNL     1      16.104  20.470   8.743  1.00  0.00     0.117 A 
ATOM     36  H6  UNL     1      14.707  21.673   7.784  1.00  0.00     0.164 HD
ENDBRANCH  28  30
ENDBRANCH   7  26
TORSDOF 8
ENDMDL
