MODEL 2
REMARK VINA RESULT: -8.181270769      4.554      7.403
REMARK  8 active torsions:
REMARK  status: ('A' for Active; 'I' for Inactive)
REMARK    1  A    between atoms: N1_2  and  C3_4 
REMARK    2  A    between atoms: C3_4  and  C4_5 
REMARK    3  A    between atoms: C4_5  and  N2_6 
REMARK    4  A    between atoms: N2_6  and  S1_8 
REMARK    5  A    between atoms: S1_8  and  C5_11 
REMARK    6  A    between atoms: C8_14  and  C9_15 
REMARK    7  A    between atoms: C12_21  and  C13_22 
REMARK       I    between atoms: C13_22  and  N5_24 
REMARK    8  A    between atoms: N5_24  and  C14_26 
ROOT
HETATM    1  C9  UNL     1      16.986  18.930   9.152  1.00  0.00     0.058 A 
HETATM    2  C10 UNL     1      16.121  19.735   8.455  1.00  0.00     0.119 A 
HETATM    3  N3  UNL     1      14.819  19.933   8.826  1.00  0.00    -0.350 N 
ATOM      4  H3  UNL     1      14.199  20.536   8.287  1.00  0.00     0.166 HD
HETATM    5  C11 UNL     1      14.385  19.291   9.946  1.00  0.00     0.148 A 
HETATM    6  N4  UNL     1      13.047  19.438  10.407  1.00  0.00    -0.080 NA
HETATM    7  C12 UNL     1      15.222  18.478  10.670  1.00  0.00     0.143 A 
HETATM    8  N7  UNL     1      16.489  18.317  10.262  1.00  0.00    -0.347 N 
ATOM      9  H7  UNL     1      17.105  17.711  10.805  1.00  0.00     0.166 HD
ENDROOT
BRANCH   1  10
HETATM   10  C8  UNL     1      18.369  18.727   8.745  1.00  0.00    -0.008 A 
HETATM   11  C7  UNL     1      18.913  19.334   7.647  1.00  0.00     0.015 A 
HETATM   12  C6  UNL     1      20.256  19.082   7.327  1.00  0.00     0.026 A 
HETATM   13  C5  UNL     1      21.057  18.248   8.067  1.00  0.00     0.079 A 
HETATM   14  C20 UNL     1      20.482  17.652   9.166  1.00  0.00     0.026 A 
HETATM   15  C19 UNL     1      19.170  17.871   9.516  1.00  0.00     0.015 A 
BRANCH  13  16
HETATM   16  S1  UNL     1      22.731  17.970   7.621  1.00  0.00     0.258 S 
HETATM   17  O1  UNL     1      22.913  18.328   6.172  1.00  0.00    -0.201 OA
HETATM   18  O2  UNL     1      23.629  18.805   8.488  1.00  0.00    -0.201 OA
BRANCH  16  19
HETATM   19  N2  UNL     1      23.145  16.324   7.814  1.00  0.00    -0.314 N 
ATOM     20  H2  UNL     1      22.965  15.598   7.120  1.00  0.00     0.172 HD
BRANCH  19  21
HETATM   21  C4  UNL     1      23.789  16.092   9.100  1.00  0.00     0.162 C 
BRANCH  21  22
HETATM   22  C3  UNL     1      23.017  15.046   9.890  1.00  0.00     0.291 C 
BRANCH  22  23
HETATM   23  N1  UNL     1      23.101  15.392  11.297  1.00  0.00     0.081 N 
HETATM   24  C1  UNL     1      23.896  14.403  12.021  1.00  0.00     0.309 C 
HETATM   25  C2  UNL     1      21.754  15.379  11.859  1.00  0.00     0.309 C 
ENDBRANCH  22  23
ENDBRANCH  21  22
ENDBRANCH  19  21
ENDBRANCH  16  19
ENDBRANCH  13  16
ENDBRANCH   1  10
BRANCH   7  26
HETATM   26  C13 UNL     1      14.723  17.792  11.882  1.00  0.00     0.276 C 
HETATM   27  O3  UNL     1      15.200  18.125  12.986  1.00  0.00    -0.266 OA
HETATM   28  N5  UNL     1      13.747  16.795  11.828  1.00  0.00    -0.320 N 
ATOM     29  H5  UNL     1      13.401  16.577  10.894  1.00  0.00     0.169 HD
BRANCH  28  30
HETATM   30  C14 UNL     1      13.170  16.046  12.869  1.00  0.00     0.050 A 
HETATM   31  C15 UNL     1      13.623  14.749  13.142  1.00  0.00     0.032 A 
HETATM   32  C16 UNL     1      13.044  14.059  14.171  1.00  0.00     0.019 A 
HETATM   33  C17 UNL     1      12.037  14.630  14.917  1.00  0.00     0.088 A 
HETATM   34  N6  UNL     1      11.595  15.866  14.667  1.00  0.00    -0.373 N 
HETATM   35  C18 UNL     1      12.170  16.556  13.645  1.00  0.00     0.117 A 
ATOM     36  H6  UNL     1      10.848  16.281  15.225  1.00  0.00     0.164 HD
ENDBRANCH  28  30
ENDBRANCH   7  26
TORSDOF 8
ENDMDL
