MODEL 4
REMARK VINA RESULT: -6.055267445      1.086      4.537
REMARK  6 active torsions:
REMARK  status: ('A' for Active; 'I' for Inactive)
REMARK    1  A    between atoms: C1_2  and  C2_4 
REMARK    2  A    between atoms: C2_4  and  C3_5 
REMARK    3  A    between atoms: C3_5  and  O3_6 
REMARK    4  A    between atoms: C3_5  and  C4_8 
REMARK    5  A    between atoms: C3_5  and  C6_12 
REMARK    6  A    between atoms: C4_8  and  C5_9 
ROOT
HETATM    1  C3  UNL     1     -11.252  10.075  39.248  1.00  0.00     0.164 C 
ENDROOT
BRANCH   1   2
HETATM    2  C2  UNL     1     -10.083   9.700  38.421  1.00  0.00     0.163 C 
BRANCH   2   3
HETATM    3  C1  UNL     1     -10.232   9.841  36.963  1.00  0.00     0.176 C 
HETATM    4  O1  UNL     1      -9.845  10.902  36.419  1.00  0.00    -0.648 OA
HETATM    5  O2  UNL     1     -10.775   8.880  36.124  1.00  0.00    -0.648 OA
ENDBRANCH   2   3
ENDBRANCH   1   2
BRANCH   1   6
HETATM    6  O3  UNL     1     -11.603  11.391  38.932  1.00  0.00    -0.378 OA
ATOM      7  H3  UNL     1     -12.439  11.581  39.343  1.00  0.00     0.211 HD
ENDBRANCH   1   6
BRANCH   1   8
HETATM    8  C4  UNL     1     -11.130   9.920  40.721  1.00  0.00     0.163 C 
BRANCH   8   9
HETATM    9  C5  UNL     1     -12.185  10.577  41.519  1.00  0.00     0.176 C 
HETATM   10  O4  UNL     1     -12.232  11.821  41.577  1.00  0.00    -0.648 OA
HETATM   11  O5  UNL     1     -13.093   9.765  42.180  1.00  0.00    -0.648 OA
ENDBRANCH   8   9
ENDBRANCH   1   8
BRANCH   1  12
HETATM   12  C6  UNL     1     -12.378   9.199  38.826  1.00  0.00     0.210 C 
HETATM   13  O6  UNL     1     -12.339   7.995  39.150  1.00  0.00    -0.646 OA
HETATM   14  O7  UNL     1     -13.443   9.677  38.100  1.00  0.00    -0.646 OA
ENDBRANCH   1  12
TORSDOF 6
ENDMDL
