MODEL 1
REMARK VINA RESULT: -6.910572222      0.000      0.000
REMARK  6 active torsions:
REMARK  status: ('A' for Active; 'I' for Inactive)
REMARK    1  A    between atoms: C1_2  and  C2_4 
REMARK    2  A    between atoms: C2_4  and  C3_5 
REMARK    3  A    between atoms: C3_5  and  O3_6 
REMARK    4  A    between atoms: C3_5  and  C4_8 
REMARK    5  A    between atoms: C3_5  and  C6_12 
REMARK    6  A    between atoms: C4_8  and  C5_9 
ROOT
HETATM    1  C3  UNL     1     -11.460   9.654  39.341  1.00  0.00     0.164 C 
ENDROOT
BRANCH   1   2
HETATM    2  C2  UNL     1     -11.174   9.550  40.790  1.00  0.00     0.163 C 
BRANCH   2   3
HETATM    3  C1  UNL     1     -12.261   9.043  41.644  1.00  0.00     0.176 C 
HETATM    4  O1  UNL     1     -12.246   7.837  41.984  1.00  0.00    -0.648 OA
HETATM    5  O2  UNL     1     -13.321   9.803  42.114  1.00  0.00    -0.648 OA
ENDBRANCH   2   3
ENDBRANCH   1   2
BRANCH   1   6
HETATM    6  O3  UNL     1     -12.556   8.833  39.055  1.00  0.00    -0.378 OA
ATOM      7  H3  UNL     1     -12.942   9.130  38.239  1.00  0.00     0.211 HD
ENDBRANCH   1   6
BRANCH   1   8
HETATM    8  C4  UNL     1     -10.348   9.367  38.399  1.00  0.00     0.163 C 
BRANCH   8   9
HETATM    9  C5  UNL     1     -10.684   9.483  36.965  1.00  0.00     0.176 C 
HETATM   10  O4  UNL     1     -11.655   8.853  36.504  1.00  0.00    -0.648 OA
HETATM   11  O5  UNL     1      -9.888  10.304  36.181  1.00  0.00    -0.648 OA
ENDBRANCH   8   9
ENDBRANCH   1   8
BRANCH   1  12
HETATM   12  C6  UNL     1     -11.876  11.059  39.084  1.00  0.00     0.210 C 
HETATM   13  O6  UNL     1     -10.989  11.897  38.826  1.00  0.00    -0.646 OA
HETATM   14  O7  UNL     1     -13.194  11.449  39.121  1.00  0.00    -0.646 OA
ENDBRANCH   1  12
TORSDOF 6
ENDMDL
