MODEL 5
REMARK VINA RESULT: -6.002184554      1.152      4.349
REMARK  6 active torsions:
REMARK  status: ('A' for Active; 'I' for Inactive)
REMARK    1  A    between atoms: C1_2  and  C2_4 
REMARK    2  A    between atoms: C2_4  and  C3_5 
REMARK    3  A    between atoms: C3_5  and  O3_6 
REMARK    4  A    between atoms: C3_5  and  C4_8 
REMARK    5  A    between atoms: C3_5  and  C6_12 
REMARK    6  A    between atoms: C4_8  and  C5_9 
ROOT
HETATM    1  C3  UNL     1     -11.085   9.476  39.488  1.00  0.00     0.164 C 
ENDROOT
BRANCH   1   2
HETATM    2  C2  UNL     1     -10.821   8.541  38.371  1.00  0.00     0.163 C 
BRANCH   2   3
HETATM    3  C1  UNL     1     -10.556   9.143  37.053  1.00  0.00     0.176 C 
HETATM    4  O1  UNL     1     -11.116   8.652  36.045  1.00  0.00    -0.648 OA
HETATM    5  O2  UNL     1      -9.723  10.228  36.829  1.00  0.00    -0.648 OA
ENDBRANCH   2   3
ENDBRANCH   1   2
BRANCH   1   6
HETATM    6  O3  UNL     1      -9.889  10.133  39.796  1.00  0.00    -0.378 OA
ATOM      7  H3  UNL     1      -9.622   9.867  40.668  1.00  0.00     0.211 HD
ENDBRANCH   1   6
BRANCH   1   8
HETATM    8  C4  UNL     1     -11.693   8.916  40.723  1.00  0.00     0.163 C 
BRANCH   8   9
HETATM    9  C5  UNL     1     -12.104   9.911  41.735  1.00  0.00     0.176 C 
HETATM   10  O4  UNL     1     -11.280  10.751  42.147  1.00  0.00    -0.648 OA
HETATM   11  O5  UNL     1     -13.412   9.864  42.191  1.00  0.00    -0.648 OA
ENDBRANCH   8   9
ENDBRANCH   1   8
BRANCH   1  12
HETATM   12  C6  UNL     1     -12.037  10.499  38.978  1.00  0.00     0.210 C 
HETATM   13  O6  UNL     1     -13.114  10.106  38.485  1.00  0.00    -0.646 OA
HETATM   14  O7  UNL     1     -11.764  11.845  39.036  1.00  0.00    -0.646 OA
ENDBRANCH   1  12
TORSDOF 6
ENDMDL
