MODEL 4
REMARK VINA RESULT: -6.262405962      2.301      5.829
REMARK  10 active torsions:
REMARK  status: ('A' for Active; 'I' for Inactive)
REMARK    1  A    between atoms: O1_1  and  C1_3 
REMARK    2  A    between atoms: C1_3  and  C2_4 
REMARK    3  A    between atoms: C3_6  and  O3_7 
REMARK    4  A    between atoms: O3_7  and  C4_8 
REMARK    5  A    between atoms: C7_14  and  C8_15 
REMARK    6  A    between atoms: C8_15  and  O4_16 
REMARK    7  A    between atoms: C9_18  and  O5_19 
REMARK    8  A    between atoms: C10_21  and  O6_22 
REMARK    9  A    between atoms: C11_24  and  O7_25 
REMARK   10  A    between atoms: C12_27  and  O8_28 
ROOT
HETATM    1  C2  UNL     1     -49.228  72.387 -14.476  1.00  0.00     0.179 C 
HETATM    2  O2  UNL     1     -48.674  71.578 -15.429  1.00  0.00    -0.348 OA
HETATM    3  C3  UNL     1     -47.360  71.233 -15.119  1.00  0.00     0.292 C 
HETATM    4  C10 UNL     1     -47.419  70.243 -13.997  1.00  0.00     0.204 C 
HETATM    5  C11 UNL     1     -48.183  70.811 -12.816  1.00  0.00     0.183 C 
HETATM    6  C12 UNL     1     -48.734  72.182 -13.088  1.00  0.00     0.180 C 
ENDROOT
BRANCH   3   7
HETATM    7  O3  UNL     1     -46.749  70.877 -16.243  1.00  0.00    -0.349 OA
BRANCH   7   8
HETATM    8  C4  UNL     1     -45.574  71.391 -16.641  1.00  0.00     0.179 C 
HETATM    9  C5  UNL     1     -45.200  72.712 -15.998  1.00  0.00     0.266 C 
HETATM   10  N1  UNL     1     -44.516  73.595 -16.927  1.00  0.00    -0.072 N 
HETATM   11  C6  UNL     1     -45.325  73.970 -18.044  1.00  0.00     0.241 C 
ATOM     12  H12 UNL     1     -44.155  74.420 -16.447  1.00  0.00     0.277 HD
ATOM     13  H11 UNL     1     -43.635  73.184 -17.238  1.00  0.00     0.277 HD
HETATM   14  C7  UNL     1     -46.186  72.872 -18.570  1.00  0.00     0.066 C 
HETATM   15  C9  UNL     1     -45.668  71.533 -18.154  1.00  0.00     0.156 C 
BRANCH  14  16
HETATM   16  C8  UNL     1     -47.650  73.064 -18.244  1.00  0.00     0.173 C 
BRANCH  16  17
HETATM   17  O4  UNL     1     -48.339  71.880 -18.502  1.00  0.00    -0.400 OA
ATOM     18  H4  UNL     1     -49.202  72.087 -18.842  1.00  0.00     0.209 HD
ENDBRANCH  16  17
ENDBRANCH  14  16
BRANCH  15  19
HETATM   19  O5  UNL     1     -44.426  71.349 -18.757  1.00  0.00    -0.392 OA
ATOM     20  H5  UNL     1     -43.760  71.885 -18.344  1.00  0.00     0.210 HD
ENDBRANCH  15  19
ENDBRANCH   7   8
ENDBRANCH   3   7
BRANCH   4  21
HETATM   21  O6  UNL     1     -48.049  69.051 -14.334  1.00  0.00    -0.388 OA
ATOM     22  H6  UNL     1     -48.015  68.849 -15.262  1.00  0.00     0.210 HD
ENDBRANCH   4  21
BRANCH   1  23
HETATM   23  C1  UNL     1     -49.103  73.872 -14.849  1.00  0.00     0.198 C 
BRANCH  23  24
HETATM   24  O1  UNL     1     -48.687  74.653 -13.787  1.00  0.00    -0.398 OA
ATOM     25  H1  UNL     1     -48.698  75.581 -13.990  1.00  0.00     0.209 HD
ENDBRANCH  23  24
ENDBRANCH   1  23
BRANCH   5  26
HETATM   26  O7  UNL     1     -47.322  70.903 -11.722  1.00  0.00    -0.390 OA
ATOM     27  H7  UNL     1     -47.049  71.807 -11.621  1.00  0.00     0.210 HD
ENDBRANCH   5  26
BRANCH   6  28
HETATM   28  O8  UNL     1     -49.835  72.391 -12.222  1.00  0.00    -0.390 OA
ATOM     29  H8  UNL     1     -49.874  73.323 -12.042  1.00  0.00     0.210 HD
ENDBRANCH   6  28
TORSDOF 10
ENDMDL
