MODEL 2
REMARK VINA RESULT: -6.621794904      2.246      5.855
REMARK  10 active torsions:
REMARK  status: ('A' for Active; 'I' for Inactive)
REMARK    1  A    between atoms: O1_1  and  C1_3 
REMARK    2  A    between atoms: C1_3  and  C2_4 
REMARK    3  A    between atoms: C3_6  and  O3_7 
REMARK    4  A    between atoms: O3_7  and  C4_8 
REMARK    5  A    between atoms: C7_14  and  C8_15 
REMARK    6  A    between atoms: C8_15  and  O4_16 
REMARK    7  A    between atoms: C9_18  and  O5_19 
REMARK    8  A    between atoms: C10_21  and  O6_22 
REMARK    9  A    between atoms: C11_24  and  O7_25 
REMARK   10  A    between atoms: C12_27  and  O8_28 
ROOT
HETATM    1  C2  UNL     1     -49.111  72.291 -14.496  1.00  0.00     0.179 C 
HETATM    2  O2  UNL     1     -48.425  71.583 -15.444  1.00  0.00    -0.348 OA
HETATM    3  C3  UNL     1     -47.114  71.320 -15.051  1.00  0.00     0.292 C 
HETATM    4  C10 UNL     1     -47.178  70.264 -13.991  1.00  0.00     0.204 C 
HETATM    5  C11 UNL     1     -48.070  70.703 -12.845  1.00  0.00     0.183 C 
HETATM    6  C12 UNL     1     -48.707  72.042 -13.087  1.00  0.00     0.180 C 
ENDROOT
BRANCH   3   7
HETATM    7  O3  UNL     1     -46.396  71.078 -16.140  1.00  0.00    -0.349 OA
BRANCH   7   8
HETATM    8  C4  UNL     1     -46.343  71.912 -17.192  1.00  0.00     0.179 C 
HETATM    9  C5  UNL     1     -45.577  71.388 -18.390  1.00  0.00     0.266 C 
HETATM   10  N1  UNL     1     -44.838  72.440 -19.067  1.00  0.00    -0.072 N 
HETATM   11  C6  UNL     1     -43.830  73.035 -18.245  1.00  0.00     0.241 C 
ATOM     12  H12 UNL     1     -44.439  72.100 -19.942  1.00  0.00     0.277 HD
ATOM     13  H11 UNL     1     -45.471  73.149 -19.437  1.00  0.00     0.277 HD
HETATM   14  C7  UNL     1     -44.233  73.216 -16.821  1.00  0.00     0.066 C 
HETATM   15  C9  UNL     1     -45.720  73.202 -16.674  1.00  0.00     0.156 C 
BRANCH  14  16
HETATM   16  C8  UNL     1     -43.539  72.252 -15.886  1.00  0.00     0.173 C 
BRANCH  16  17
HETATM   17  O4  UNL     1     -43.515  72.792 -14.601  1.00  0.00    -0.400 OA
ATOM     18  H4  UNL     1     -42.707  72.541 -14.170  1.00  0.00     0.209 HD
ENDBRANCH  16  17
ENDBRANCH  14  16
BRANCH  15  19
HETATM   19  O5  UNL     1     -46.227  74.312 -17.344  1.00  0.00    -0.392 OA
ATOM     20  H5  UNL     1     -45.554  74.741 -17.860  1.00  0.00     0.210 HD
ENDBRANCH  15  19
ENDBRANCH   7   8
ENDBRANCH   3   7
BRANCH   4  21
HETATM   21  O6  UNL     1     -47.684  69.050 -14.439  1.00  0.00    -0.388 OA
ATOM     22  H6  UNL     1     -47.856  68.426 -13.743  1.00  0.00     0.210 HD
ENDBRANCH   4  21
BRANCH   1  23
HETATM   23  C1  UNL     1     -49.077  73.800 -14.779  1.00  0.00     0.198 C 
BRANCH  23  24
HETATM   24  O1  UNL     1     -48.681  74.537 -13.679  1.00  0.00    -0.398 OA
ATOM     25  H1  UNL     1     -47.861  74.231 -13.310  1.00  0.00     0.209 HD
ENDBRANCH  23  24
ENDBRANCH   1  23
BRANCH   5  26
HETATM   26  O7  UNL     1     -47.302  70.795 -11.684  1.00  0.00    -0.390 OA
ATOM     27  H7  UNL     1     -47.844  70.567 -10.938  1.00  0.00     0.210 HD
ENDBRANCH   5  26
BRANCH   6  28
HETATM   28  O8  UNL     1     -49.882  72.116 -12.300  1.00  0.00    -0.390 OA
ATOM     29  H8  UNL     1     -49.732  71.586 -11.527  1.00  0.00     0.210 HD
ENDBRANCH   6  28
TORSDOF 10
ENDMDL
