MODEL 5
REMARK VINA RESULT: -6.090061600      3.153      5.432
REMARK  10 active torsions:
REMARK  status: ('A' for Active; 'I' for Inactive)
REMARK    1  A    between atoms: O1_1  and  C1_3 
REMARK    2  A    between atoms: C1_3  and  C2_4 
REMARK    3  A    between atoms: C3_6  and  O3_7 
REMARK    4  A    between atoms: O3_7  and  C4_8 
REMARK    5  A    between atoms: C7_14  and  C8_15 
REMARK    6  A    between atoms: C8_15  and  O4_16 
REMARK    7  A    between atoms: C9_18  and  O5_19 
REMARK    8  A    between atoms: C10_21  and  O6_22 
REMARK    9  A    between atoms: C11_24  and  O7_25 
REMARK   10  A    between atoms: C12_27  and  O8_28 
ROOT
HETATM    1  C2  UNL     1     -50.854  75.925 -14.815  1.00  0.00     0.179 C 
HETATM    2  O2  UNL     1     -50.848  74.566 -14.663  1.00  0.00    -0.348 OA
HETATM    3  C3  UNL     1     -49.668  74.112 -14.078  1.00  0.00     0.292 C 
HETATM    4  C10 UNL     1     -49.720  74.495 -12.631  1.00  0.00     0.204 C 
HETATM    5  C11 UNL     1     -49.929  75.989 -12.475  1.00  0.00     0.183 C 
HETATM    6  C12 UNL     1     -50.091  76.691 -13.793  1.00  0.00     0.180 C 
ENDROOT
BRANCH   3   7
HETATM    7  O3  UNL     1     -49.519  72.829 -14.386  1.00  0.00    -0.349 OA
BRANCH   7   8
HETATM    8  C4  UNL     1     -48.385  72.317 -14.894  1.00  0.00     0.179 C 
HETATM    9  C5  UNL     1     -48.580  71.207 -15.907  1.00  0.00     0.266 C 
HETATM   10  N1  UNL     1     -47.556  70.182 -15.795  1.00  0.00    -0.072 N 
HETATM   11  C6  UNL     1     -47.574  69.507 -14.535  1.00  0.00     0.241 C 
ATOM     12  H12 UNL     1     -47.622  69.516 -16.565  1.00  0.00     0.277 HD
ATOM     13  H11 UNL     1     -46.632  70.569 -15.988  1.00  0.00     0.277 HD
HETATM   14  C7  UNL     1     -47.858  70.395 -13.371  1.00  0.00     0.066 C 
HETATM   15  C9  UNL     1     -47.576  71.825 -13.701  1.00  0.00     0.156 C 
BRANCH  14  16
HETATM   16  C8  UNL     1     -49.239  70.185 -12.794  1.00  0.00     0.173 C 
BRANCH  16  17
HETATM   17  O4  UNL     1     -49.768  68.993 -13.286  1.00  0.00    -0.400 OA
ATOM     18  H4  UNL     1     -50.599  68.818 -12.860  1.00  0.00     0.209 HD
ENDBRANCH  16  17
ENDBRANCH  14  16
BRANCH  15  19
HETATM   19  O5  UNL     1     -46.208  71.949 -13.934  1.00  0.00    -0.392 OA
ATOM     20  H5  UNL     1     -46.001  71.809 -14.850  1.00  0.00     0.210 HD
ENDBRANCH  15  19
ENDBRANCH   7   8
ENDBRANCH   3   7
BRANCH   4  21
HETATM   21  O6  UNL     1     -50.748  73.879 -11.925  1.00  0.00    -0.388 OA
ATOM     22  H6  UNL     1     -50.889  72.971 -12.168  1.00  0.00     0.210 HD
ENDBRANCH   4  21
BRANCH   1  23
HETATM   23  C1  UNL     1     -50.390  76.342 -16.218  1.00  0.00     0.198 C 
BRANCH  23  24
HETATM   24  O1  UNL     1     -49.216  77.072 -16.194  1.00  0.00    -0.398 OA
ATOM     25  H1  UNL     1     -48.650  76.829 -15.471  1.00  0.00     0.209 HD
ENDBRANCH  23  24
ENDBRANCH   1  23
BRANCH   5  26
HETATM   26  O7  UNL     1     -48.820  76.536 -11.830  1.00  0.00    -0.390 OA
ATOM     27  H7  UNL     1     -48.764  77.460 -12.043  1.00  0.00     0.210 HD
ENDBRANCH   5  26
BRANCH   6  28
HETATM   28  O8  UNL     1     -50.802  77.894 -13.564  1.00  0.00    -0.390 OA
ATOM     29  H8  UNL     1     -51.343  77.755 -12.796  1.00  0.00     0.210 HD
ENDBRANCH   6  28
TORSDOF 10
ENDMDL
