MODEL 1
REMARK VINA RESULT: -6.353250821      0.000      0.000
REMARK  11 active torsions:
REMARK  status: ('A' for Active; 'I' for Inactive)
REMARK    1  A    between atoms: O1_1  and  C1_3 
REMARK    2  A    between atoms: C1_3  and  C2_4 
REMARK    3  A    between atoms: C3_6  and  O3_7 
REMARK    4  A    between atoms: O3_7  and  C4_8 
REMARK    5  A    between atoms: C5_9  and  O4_10 
REMARK    6  A    between atoms: C7_16  and  C8_17 
REMARK    7  A    between atoms: C8_17  and  O5_18 
REMARK    8  A    between atoms: C9_20  and  O6_21 
REMARK    9  A    between atoms: C10_23  and  O7_24 
REMARK   10  A    between atoms: C11_26  and  O8_27 
REMARK   11  A    between atoms: C12_29  and  O9_30 
ROOT
HETATM    1  O3  UNL     1     -49.475  72.837 -14.035  1.00  0.00    -0.348 OA
ENDROOT
BRANCH   1   2
HETATM    2  C3  UNL     1     -48.534  71.943 -13.566  1.00  0.00     0.292 C 
HETATM    3  O2  UNL     1     -49.061  70.834 -12.976  1.00  0.00    -0.348 OA
HETATM    4  C2  UNL     1     -48.862  69.640 -13.606  1.00  0.00     0.179 C 
HETATM    5  C12 UNL     1     -47.394  69.264 -13.698  1.00  0.00     0.180 C 
HETATM    6  C11 UNL     1     -46.561  70.550 -13.865  1.00  0.00     0.183 C 
HETATM    7  C10 UNL     1     -47.459  71.608 -14.526  1.00  0.00     0.204 C 
BRANCH   4   8
HETATM    8  C1  UNL     1     -49.537  68.482 -12.867  1.00  0.00     0.198 C 
BRANCH   8   9
HETATM    9  O1  UNL     1     -48.683  67.364 -12.854  1.00  0.00    -0.398 OA
ATOM     10  H1  UNL     1     -48.183  67.351 -12.046  1.00  0.00     0.209 HD
ENDBRANCH   8   9
ENDBRANCH   4   8
BRANCH   5  11
HETATM   11  O9  UNL     1     -47.217  68.531 -14.864  1.00  0.00    -0.390 OA
ATOM     12  H9  UNL     1     -46.463  68.888 -15.319  1.00  0.00     0.210 HD
ENDBRANCH   5  11
BRANCH   6  13
HETATM   13  O8  UNL     1     -46.218  71.020 -12.614  1.00  0.00    -0.390 OA
ATOM     14  H8  UNL     1     -46.439  70.343 -11.984  1.00  0.00     0.210 HD
ENDBRANCH   6  13
BRANCH   7  15
HETATM   15  O7  UNL     1     -47.864  71.083 -15.733  1.00  0.00    -0.388 OA
ATOM     16  H7  UNL     1     -47.867  70.135 -15.797  1.00  0.00     0.210 HD
ENDBRANCH   7  15
ENDBRANCH   1   2
BRANCH   1  17
HETATM   17  C4  UNL     1     -49.310  74.130 -13.660  1.00  0.00     0.186 C 
HETATM   18  C5  UNL     1     -50.504  74.637 -12.842  1.00  0.00     0.175 C 
HETATM   19  C6  UNL     1     -50.193  76.066 -12.423  1.00  0.00     0.267 C 
HETATM   20  N1  UNL     1     -50.211  76.874 -13.615  1.00  0.00    -0.064 N 
HETATM   21  C7  UNL     1     -49.247  76.457 -14.593  1.00  0.00     0.240 C 
ATOM     22  H12 UNL     1     -51.147  76.906 -14.018  1.00  0.00     0.277 HD
ATOM     23  H11 UNL     1     -50.094  77.861 -13.387  1.00  0.00     0.277 HD
HETATM   24  C9  UNL     1     -49.272  74.998 -14.902  1.00  0.00     0.182 C 
BRANCH  18  25
HETATM   25  O4  UNL     1     -51.666  74.652 -13.580  1.00  0.00    -0.391 OA
ATOM     26  H4  UNL     1     -52.154  75.458 -13.461  1.00  0.00     0.210 HD
ENDBRANCH  18  25
BRANCH  21  27
HETATM   27  C8  UNL     1     -49.578  77.211 -15.886  1.00  0.00     0.199 C 
BRANCH  27  28
HETATM   28  O5  UNL     1     -48.421  77.634 -16.517  1.00  0.00    -0.399 OA
ATOM     29  H5  UNL     1     -48.489  77.517 -17.458  1.00  0.00     0.209 HD
ENDBRANCH  27  28
ENDBRANCH  21  27
BRANCH  24  30
HETATM   30  O6  UNL     1     -48.116  74.681 -15.607  1.00  0.00    -0.391 OA
ATOM     31  H6  UNL     1     -48.363  74.121 -16.333  1.00  0.00     0.210 HD
ENDBRANCH  24  30
ENDBRANCH   1  17
TORSDOF 11
ENDMDL
