MODEL 2
REMARK VINA RESULT: -6.289815268      1.720      2.280
REMARK  11 active torsions:
REMARK  status: ('A' for Active; 'I' for Inactive)
REMARK    1  A    between atoms: O1_1  and  C1_3 
REMARK    2  A    between atoms: C1_3  and  C2_4 
REMARK    3  A    between atoms: C3_6  and  O3_7 
REMARK    4  A    between atoms: O3_7  and  C4_8 
REMARK    5  A    between atoms: C5_9  and  O4_10 
REMARK    6  A    between atoms: C7_16  and  C8_17 
REMARK    7  A    between atoms: C8_17  and  O5_18 
REMARK    8  A    between atoms: C9_20  and  O6_21 
REMARK    9  A    between atoms: C10_23  and  O7_24 
REMARK   10  A    between atoms: C11_26  and  O8_27 
REMARK   11  A    between atoms: C12_29  and  O9_30 
ROOT
HETATM    1  O3  UNL     1     -49.419  72.181 -15.704  1.00  0.00    -0.348 OA
ENDROOT
BRANCH   1   2
HETATM    2  C3  UNL     1     -48.478  71.679 -14.829  1.00  0.00     0.292 C 
HETATM    3  O2  UNL     1     -48.979  70.819 -13.899  1.00  0.00    -0.348 OA
HETATM    4  C2  UNL     1     -48.582  69.516 -13.978  1.00  0.00     0.179 C 
HETATM    5  C12 UNL     1     -47.087  69.347 -13.769  1.00  0.00     0.180 C 
HETATM    6  C11 UNL     1     -46.361  70.574 -14.354  1.00  0.00     0.183 C 
HETATM    7  C10 UNL     1     -47.247  71.158 -15.466  1.00  0.00     0.204 C 
BRANCH   4   8
HETATM    8  C1  UNL     1     -49.247  68.648 -12.908  1.00  0.00     0.198 C 
BRANCH   8   9
HETATM    9  O1  UNL     1     -48.676  67.361 -12.917  1.00  0.00    -0.398 OA
ATOM     10  H1  UNL     1     -48.700  67.005 -13.797  1.00  0.00     0.209 HD
ENDBRANCH   8   9
ENDBRANCH   4   8
BRANCH   5  11
HETATM   11  O9  UNL     1     -46.676  68.255 -14.523  1.00  0.00    -0.390 OA
ATOM     12  H9  UNL     1     -45.741  68.147 -14.390  1.00  0.00     0.210 HD
ENDBRANCH   5  11
BRANCH   6  13
HETATM   13  O8  UNL     1     -46.249  71.532 -13.367  1.00  0.00    -0.390 OA
ATOM     14  H8  UNL     1     -46.641  71.177 -12.578  1.00  0.00     0.210 HD
ENDBRANCH   6  13
BRANCH   7  15
HETATM   15  O7  UNL     1     -47.423  70.158 -16.396  1.00  0.00    -0.388 OA
ATOM     16  H7  UNL     1     -48.265  70.137 -16.835  1.00  0.00     0.210 HD
ENDBRANCH   7  15
ENDBRANCH   1   2
BRANCH   1  17
HETATM   17  C4  UNL     1     -49.647  73.516 -15.636  1.00  0.00     0.186 C 
HETATM   18  C5  UNL     1     -49.332  74.072 -14.242  1.00  0.00     0.175 C 
HETATM   19  C6  UNL     1     -49.562  75.574 -14.291  1.00  0.00     0.267 C 
HETATM   20  N1  UNL     1     -50.978  75.785 -14.443  1.00  0.00    -0.064 N 
HETATM   21  C7  UNL     1     -51.510  75.195 -15.639  1.00  0.00     0.240 C 
ATOM     22  H12 UNL     1     -51.485  75.458 -13.621  1.00  0.00     0.277 HD
ATOM     23  H11 UNL     1     -51.206  76.778 -14.395  1.00  0.00     0.277 HD
HETATM   24  C9  UNL     1     -51.127  73.769 -15.847  1.00  0.00     0.182 C 
BRANCH  18  25
HETATM   25  O4  UNL     1     -50.159  73.543 -13.276  1.00  0.00    -0.391 OA
ATOM     26  H4  UNL     1     -50.033  73.961 -12.432  1.00  0.00     0.210 HD
ENDBRANCH  18  25
BRANCH  21  27
HETATM   27  C8  UNL     1     -53.036  75.254 -15.517  1.00  0.00     0.199 C 
BRANCH  27  28
HETATM   28  O5  UNL     1     -53.565  73.986 -15.348  1.00  0.00    -0.399 OA
ATOM     29  H5  UNL     1     -53.576  73.513 -16.173  1.00  0.00     0.209 HD
ENDBRANCH  27  28
ENDBRANCH  21  27
BRANCH  24  30
HETATM   30  O6  UNL     1     -51.434  73.421 -17.158  1.00  0.00    -0.391 OA
ATOM     31  H6  UNL     1     -52.364  73.229 -17.197  1.00  0.00     0.210 HD
ENDBRANCH  24  30
ENDBRANCH   1  17
TORSDOF 11
ENDMDL
