MODEL 4
REMARK VINA RESULT: -6.129519287      1.677      2.081
REMARK  11 active torsions:
REMARK  status: ('A' for Active; 'I' for Inactive)
REMARK    1  A    between atoms: O1_1  and  C1_3 
REMARK    2  A    between atoms: C1_3  and  C2_4 
REMARK    3  A    between atoms: C3_6  and  O3_7 
REMARK    4  A    between atoms: O3_7  and  C4_8 
REMARK    5  A    between atoms: C5_9  and  O4_10 
REMARK    6  A    between atoms: C7_16  and  C8_17 
REMARK    7  A    between atoms: C8_17  and  O5_18 
REMARK    8  A    between atoms: C9_20  and  O6_21 
REMARK    9  A    between atoms: C10_23  and  O7_24 
REMARK   10  A    between atoms: C11_26  and  O8_27 
REMARK   11  A    between atoms: C12_29  and  O9_30 
ROOT
HETATM    1  O3  UNL     1     -49.870  73.169 -12.739  1.00  0.00    -0.348 OA
ENDROOT
BRANCH   1   2
HETATM    2  C3  UNL     1     -48.808  72.322 -12.984  1.00  0.00     0.292 C 
HETATM    3  O2  UNL     1     -48.987  71.052 -12.524  1.00  0.00    -0.348 OA
HETATM    4  C2  UNL     1     -49.088  70.061 -13.457  1.00  0.00     0.179 C 
HETATM    5  C12 UNL     1     -47.825  69.907 -14.286  1.00  0.00     0.180 C 
HETATM    6  C11 UNL     1     -47.181  71.294 -14.475  1.00  0.00     0.183 C 
HETATM    7  C10 UNL     1     -48.297  72.348 -14.372  1.00  0.00     0.204 C 
BRANCH   4   8
HETATM    8  C1  UNL     1     -49.328  68.693 -12.816  1.00  0.00     0.198 C 
BRANCH   8   9
HETATM    9  O1  UNL     1     -48.310  67.801 -13.202  1.00  0.00    -0.398 OA
ATOM     10  H1  UNL     1     -48.660  66.920 -13.261  1.00  0.00     0.209 HD
ENDBRANCH   8   9
ENDBRANCH   4   8
BRANCH   5  11
HETATM   11  O9  UNL     1     -48.201  69.476 -15.552  1.00  0.00    -0.390 OA
ATOM     12  H9  UNL     1     -48.987  68.951 -15.458  1.00  0.00     0.210 HD
ENDBRANCH   5  11
BRANCH   6  13
HETATM   13  O8  UNL     1     -46.303  71.518 -13.434  1.00  0.00    -0.390 OA
ATOM     14  H8  UNL     1     -46.526  72.357 -13.048  1.00  0.00     0.210 HD
ENDBRANCH   6  13
BRANCH   7  15
HETATM   15  O7  UNL     1     -49.209  72.052 -15.361  1.00  0.00    -0.388 OA
ATOM     16  H7  UNL     1     -49.053  71.252 -15.849  1.00  0.00     0.210 HD
ENDBRANCH   7  15
ENDBRANCH   1   2
BRANCH   1  17
HETATM   17  C4  UNL     1     -49.728  74.447 -13.171  1.00  0.00     0.186 C 
HETATM   18  C5  UNL     1     -49.344  75.389 -12.024  1.00  0.00     0.175 C 
HETATM   19  C6  UNL     1     -49.150  76.775 -12.622  1.00  0.00     0.267 C 
HETATM   20  N1  UNL     1     -50.445  77.242 -13.045  1.00  0.00    -0.064 N 
HETATM   21  C7  UNL     1     -51.055  76.393 -14.028  1.00  0.00     0.240 C 
ATOM     22  H12 UNL     1     -51.063  77.373 -12.245  1.00  0.00     0.277 HD
ATOM     23  H11 UNL     1     -50.394  78.205 -13.377  1.00  0.00     0.277 HD
HETATM   24  C9  UNL     1     -51.068  74.945 -13.673  1.00  0.00     0.182 C 
BRANCH  18  25
HETATM   25  O4  UNL     1     -50.332  75.470 -11.069  1.00  0.00    -0.391 OA
ATOM     26  H4  UNL     1     -49.976  75.509 -10.189  1.00  0.00     0.210 HD
ENDBRANCH  18  25
BRANCH  21  27
HETATM   27  C8  UNL     1     -52.512  76.852 -14.162  1.00  0.00     0.199 C 
BRANCH  27  28
HETATM   28  O5  UNL     1     -53.353  76.037 -13.424  1.00  0.00    -0.399 OA
ATOM     29  H5  UNL     1     -53.351  76.291 -12.509  1.00  0.00     0.209 HD
ENDBRANCH  27  28
ENDBRANCH  21  27
BRANCH  24  30
HETATM   30  O6  UNL     1     -51.392  74.217 -14.813  1.00  0.00    -0.391 OA
ATOM     31  H6  UNL     1     -50.696  74.345 -15.446  1.00  0.00     0.210 HD
ENDBRANCH  24  30
ENDBRANCH   1  17
TORSDOF 11
ENDMDL
