MODEL 7
REMARK VINA RESULT: -6.047763519      3.268      6.193
REMARK  11 active torsions:
REMARK  status: ('A' for Active; 'I' for Inactive)
REMARK    1  A    between atoms: O1_1  and  C1_3 
REMARK    2  A    between atoms: C1_3  and  C2_4 
REMARK    3  A    between atoms: C3_6  and  O3_7 
REMARK    4  A    between atoms: O3_7  and  C4_8 
REMARK    5  A    between atoms: C5_9  and  O4_10 
REMARK    6  A    between atoms: C7_16  and  C8_17 
REMARK    7  A    between atoms: C8_17  and  O5_18 
REMARK    8  A    between atoms: C9_20  and  O6_21 
REMARK    9  A    between atoms: C10_23  and  O7_24 
REMARK   10  A    between atoms: C11_26  and  O8_27 
REMARK   11  A    between atoms: C12_29  and  O9_30 
ROOT
HETATM    1  O3  UNL     1     -46.900  71.195 -16.041  1.00  0.00    -0.348 OA
ENDROOT
BRANCH   1   2
HETATM    2  C3  UNL     1     -46.340  72.396 -16.427  1.00  0.00     0.292 C 
HETATM    3  O2  UNL     1     -45.304  72.809 -15.645  1.00  0.00    -0.348 OA
HETATM    4  C2  UNL     1     -44.067  72.847 -16.218  1.00  0.00     0.179 C 
HETATM    5  C12 UNL     1     -43.986  73.833 -17.370  1.00  0.00     0.180 C 
HETATM    6  C11 UNL     1     -45.345  73.862 -18.096  1.00  0.00     0.183 C 
HETATM    7  C10 UNL     1     -46.029  72.503 -17.870  1.00  0.00     0.204 C 
BRANCH   4   8
HETATM    8  C1  UNL     1     -42.988  73.285 -15.227  1.00  0.00     0.198 C 
BRANCH   8   9
HETATM    9  O1  UNL     1     -43.552  73.438 -13.946  1.00  0.00    -0.398 OA
ATOM     10  H1  UNL     1     -43.626  74.362 -13.735  1.00  0.00     0.209 HD
ENDBRANCH   8   9
ENDBRANCH   4   8
BRANCH   5  11
HETATM   11  O9  UNL     1     -43.066  73.338 -18.286  1.00  0.00    -0.390 OA
ATOM     12  H9  UNL     1     -42.215  73.326 -17.863  1.00  0.00     0.210 HD
ENDBRANCH   5  11
BRANCH   6  13
HETATM   13  O8  UNL     1     -46.139  74.828 -17.510  1.00  0.00    -0.390 OA
ATOM     14  H8  UNL     1     -46.964  74.418 -17.279  1.00  0.00     0.210 HD
ENDBRANCH   6  13
BRANCH   7  15
HETATM   15  O7  UNL     1     -45.180  71.546 -18.380  1.00  0.00    -0.388 OA
ATOM     16  H7  UNL     1     -44.631  71.818 -19.106  1.00  0.00     0.210 HD
ENDBRANCH   7  15
ENDBRANCH   1   2
BRANCH   1  17
HETATM   17  C4  UNL     1     -47.914  71.269 -15.142  1.00  0.00     0.186 C 
HETATM   18  C5  UNL     1     -47.499  72.044 -13.886  1.00  0.00     0.175 C 
HETATM   19  C6  UNL     1     -48.717  72.120 -12.978  1.00  0.00     0.267 C 
HETATM   20  N1  UNL     1     -48.978  70.787 -12.501  1.00  0.00    -0.064 N 
HETATM   21  C7  UNL     1     -49.246  69.853 -13.558  1.00  0.00     0.240 C 
ATOM     22  H12 UNL     1     -48.217  70.456 -11.909  1.00  0.00     0.277 HD
ATOM     23  H11 UNL     1     -49.734  70.787 -11.816  1.00  0.00     0.277 HD
HETATM   24  C9  UNL     1     -48.245  69.870 -14.664  1.00  0.00     0.182 C 
BRANCH  18  25
HETATM   25  O4  UNL     1     -46.491  71.407 -13.196  1.00  0.00    -0.391 OA
ATOM     26  H4  UNL     1     -46.821  70.705 -12.649  1.00  0.00     0.210 HD
ENDBRANCH  18  25
BRANCH  21  27
HETATM   27  C8  UNL     1     -49.219  68.456 -12.929  1.00  0.00     0.199 C 
BRANCH  27  28
HETATM   28  O5  UNL     1     -48.075  67.771 -13.300  1.00  0.00    -0.399 OA
ATOM     29  H5  UNL     1     -48.231  67.254 -14.081  1.00  0.00     0.209 HD
ENDBRANCH  27  28
ENDBRANCH  21  27
BRANCH  24  30
HETATM   30  O6  UNL     1     -48.773  69.166 -15.742  1.00  0.00    -0.391 OA
ATOM     31  H6  UNL     1     -48.746  68.242 -15.526  1.00  0.00     0.210 HD
ENDBRANCH  24  30
ENDBRANCH   1  17
TORSDOF 11
ENDMDL
