MODEL 8
REMARK VINA RESULT: -4.421672109      3.533      5.334
REMARK  3 active torsions:
REMARK  status: ('A' for Active; 'I' for Inactive)
REMARK    1  A    between atoms: N4_10  and  C4_11 
REMARK    2  A    between atoms: C4_11  and  C5_12 
REMARK    3  A    between atoms: C5_12  and  O1_13 
ROOT
HETATM    1  N1  UNL     1      -3.245   0.474  17.653  1.00  0.00    -0.063 NA
HETATM    2  C1  UNL     1      -1.986   0.387  16.972  1.00  0.00     0.196 A 
HETATM    3  N2  UNL     1      -1.797   1.190  15.917  1.00  0.00    -0.314 N 
ATOM      4  H2  UNL     1      -2.545   1.827  15.639  1.00  0.00     0.170 HD
HETATM    5  C2  UNL     1      -0.655   1.183  15.215  1.00  0.00     0.142 A 
HETATM    6  N3  UNL     1      -0.200   1.866  14.135  1.00  0.00    -0.320 N 
ATOM      7  H3  UNL     1      -0.709   2.581  13.616  1.00  0.00     0.169 HD
HETATM    8  C3  UNL     1       1.042   1.428  13.874  1.00  0.00     0.160 A 
HETATM    9  S1  UNL     1       2.143   1.972  12.554  1.00  0.00    -0.013 SA
HETATM   10  N4  UNL     1       1.356   0.483  14.782  1.00  0.00    -0.317 N 
HETATM   11  C6  UNL     1       0.331   0.293  15.640  1.00  0.00     0.150 A 
HETATM   12  C7  UNL     1       0.099  -0.517  16.730  1.00  0.00     0.278 A 
HETATM   13  O2  UNL     1       1.017  -1.301  17.076  1.00  0.00    -0.265 OA
HETATM   14  N5  UNL     1      -1.066  -0.474  17.405  1.00  0.00    -0.295 N 
ATOM     15  H5  UNL     1      -1.236  -1.074  18.212  1.00  0.00     0.171 HD
ENDROOT
BRANCH  10  16
HETATM   16  C4  UNL     1       2.604  -0.270  14.885  1.00  0.00     0.157 C 
BRANCH  16  17
HETATM   17  C5  UNL     1       2.452  -1.559  14.076  1.00  0.00     0.184 C 
BRANCH  17  18
HETATM   18  O1  UNL     1       2.766  -2.649  14.850  1.00  0.00    -0.399 OA
ATOM     19  H1  UNL     1       2.670  -2.439  15.771  1.00  0.00     0.209 HD
ENDBRANCH  17  18
ENDBRANCH  16  17
ENDBRANCH  10  16
TORSDOF 3
ENDMDL
