MODEL 1
REMARK VINA RESULT: -5.844575050      0.000      0.000
REMARK  3 active torsions:
REMARK  status: ('A' for Active; 'I' for Inactive)
REMARK    1  A    between atoms: N4_10  and  C4_11 
REMARK    2  A    between atoms: C4_11  and  C5_12 
REMARK    3  A    between atoms: C5_12  and  O1_13 
ROOT
HETATM    1  N1  UNL     1       3.043  -4.921  12.484  1.00  0.00    -0.063 NA
HETATM    2  C1  UNL     1       2.554  -3.588  12.682  1.00  0.00     0.196 A 
HETATM    3  N2  UNL     1       2.863  -2.982  13.836  1.00  0.00    -0.314 N 
ATOM      4  H2  UNL     1       3.427  -3.483  14.523  1.00  0.00     0.170 HD
HETATM    5  C2  UNL     1       2.453  -1.736  14.115  1.00  0.00     0.142 A 
HETATM    6  N3  UNL     1       2.611  -0.899  15.171  1.00  0.00    -0.320 N 
ATOM      7  H3  UNL     1       3.128  -1.100  16.027  1.00  0.00     0.169 HD
HETATM    8  C3  UNL     1       1.965   0.241  14.882  1.00  0.00     0.160 A 
HETATM    9  S1  UNL     1       1.828   1.716  15.909  1.00  0.00    -0.013 SA
HETATM   10  N4  UNL     1       1.411   0.115  13.660  1.00  0.00    -0.317 N 
HETATM   11  C6  UNL     1       1.686  -1.100  13.140  1.00  0.00     0.150 A 
HETATM   12  C7  UNL     1       1.389  -1.757  11.966  1.00  0.00     0.278 A 
HETATM   13  O2  UNL     1       0.696  -1.143  11.117  1.00  0.00    -0.265 OA
HETATM   14  N5  UNL     1       1.825  -3.010  11.730  1.00  0.00    -0.295 N 
ATOM     15  H5  UNL     1       1.605  -3.494  10.859  1.00  0.00     0.171 HD
ENDROOT
BRANCH  10  16
HETATM   16  C4  UNL     1       0.614   1.105  12.939  1.00  0.00     0.157 C 
BRANCH  16  17
HETATM   17  C5  UNL     1       1.571   2.038  12.196  1.00  0.00     0.184 C 
BRANCH  17  18
HETATM   18  O1  UNL     1       1.672   1.668  10.877  1.00  0.00    -0.399 OA
ATOM     19  H1  UNL     1       1.554   2.423  10.311  1.00  0.00     0.209 HD
ENDBRANCH  17  18
ENDBRANCH  16  17
ENDBRANCH  10  16
TORSDOF 3
ENDMDL
