MODEL 2
REMARK VINA RESULT: -4.818553238      2.892      4.121
REMARK  3 active torsions:
REMARK  status: ('A' for Active; 'I' for Inactive)
REMARK    1  A    between atoms: N4_10  and  C4_11 
REMARK    2  A    between atoms: C4_11  and  C5_12 
REMARK    3  A    between atoms: C5_12  and  O1_13 
ROOT
HETATM    1  N1  UNL     1       0.202   0.192   9.109  1.00  0.00    -0.063 NA
HETATM    2  C1  UNL     1       0.767   0.503  10.390  1.00  0.00     0.196 A 
HETATM    3  N2  UNL     1       1.314   1.716  10.547  1.00  0.00    -0.314 N 
ATOM      4  H2  UNL     1       1.309   2.366   9.760  1.00  0.00     0.170 HD
HETATM    5  C2  UNL     1       1.867   2.100  11.705  1.00  0.00     0.142 A 
HETATM    6  N3  UNL     1       2.475   3.234  12.137  1.00  0.00    -0.320 N 
ATOM      7  H3  UNL     1       2.632   4.080  11.589  1.00  0.00     0.169 HD
HETATM    8  C3  UNL     1       2.834   3.037  13.415  1.00  0.00     0.160 A 
HETATM    9  S1  UNL     1       3.679   4.196  14.509  1.00  0.00    -0.013 SA
HETATM   10  N4  UNL     1       2.452   1.797  13.775  1.00  0.00    -0.317 N 
HETATM   11  C6  UNL     1       1.845   1.171  12.745  1.00  0.00     0.150 A 
HETATM   12  C7  UNL     1       1.274  -0.066  12.545  1.00  0.00     0.278 A 
HETATM   13  O2  UNL     1       1.277  -0.870  13.510  1.00  0.00    -0.265 OA
HETATM   14  N5  UNL     1       0.729  -0.408  11.361  1.00  0.00    -0.295 N 
ATOM     15  H5  UNL     1       0.305  -1.324  11.215  1.00  0.00     0.171 HD
ENDROOT
BRANCH  10  16
HETATM   16  C4  UNL     1       2.635   1.153  15.074  1.00  0.00     0.157 C 
BRANCH  16  17
HETATM   17  C5  UNL     1       4.007   0.478  15.083  1.00  0.00     0.184 C 
BRANCH  17  18
HETATM   18  O1  UNL     1       3.878  -0.871  14.857  1.00  0.00    -0.399 OA
ATOM     19  H1  UNL     1       3.944  -1.058  13.928  1.00  0.00     0.209 HD
ENDBRANCH  17  18
ENDBRANCH  16  17
ENDBRANCH  10  16
TORSDOF 3
ENDMDL
