MODEL 5
REMARK VINA RESULT: -4.604282002      3.440      5.467
REMARK  3 active torsions:
REMARK  status: ('A' for Active; 'I' for Inactive)
REMARK    1  A    between atoms: N4_10  and  C4_11 
REMARK    2  A    between atoms: C4_11  and  C5_12 
REMARK    3  A    between atoms: C5_12  and  O1_13 
ROOT
HETATM    1  N1  UNL     1       5.019   4.864  13.161  1.00  0.00    -0.063 NA
HETATM    2  C1  UNL     1       4.181   3.703  13.232  1.00  0.00     0.196 A 
HETATM    3  N2  UNL     1       3.485   3.376  12.135  1.00  0.00    -0.314 N 
ATOM      4  H2  UNL     1       3.574   3.956  11.301  1.00  0.00     0.170 HD
HETATM    5  C2  UNL     1       2.674   2.309  12.102  1.00  0.00     0.142 A 
HETATM    6  N3  UNL     1       1.872   1.755  11.159  1.00  0.00    -0.320 N 
ATOM      7  H3  UNL     1       1.735   2.097  10.207  1.00  0.00     0.169 HD
HETATM    8  C3  UNL     1       1.290   0.676  11.706  1.00  0.00     0.160 A 
HETATM    9  S1  UNL     1       0.123  -0.456  10.926  1.00  0.00    -0.013 SA
HETATM   10  N4  UNL     1       1.727   0.559  12.974  1.00  0.00    -0.317 N 
HETATM   11  C6  UNL     1       2.591   1.553  13.271  1.00  0.00     0.150 A 
HETATM   12  C7  UNL     1       3.323   1.922  14.378  1.00  0.00     0.278 A 
HETATM   13  O2  UNL     1       3.216   1.210  15.408  1.00  0.00    -0.265 OA
HETATM   14  N5  UNL     1       4.126   3.004  14.364  1.00  0.00    -0.295 N 
ATOM     15  H5  UNL     1       4.667   3.275  15.184  1.00  0.00     0.171 HD
ENDROOT
BRANCH  10  16
HETATM   16  C4  UNL     1       1.361  -0.467  13.949  1.00  0.00     0.157 C 
BRANCH  16  17
HETATM   17  C5  UNL     1       2.265  -1.681  13.726  1.00  0.00     0.184 C 
BRANCH  17  18
HETATM   18  O1  UNL     1       3.092  -1.866  14.806  1.00  0.00    -0.399 OA
ATOM     19  H1  UNL     1       3.998  -1.911  14.525  1.00  0.00     0.209 HD
ENDBRANCH  17  18
ENDBRANCH  16  17
ENDBRANCH  10  16
TORSDOF 3
ENDMDL
