MODEL 8
REMARK VINA RESULT: -8.586654516      2.349      2.988
REMARK  6 active torsions:
REMARK  status: ('A' for Active; 'I' for Inactive)
REMARK    1  A    between atoms: N4_13  and  C6_14 
REMARK    2  A    between atoms: C7_16  and  C8_17 
REMARK    3  A    between atoms: C8_17  and  O3_18 
REMARK    4  A    between atoms: O3_18  and  P1_19 
REMARK    5  A    between atoms: C9_23  and  O7_24 
REMARK    6  A    between atoms: C10_26  and  O8_27 
ROOT
HETATM    1  C6  UNL     1      17.299  18.577  32.707  1.00  0.00     0.262 C 
HETATM    2  O2  UNL     1      16.484  18.991  31.606  1.00  0.00    -0.353 OA
HETATM    3  C7  UNL     1      15.382  19.404  32.235  1.00  0.00     0.180 C 
HETATM    4  C9  UNL     1      15.689  20.057  33.535  1.00  0.00     0.182 C 
HETATM    5  C10 UNL     1      17.213  19.867  33.552  1.00  0.00     0.198 C 
ENDROOT
BRANCH   1   6
HETATM    6  N4  UNL     1      18.627  18.289  32.344  1.00  0.00    -0.297 N 
HETATM    7  C3  UNL     1      19.174  17.046  32.341  1.00  0.00     0.144 A 
HETATM    8  N2  UNL     1      18.686  15.823  32.624  1.00  0.00    -0.336 N 
HETATM    9  C4  UNL     1      20.517  17.212  31.964  1.00  0.00     0.146 A 
HETATM   10  C2  UNL     1      19.500  14.758  32.545  1.00  0.00     0.185 A 
ATOM     11  H2  UNL     1      17.710  15.707  32.895  1.00  0.00     0.168 HD
HETATM   12  N1  UNL     1      20.781  14.872  32.189  1.00  0.00    -0.318 N 
HETATM   13  C1  UNL     1      21.284  16.092  31.899  1.00  0.00     0.277 A 
ATOM     14  H1  UNL     1      21.376  14.045  32.137  1.00  0.00     0.169 HD
HETATM   15  O1  UNL     1      22.466  16.254  31.574  1.00  0.00    -0.266 OA
HETATM   16  N3  UNL     1      20.687  18.522  31.778  1.00  0.00    -0.345 N 
HETATM   17  C5  UNL     1      19.553  19.192  32.000  1.00  0.00     0.188 A 
ATOM     18  H3  UNL     1      21.569  18.954  31.503  1.00  0.00     0.167 HD
ENDBRANCH   1   6
BRANCH   5  19
HETATM   19  O8  UNL     1      17.689  19.648  34.814  1.00  0.00    -0.388 OA
ATOM     20  H8  UNL     1      18.260  18.889  34.830  1.00  0.00     0.210 HD
ENDBRANCH   5  19
BRANCH   3  21
HETATM   21  C8  UNL     1      14.311  20.160  31.511  1.00  0.00     0.217 C 
BRANCH  21  22
HETATM   22  O3  UNL     1      13.188  19.897  32.394  1.00  0.00    -0.280 OA
BRANCH  22  23
HETATM   23  P1  UNL     1      11.834  19.670  31.389  1.00  0.00     0.422 P 
HETATM   24  O4  UNL     1      12.442  19.507  29.935  1.00  0.00    -0.617 OA
HETATM   25  O5  UNL     1      10.968  21.119  31.251  1.00  0.00    -0.617 OA
HETATM   26  O6  UNL     1      10.969  18.317  31.676  1.00  0.00    -0.617 OA
ENDBRANCH  22  23
ENDBRANCH  21  22
ENDBRANCH   3  21
BRANCH   4  27
HETATM   27  O7  UNL     1      15.244  19.260  34.630  1.00  0.00    -0.390 OA
ATOM     28  H7  UNL     1      14.562  19.702  35.122  1.00  0.00     0.210 HD
ENDBRANCH   4  27
TORSDOF 6
ENDMDL
