MODEL 19
REMARK VINA RESULT: -7.964046386      3.588      6.928
REMARK  6 active torsions:
REMARK  status: ('A' for Active; 'I' for Inactive)
REMARK    1  A    between atoms: N4_13  and  C6_14 
REMARK    2  A    between atoms: C7_16  and  C8_17 
REMARK    3  A    between atoms: C8_17  and  O3_18 
REMARK    4  A    between atoms: O3_18  and  P1_19 
REMARK    5  A    between atoms: C9_23  and  O7_24 
REMARK    6  A    between atoms: C10_26  and  O8_27 
ROOT
HETATM    1  C6  UNL     1      17.977  18.515  32.059  1.00  0.00     0.262 C 
HETATM    2  O2  UNL     1      18.016  17.450  33.014  1.00  0.00    -0.353 OA
HETATM    3  C7  UNL     1      19.049  16.733  32.566  1.00  0.00     0.180 C 
HETATM    4  C9  UNL     1      20.125  17.591  32.001  1.00  0.00     0.182 C 
HETATM    5  C10 UNL     1      19.452  18.963  32.157  1.00  0.00     0.198 C 
ENDROOT
BRANCH   1   6
HETATM    6  N4  UNL     1      17.101  19.555  32.415  1.00  0.00    -0.297 N 
HETATM    7  C3  UNL     1      15.806  19.646  32.014  1.00  0.00     0.144 A 
HETATM    8  N2  UNL     1      15.018  18.859  31.256  1.00  0.00    -0.336 N 
HETATM    9  C4  UNL     1      15.315  20.847  32.552  1.00  0.00     0.146 A 
HETATM   10  C2  UNL     1      13.753  19.236  31.015  1.00  0.00     0.185 A 
ATOM     11  H2  UNL     1      15.379  17.987  30.869  1.00  0.00     0.168 HD
HETATM   12  N1  UNL     1      13.246  20.368  31.509  1.00  0.00    -0.318 N 
HETATM   13  C1  UNL     1      14.023  21.166  32.274  1.00  0.00     0.277 A 
ATOM     14  H1  UNL     1      12.280  20.628  31.311  1.00  0.00     0.169 HD
HETATM   15  O1  UNL     1      13.606  22.229  32.748  1.00  0.00    -0.266 OA
HETATM   16  N3  UNL     1      16.330  21.393  33.222  1.00  0.00    -0.345 N 
HETATM   17  C5  UNL     1      17.421  20.625  33.155  1.00  0.00     0.188 A 
ATOM     18  H3  UNL     1      16.280  22.281  33.720  1.00  0.00     0.167 HD
ENDBRANCH   1   6
BRANCH   5  19
HETATM   19  O8  UNL     1      19.767  19.808  31.131  1.00  0.00    -0.388 OA
ATOM     20  H8  UNL     1      20.320  19.371  30.494  1.00  0.00     0.210 HD
ENDBRANCH   5  19
BRANCH   3  21
HETATM   21  C8  UNL     1      19.640  15.626  33.384  1.00  0.00     0.217 C 
BRANCH  21  22
HETATM   22  O3  UNL     1      19.945  16.360  34.600  1.00  0.00    -0.280 OA
BRANCH  22  23
HETATM   23  P1  UNL     1      19.304  15.443  35.883  1.00  0.00     0.422 P 
HETATM   24  O4  UNL     1      17.780  15.870  35.952  1.00  0.00    -0.617 OA
HETATM   25  O5  UNL     1      19.902  16.017  37.359  1.00  0.00    -0.617 OA
HETATM   26  O6  UNL     1      19.314  13.826  35.659  1.00  0.00    -0.617 OA
ENDBRANCH  22  23
ENDBRANCH  21  22
ENDBRANCH   3  21
BRANCH   4  27
HETATM   27  O7  UNL     1      20.224  17.429  30.587  1.00  0.00    -0.390 OA
ATOM     28  H7  UNL     1      21.066  17.728  30.266  1.00  0.00     0.210 HD
ENDBRANCH   4  27
TORSDOF 6
ENDMDL
