MODEL 17
REMARK VINA RESULT: -8.050389362      4.401      5.873
REMARK  6 active torsions:
REMARK  status: ('A' for Active; 'I' for Inactive)
REMARK    1  A    between atoms: N4_13  and  C6_14 
REMARK    2  A    between atoms: C7_16  and  C8_17 
REMARK    3  A    between atoms: C8_17  and  O3_18 
REMARK    4  A    between atoms: O3_18  and  P1_19 
REMARK    5  A    between atoms: C9_23  and  O7_24 
REMARK    6  A    between atoms: C10_26  and  O8_27 
ROOT
HETATM    1  C6  UNL     1      18.872  20.176  32.862  1.00  0.00     0.262 C 
HETATM    2  O2  UNL     1      18.388  19.861  34.171  1.00  0.00    -0.353 OA
HETATM    3  C7  UNL     1      17.125  19.520  33.909  1.00  0.00     0.180 C 
HETATM    4  C9  UNL     1      16.994  18.806  32.611  1.00  0.00     0.182 C 
HETATM    5  C10 UNL     1      18.456  18.872  32.145  1.00  0.00     0.198 C 
ENDROOT
BRANCH   1   6
HETATM    6  N4  UNL     1      20.265  20.367  32.810  1.00  0.00    -0.297 N 
HETATM    7  C3  UNL     1      21.179  19.542  33.384  1.00  0.00     0.144 A 
HETATM    8  N2  UNL     1      21.075  18.397  34.087  1.00  0.00    -0.336 N 
HETATM    9  C4  UNL     1      22.435  20.118  33.134  1.00  0.00     0.146 A 
HETATM   10  C2  UNL     1      22.189  17.810  34.551  1.00  0.00     0.185 A 
ATOM     11  H2  UNL     1      20.161  17.982  34.264  1.00  0.00     0.168 HD
HETATM   12  N1  UNL     1      23.402  18.323  34.334  1.00  0.00    -0.318 N 
HETATM   13  C1  UNL     1      23.522  19.468  33.627  1.00  0.00     0.277 A 
ATOM     14  H1  UNL     1      24.231  17.854  34.697  1.00  0.00     0.169 HD
HETATM   15  O1  UNL     1      24.621  19.991  33.406  1.00  0.00    -0.266 OA
HETATM   16  N3  UNL     1      22.197  21.235  32.446  1.00  0.00    -0.345 N 
HETATM   17  C5  UNL     1      20.888  21.403  32.236  1.00  0.00     0.188 A 
ATOM     18  H3  UNL     1      22.920  21.877  32.122  1.00  0.00     0.167 HD
ENDBRANCH   1   6
BRANCH   5  19
HETATM   19  O8  UNL     1      18.557  19.015  30.790  1.00  0.00    -0.388 OA
ATOM     20  H8  UNL     1      18.561  18.166  30.363  1.00  0.00     0.210 HD
ENDBRANCH   5  19
BRANCH   3  21
HETATM   21  C8  UNL     1      16.262  18.874  34.950  1.00  0.00     0.217 C 
BRANCH  21  22
HETATM   22  O3  UNL     1      16.254  17.511  34.446  1.00  0.00    -0.280 OA
BRANCH  22  23
HETATM   23  P1  UNL     1      17.004  16.558  35.640  1.00  0.00     0.422 P 
HETATM   24  O4  UNL     1      15.827  16.151  36.620  1.00  0.00    -0.617 OA
HETATM   25  O5  UNL     1      17.971  17.531  36.632  1.00  0.00    -0.617 OA
HETATM   26  O6  UNL     1      17.659  15.161  35.110  1.00  0.00    -0.617 OA
ENDBRANCH  22  23
ENDBRANCH  21  22
ENDBRANCH   3  21
BRANCH   4  27
HETATM   27  O7  UNL     1      16.304  19.604  31.651  1.00  0.00    -0.390 OA
ATOM     28  H7  UNL     1      15.505  19.965  32.016  1.00  0.00     0.210 HD
ENDBRANCH   4  27
TORSDOF 6
ENDMDL
