MODEL 2
REMARK VINA RESULT: -8.509934319      2.054      5.803
REMARK  0 active torsions:
REMARK  status: ('A' for Active; 'I' for Inactive)
ROOT
HETATM    1  C1  UNL     1      43.570  -7.204  12.105  1.00  0.00     0.105 A 
HETATM    2  C2  UNL     1      44.705  -7.649  12.741  1.00  0.00     0.105 A 
HETATM    3  N1  UNL     1      45.564  -6.762  13.276  1.00  0.00    -0.363 N 
ATOM      4  H1  UNL     1      46.408  -7.086  13.749  1.00  0.00     0.165 HD
HETATM    5  C3  UNL     1      45.305  -5.445  13.184  1.00  0.00     0.059 A 
HETATM    6  C4  UNL     1      46.191  -4.574  13.734  1.00  0.00     0.040 A 
HETATM    7  C5  UNL     1      45.941  -3.211  13.649  1.00  0.00    -0.043 A 
HETATM    8  C6  UNL     1      44.819  -2.719  13.021  1.00  0.00    -0.040 A 
HETATM    9  C7  UNL     1      43.939  -3.632  12.474  1.00  0.00     0.040 A 
HETATM   10  C8  UNL     1      44.162  -4.995  12.543  1.00  0.00     0.059 A 
HETATM   11  N2  UNL     1      43.304  -5.886  12.008  1.00  0.00    -0.363 N 
ATOM     12  H2  UNL     1      42.460  -5.565  11.535  1.00  0.00     0.165 HD
HETATM   13  C9  UNL     1      44.846  -1.233  13.083  1.00  0.00     0.058 C 
HETATM   14  C10 UNL     1      44.319  -0.661  14.356  1.00  0.00     0.065 C 
HETATM   15  N3  UNL     1      44.808  -1.248  15.540  1.00  0.00    -0.401 N 
ATOM     16  H3  UNL     1      44.230  -1.311  16.378  1.00  0.00     0.158 HD
HETATM   17  C11 UNL     1      46.141  -1.750  15.522  1.00  0.00     0.128 C 
HETATM   18  C12 UNL     1      46.697  -2.044  14.158  1.00  0.00     0.038 C 
HETATM   19  C13 UNL     1      46.367  -0.980  13.150  1.00  0.00     0.025 C 
ENDROOT
TORSDOF 0
ENDMDL
