MODEL 4
REMARK VINA RESULT: -6.930952727      1.151      2.447
REMARK  0 active torsions:
REMARK  status: ('A' for Active; 'I' for Inactive)
ROOT
HETATM    1  C1  UNL     1      45.319   1.163  18.504  1.00  0.00     0.105 A 
HETATM    2  C2  UNL     1      46.508   0.536  18.793  1.00  0.00     0.105 A 
HETATM    3  N1  UNL     1      46.962  -0.443  17.987  1.00  0.00    -0.363 N 
ATOM      4  H1  UNL     1      47.844  -0.911  18.196  1.00  0.00     0.165 HD
HETATM    5  C3  UNL     1      46.247  -0.800  16.906  1.00  0.00     0.059 A 
HETATM    6  C4  UNL     1      46.729  -1.792  16.112  1.00  0.00     0.040 A 
HETATM    7  C5  UNL     1      46.005  -2.174  14.991  1.00  0.00    -0.043 A 
HETATM    8  C6  UNL     1      44.809  -1.576  14.664  1.00  0.00    -0.040 A 
HETATM    9  C7  UNL     1      44.348  -0.572  15.492  1.00  0.00     0.040 A 
HETATM   10  C8  UNL     1      45.048  -0.170  16.614  1.00  0.00     0.059 A 
HETATM   11  N2  UNL     1      44.597   0.810  17.422  1.00  0.00    -0.363 N 
ATOM     12  H2  UNL     1      43.715   1.281  17.217  1.00  0.00     0.165 HD
HETATM   13  C9  UNL     1      44.275  -2.213  13.429  1.00  0.00     0.058 C 
HETATM   14  C10 UNL     1      44.837  -1.661  12.162  1.00  0.00     0.065 C 
HETATM   15  N3  UNL     1      46.239  -1.524  12.122  1.00  0.00    -0.401 N 
ATOM     16  H3  UNL     1      46.683  -0.775  11.590  1.00  0.00     0.158 HD
HETATM   17  C11 UNL     1      47.013  -2.471  12.851  1.00  0.00     0.128 C 
HETATM   18  C12 UNL     1      46.280  -3.189  13.948  1.00  0.00     0.038 C 
HETATM   19  C13 UNL     1      44.898  -3.619  13.545  1.00  0.00     0.025 C 
ENDROOT
TORSDOF 0
ENDMDL
