MODEL 5
REMARK VINA RESULT: -6.598261515      3.116      6.122
REMARK  0 active torsions:
REMARK  status: ('A' for Active; 'I' for Inactive)
ROOT
HETATM    1  C1  UNL     1      44.607  -8.542  11.980  1.00  0.00     0.105 A 
HETATM    2  C2  UNL     1      43.491  -7.996  11.391  1.00  0.00     0.105 A 
HETATM    3  N1  UNL     1      43.238  -6.680  11.529  1.00  0.00    -0.363 N 
ATOM      4  H1  UNL     1      42.412  -6.269  11.095  1.00  0.00     0.165 HD
HETATM    5  C3  UNL     1      44.080  -5.912  12.243  1.00  0.00     0.059 A 
HETATM    6  C4  UNL     1      43.798  -4.588  12.365  1.00  0.00     0.040 A 
HETATM    7  C5  UNL     1      44.656  -3.779  13.097  1.00  0.00    -0.043 A 
HETATM    8  C6  UNL     1      45.783  -4.282  13.705  1.00  0.00    -0.040 A 
HETATM    9  C7  UNL     1      46.040  -5.631  13.561  1.00  0.00     0.040 A 
HETATM   10  C8  UNL     1      45.205  -6.462  12.837  1.00  0.00     0.059 A 
HETATM   11  N2  UNL     1      45.455  -7.778  12.697  1.00  0.00    -0.363 N 
ATOM     12  H2  UNL     1      46.280  -8.193  13.130  1.00  0.00     0.165 HD
HETATM   13  C9  UNL     1      46.478  -3.178  14.422  1.00  0.00     0.058 C 
HETATM   14  C10 UNL     1      47.375  -2.355  13.559  1.00  0.00     0.065 C 
HETATM   15  N3  UNL     1      46.824  -1.927  12.334  1.00  0.00    -0.401 N 
ATOM     16  H3  UNL     1      47.406  -1.807  11.505  1.00  0.00     0.158 HD
HETATM   17  C11 UNL     1      45.424  -1.668  12.299  1.00  0.00     0.128 C 
HETATM   18  C12 UNL     1      44.623  -2.326  13.385  1.00  0.00     0.038 C 
HETATM   19  C13 UNL     1      45.286  -2.249  14.732  1.00  0.00     0.025 C 
ENDROOT
TORSDOF 0
ENDMDL
