MODEL 1
REMARK VINA RESULT: -8.962905653      0.000      0.000
REMARK  0 active torsions:
REMARK  status: ('A' for Active; 'I' for Inactive)
ROOT
HETATM    1  C1  UNL     1      45.250   0.381  18.768  1.00  0.00     0.105 A 
HETATM    2  C2  UNL     1      44.166   0.944  18.136  1.00  0.00     0.105 A 
HETATM    3  N1  UNL     1      43.887   0.612  16.861  1.00  0.00    -0.363 N 
ATOM      4  H1  UNL     1      43.085   1.025  16.388  1.00  0.00     0.165 HD
HETATM    5  C3  UNL     1      44.674  -0.268  16.215  1.00  0.00     0.059 A 
HETATM    6  C4  UNL     1      44.368  -0.583  14.930  1.00  0.00     0.040 A 
HETATM    7  C5  UNL     1      45.168  -1.489  14.247  1.00  0.00    -0.043 A 
HETATM    8  C6  UNL     1      46.263  -2.076  14.838  1.00  0.00    -0.040 A 
HETATM    9  C7  UNL     1      46.546  -1.734  16.145  1.00  0.00     0.040 A 
HETATM   10  C8  UNL     1      45.767  -0.835  16.851  1.00  0.00     0.059 A 
HETATM   11  N2  UNL     1      46.043  -0.501  18.127  1.00  0.00    -0.363 N 
ATOM     12  H2  UNL     1      46.845  -0.912  18.604  1.00  0.00     0.165 HD
HETATM   13  C9  UNL     1      46.917  -2.978  13.851  1.00  0.00     0.058 C 
HETATM   14  C10 UNL     1      46.305  -4.336  13.761  1.00  0.00     0.065 C 
HETATM   15  N3  UNL     1      44.900  -4.369  13.658  1.00  0.00    -0.401 N 
ATOM     16  H3  UNL     1      44.358  -5.135  14.057  1.00  0.00     0.158 HD
HETATM   17  C11 UNL     1      44.266  -3.293  12.974  1.00  0.00     0.128 C 
HETATM   18  C12 UNL     1      45.077  -2.033  12.871  1.00  0.00     0.038 C 
HETATM   19  C13 UNL     1      46.517  -2.289  12.530  1.00  0.00     0.025 C 
ENDROOT
TORSDOF 0
ENDMDL
