MODEL 3
REMARK VINA RESULT: -6.937967868      1.586      5.033
REMARK  0 active torsions:
REMARK  status: ('A' for Active; 'I' for Inactive)
ROOT
HETATM    1  C1  UNL     1      45.826  -2.476  12.273  1.00  0.00     0.105 A 
HETATM    2  C2  UNL     1      44.739  -1.639  12.177  1.00  0.00     0.105 A 
HETATM    3  N1  UNL     1      44.333  -0.944  13.257  1.00  0.00    -0.363 N 
ATOM      4  H1  UNL     1      43.528  -0.321  13.192  1.00  0.00     0.165 HD
HETATM    5  C3  UNL     1      44.994  -1.075  14.421  1.00  0.00     0.059 A 
HETATM    6  C4  UNL     1      44.560  -0.362  15.493  1.00  0.00     0.040 A 
HETATM    7  C5  UNL     1      45.230  -0.484  16.702  1.00  0.00    -0.043 A 
HETATM    8  C6  UNL     1      46.321  -1.311  16.845  1.00  0.00    -0.040 A 
HETATM    9  C7  UNL     1      46.735  -2.022  15.736  1.00  0.00     0.040 A 
HETATM   10  C8  UNL     1      46.088  -1.920  14.518  1.00  0.00     0.059 A 
HETATM   11  N2  UNL     1      46.493  -2.614  13.436  1.00  0.00    -0.363 N 
ATOM     12  H2  UNL     1      47.297  -3.238  13.497  1.00  0.00     0.165 HD
HETATM   13  C9  UNL     1      46.800  -1.237  18.252  1.00  0.00     0.058 C 
HETATM   14  C10 UNL     1      47.705  -0.083  18.532  1.00  0.00     0.065 C 
HETATM   15  N3  UNL     1      47.267   1.169  18.055  1.00  0.00    -0.401 N 
ATOM     16  H3  UNL     1      47.930   1.881  17.751  1.00  0.00     0.158 HD
HETATM   17  C11 UNL     1      45.862   1.402  18.016  1.00  0.00     0.128 C 
HETATM   18  C12 UNL     1      45.007   0.167  18.014  1.00  0.00     0.038 C 
HETATM   19  C13 UNL     1      45.487  -0.880  18.979  1.00  0.00     0.025 C 
ENDROOT
TORSDOF 0
ENDMDL
