MODEL 2
REMARK VINA RESULT: -10.583874017      4.564     11.018
REMARK  5 active torsions:
REMARK  status: ('A' for Active; 'I' for Inactive)
REMARK       I    between atoms: N1_2  and  C2_4 
REMARK    1  A    between atoms: C2_4  and  C3_6 
REMARK    2  A    between atoms: C8_11  and  S1_12 
REMARK    3  A    between atoms: S1_12  and  C9_13 
REMARK    4  A    between atoms: C13_17  and  C14_18 
REMARK    5  A    between atoms: C15_19  and  C16_20 
ROOT
HETATM    1  C9  UNL     1      14.482  27.140  41.557  1.00  0.00     0.007 A 
HETATM    2  C10 UNL     1      14.902  25.895  41.163  1.00  0.00     0.020 A 
HETATM    3  C11 UNL     1      16.228  25.712  40.737  1.00  0.00     0.017 A 
HETATM    4  C12 UNL     1      17.143  26.741  40.693  1.00  0.00     0.020 A 
HETATM    5  C13 UNL     1      18.468  26.804  40.329  1.00  0.00     0.060 A 
HETATM    6  N3  UNL     1      18.779  28.138  40.537  1.00  0.00    -0.299 N 
ATOM      7  H3  UNL     1      19.698  28.546  40.367  1.00  0.00     0.187 HD
HETATM    8  N4  UNL     1      17.754  28.806  40.976  1.00  0.00    -0.299 N 
ATOM      9  H4  UNL     1      17.749  29.801  41.198  1.00  0.00     0.187 HD
HETATM   10  C21 UNL     1      16.687  27.967  41.092  1.00  0.00     0.061 A 
HETATM   11  C22 UNL     1      15.391  28.160  41.512  1.00  0.00     0.050 A 
ENDROOT
BRANCH   1  12
HETATM   12  S1  UNL     1      12.827  27.351  42.212  1.00  0.00    -0.089 SA
BRANCH  12  13
HETATM   13  C8  UNL     1      12.986  27.947  43.913  1.00  0.00     0.021 A 
HETATM   14  C3  UNL     1      12.646  27.035  44.928  1.00  0.00     0.049 A 
HETATM   15  C4  UNL     1      12.814  27.477  46.221  1.00  0.00     0.018 A 
HETATM   16  C5  UNL     1      13.297  28.767  46.531  1.00  0.00     0.001 A 
HETATM   17  C6  UNL     1      13.623  29.637  45.497  1.00  0.00     0.001 A 
HETATM   18  C7  UNL     1      13.458  29.203  44.207  1.00  0.00     0.020 A 
BRANCH  14  19
HETATM   19  C2  UNL     1      12.141  25.716  44.591  1.00  0.00     0.252 C 
HETATM   20  N1  UNL     1      12.911  24.535  44.438  1.00  0.00    -0.361 N 
HETATM   21  C1  UNL     1      12.277  23.255  44.108  1.00  0.00     0.149 C 
ATOM     22  H1  UNL     1      13.923  24.577  44.559  1.00  0.00     0.162 HD
HETATM   23  O1  UNL     1      10.880  25.608  44.410  1.00  0.00    -0.268 OA
ENDBRANCH  14  19
ENDBRANCH  12  13
ENDBRANCH   1  12
BRANCH   5  24
HETATM   24  C14 UNL     1      19.399  25.845  39.812  1.00  0.00     0.034 C 
HETATM   25  C15 UNL     1      20.687  25.815  39.852  1.00  0.00     0.032 C 
BRANCH  25  26
HETATM   26  C16 UNL     1      21.440  24.686  39.230  1.00  0.00     0.031 A 
HETATM   27  C17 UNL     1      20.823  23.871  38.345  1.00  0.00     0.029 A 
HETATM   28  C18 UNL     1      21.569  22.833  37.794  1.00  0.00     0.004 A 
HETATM   29  C19 UNL     1      22.882  22.647  38.139  1.00  0.00     0.017 A 
HETATM   30  C20 UNL     1      23.450  23.498  39.035  1.00  0.00     0.088 A 
HETATM   31  N2  UNL     1      22.707  24.509  39.566  1.00  0.00    -0.366 N 
ATOM     32  H2  UNL     1      23.138  25.145  40.237  1.00  0.00     0.165 HD
ENDBRANCH  25  26
ENDBRANCH   5  24
TORSDOF 5
ENDMDL
