MODEL 3
REMARK VINA RESULT: -10.500750591      4.212     10.944
REMARK  5 active torsions:
REMARK  status: ('A' for Active; 'I' for Inactive)
REMARK       I    between atoms: N1_2  and  C2_4 
REMARK    1  A    between atoms: C2_4  and  C3_6 
REMARK    2  A    between atoms: C8_11  and  S1_12 
REMARK    3  A    between atoms: S1_12  and  C9_13 
REMARK    4  A    between atoms: C13_17  and  C14_18 
REMARK    5  A    between atoms: C15_19  and  C16_20 
ROOT
HETATM    1  C9  UNL     1      14.388  26.602  41.424  1.00  0.00     0.007 A 
HETATM    2  C10 UNL     1      14.999  25.503  40.876  1.00  0.00     0.020 A 
HETATM    3  C11 UNL     1      16.336  25.590  40.453  1.00  0.00     0.017 A 
HETATM    4  C12 UNL     1      17.076  26.747  40.563  1.00  0.00     0.020 A 
HETATM    5  C13 UNL     1      18.373  27.067  40.235  1.00  0.00     0.060 A 
HETATM    6  N3  UNL     1      18.469  28.393  40.624  1.00  0.00    -0.299 N 
ATOM      7  H3  UNL     1      19.311  28.959  40.526  1.00  0.00     0.187 HD
HETATM    8  N4  UNL     1      17.352  28.825  41.129  1.00  0.00    -0.299 N 
ATOM      9  H4  UNL     1      17.190  29.768  41.481  1.00  0.00     0.187 HD
HETATM   10  C21 UNL     1      16.432  27.821  41.113  1.00  0.00     0.061 A 
HETATM   11  C22 UNL     1      15.124  27.749  41.532  1.00  0.00     0.050 A 
ENDROOT
BRANCH   1  12
HETATM   12  S1  UNL     1      12.723  26.459  42.072  1.00  0.00    -0.089 SA
BRANCH  12  13
HETATM   13  C8  UNL     1      11.671  27.587  41.127  1.00  0.00     0.021 A 
HETATM   14  C3  UNL     1      11.211  27.117  39.884  1.00  0.00     0.049 A 
HETATM   15  C4  UNL     1      10.372  27.959  39.189  1.00  0.00     0.018 A 
HETATM   16  C5  UNL     1       9.986  29.226  39.679  1.00  0.00     0.001 A 
HETATM   17  C6  UNL     1      10.463  29.652  40.914  1.00  0.00     0.001 A 
HETATM   18  C7  UNL     1      11.298  28.817  41.610  1.00  0.00     0.020 A 
BRANCH  14  19
HETATM   19  C2  UNL     1      11.627  25.815  39.392  1.00  0.00     0.252 C 
HETATM   20  N1  UNL     1      11.135  24.557  39.822  1.00  0.00    -0.361 N 
HETATM   21  C1  UNL     1      11.629  23.309  39.233  1.00  0.00     0.149 C 
ATOM     22  H1  UNL     1      10.426  24.520  40.555  1.00  0.00     0.162 HD
HETATM   23  O1  UNL     1      12.528  25.801  38.484  1.00  0.00    -0.268 OA
ENDBRANCH  14  19
ENDBRANCH  12  13
ENDBRANCH   1  12
BRANCH   5  24
HETATM   24  C14 UNL     1      19.443  26.345  39.611  1.00  0.00     0.034 C 
HETATM   25  C15 UNL     1      19.749  25.094  39.650  1.00  0.00     0.032 C 
BRANCH  25  26
HETATM   26  C16 UNL     1      20.932  24.578  38.899  1.00  0.00     0.031 A 
HETATM   27  C17 UNL     1      20.931  23.309  38.430  1.00  0.00     0.029 A 
HETATM   28  C18 UNL     1      22.058  22.876  37.737  1.00  0.00     0.004 A 
HETATM   29  C19 UNL     1      23.128  23.709  37.539  1.00  0.00     0.017 A 
HETATM   30  C20 UNL     1      23.073  24.975  38.035  1.00  0.00     0.088 A 
HETATM   31  N2  UNL     1      21.963  25.384  38.711  1.00  0.00    -0.366 N 
ATOM     32  H2  UNL     1      21.927  26.334  39.080  1.00  0.00     0.165 HD
ENDBRANCH  25  26
ENDBRANCH   5  24
TORSDOF 5
ENDMDL
