MODEL 1
REMARK VINA RESULT: -12.116259493      0.000      0.000
REMARK  5 active torsions:
REMARK  status: ('A' for Active; 'I' for Inactive)
REMARK       I    between atoms: N1_2  and  C2_4 
REMARK    1  A    between atoms: C2_4  and  C3_6 
REMARK    2  A    between atoms: C8_11  and  S1_12 
REMARK    3  A    between atoms: S1_12  and  C9_13 
REMARK    4  A    between atoms: C13_17  and  C14_18 
REMARK    5  A    between atoms: C15_19  and  C16_20 
ROOT
HETATM    1  C9  UNL     1      22.002  24.446  38.428  1.00  0.00     0.007 A 
HETATM    2  C10 UNL     1      20.716  24.083  38.738  1.00  0.00     0.020 A 
HETATM    3  C11 UNL     1      19.847  25.026  39.312  1.00  0.00     0.017 A 
HETATM    4  C12 UNL     1      20.232  26.321  39.584  1.00  0.00     0.020 A 
HETATM    5  C13 UNL     1      19.574  27.403  40.122  1.00  0.00     0.060 A 
HETATM    6  N3  UNL     1      20.543  28.392  40.100  1.00  0.00    -0.299 N 
ATOM      7  H3  UNL     1      20.396  29.346  40.432  1.00  0.00     0.187 HD
HETATM    8  N4  UNL     1      21.662  27.955  39.606  1.00  0.00    -0.299 N 
ATOM      9  H4  UNL     1      22.513  28.506  39.493  1.00  0.00     0.187 HD
HETATM   10  C21 UNL     1      21.521  26.644  39.263  1.00  0.00     0.061 A 
HETATM   11  C22 UNL     1      22.382  25.730  38.700  1.00  0.00     0.050 A 
ENDROOT
BRANCH   1  12
HETATM   12  S1  UNL     1      23.074  23.279  37.589  1.00  0.00    -0.089 SA
BRANCH  12  13
HETATM   13  C8  UNL     1      24.577  23.109  38.581  1.00  0.00     0.021 A 
HETATM   14  C3  UNL     1      25.775  22.908  37.871  1.00  0.00     0.049 A 
HETATM   15  C4  UNL     1      26.922  22.827  38.627  1.00  0.00     0.018 A 
HETATM   16  C5  UNL     1      26.917  22.934  40.035  1.00  0.00     0.001 A 
HETATM   17  C6  UNL     1      25.712  23.133  40.698  1.00  0.00     0.001 A 
HETATM   18  C7  UNL     1      24.566  23.216  39.950  1.00  0.00     0.020 A 
BRANCH  14  19
HETATM   19  C2  UNL     1      25.758  22.790  36.423  1.00  0.00     0.252 C 
HETATM   20  N1  UNL     1      26.565  21.925  35.641  1.00  0.00    -0.361 N 
HETATM   21  C1  UNL     1      26.442  21.889  34.181  1.00  0.00     0.149 C 
ATOM     22  H1  UNL     1      27.242  21.318  36.103  1.00  0.00     0.162 HD
HETATM   23  O1  UNL     1      24.939  23.542  35.791  1.00  0.00    -0.268 OA
ENDBRANCH  14  19
ENDBRANCH  12  13
ENDBRANCH   1  12
BRANCH   5  24
HETATM   24  C14 UNL     1      18.256  27.596  40.651  1.00  0.00     0.034 C 
HETATM   25  C15 UNL     1      17.217  26.833  40.624  1.00  0.00     0.032 C 
BRANCH  25  26
HETATM   26  C16 UNL     1      15.938  27.268  41.260  1.00  0.00     0.031 A 
HETATM   27  C17 UNL     1      15.773  28.560  41.624  1.00  0.00     0.029 A 
HETATM   28  C18 UNL     1      14.562  28.914  42.213  1.00  0.00     0.004 A 
HETATM   29  C19 UNL     1      13.576  27.985  42.414  1.00  0.00     0.017 A 
HETATM   30  C20 UNL     1      13.800  26.699  42.028  1.00  0.00     0.088 A 
HETATM   31  N2  UNL     1      14.989  26.368  41.453  1.00  0.00    -0.366 N 
ATOM     32  H2  UNL     1      15.152  25.403  41.165  1.00  0.00     0.165 HD
ENDBRANCH  25  26
ENDBRANCH   5  24
TORSDOF 5
ENDMDL
