MODEL 4
REMARK VINA RESULT: -10.441920350      4.485     10.858
REMARK  5 active torsions:
REMARK  status: ('A' for Active; 'I' for Inactive)
REMARK       I    between atoms: N1_2  and  C2_4 
REMARK    1  A    between atoms: C2_4  and  C3_6 
REMARK    2  A    between atoms: C8_11  and  S1_12 
REMARK    3  A    between atoms: S1_12  and  C9_13 
REMARK    4  A    between atoms: C13_17  and  C14_18 
REMARK    5  A    between atoms: C15_19  and  C16_20 
ROOT
HETATM    1  C9  UNL     1      14.066  26.529  41.229  1.00  0.00     0.007 A 
HETATM    2  C10 UNL     1      14.700  25.466  40.637  1.00  0.00     0.020 A 
HETATM    3  C11 UNL     1      16.058  25.569  40.297  1.00  0.00     0.017 A 
HETATM    4  C12 UNL     1      16.799  26.707  40.531  1.00  0.00     0.020 A 
HETATM    5  C13 UNL     1      18.115  27.035  40.300  1.00  0.00     0.060 A 
HETATM    6  N3  UNL     1      18.198  28.328  40.789  1.00  0.00    -0.299 N 
ATOM      7  H3  UNL     1      19.049  28.891  40.779  1.00  0.00     0.187 HD
HETATM    8  N4  UNL     1      17.058  28.735  41.261  1.00  0.00    -0.299 N 
ATOM      9  H4  UNL     1      16.883  29.653  41.671  1.00  0.00     0.187 HD
HETATM   10  C21 UNL     1      16.133  27.745  41.121  1.00  0.00     0.061 A 
HETATM   11  C22 UNL     1      14.803  27.657  41.461  1.00  0.00     0.050 A 
ENDROOT
BRANCH   1  12
HETATM   12  S1  UNL     1      12.366  26.359  41.771  1.00  0.00    -0.089 SA
BRANCH  12  13
HETATM   13  C8  UNL     1      11.710  24.842  41.037  1.00  0.00     0.021 A 
HETATM   14  C3  UNL     1      11.101  24.971  39.776  1.00  0.00     0.049 A 
HETATM   15  C4  UNL     1      10.645  23.807  39.199  1.00  0.00     0.018 A 
HETATM   16  C5  UNL     1      10.771  22.547  39.823  1.00  0.00     0.001 A 
HETATM   17  C6  UNL     1      11.381  22.462  41.069  1.00  0.00     0.001 A 
HETATM   18  C7  UNL     1      11.837  23.618  41.648  1.00  0.00     0.020 A 
BRANCH  14  19
HETATM   19  C2  UNL     1      10.971  26.278  39.154  1.00  0.00     0.252 C 
HETATM   20  N1  UNL     1       9.949  27.229  39.403  1.00  0.00    -0.361 N 
HETATM   21  C1  UNL     1       9.938  28.525  38.719  1.00  0.00     0.149 C 
ATOM     22  H1  UNL     1       9.210  27.007  40.069  1.00  0.00     0.162 HD
HETATM   23  O1  UNL     1      11.862  26.601  38.297  1.00  0.00    -0.268 OA
ENDBRANCH  14  19
ENDBRANCH  12  13
ENDBRANCH   1  12
BRANCH   5  24
HETATM   24  C14 UNL     1      19.213  26.348  39.686  1.00  0.00     0.034 C 
HETATM   25  C15 UNL     1      19.549  25.104  39.713  1.00  0.00     0.032 C 
BRANCH  25  26
HETATM   26  C16 UNL     1      20.757  24.628  38.977  1.00  0.00     0.031 A 
HETATM   27  C17 UNL     1      20.810  23.356  38.521  1.00  0.00     0.029 A 
HETATM   28  C18 UNL     1      21.959  22.961  37.841  1.00  0.00     0.004 A 
HETATM   29  C19 UNL     1      22.997  23.833  37.643  1.00  0.00     0.017 A 
HETATM   30  C20 UNL     1      22.888  25.100  38.126  1.00  0.00     0.088 A 
HETATM   31  N2  UNL     1      21.758  25.472  38.788  1.00  0.00    -0.366 N 
ATOM     32  H2  UNL     1      21.681  26.423  39.148  1.00  0.00     0.165 HD
ENDBRANCH  25  26
ENDBRANCH   5  24
TORSDOF 5
ENDMDL
