MODEL 3
REMARK VINA RESULT: -9.758628092      4.317     10.959
REMARK  5 active torsions:
REMARK  status: ('A' for Active; 'I' for Inactive)
REMARK       I    between atoms: N1_2  and  C2_4 
REMARK    1  A    between atoms: C2_4  and  C3_6 
REMARK    2  A    between atoms: C8_11  and  S1_12 
REMARK    3  A    between atoms: S1_12  and  C9_13 
REMARK    4  A    between atoms: C13_17  and  C14_18 
REMARK    5  A    between atoms: C15_19  and  C16_20 
ROOT
HETATM    1  C9  UNL     1     -16.989   2.098 -14.358  1.00  0.00     0.007 A 
HETATM    2  C10 UNL     1     -17.524   0.857 -14.078  1.00  0.00     0.020 A 
HETATM    3  C11 UNL     1     -18.879   0.713 -13.795  1.00  0.00     0.017 A 
HETATM    4  C12 UNL     1     -19.759   1.768 -13.775  1.00  0.00     0.020 A 
HETATM    5  C13 UNL     1     -21.113   1.874 -13.544  1.00  0.00     0.060 A 
HETATM    6  N3  UNL     1     -21.348   3.219 -13.707  1.00  0.00    -0.299 N 
ATOM      7  H3  UNL     1     -22.263   3.661 -13.611  1.00  0.00     0.187 HD
HETATM    8  N4  UNL     1     -20.242   3.862 -14.003  1.00  0.00    -0.299 N 
ATOM      9  H4  UNL     1     -20.181   4.867 -14.167  1.00  0.00     0.187 HD
HETATM   10  C21 UNL     1     -19.204   3.013 -14.062  1.00  0.00     0.061 A 
HETATM   11  C22 UNL     1     -17.854   3.159 -14.344  1.00  0.00     0.050 A 
ENDROOT
BRANCH   1  12
HETATM   12  S1  UNL     1     -15.239   2.220 -14.705  1.00  0.00    -0.089 SA
BRANCH  12  13
HETATM   13  C8  UNL     1     -14.990   3.214 -16.179  1.00  0.00     0.021 A 
HETATM   14  C3  UNL     1     -14.332   2.663 -17.243  1.00  0.00     0.049 A 
HETATM   15  C4  UNL     1     -14.228   3.494 -18.369  1.00  0.00     0.018 A 
HETATM   16  C5  UNL     1     -14.729   4.765 -18.443  1.00  0.00     0.001 A 
HETATM   17  C6  UNL     1     -15.391   5.294 -17.341  1.00  0.00     0.001 A 
HETATM   18  C7  UNL     1     -15.511   4.510 -16.226  1.00  0.00     0.020 A 
BRANCH  14  19
HETATM   19  C2  UNL     1     -13.728   1.349 -17.296  1.00  0.00     0.252 C 
HETATM   20  N1  UNL     1     -14.302   0.154 -17.779  1.00  0.00    -0.361 N 
HETATM   21  C1  UNL     1     -13.560  -1.106 -17.779  1.00  0.00     0.149 C 
ATOM     22  H1  UNL     1     -15.257   0.169 -18.137  1.00  0.00     0.162 HD
HETATM   23  O1  UNL     1     -12.540   1.231 -16.858  1.00  0.00    -0.268 OA
ENDBRANCH  14  19
ENDBRANCH  12  13
ENDBRANCH   1  12
BRANCH   5  24
HETATM   24  C14 UNL     1     -22.106   0.924 -13.139  1.00  0.00     0.034 C 
HETATM   25  C15 UNL     1     -23.287   1.198 -12.703  1.00  0.00     0.032 C 
BRANCH  25  26
HETATM   26  C16 UNL     1     -24.222   0.111 -12.310  1.00  0.00     0.031 A 
HETATM   27  C17 UNL     1     -24.714  -0.785 -13.222  1.00  0.00     0.029 A 
HETATM   28  C18 UNL     1     -25.572  -1.782 -12.883  1.00  0.00     0.004 A 
HETATM   29  C19 UNL     1     -25.957  -1.882 -11.553  1.00  0.00     0.017 A 
HETATM   30  C20 UNL     1     -25.462  -0.979 -10.638  1.00  0.00     0.088 A 
HETATM   31  N2  UNL     1     -24.599   0.000 -11.049  1.00  0.00    -0.366 N 
ATOM     32  H2  UNL     1     -24.238   0.662 -10.363  1.00  0.00     0.165 HD
ENDBRANCH  25  26
ENDBRANCH   5  24
TORSDOF 5
ENDMDL
