MODEL 2
REMARK VINA RESULT: -9.975156998      4.559     11.240
REMARK  5 active torsions:
REMARK  status: ('A' for Active; 'I' for Inactive)
REMARK       I    between atoms: N1_2  and  C2_4 
REMARK    1  A    between atoms: C2_4  and  C3_6 
REMARK    2  A    between atoms: C8_11  and  S1_12 
REMARK    3  A    between atoms: S1_12  and  C9_13 
REMARK    4  A    between atoms: C13_17  and  C14_18 
REMARK    5  A    between atoms: C15_19  and  C16_20 
ROOT
HETATM    1  C9  UNL     1     -15.505   2.371 -15.047  1.00  0.00     0.007 A 
HETATM    2  C10 UNL     1     -15.960   1.148 -14.594  1.00  0.00     0.020 A 
HETATM    3  C11 UNL     1     -17.272   0.995 -14.155  1.00  0.00     0.017 A 
HETATM    4  C12 UNL     1     -18.185   2.022 -14.140  1.00  0.00     0.020 A 
HETATM    5  C13 UNL     1     -19.511   2.111 -13.775  1.00  0.00     0.060 A 
HETATM    6  N3  UNL     1     -19.812   3.427 -14.038  1.00  0.00    -0.299 N 
ATOM      7  H3  UNL     1     -20.728   3.850 -13.886  1.00  0.00     0.187 HD
HETATM    8  N4  UNL     1     -18.769   4.069 -14.512  1.00  0.00    -0.299 N 
ATOM      9  H4  UNL     1     -18.764   5.054 -14.775  1.00  0.00     0.187 HD
HETATM   10  C21 UNL     1     -17.711   3.248 -14.602  1.00  0.00     0.061 A 
HETATM   11  C22 UNL     1     -16.405   3.403 -15.040  1.00  0.00     0.050 A 
ENDROOT
BRANCH   1  12
HETATM   12  S1  UNL     1     -13.808   2.508 -15.590  1.00  0.00    -0.089 SA
BRANCH  12  13
HETATM   13  C8  UNL     1     -12.884   3.507 -14.419  1.00  0.00     0.021 A 
HETATM   14  C3  UNL     1     -12.476   2.939 -13.245  1.00  0.00     0.049 A 
HETATM   15  C4  UNL     1     -11.717   3.778 -12.414  1.00  0.00     0.018 A 
HETATM   16  C5  UNL     1     -11.388   5.072 -12.714  1.00  0.00     0.001 A 
HETATM   17  C6  UNL     1     -11.821   5.617 -13.916  1.00  0.00     0.001 A 
HETATM   18  C7  UNL     1     -12.564   4.826 -14.750  1.00  0.00     0.020 A 
BRANCH  14  19
HETATM   19  C2  UNL     1     -12.773   1.599 -12.787  1.00  0.00     0.252 C 
HETATM   20  N1  UNL     1     -12.166   0.392 -13.194  1.00  0.00    -0.361 N 
HETATM   21  C1  UNL     1     -12.567  -0.896 -12.630  1.00  0.00     0.149 C 
ATOM     22  H1  UNL     1     -11.430   0.419 -13.900  1.00  0.00     0.162 HD
HETATM   23  O1  UNL     1     -13.689   1.467 -11.913  1.00  0.00    -0.268 OA
ENDBRANCH  14  19
ENDBRANCH  12  13
ENDBRANCH   1  12
BRANCH   5  24
HETATM   24  C14 UNL     1     -20.418   1.178 -13.178  1.00  0.00     0.034 C 
HETATM   25  C15 UNL     1     -21.676   1.070 -13.436  1.00  0.00     0.032 C 
BRANCH  25  26
HETATM   26  C16 UNL     1     -22.510   0.057 -12.738  1.00  0.00     0.031 A 
HETATM   27  C17 UNL     1     -21.971  -0.836 -11.849  1.00  0.00     0.029 A 
HETATM   28  C18 UNL     1     -22.717  -1.771 -11.204  1.00  0.00     0.004 A 
HETATM   29  C19 UNL     1     -24.079  -1.809 -11.468  1.00  0.00     0.017 A 
HETATM   30  C20 UNL     1     -24.617  -0.911 -12.361  1.00  0.00     0.088 A 
HETATM   31  N2  UNL     1     -23.808   0.005 -12.975  1.00  0.00    -0.366 N 
ATOM     32  H2  UNL     1     -24.218   0.666 -13.635  1.00  0.00     0.165 HD
ENDBRANCH  25  26
ENDBRANCH   5  24
TORSDOF 5
ENDMDL
