MODEL 4
REMARK VINA RESULT: -9.688507559      4.465     10.909
REMARK  5 active torsions:
REMARK  status: ('A' for Active; 'I' for Inactive)
REMARK       I    between atoms: N1_2  and  C2_4 
REMARK    1  A    between atoms: C2_4  and  C3_6 
REMARK    2  A    between atoms: C8_11  and  S1_12 
REMARK    3  A    between atoms: S1_12  and  C9_13 
REMARK    4  A    between atoms: C13_17  and  C14_18 
REMARK    5  A    between atoms: C15_19  and  C16_20 
ROOT
HETATM    1  C9  UNL     1     -15.909   2.603 -14.887  1.00  0.00     0.007 A 
HETATM    2  C10 UNL     1     -16.291   1.330 -14.513  1.00  0.00     0.020 A 
HETATM    3  C11 UNL     1     -17.601   1.065 -14.124  1.00  0.00     0.017 A 
HETATM    4  C12 UNL     1     -18.583   2.025 -14.085  1.00  0.00     0.020 A 
HETATM    5  C13 UNL     1     -19.921   2.004 -13.759  1.00  0.00     0.060 A 
HETATM    6  N3  UNL     1     -20.306   3.309 -13.964  1.00  0.00    -0.299 N 
ATOM      7  H3  UNL     1     -21.253   3.660 -13.820  1.00  0.00     0.187 HD
HETATM    8  N4  UNL     1     -19.297   4.044 -14.370  1.00  0.00    -0.299 N 
ATOM      9  H4  UNL     1     -19.353   5.041 -14.582  1.00  0.00     0.187 HD
HETATM   10  C21 UNL     1     -18.182   3.303 -14.468  1.00  0.00     0.061 A 
HETATM   11  C22 UNL     1     -16.878   3.570 -14.856  1.00  0.00     0.050 A 
ENDROOT
BRANCH   1  12
HETATM   12  S1  UNL     1     -14.210   2.884 -15.367  1.00  0.00    -0.089 SA
BRANCH  12  13
HETATM   13  C8  UNL     1     -13.273   1.365 -15.166  1.00  0.00     0.021 A 
HETATM   14  C3  UNL     1     -12.781   1.052 -13.931  1.00  0.00     0.049 A 
HETATM   15  C4  UNL     1     -12.106  -0.176 -13.856  1.00  0.00     0.018 A 
HETATM   16  C5  UNL     1     -11.929  -1.027 -14.913  1.00  0.00     0.001 A 
HETATM   17  C6  UNL     1     -12.442  -0.676 -16.156  1.00  0.00     0.001 A 
HETATM   18  C7  UNL     1     -13.106   0.516 -16.263  1.00  0.00     0.020 A 
BRANCH  14  19
HETATM   19  C2  UNL     1     -12.868   1.865 -12.737  1.00  0.00     0.252 C 
HETATM   20  N1  UNL     1     -12.075   2.980 -12.391  1.00  0.00    -0.361 N 
HETATM   21  C1  UNL     1     -12.288   3.714 -11.145  1.00  0.00     0.149 C 
ATOM     22  H1  UNL     1     -11.335   3.280 -13.025  1.00  0.00     0.162 HD
HETATM   23  O1  UNL     1     -13.757   1.557 -11.880  1.00  0.00    -0.268 OA
ENDBRANCH  14  19
ENDBRANCH  12  13
ENDBRANCH   1  12
BRANCH   5  24
HETATM   24  C14 UNL     1     -20.779   0.981 -13.241  1.00  0.00     0.034 C 
HETATM   25  C15 UNL     1     -22.065   1.022 -13.187  1.00  0.00     0.032 C 
BRANCH  25  26
HETATM   26  C16 UNL     1     -22.838  -0.111 -12.616  1.00  0.00     0.031 A 
HETATM   27  C17 UNL     1     -22.288  -0.978 -11.708  1.00  0.00     0.029 A 
HETATM   28  C18 UNL     1     -22.978  -2.022 -11.178  1.00  0.00     0.004 A 
HETATM   29  C19 UNL     1     -24.292  -2.204 -11.584  1.00  0.00     0.017 A 
HETATM   30  C20 UNL     1     -24.842  -1.331 -12.497  1.00  0.00     0.088 A 
HETATM   31  N2  UNL     1     -24.090  -0.300 -12.990  1.00  0.00    -0.366 N 
ATOM     32  H2  UNL     1     -24.509   0.340 -13.664  1.00  0.00     0.165 HD
ENDBRANCH  25  26
ENDBRANCH   5  24
TORSDOF 5
ENDMDL
