MODEL 1
REMARK VINA RESULT: -12.116304893      0.000      0.000
REMARK  5 active torsions:
REMARK  status: ('A' for Active; 'I' for Inactive)
REMARK       I    between atoms: N1_2  and  C2_4 
REMARK    1  A    between atoms: C2_4  and  C3_6 
REMARK    2  A    between atoms: C8_11  and  S1_12 
REMARK    3  A    between atoms: S1_12  and  C9_13 
REMARK    4  A    between atoms: C13_17  and  C14_18 
REMARK    5  A    between atoms: C15_19  and  C16_20 
ROOT
HETATM    1  C9  UNL     1     -23.484  -0.284 -11.684  1.00  0.00     0.007 A 
HETATM    2  C10 UNL     1     -22.220  -0.778 -11.939  1.00  0.00     0.020 A 
HETATM    3  C11 UNL     1     -21.261   0.010 -12.568  1.00  0.00     0.017 A 
HETATM    4  C12 UNL     1     -21.496   1.302 -12.972  1.00  0.00     0.020 A 
HETATM    5  C13 UNL     1     -20.722   2.263 -13.585  1.00  0.00     0.060 A 
HETATM    6  N3  UNL     1     -21.579   3.336 -13.671  1.00  0.00    -0.299 N 
ATOM      7  H3  UNL     1     -21.332   4.240 -14.076  1.00  0.00     0.187 HD
HETATM    8  N4  UNL     1     -22.755   3.048 -13.164  1.00  0.00    -0.299 N 
ATOM      9  H4  UNL     1     -23.544   3.694 -13.123  1.00  0.00     0.187 HD
HETATM   10  C21 UNL     1     -22.775   1.787 -12.706  1.00  0.00     0.061 A 
HETATM   11  C22 UNL     1     -23.732   1.003 -12.079  1.00  0.00     0.050 A 
ENDROOT
BRANCH   1  12
HETATM   12  S1  UNL     1     -24.675  -1.347 -10.881  1.00  0.00    -0.089 SA
BRANCH  12  13
HETATM   13  C8  UNL     1     -26.056  -1.643 -11.991  1.00  0.00     0.021 A 
HETATM   14  C3  UNL     1     -27.281  -1.929 -11.457  1.00  0.00     0.049 A 
HETATM   15  C4  UNL     1     -28.311  -2.095 -12.396  1.00  0.00     0.018 A 
HETATM   16  C5  UNL     1     -28.149  -1.989 -13.750  1.00  0.00     0.001 A 
HETATM   17  C6  UNL     1     -26.888  -1.698 -14.258  1.00  0.00     0.001 A 
HETATM   18  C7  UNL     1     -25.861  -1.530 -13.369  1.00  0.00     0.020 A 
BRANCH  14  19
HETATM   19  C2  UNL     1     -27.592  -2.098 -10.054  1.00  0.00     0.252 C 
HETATM   20  N1  UNL     1     -27.289  -3.201  -9.229  1.00  0.00    -0.361 N 
HETATM   21  C1  UNL     1     -27.661  -3.227  -7.815  1.00  0.00     0.149 C 
ATOM     22  H1  UNL     1     -26.797  -4.001  -9.628  1.00  0.00     0.162 HD
HETATM   23  O1  UNL     1     -28.217  -1.154  -9.473  1.00  0.00    -0.268 OA
ENDBRANCH  14  19
ENDBRANCH  12  13
ENDBRANCH   1  12
BRANCH   5  24
HETATM   24  C14 UNL     1     -19.395   2.244 -14.123  1.00  0.00     0.034 C 
HETATM   25  C15 UNL     1     -18.644   3.269 -14.332  1.00  0.00     0.032 C 
BRANCH  25  26
HETATM   26  C16 UNL     1     -17.282   3.110 -14.903  1.00  0.00     0.031 A 
HETATM   27  C17 UNL     1     -16.606   4.160 -15.467  1.00  0.00     0.029 A 
HETATM   28  C18 UNL     1     -15.362   4.033 -15.998  1.00  0.00     0.004 A 
HETATM   29  C19 UNL     1     -14.765   2.780 -15.960  1.00  0.00     0.017 A 
HETATM   30  C20 UNL     1     -15.447   1.726 -15.393  1.00  0.00     0.088 A 
HETATM   31  N2  UNL     1     -16.698   1.926 -14.876  1.00  0.00    -0.366 N 
ATOM     32  H2  UNL     1     -17.193   1.138 -14.458  1.00  0.00     0.165 HD
ENDBRANCH  25  26
ENDBRANCH   5  24
TORSDOF 5
ENDMDL
