MODEL 6
REMARK VINA RESULT: -4.069599453      3.333      5.428
REMARK  3 active torsions:
REMARK  status: ('A' for Active; 'I' for Inactive)
REMARK    1  A    between atoms: N1_2  and  C3_4 
REMARK    2  A    between atoms: C3_4  and  C4_5 
REMARK    3  A    between atoms: C9_12  and  O1_13 
ROOT
HETATM    1  C4  UNL     1      91.047  95.860 -45.267  1.00  0.00     0.010 A 
HETATM    2  C5  UNL     1      91.192  96.892 -44.372  1.00  0.00     0.033 A 
HETATM    3  C6  UNL     1      90.286  97.963 -44.348  1.00  0.00     0.008 A 
HETATM    4  I1  UNL     1      90.507  99.546 -42.974  1.00  0.00    -0.045 I 
HETATM    5  C7  UNL     1      89.226  97.998 -45.230  1.00  0.00     0.039 A 
HETATM    6  C8  UNL     1      89.082  96.959 -46.130  1.00  0.00     0.041 A 
HETATM    7  I2  UNL     1      87.472  96.948 -47.519  1.00  0.00    -0.042 I 
HETATM    8  C9  UNL     1      89.972  95.908 -46.152  1.00  0.00     0.093 A 
ENDROOT
BRANCH   1   9
HETATM    9  C3  UNL     1      91.952  94.736 -45.332  1.00  0.00     0.073 C 
BRANCH   9  10
HETATM   10  N1  UNL     1      91.506  93.485 -44.814  1.00  0.00    -0.300 NA
HETATM   11  C1  UNL     1      92.043  93.200 -43.490  1.00  0.00     0.115 C 
HETATM   12  C2  UNL     1      91.685  92.372 -45.715  1.00  0.00     0.115 C 
ENDBRANCH   9  10
ENDBRANCH   1   9
BRANCH   8  13
HETATM   13  O1  UNL     1      89.778  94.890 -47.082  1.00  0.00    -0.358 OA
ATOM     14  H1  UNL     1      90.495  94.593 -47.630  1.00  0.00     0.217 HD
ENDBRANCH   8  13
TORSDOF 3
ENDMDL
