MODEL 1
REMARK VINA RESULT: -4.409831517      0.000      0.000
REMARK  3 active torsions:
REMARK  status: ('A' for Active; 'I' for Inactive)
REMARK    1  A    between atoms: N1_2  and  C3_4 
REMARK    2  A    between atoms: C3_4  and  C4_5 
REMARK    3  A    between atoms: C9_12  and  O1_13 
ROOT
HETATM    1  C4  UNL     1      91.046  95.313 -45.127  1.00  0.00     0.010 A 
HETATM    2  C5  UNL     1      90.994  94.362 -46.116  1.00  0.00     0.033 A 
HETATM    3  C6  UNL     1      91.485  93.065 -45.901  1.00  0.00     0.008 A 
HETATM    4  I1  UNL     1      91.405  91.605 -47.419  1.00  0.00    -0.045 I 
HETATM    5  C7  UNL     1      92.033  92.722 -44.683  1.00  0.00     0.039 A 
HETATM    6  C8  UNL     1      92.084  93.680 -43.688  1.00  0.00     0.041 A 
HETATM    7  I2  UNL     1      92.915  93.220 -41.786  1.00  0.00    -0.042 I 
HETATM    8  C9  UNL     1      91.601  94.953 -43.901  1.00  0.00     0.093 A 
ENDROOT
BRANCH   1   9
HETATM    9  C3  UNL     1      90.554  96.661 -45.298  1.00  0.00     0.073 C 
BRANCH   9  10
HETATM   10  N1  UNL     1      91.332  97.731 -44.768  1.00  0.00    -0.300 NA
HETATM   11  C1  UNL     1      90.532  98.907 -44.455  1.00  0.00     0.115 C 
HETATM   12  C2  UNL     1      92.493  98.068 -45.557  1.00  0.00     0.115 C 
ENDBRANCH   9  10
ENDBRANCH   1   9
BRANCH   8  13
HETATM   13  O1  UNL     1      91.680  95.877 -42.863  1.00  0.00    -0.358 OA
ATOM     14  H1  UNL     1      92.434  96.450 -42.783  1.00  0.00     0.217 HD
ENDBRANCH   8  13
TORSDOF 3
ENDMDL
