MODEL 5
REMARK VINA RESULT: -4.168257423      3.703      4.908
REMARK  3 active torsions:
REMARK  status: ('A' for Active; 'I' for Inactive)
REMARK    1  A    between atoms: N1_2  and  C3_4 
REMARK    2  A    between atoms: C3_4  and  C4_5 
REMARK    3  A    between atoms: C9_12  and  O1_13 
ROOT
HETATM    1  C4  UNL     1      91.829  99.403 -42.692  1.00  0.00     0.010 A 
HETATM    2  C5  UNL     1      91.096  99.381 -43.853  1.00  0.00     0.033 A 
HETATM    3  C6  UNL     1      90.615  98.174 -44.384  1.00  0.00     0.008 A 
HETATM    4  I1  UNL     1      89.491  98.139 -46.166  1.00  0.00    -0.045 I 
HETATM    5  C7  UNL     1      90.873  96.980 -43.742  1.00  0.00     0.039 A 
HETATM    6  C8  UNL     1      91.610  97.004 -42.573  1.00  0.00     0.041 A 
HETATM    7  I2  UNL     1      92.044  95.202 -41.533  1.00  0.00    -0.042 I 
HETATM    8  C9  UNL     1      92.081  98.190 -42.053  1.00  0.00     0.093 A 
ENDROOT
BRANCH   1   9
HETATM    9  C3  UNL     1      92.346 100.618 -42.105  1.00  0.00     0.073 C 
BRANCH   9  10
HETATM   10  N1  UNL     1      91.815 101.035 -40.849  1.00  0.00    -0.300 NA
HETATM   11  C1  UNL     1      90.590 101.812 -40.986  1.00  0.00     0.115 C 
HETATM   12  C2  UNL     1      92.770 101.691 -39.989  1.00  0.00     0.115 C 
ENDBRANCH   9  10
ENDBRANCH   1   9
BRANCH   8  13
HETATM   13  O1  UNL     1      92.819  98.153 -40.873  1.00  0.00    -0.358 OA
ATOM     14  H1  UNL     1      92.522  97.635 -40.135  1.00  0.00     0.217 HD
ENDBRANCH   8  13
TORSDOF 3
ENDMDL
