MODEL 2
REMARK VINA RESULT: -4.366472523      1.096      1.528
REMARK  3 active torsions:
REMARK  status: ('A' for Active; 'I' for Inactive)
REMARK    1  A    between atoms: N1_2  and  C3_4 
REMARK    2  A    between atoms: C3_4  and  C4_5 
REMARK    3  A    between atoms: C9_12  and  O1_13 
ROOT
HETATM    1  C4  UNL     1      90.944  95.537 -45.430  1.00  0.00     0.010 A 
HETATM    2  C5  UNL     1      90.970  94.455 -46.275  1.00  0.00     0.033 A 
HETATM    3  C6  UNL     1      91.423  93.202 -45.833  1.00  0.00     0.008 A 
HETATM    4  I1  UNL     1      91.463  91.541 -47.129  1.00  0.00    -0.045 I 
HETATM    5  C7  UNL     1      91.853  93.036 -44.533  1.00  0.00     0.039 A 
HETATM    6  C8  UNL     1      91.826  94.127 -43.684  1.00  0.00     0.041 A 
HETATM    7  I2  UNL     1      92.475  93.943 -41.668  1.00  0.00    -0.042 I 
HETATM    8  C9  UNL     1      91.381  95.356 -44.119  1.00  0.00     0.093 A 
ENDROOT
BRANCH   1   9
HETATM    9  C3  UNL     1      90.488  96.847 -45.835  1.00  0.00     0.073 C 
BRANCH   9  10
HETATM   10  N1  UNL     1      89.280  97.343 -45.263  1.00  0.00    -0.300 NA
HETATM   11  C1  UNL     1      88.099  96.966 -46.027  1.00  0.00     0.115 C 
HETATM   12  C2  UNL     1      89.298  98.756 -44.970  1.00  0.00     0.115 C 
ENDBRANCH   9  10
ENDBRANCH   1   9
BRANCH   8  13
HETATM   13  O1  UNL     1      91.378  96.419 -43.220  1.00  0.00    -0.358 OA
ATOM     14  H1  UNL     1      92.112  96.557 -42.633  1.00  0.00     0.217 HD
ENDBRANCH   8  13
TORSDOF 3
ENDMDL
