MODEL 3
REMARK VINA RESULT: -5.149992380      3.192      5.298
REMARK  6 active torsions:
REMARK  status: ('A' for Active; 'I' for Inactive)
REMARK    1  A    between atoms: C2_2  and  N1_3 
REMARK    2  A    between atoms: N1_3  and  C3_4 
REMARK    3  A    between atoms: N1_3  and  C5_6 
REMARK    4  A    between atoms: N2_9  and  C8_10 
REMARK    5  A    between atoms: C8_10  and  C9_11 
REMARK    6  A    between atoms: C14_18  and  O1_19 
ROOT
HETATM    1  C5  UNL     1      91.866 100.714 -44.228  1.00  0.00     0.226 C 
HETATM    2  C6  UNL     1      92.682  99.547 -44.686  1.00  0.00     0.066 C 
HETATM    3  C7  UNL     1      91.928  98.511 -45.438  1.00  0.00     0.275 C 
HETATM    4  N2  UNL     1      90.697  98.210 -44.745  1.00  0.00     0.092 N 
HETATM    5  C15 UNL     1      89.851  99.400 -44.983  1.00  0.00     0.275 C 
HETATM    6  C16 UNL     1      90.411 100.468 -44.102  1.00  0.00     0.066 C 
ENDROOT
BRANCH   4   7
HETATM    7  C8  UNL     1      89.985  97.097 -45.253  1.00  0.00     0.313 C 
BRANCH   7   8
HETATM    8  C9  UNL     1      90.528  95.768 -44.912  1.00  0.00     0.006 A 
HETATM    9  C10 UNL     1      90.544  94.751 -45.832  1.00  0.00     0.030 A 
HETATM   10  C11 UNL     1      91.058  93.488 -45.511  1.00  0.00     0.008 A 
HETATM   11  I1  UNL     1      91.076  91.943 -46.929  1.00  0.00    -0.045 I 
HETATM   12  C12 UNL     1      91.557  93.251 -44.264  1.00  0.00     0.039 A 
HETATM   13  C13 UNL     1      91.553  94.257 -43.322  1.00  0.00     0.041 A 
HETATM   14  I2  UNL     1      92.323  93.891 -41.396  1.00  0.00    -0.042 I 
HETATM   15  C14 UNL     1      91.036  95.512 -43.659  1.00  0.00     0.090 A 
BRANCH  15  16
HETATM   16  O1  UNL     1      91.038  96.512 -42.701  1.00  0.00    -0.359 OA
ATOM     17  H1  UNL     1      90.498  96.423 -41.924  1.00  0.00     0.217 HD
ENDBRANCH  15  16
ENDBRANCH   7   8
ENDBRANCH   4   7
BRANCH   1  18
HETATM   18  N1  UNL     1      92.373 101.160 -42.930  1.00  0.00     0.092 N 
BRANCH  18  19
HETATM   19  C2  UNL     1      92.459 102.590 -42.837  1.00  0.00     0.268 C 
HETATM   20  C1  UNL     1      93.950 102.956 -42.833  1.00  0.00     0.037 C 
ENDBRANCH  18  19
BRANCH  18  21
HETATM   21  C3  UNL     1      91.506 100.663 -41.893  1.00  0.00     0.268 C 
HETATM   22  C4  UNL     1      92.018 100.891 -40.509  1.00  0.00     0.037 C 
ENDBRANCH  18  21
ENDBRANCH   1  18
TORSDOF 6
ENDMDL
