MODEL 4
REMARK VINA RESULT: -4.928380436      3.839      7.001
REMARK  6 active torsions:
REMARK  status: ('A' for Active; 'I' for Inactive)
REMARK    1  A    between atoms: C2_2  and  N1_3 
REMARK    2  A    between atoms: N1_3  and  C3_4 
REMARK    3  A    between atoms: N1_3  and  C5_6 
REMARK    4  A    between atoms: N2_9  and  C8_10 
REMARK    5  A    between atoms: C8_10  and  C9_11 
REMARK    6  A    between atoms: C14_18  and  O1_19 
ROOT
HETATM    1  C5  UNL     1      91.528  96.030 -43.360  1.00  0.00     0.226 C 
HETATM    2  C6  UNL     1      90.863  96.547 -44.596  1.00  0.00     0.066 C 
HETATM    3  C7  UNL     1      90.423  97.965 -44.525  1.00  0.00     0.275 C 
HETATM    4  N2  UNL     1      89.738  98.196 -43.275  1.00  0.00     0.092 N 
HETATM    5  C15 UNL     1      90.820  98.188 -42.266  1.00  0.00     0.275 C 
HETATM    6  C16 UNL     1      91.206  96.754 -42.109  1.00  0.00     0.066 C 
ENDROOT
BRANCH   4   7
HETATM    7  C8  UNL     1      89.096  99.454 -43.172  1.00  0.00     0.313 C 
BRANCH   7   8
HETATM    8  C9  UNL     1      87.646  99.467 -43.446  1.00  0.00     0.006 A 
HETATM    9  C10 UNL     1      87.060  98.494 -44.213  1.00  0.00     0.030 A 
HETATM   10  C11 UNL     1      85.684  98.503 -44.475  1.00  0.00     0.008 A 
HETATM   11  I1  UNL     1      84.803  97.008 -45.652  1.00  0.00    -0.045 I 
HETATM   12  C12 UNL     1      84.899  99.494 -43.962  1.00  0.00     0.039 A 
HETATM   13  C13 UNL     1      85.463 100.484 -43.187  1.00  0.00     0.041 A 
HETATM   14  I2  UNL     1      84.252 102.013 -42.394  1.00  0.00    -0.042 I 
HETATM   15  C14 UNL     1      86.839 100.459 -42.935  1.00  0.00     0.090 A 
BRANCH  15  16
HETATM   16  O1  UNL     1      87.392 101.460 -42.155  1.00  0.00    -0.359 OA
ATOM     17  H1  UNL     1      87.005 101.670 -41.313  1.00  0.00     0.217 HD
ENDBRANCH  15  16
ENDBRANCH   7   8
ENDBRANCH   4   7
BRANCH   1  18
HETATM   18  N1  UNL     1      91.164  94.624 -43.185  1.00  0.00     0.092 N 
BRANCH  18  19
HETATM   19  C2  UNL     1      92.056  93.737 -43.878  1.00  0.00     0.268 C 
HETATM   20  C1  UNL     1      91.252  93.073 -45.005  1.00  0.00     0.037 C 
ENDBRANCH  18  19
BRANCH  18  21
HETATM   21  C3  UNL     1      91.169  94.309 -41.780  1.00  0.00     0.268 C 
HETATM   22  C4  UNL     1      92.172  93.273 -41.391  1.00  0.00     0.037 C 
ENDBRANCH  18  21
ENDBRANCH   1  18
TORSDOF 6
ENDMDL
