MODEL 5
REMARK VINA RESULT: -4.860407136      1.036      2.357
REMARK  6 active torsions:
REMARK  status: ('A' for Active; 'I' for Inactive)
REMARK    1  A    between atoms: C2_2  and  N1_3 
REMARK    2  A    between atoms: N1_3  and  C3_4 
REMARK    3  A    between atoms: N1_3  and  C5_6 
REMARK    4  A    between atoms: N2_9  and  C8_10 
REMARK    5  A    between atoms: C8_10  and  C9_11 
REMARK    6  A    between atoms: C14_18  and  O1_19 
ROOT
HETATM    1  C5  UNL     1      86.376  98.663 -45.155  1.00  0.00     0.226 C 
HETATM    2  C6  UNL     1      87.166  98.647 -43.884  1.00  0.00     0.066 C 
HETATM    3  C7  UNL     1      88.639  98.575 -44.062  1.00  0.00     0.275 C 
HETATM    4  N2  UNL     1      88.960  97.559 -45.037  1.00  0.00     0.092 N 
HETATM    5  C15 UNL     1      88.551  98.158 -46.327  1.00  0.00     0.275 C 
HETATM    6  C16 UNL     1      87.059  98.094 -46.340  1.00  0.00     0.066 C 
ENDROOT
BRANCH   4   7
HETATM    7  C8  UNL     1      90.337  97.256 -45.149  1.00  0.00     0.313 C 
BRANCH   7   8
HETATM    8  C9  UNL     1      90.725  95.870 -44.823  1.00  0.00     0.006 A 
HETATM    9  C10 UNL     1      91.190  95.537 -43.577  1.00  0.00     0.030 A 
HETATM   10  C11 UNL     1      91.559  94.223 -43.264  1.00  0.00     0.008 A 
HETATM   11  I1  UNL     1      92.269  93.731 -41.353  1.00  0.00    -0.045 I 
HETATM   12  C12 UNL     1      91.459  93.243 -44.208  1.00  0.00     0.039 A 
HETATM   13  C13 UNL     1      90.994  93.551 -45.469  1.00  0.00     0.041 A 
HETATM   14  I2  UNL     1      90.838  92.039 -46.927  1.00  0.00    -0.042 I 
HETATM   15  C14 UNL     1      90.630  94.869 -45.764  1.00  0.00     0.090 A 
BRANCH  15  16
HETATM   16  O1  UNL     1      90.164  95.163 -47.035  1.00  0.00    -0.359 OA
ATOM     17  H1  UNL     1      90.553  95.877 -47.526  1.00  0.00     0.217 HD
ENDBRANCH  15  16
ENDBRANCH   7   8
ENDBRANCH   4   7
BRANCH   1  18
HETATM   18  N1  UNL     1      85.131  97.926 -44.942  1.00  0.00     0.092 N 
BRANCH  18  19
HETATM   19  C2  UNL     1      85.231  96.551 -45.345  1.00  0.00     0.268 C 
HETATM   20  C1  UNL     1      83.898  96.173 -46.005  1.00  0.00     0.037 C 
ENDBRANCH  18  19
BRANCH  18  21
HETATM   21  C3  UNL     1      84.779  97.992 -43.547  1.00  0.00     0.268 C 
HETATM   22  C4  UNL     1      83.501  98.714 -43.273  1.00  0.00     0.037 C 
ENDBRANCH  18  21
ENDBRANCH   1  18
TORSDOF 6
ENDMDL
