MODEL 1
REMARK VINA RESULT: -5.443578587      0.000      0.000
REMARK  6 active torsions:
REMARK  status: ('A' for Active; 'I' for Inactive)
REMARK    1  A    between atoms: C2_2  and  N1_3 
REMARK    2  A    between atoms: N1_3  and  C3_4 
REMARK    3  A    between atoms: N1_3  and  C5_6 
REMARK    4  A    between atoms: N2_9  and  C8_10 
REMARK    5  A    between atoms: C8_10  and  C9_11 
REMARK    6  A    between atoms: C14_18  and  O1_19 
ROOT
HETATM    1  C5  UNL     1      86.347  98.445 -45.496  1.00  0.00     0.226 C 
HETATM    2  C6  UNL     1      87.163  98.607 -44.253  1.00  0.00     0.066 C 
HETATM    3  C7  UNL     1      88.633  98.524 -44.453  1.00  0.00     0.275 C 
HETATM    4  N2  UNL     1      88.945  97.390 -45.291  1.00  0.00     0.092 N 
HETATM    5  C15 UNL     1      88.501  97.807 -46.640  1.00  0.00     0.275 C 
HETATM    6  C16 UNL     1      87.010  97.729 -46.610  1.00  0.00     0.066 C 
ENDROOT
BRANCH   4   7
HETATM    7  C8  UNL     1      90.323  97.086 -45.393  1.00  0.00     0.313 C 
BRANCH   7   8
HETATM    8  C9  UNL     1      90.714  95.712 -45.022  1.00  0.00     0.006 A 
HETATM    9  C10 UNL     1      90.683  94.693 -45.939  1.00  0.00     0.030 A 
HETATM   10  C11 UNL     1      91.054  93.388 -45.590  1.00  0.00     0.008 A 
HETATM   11  I1  UNL     1      91.000  91.841 -47.005  1.00  0.00    -0.045 I 
HETATM   12  C12 UNL     1      91.457  93.111 -44.317  1.00  0.00     0.039 A 
HETATM   13  C13 UNL     1      91.498  94.118 -43.376  1.00  0.00     0.041 A 
HETATM   14  I2  UNL     1      92.121  93.690 -41.410  1.00  0.00    -0.042 I 
HETATM   15  C14 UNL     1      91.124  95.415 -43.742  1.00  0.00     0.090 A 
BRANCH  15  16
HETATM   16  O1  UNL     1      91.171  96.416 -42.786  1.00  0.00    -0.359 OA
ATOM     17  H1  UNL     1      90.590  96.377 -42.034  1.00  0.00     0.217 HD
ENDBRANCH  15  16
ENDBRANCH   7   8
ENDBRANCH   4   7
BRANCH   1  18
HETATM   18  N1  UNL     1      85.115  97.733 -45.159  1.00  0.00     0.092 N 
BRANCH  18  19
HETATM   19  C2  UNL     1      85.140  96.361 -45.583  1.00  0.00     0.268 C 
HETATM   20  C1  UNL     1      83.734  96.018 -46.094  1.00  0.00     0.037 C 
ENDBRANCH  18  19
BRANCH  18  21
HETATM   21  C3  UNL     1      84.916  97.790 -43.734  1.00  0.00     0.268 C 
HETATM   22  C4  UNL     1      83.625  98.418 -43.322  1.00  0.00     0.037 C 
ENDBRANCH  18  21
ENDBRANCH   1  18
TORSDOF 6
ENDMDL
