MODEL 7
REMARK VINA RESULT: -5.944395631      1.180      1.543
REMARK  9 active torsions:
REMARK  status: ('A' for Active; 'I' for Inactive)
REMARK    1  A    between atoms: C2_2  and  N1_3 
REMARK    2  A    between atoms: N1_3  and  C3_4 
REMARK    3  A    between atoms: N1_3  and  C5_6 
REMARK    4  A    between atoms: N2_9  and  C8_10 
REMARK    5  A    between atoms: C8_10  and  C9_11 
REMARK    6  A    between atoms: C11_13  and  C12_14 
REMARK    7  A    between atoms: C13_15  and  C14_16 
REMARK    8  A    between atoms: C14_16  and  O1_17 
REMARK    9  A    between atoms: C17_22  and  O2_23 
ROOT
HETATM    1  C9  UNL     1      90.911  95.681 -45.060  1.00  0.00     0.010 A 
HETATM    2  C10 UNL     1      90.887  94.704 -46.030  1.00  0.00     0.036 A 
HETATM    3  C11 UNL     1      91.275  93.429 -45.770  1.00  0.00     0.020 A 
HETATM    4  C15 UNL     1      91.710  93.027 -44.484  1.00  0.00     0.041 A 
HETATM    5  C16 UNL     1      91.740  93.968 -43.498  1.00  0.00     0.041 A 
HETATM    6  I1  UNL     1      92.322  93.435 -41.534  1.00  0.00    -0.042 I 
HETATM    7  C17 UNL     1      91.360  95.228 -43.806  1.00  0.00     0.093 A 
ENDROOT
BRANCH   1   8
HETATM    8  C8  UNL     1      90.782  97.103 -45.192  1.00  0.00     0.073 C 
BRANCH   8   9
HETATM    9  N2  UNL     1      89.655  97.766 -45.682  1.00  0.00    -0.292 NA
HETATM   10  C7  UNL     1      88.808  96.710 -46.271  1.00  0.00     0.097 C 
HETATM   11  C6  UNL     1      87.528  97.070 -46.806  1.00  0.00     0.050 C 
HETATM   12  C5  UNL     1      87.014  98.417 -46.564  1.00  0.00     0.225 C 
HETATM   13  C19 UNL     1      88.015  99.402 -46.017  1.00  0.00     0.050 C 
HETATM   14  C18 UNL     1      88.872  98.683 -44.964  1.00  0.00     0.097 C 
BRANCH  12  15
HETATM   15  N1  UNL     1      85.797  98.504 -45.801  1.00  0.00     0.092 N 
BRANCH  15  16
HETATM   16  C2  UNL     1      85.430  97.304 -45.101  1.00  0.00     0.268 C 
HETATM   17  C1  UNL     1      85.250  97.720 -43.649  1.00  0.00     0.037 C 
ENDBRANCH  15  16
BRANCH  15  18
HETATM   18  C3  UNL     1      84.613  98.781 -46.650  1.00  0.00     0.268 C 
HETATM   19  C4  UNL     1      83.867  97.550 -47.040  1.00  0.00     0.037 C 
ENDBRANCH  15  18
ENDBRANCH  12  15
ENDBRANCH   8   9
ENDBRANCH   1   8
BRANCH   7  20
HETATM   20  O2  UNL     1      91.398  96.204 -42.800  1.00  0.00    -0.358 OA
ATOM     21  H2  UNL     1      92.224  96.667 -42.719  1.00  0.00     0.217 HD
ENDBRANCH   7  20
BRANCH   3  22
HETATM   22  C12 UNL     1      91.434  92.390 -46.769  1.00  0.00    -0.065 C 
HETATM   23  C13 UNL     1      91.505  91.499 -47.602  1.00  0.00    -0.075 C 
BRANCH  23  24
HETATM   24  C14 UNL     1      91.498  90.388 -48.596  1.00  0.00     0.258 C 
BRANCH  24  25
HETATM   25  O1  UNL     1      92.482  89.391 -48.272  1.00  0.00    -0.389 OA
ATOM     26  H1  UNL     1      93.025  89.186 -49.023  1.00  0.00     0.210 HD
ENDBRANCH  24  25
ENDBRANCH  23  24
ENDBRANCH   3  22
TORSDOF 9
ENDMDL
