MODEL 5
REMARK VINA RESULT: -6.310782352      2.340      3.330
REMARK  9 active torsions:
REMARK  status: ('A' for Active; 'I' for Inactive)
REMARK    1  A    between atoms: C2_2  and  N1_3 
REMARK    2  A    between atoms: N1_3  and  C3_4 
REMARK    3  A    between atoms: N1_3  and  C5_6 
REMARK    4  A    between atoms: N2_9  and  C8_10 
REMARK    5  A    between atoms: C8_10  and  C9_11 
REMARK    6  A    between atoms: C11_13  and  C12_14 
REMARK    7  A    between atoms: C13_15  and  C14_16 
REMARK    8  A    between atoms: C14_16  and  O1_17 
REMARK    9  A    between atoms: C17_22  and  O2_23 
ROOT
HETATM    1  C9  UNL     1      90.899  95.585 -45.076  1.00  0.00     0.010 A 
HETATM    2  C10 UNL     1      90.877  94.602 -46.038  1.00  0.00     0.036 A 
HETATM    3  C11 UNL     1      91.291  93.335 -45.777  1.00  0.00     0.020 A 
HETATM    4  C15 UNL     1      91.751  92.949 -44.495  1.00  0.00     0.041 A 
HETATM    5  C16 UNL     1      91.780  93.897 -43.515  1.00  0.00     0.041 A 
HETATM    6  I1  UNL     1      92.399  93.387 -41.556  1.00  0.00    -0.042 I 
HETATM    7  C17 UNL     1      91.374  95.148 -43.826  1.00  0.00     0.093 A 
ENDROOT
BRANCH   1   8
HETATM    8  C8  UNL     1      90.744  97.004 -45.215  1.00  0.00     0.073 C 
BRANCH   8   9
HETATM    9  N2  UNL     1      90.449  97.887 -44.175  1.00  0.00    -0.292 NA
HETATM   10  C7  UNL     1      91.574  98.844 -44.147  1.00  0.00     0.097 C 
HETATM   11  C6  UNL     1      91.532  99.932 -43.215  1.00  0.00     0.050 C 
HETATM   12  C5  UNL     1      90.295 100.183 -42.477  1.00  0.00     0.225 C 
HETATM   13  C19 UNL     1      89.264  99.086 -42.552  1.00  0.00     0.050 C 
HETATM   14  C18 UNL     1      89.229  98.556 -43.993  1.00  0.00     0.097 C 
BRANCH  12  15
HETATM   15  N1  UNL     1      89.658 101.450 -42.719  1.00  0.00     0.092 N 
BRANCH  15  16
HETATM   16  C2  UNL     1      90.419 102.373 -43.516  1.00  0.00     0.268 C 
HETATM   17  C1  UNL     1      89.612 102.569 -44.791  1.00  0.00     0.037 C 
ENDBRANCH  15  16
BRANCH  15  18
HETATM   18  C3  UNL     1      89.405 102.207 -41.468  1.00  0.00     0.268 C 
HETATM   19  C4  UNL     1      90.498 102.066 -40.463  1.00  0.00     0.037 C 
ENDBRANCH  15  18
ENDBRANCH  12  15
ENDBRANCH   8   9
ENDBRANCH   1   8
BRANCH   7  20
HETATM   20  O2  UNL     1      91.410  96.131 -42.826  1.00  0.00    -0.358 OA
ATOM     21  H2  UNL     1      91.955  95.923 -42.076  1.00  0.00     0.217 HD
ENDBRANCH   7  20
BRANCH   3  22
HETATM   22  C12 UNL     1      91.452  92.292 -46.771  1.00  0.00    -0.065 C 
HETATM   23  C13 UNL     1      91.524  91.410 -47.613  1.00  0.00    -0.075 C 
BRANCH  23  24
HETATM   24  C14 UNL     1      91.512  90.329 -48.639  1.00  0.00     0.258 C 
BRANCH  24  25
HETATM   25  O1  UNL     1      92.437  89.281 -48.303  1.00  0.00    -0.389 OA
ATOM     26  H1  UNL     1      92.683  88.779 -49.072  1.00  0.00     0.210 HD
ENDBRANCH  24  25
ENDBRANCH  23  24
ENDBRANCH   3  22
TORSDOF 9
ENDMDL
