MODEL 14
REMARK VINA RESULT: -5.135326404      3.269      4.777
REMARK  9 active torsions:
REMARK  status: ('A' for Active; 'I' for Inactive)
REMARK    1  A    between atoms: C2_2  and  N1_3 
REMARK    2  A    between atoms: N1_3  and  C3_4 
REMARK    3  A    between atoms: N1_3  and  C5_6 
REMARK    4  A    between atoms: N2_9  and  C8_10 
REMARK    5  A    between atoms: C8_10  and  C9_11 
REMARK    6  A    between atoms: C11_13  and  C12_14 
REMARK    7  A    between atoms: C13_15  and  C14_16 
REMARK    8  A    between atoms: C14_16  and  O1_17 
REMARK    9  A    between atoms: C17_22  and  O2_23 
ROOT
HETATM    1  C9  UNL     1      90.098  96.891 -45.170  1.00  0.00     0.010 A 
HETATM    2  C10 UNL     1      90.296  95.728 -45.879  1.00  0.00     0.036 A 
HETATM    3  C11 UNL     1      90.913  94.650 -45.328  1.00  0.00     0.020 A 
HETATM    4  C15 UNL     1      91.370  94.654 -43.988  1.00  0.00     0.041 A 
HETATM    5  C16 UNL     1      91.184  95.789 -43.254  1.00  0.00     0.041 A 
HETATM    6  I1  UNL     1      91.786  95.857 -41.226  1.00  0.00    -0.042 I 
HETATM    7  C17 UNL     1      90.580  96.841 -43.850  1.00  0.00     0.093 A 
ENDROOT
BRANCH   1   8
HETATM    8  C8  UNL     1      89.703  98.188 -45.635  1.00  0.00     0.073 C 
BRANCH   8   9
HETATM    9  N2  UNL     1      90.572  99.173 -46.107  1.00  0.00    -0.292 NA
HETATM   10  C7  UNL     1      89.845 100.447 -45.938  1.00  0.00     0.097 C 
HETATM   11  C6  UNL     1      90.509 101.671 -46.276  1.00  0.00     0.050 C 
HETATM   12  C5  UNL     1      91.941 101.641 -46.570  1.00  0.00     0.225 C 
HETATM   13  C19 UNL     1      92.529 100.269 -46.777  1.00  0.00     0.050 C 
HETATM   14  C18 UNL     1      91.917  99.321 -45.734  1.00  0.00     0.097 C 
BRANCH  12  15
HETATM   15  N1  UNL     1      92.788 102.391 -45.681  1.00  0.00     0.092 N 
BRANCH  15  16
HETATM   16  C2  UNL     1      92.163 102.814 -44.458  1.00  0.00     0.268 C 
HETATM   17  C1  UNL     1      92.879 102.053 -43.352  1.00  0.00     0.037 C 
ENDBRANCH  15  16
BRANCH  15  18
HETATM   18  C3  UNL     1      93.258 103.662 -46.282  1.00  0.00     0.268 C 
HETATM   19  C4  UNL     1      92.527 104.860 -45.776  1.00  0.00     0.037 C 
ENDBRANCH  15  18
ENDBRANCH  12  15
ENDBRANCH   8   9
ENDBRANCH   1   8
BRANCH   7  20
HETATM   20  O2  UNL     1      90.394  98.015 -43.105  1.00  0.00    -0.358 OA
ATOM     21  H2  UNL     1      91.006  98.139 -42.388  1.00  0.00     0.217 HD
ENDBRANCH   7  20
BRANCH   3  22
HETATM   22  C12 UNL     1      91.303  93.457 -46.053  1.00  0.00    -0.065 C 
HETATM   23  C13 UNL     1      91.627  92.417 -46.608  1.00  0.00    -0.075 C 
BRANCH  23  24
HETATM   24  C14 UNL     1      92.016  91.104 -47.197  1.00  0.00     0.258 C 
BRANCH  24  25
HETATM   25  O1  UNL     1      91.888  91.117 -48.629  1.00  0.00    -0.389 OA
ATOM     26  H1  UNL     1      91.020  90.840 -48.900  1.00  0.00     0.210 HD
ENDBRANCH  24  25
ENDBRANCH  23  24
ENDBRANCH   3  22
TORSDOF 9
ENDMDL
