MODEL 3
REMARK VINA RESULT: -6.349780169      2.838      4.327
REMARK  9 active torsions:
REMARK  status: ('A' for Active; 'I' for Inactive)
REMARK    1  A    between atoms: C2_2  and  N1_3 
REMARK    2  A    between atoms: N1_3  and  C3_4 
REMARK    3  A    between atoms: N1_3  and  C5_6 
REMARK    4  A    between atoms: N2_9  and  C8_10 
REMARK    5  A    between atoms: C8_10  and  C9_11 
REMARK    6  A    between atoms: C11_13  and  C12_14 
REMARK    7  A    between atoms: C13_15  and  C14_16 
REMARK    8  A    between atoms: C14_16  and  O1_17 
REMARK    9  A    between atoms: C17_22  and  O2_23 
ROOT
HETATM    1  C9  UNL     1      90.706  95.545 -45.081  1.00  0.00     0.010 A 
HETATM    2  C10 UNL     1      90.747  94.547 -46.029  1.00  0.00     0.036 A 
HETATM    3  C11 UNL     1      91.281  93.328 -45.760  1.00  0.00     0.020 A 
HETATM    4  C15 UNL     1      91.809  93.007 -44.486  1.00  0.00     0.041 A 
HETATM    5  C16 UNL     1      91.778  93.970 -43.522  1.00  0.00     0.041 A 
HETATM    6  I1  UNL     1      92.494  93.552 -41.574  1.00  0.00    -0.042 I 
HETATM    7  C17 UNL     1      91.253  95.174 -43.840  1.00  0.00     0.093 A 
ENDROOT
BRANCH   1   8
HETATM    8  C8  UNL     1      90.419  96.941 -45.237  1.00  0.00     0.073 C 
BRANCH   8   9
HETATM    9  N2  UNL     1      90.994  97.969 -44.488  1.00  0.00    -0.292 NA
HETATM   10  C7  UNL     1      92.057  98.529 -45.347  1.00  0.00     0.097 C 
HETATM   11  C6  UNL     1      92.798  99.662 -44.879  1.00  0.00     0.050 C 
HETATM   12  C5  UNL     1      92.345 100.355 -43.673  1.00  0.00     0.225 C 
HETATM   13  C19 UNL     1      91.299  99.629 -42.866  1.00  0.00     0.050 C 
HETATM   14  C18 UNL     1      90.293  98.997 -43.839  1.00  0.00     0.097 C 
BRANCH  12  15
HETATM   15  N1  UNL     1      91.946 101.727 -43.842  1.00  0.00     0.092 N 
BRANCH  15  16
HETATM   16  C2  UNL     1      92.476 102.376 -45.009  1.00  0.00     0.268 C 
HETATM   17  C1  UNL     1      91.278 103.013 -45.698  1.00  0.00     0.037 C 
ENDBRANCH  15  16
BRANCH  15  18
HETATM   18  C3  UNL     1      92.408 102.593 -42.730  1.00  0.00     0.268 C 
HETATM   19  C4  UNL     1      93.891 102.752 -42.683  1.00  0.00     0.037 C 
ENDBRANCH  15  18
ENDBRANCH  12  15
ENDBRANCH   8   9
ENDBRANCH   1   8
BRANCH   7  20
HETATM   20  O2  UNL     1      91.226  96.174 -42.856  1.00  0.00    -0.358 OA
ATOM     21  H2  UNL     1      90.804  95.926 -42.041  1.00  0.00     0.217 HD
ENDBRANCH   7  20
BRANCH   3  22
HETATM   22  C12 UNL     1      91.509  92.287 -46.743  1.00  0.00    -0.065 C 
HETATM   23  C13 UNL     1      91.637  91.403 -47.577  1.00  0.00    -0.075 C 
BRANCH  23  24
HETATM   24  C14 UNL     1      91.694  90.316 -48.596  1.00  0.00     0.258 C 
BRANCH  24  25
HETATM   25  O1  UNL     1      92.626  89.291 -48.213  1.00  0.00    -0.389 OA
ATOM     26  H1  UNL     1      93.503  89.491 -48.517  1.00  0.00     0.210 HD
ENDBRANCH  24  25
ENDBRANCH  23  24
ENDBRANCH   3  22
TORSDOF 9
ENDMDL
