MODEL 9
REMARK VINA RESULT: -5.528293869      1.671      2.264
REMARK  9 active torsions:
REMARK  status: ('A' for Active; 'I' for Inactive)
REMARK    1  A    between atoms: C2_2  and  N1_3 
REMARK    2  A    between atoms: N1_3  and  C3_4 
REMARK    3  A    between atoms: N1_3  and  C5_6 
REMARK    4  A    between atoms: N2_9  and  C8_10 
REMARK    5  A    between atoms: C8_10  and  C9_11 
REMARK    6  A    between atoms: C11_13  and  C12_14 
REMARK    7  A    between atoms: C13_15  and  C14_16 
REMARK    8  A    between atoms: C14_16  and  O1_17 
REMARK    9  A    between atoms: C17_22  and  O2_23 
ROOT
HETATM    1  C9  UNL     1      90.777  95.715 -45.042  1.00  0.00     0.010 A 
HETATM    2  C10 UNL     1      90.741  94.744 -46.016  1.00  0.00     0.036 A 
HETATM    3  C11 UNL     1      91.176  93.479 -45.780  1.00  0.00     0.020 A 
HETATM    4  C15 UNL     1      91.673  93.082 -44.515  1.00  0.00     0.041 A 
HETATM    5  C16 UNL     1      91.716  94.018 -43.525  1.00  0.00     0.041 A 
HETATM    6  I1  UNL     1      92.390  93.492 -41.589  1.00  0.00    -0.042 I 
HETATM    7  C17 UNL     1      91.288  95.268 -43.810  1.00  0.00     0.093 A 
ENDROOT
BRANCH   1   8
HETATM    8  C8  UNL     1      90.602  97.134 -45.159  1.00  0.00     0.073 C 
BRANCH   8   9
HETATM    9  N2  UNL     1      89.372  97.792 -45.199  1.00  0.00    -0.292 NA
HETATM   10  C7  UNL     1      89.589  98.971 -46.062  1.00  0.00     0.097 C 
HETATM   11  C6  UNL     1      88.477  99.825 -46.357  1.00  0.00     0.050 C 
HETATM   12  C5  UNL     1      87.133  99.393 -45.976  1.00  0.00     0.225 C 
HETATM   13  C19 UNL     1      87.075  98.213 -45.041  1.00  0.00     0.050 C 
HETATM   14  C18 UNL     1      88.135  97.194 -45.485  1.00  0.00     0.097 C 
BRANCH  12  15
HETATM   15  N1  UNL     1      86.202  99.191 -47.055  1.00  0.00     0.092 N 
BRANCH  15  16
HETATM   16  C2  UNL     1      85.645 100.392 -47.612  1.00  0.00     0.268 C 
HETATM   17  C1  UNL     1      85.154 101.202 -46.421  1.00  0.00     0.037 C 
ENDBRANCH  15  16
BRANCH  15  18
HETATM   18  C3  UNL     1      85.006  98.421 -46.635  1.00  0.00     0.268 C 
HETATM   19  C4  UNL     1      84.228  97.869 -47.782  1.00  0.00     0.037 C 
ENDBRANCH  15  18
ENDBRANCH  12  15
ENDBRANCH   8   9
ENDBRANCH   1   8
BRANCH   7  20
HETATM   20  O2  UNL     1      91.338  96.240 -42.800  1.00  0.00    -0.358 OA
ATOM     21  H2  UNL     1      90.519  96.386 -42.341  1.00  0.00     0.217 HD
ENDBRANCH   7  20
BRANCH   3  22
HETATM   22  C12 UNL     1      91.324  92.450 -46.791  1.00  0.00    -0.065 C 
HETATM   23  C13 UNL     1      91.478  91.546 -47.598  1.00  0.00    -0.075 C 
BRANCH  23  24
HETATM   24  C14 UNL     1      91.715  90.392 -48.513  1.00  0.00     0.258 C 
BRANCH  24  25
HETATM   25  O1  UNL     1      90.645  89.435 -48.434  1.00  0.00    -0.389 OA
ATOM     26  H1  UNL     1      90.489  89.022 -49.275  1.00  0.00     0.210 HD
ENDBRANCH  24  25
ENDBRANCH  23  24
ENDBRANCH   3  22
TORSDOF 9
ENDMDL
