MODEL 12
REMARK VINA RESULT: -6.013979975      2.118      2.758
REMARK  12 active torsions:
REMARK  status: ('A' for Active; 'I' for Inactive)
REMARK    1  A    between atoms: C2_2  and  N1_3 
REMARK    2  A    between atoms: N1_3  and  C3_4 
REMARK    3  A    between atoms: N1_3  and  C5_6 
REMARK    4  A    between atoms: N2_9  and  C8_10 
REMARK    5  A    between atoms: C8_10  and  C9_11 
REMARK    6  A    between atoms: C11_13  and  C12_14 
REMARK    7  A    between atoms: C12_14  and  C13_15 
REMARK    8  A    between atoms: C13_15  and  C14_16 
REMARK    9  A    between atoms: C14_16  and  N3_17 
REMARK       I    between atoms: N3_17  and  C15_19 
REMARK   10  A    between atoms: C15_19  and  O2_21 
REMARK   11  A    between atoms: O2_21  and  C16_22 
REMARK   12  A    between atoms: C22_29  and  O3_30 
ROOT
HETATM    1  C9  UNL     1      90.938  95.748 -44.932  1.00  0.00     0.010 A 
HETATM    2  C10 UNL     1      90.949  94.885 -45.981  1.00  0.00     0.036 A 
HETATM    3  C11 UNL     1      91.327  93.543 -45.808  1.00  0.00     0.020 A 
HETATM    4  C20 UNL     1      91.715  93.061 -44.540  1.00  0.00     0.041 A 
HETATM    5  C21 UNL     1      91.714  93.938 -43.482  1.00  0.00     0.041 A 
HETATM    6  I1  UNL     1      92.308  93.198 -41.622  1.00  0.00    -0.042 I 
HETATM    7  C22 UNL     1      91.343  95.198 -43.696  1.00  0.00     0.093 A 
ENDROOT
BRANCH   1   8
HETATM    8  C8  UNL     1      90.235  97.012 -44.837  1.00  0.00     0.073 C 
BRANCH   8   9
HETATM    9  N2  UNL     1      89.141  97.458 -45.528  1.00  0.00    -0.292 NA
HETATM   10  C7  UNL     1      88.088  96.751 -46.143  1.00  0.00     0.097 C 
HETATM   11  C6  UNL     1      86.674  97.155 -45.696  1.00  0.00     0.050 C 
HETATM   12  C5  UNL     1      86.444  98.615 -45.796  1.00  0.00     0.225 C 
HETATM   13  C24 UNL     1      87.637  99.346 -45.199  1.00  0.00     0.050 C 
HETATM   14  C23 UNL     1      88.443  98.325 -44.465  1.00  0.00     0.097 C 
BRANCH  12  15
HETATM   15  N1  UNL     1      85.222  99.079 -45.194  1.00  0.00     0.092 N 
BRANCH  15  16
HETATM   16  C2  UNL     1      85.260 100.483 -44.847  1.00  0.00     0.268 C 
HETATM   17  C1  UNL     1      84.246 101.342 -45.499  1.00  0.00     0.037 C 
ENDBRANCH  15  16
BRANCH  15  18
HETATM   18  C3  UNL     1      84.809  98.391 -44.009  1.00  0.00     0.268 C 
HETATM   19  C4  UNL     1      83.357  97.910 -44.178  1.00  0.00     0.037 C 
ENDBRANCH  15  18
ENDBRANCH  12  15
ENDBRANCH   8   9
ENDBRANCH   1   8
BRANCH   7  20
HETATM   20  O3  UNL     1      91.379  96.049 -42.577  1.00  0.00    -0.358 OA
ATOM     21  H3  UNL     1      91.435  95.650 -41.716  1.00  0.00     0.217 HD
ENDBRANCH   7  20
BRANCH   3  22
HETATM   22  C12 UNL     1      91.256  92.527 -46.827  1.00  0.00    -0.065 C 
BRANCH  22  23
HETATM   23  C13 UNL     1      91.141  91.714 -47.748  1.00  0.00    -0.081 C 
BRANCH  23  24
HETATM   24  C14 UNL     1      90.955  90.754 -48.868  1.00  0.00     0.219 C 
BRANCH  24  25
HETATM   25  N3  UNL     1      90.331  89.527 -48.422  1.00  0.00    -0.327 N 
HETATM   26  C15 UNL     1      89.036  89.150 -48.852  1.00  0.00     0.362 C 
HETATM   27  O1  UNL     1      88.334  89.839 -49.629  1.00  0.00    -0.238 OA
ATOM     28  H3  UNL     1      90.838  88.916 -47.781  1.00  0.00     0.165 HD
BRANCH  26  29
HETATM   29  O2  UNL     1      88.511  87.937 -48.364  1.00  0.00    -0.294 OA
BRANCH  29  30
HETATM   30  C16 UNL     1      88.764  86.719 -49.024  1.00  0.00     0.061 C 
HETATM   31  C17 UNL     1      89.489  85.792 -48.102  1.00  0.00     0.046 C 
HETATM   32  C18 UNL     1      87.348  86.085 -49.168  1.00  0.00     0.046 C 
HETATM   33  C19 UNL     1      89.415  86.828 -50.353  1.00  0.00     0.046 C 
ENDBRANCH  29  30
ENDBRANCH  26  29
ENDBRANCH  24  25
ENDBRANCH  23  24
ENDBRANCH  22  23
ENDBRANCH   3  22
TORSDOF 12
ENDMDL
