MODEL 7
REMARK VINA RESULT: -6.152157145      2.497      3.177
REMARK  12 active torsions:
REMARK  status: ('A' for Active; 'I' for Inactive)
REMARK    1  A    between atoms: C2_2  and  N1_3 
REMARK    2  A    between atoms: N1_3  and  C3_4 
REMARK    3  A    between atoms: N1_3  and  C5_6 
REMARK    4  A    between atoms: N2_9  and  C8_10 
REMARK    5  A    between atoms: C8_10  and  C9_11 
REMARK    6  A    between atoms: C11_13  and  C12_14 
REMARK    7  A    between atoms: C12_14  and  C13_15 
REMARK    8  A    between atoms: C13_15  and  C14_16 
REMARK    9  A    between atoms: C14_16  and  N3_17 
REMARK       I    between atoms: N3_17  and  C15_19 
REMARK   10  A    between atoms: C15_19  and  O2_21 
REMARK   11  A    between atoms: O2_21  and  C16_22 
REMARK   12  A    between atoms: C22_29  and  O3_30 
ROOT
HETATM    1  C9  UNL     1      90.705  95.797 -45.382  1.00  0.00     0.010 A 
HETATM    2  C10 UNL     1      90.806  94.798 -46.295  1.00  0.00     0.036 A 
HETATM    3  C11 UNL     1      91.248  93.518 -45.920  1.00  0.00     0.020 A 
HETATM    4  C20 UNL     1      91.609  93.243 -44.584  1.00  0.00     0.041 A 
HETATM    5  C21 UNL     1      91.517  94.258 -43.663  1.00  0.00     0.041 A 
HETATM    6  I1  UNL     1      92.071  93.824 -41.698  1.00  0.00    -0.042 I 
HETATM    7  C22 UNL     1      91.087  95.451 -44.067  1.00  0.00     0.093 A 
ENDROOT
BRANCH   1   8
HETATM    8  C8  UNL     1      89.932  97.019 -45.491  1.00  0.00     0.073 C 
BRANCH   8   9
HETATM    9  N2  UNL     1      88.792  97.394 -44.834  1.00  0.00    -0.292 NA
HETATM   10  C7  UNL     1      88.477  98.579 -44.138  1.00  0.00     0.097 C 
HETATM   11  C6  UNL     1      87.199  99.296 -44.604  1.00  0.00     0.050 C 
HETATM   12  C5  UNL     1      86.025  98.393 -44.645  1.00  0.00     0.225 C 
HETATM   13  C24 UNL     1      86.425  97.093 -45.327  1.00  0.00     0.050 C 
HETATM   14  C23 UNL     1      87.753  97.335 -45.968  1.00  0.00     0.097 C 
BRANCH  12  15
HETATM   15  N1  UNL     1      84.856  98.948 -45.274  1.00  0.00     0.092 N 
BRANCH  15  16
HETATM   16  C2  UNL     1      84.030  97.947 -45.912  1.00  0.00     0.268 C 
HETATM   17  C1  UNL     1      82.738  97.651 -45.253  1.00  0.00     0.037 C 
ENDBRANCH  15  16
BRANCH  15  18
HETATM   18  C3  UNL     1      85.096  99.952 -46.264  1.00  0.00     0.268 C 
HETATM   19  C4  UNL     1      84.224 101.184 -45.963  1.00  0.00     0.037 C 
ENDBRANCH  15  18
ENDBRANCH  12  15
ENDBRANCH   8   9
ENDBRANCH   1   8
BRANCH   7  20
HETATM   20  O3  UNL     1      91.031  96.452 -43.080  1.00  0.00    -0.358 OA
ATOM     21  H3  UNL     1      91.797  97.002 -42.961  1.00  0.00     0.217 HD
ENDBRANCH   7  20
BRANCH   3  22
HETATM   22  C12 UNL     1      91.274  92.368 -46.786  1.00  0.00    -0.065 C 
BRANCH  22  23
HETATM   23  C13 UNL     1      91.385  91.400 -47.545  1.00  0.00    -0.081 C 
BRANCH  23  24
HETATM   24  C14 UNL     1      91.529  90.268 -48.498  1.00  0.00     0.219 C 
BRANCH  24  25
HETATM   25  N3  UNL     1      90.392  89.376 -48.444  1.00  0.00    -0.327 N 
HETATM   26  C15 UNL     1      89.546  89.179 -49.562  1.00  0.00     0.362 C 
HETATM   27  O1  UNL     1      89.704  89.757 -50.663  1.00  0.00    -0.238 OA
ATOM     28  H3  UNL     1      90.194  88.875 -47.578  1.00  0.00     0.165 HD
BRANCH  26  29
HETATM   29  O2  UNL     1      88.463  88.290 -49.415  1.00  0.00    -0.294 OA
BRANCH  29  30
HETATM   30  C16 UNL     1      88.639  86.900 -49.560  1.00  0.00     0.061 C 
HETATM   31  C17 UNL     1      88.753  86.268 -48.210  1.00  0.00     0.046 C 
HETATM   32  C18 UNL     1      87.258  86.414 -50.094  1.00  0.00     0.046 C 
HETATM   33  C19 UNL     1      89.723  86.479 -50.481  1.00  0.00     0.046 C 
ENDBRANCH  29  30
ENDBRANCH  26  29
ENDBRANCH  24  25
ENDBRANCH  23  24
ENDBRANCH  22  23
ENDBRANCH   3  22
TORSDOF 12
ENDMDL
