MODEL 19
REMARK VINA RESULT: -5.823451485      1.867      2.935
REMARK  12 active torsions:
REMARK  status: ('A' for Active; 'I' for Inactive)
REMARK    1  A    between atoms: C2_2  and  N1_3 
REMARK    2  A    between atoms: N1_3  and  C3_4 
REMARK    3  A    between atoms: N1_3  and  C5_6 
REMARK    4  A    between atoms: N2_9  and  C8_10 
REMARK    5  A    between atoms: C8_10  and  C9_11 
REMARK    6  A    between atoms: C11_13  and  C12_14 
REMARK    7  A    between atoms: C12_14  and  C13_15 
REMARK    8  A    between atoms: C13_15  and  C14_16 
REMARK    9  A    between atoms: C14_16  and  N3_17 
REMARK       I    between atoms: N3_17  and  C15_19 
REMARK   10  A    between atoms: C15_19  and  O2_21 
REMARK   11  A    between atoms: O2_21  and  C16_22 
REMARK   12  A    between atoms: C22_29  and  O3_30 
ROOT
HETATM    1  C9  UNL     1      90.893  95.616 -44.949  1.00  0.00     0.010 A 
HETATM    2  C10 UNL     1      90.935  94.739 -45.985  1.00  0.00     0.036 A 
HETATM    3  C11 UNL     1      91.377  93.419 -45.796  1.00  0.00     0.020 A 
HETATM    4  C20 UNL     1      91.801  92.975 -44.526  1.00  0.00     0.041 A 
HETATM    5  C21 UNL     1      91.769  93.867 -43.481  1.00  0.00     0.041 A 
HETATM    6  I1  UNL     1      92.415  93.185 -41.617  1.00  0.00    -0.042 I 
HETATM    7  C22 UNL     1      91.336  95.104 -43.710  1.00  0.00     0.093 A 
ENDROOT
BRANCH   1   8
HETATM    8  C8  UNL     1      90.131  96.847 -44.865  1.00  0.00     0.073 C 
BRANCH   8   9
HETATM    9  N2  UNL     1      90.379  97.981 -44.141  1.00  0.00    -0.292 NA
HETATM   10  C7  UNL     1      91.155  99.118 -44.446  1.00  0.00     0.097 C 
HETATM   11  C6  UNL     1      90.419 100.464 -44.342  1.00  0.00     0.050 C 
HETATM   12  C5  UNL     1      89.738 100.638 -43.039  1.00  0.00     0.225 C 
HETATM   13  C24 UNL     1      88.980  99.363 -42.702  1.00  0.00     0.050 C 
HETATM   14  C23 UNL     1      88.957  98.536 -43.946  1.00  0.00     0.097 C 
BRANCH  12  15
HETATM   15  N1  UNL     1      88.859 101.775 -42.961  1.00  0.00     0.092 N 
BRANCH  15  16
HETATM   16  C2  UNL     1      88.540 102.331 -44.258  1.00  0.00     0.268 C 
HETATM   17  C1  UNL     1      88.215 103.775 -44.286  1.00  0.00     0.037 C 
ENDBRANCH  15  16
BRANCH  15  18
HETATM   18  C3  UNL     1      89.322 102.870 -42.166  1.00  0.00     0.268 C 
HETATM   19  C4  UNL     1      89.872 102.336 -40.832  1.00  0.00     0.037 C 
ENDBRANCH  15  18
ENDBRANCH  12  15
ENDBRANCH   8   9
ENDBRANCH   1   8
BRANCH   7  20
HETATM   20  O3  UNL     1      91.342  95.974 -42.603  1.00  0.00    -0.358 OA
ATOM     21  H3  UNL     1      90.741  96.710 -42.614  1.00  0.00     0.217 HD
ENDBRANCH   7  20
BRANCH   3  22
HETATM   22  C12 UNL     1      91.345  92.386 -46.800  1.00  0.00    -0.065 C 
BRANCH  22  23
HETATM   23  C13 UNL     1      91.360  91.446 -47.600  1.00  0.00    -0.081 C 
BRANCH  23  24
HETATM   24  C14 UNL     1      91.413  90.340 -48.592  1.00  0.00     0.219 C 
BRANCH  24  25
HETATM   25  N3  UNL     1      90.932  90.762 -49.889  1.00  0.00    -0.327 N 
HETATM   26  C15 UNL     1      89.746  90.233 -50.453  1.00  0.00     0.362 C 
HETATM   27  O1  UNL     1      89.035  89.367 -49.889  1.00  0.00    -0.238 OA
ATOM     28  H3  UNL     1      91.462  91.459 -50.413  1.00  0.00     0.165 HD
BRANCH  26  29
HETATM   29  O2  UNL     1      89.356  90.705 -51.722  1.00  0.00    -0.294 OA
BRANCH  29  30
HETATM   30  C16 UNL     1      88.804  91.991 -51.880  1.00  0.00     0.061 C 
HETATM   31  C17 UNL     1      89.853  92.926 -52.389  1.00  0.00     0.046 C 
HETATM   32  C18 UNL     1      87.829  91.820 -53.084  1.00  0.00     0.046 C 
HETATM   33  C19 UNL     1      88.077  92.531 -50.705  1.00  0.00     0.046 C 
ENDBRANCH  29  30
ENDBRANCH  26  29
ENDBRANCH  24  25
ENDBRANCH  23  24
ENDBRANCH  22  23
ENDBRANCH   3  22
TORSDOF 12
ENDMDL
