MODEL 8
REMARK VINA RESULT: -6.146078733      2.186      2.821
REMARK  12 active torsions:
REMARK  status: ('A' for Active; 'I' for Inactive)
REMARK    1  A    between atoms: C2_2  and  N1_3 
REMARK    2  A    between atoms: N1_3  and  C3_4 
REMARK    3  A    between atoms: N1_3  and  C5_6 
REMARK    4  A    between atoms: N2_9  and  C8_10 
REMARK    5  A    between atoms: C8_10  and  C9_11 
REMARK    6  A    between atoms: C11_13  and  C12_14 
REMARK    7  A    between atoms: C12_14  and  C13_15 
REMARK    8  A    between atoms: C13_15  and  C14_16 
REMARK    9  A    between atoms: C14_16  and  N3_17 
REMARK       I    between atoms: N3_17  and  C15_19 
REMARK   10  A    between atoms: C15_19  and  O2_21 
REMARK   11  A    between atoms: O2_21  and  C16_22 
REMARK   12  A    between atoms: C22_29  and  O3_30 
ROOT
HETATM    1  C9  UNL     1      90.707  95.985 -45.192  1.00  0.00     0.010 A 
HETATM    2  C10 UNL     1      90.766  95.022 -46.148  1.00  0.00     0.036 A 
HETATM    3  C11 UNL     1      91.197  93.721 -45.838  1.00  0.00     0.020 A 
HETATM    4  C20 UNL     1      91.591  93.387 -44.525  1.00  0.00     0.041 A 
HETATM    5  C21 UNL     1      91.541  94.365 -43.561  1.00  0.00     0.041 A 
HETATM    6  I1  UNL     1      92.144  93.842 -41.632  1.00  0.00    -0.042 I 
HETATM    7  C22 UNL     1      91.120  95.579 -43.904  1.00  0.00     0.093 A 
ENDROOT
BRANCH   1   8
HETATM    8  C8  UNL     1      89.950  97.221 -45.230  1.00  0.00     0.073 C 
BRANCH   8   9
HETATM    9  N2  UNL     1      88.818  97.574 -44.548  1.00  0.00    -0.292 NA
HETATM   10  C7  UNL     1      88.525  98.717 -43.776  1.00  0.00     0.097 C 
HETATM   11  C6  UNL     1      87.262  99.488 -44.192  1.00  0.00     0.050 C 
HETATM   12  C5  UNL     1      86.071  98.612 -44.291  1.00  0.00     0.225 C 
HETATM   13  C24 UNL     1      86.445  97.352 -45.056  1.00  0.00     0.050 C 
HETATM   14  C23 UNL     1      87.777  97.609 -45.682  1.00  0.00     0.097 C 
BRANCH  12  15
HETATM   15  N1  UNL     1      84.912  99.228 -44.881  1.00  0.00     0.092 N 
BRANCH  15  16
HETATM   16  C2  UNL     1      85.037 100.664 -45.002  1.00  0.00     0.268 C 
HETATM   17  C1  UNL     1      84.090 101.471 -44.200  1.00  0.00     0.037 C 
ENDBRANCH  15  16
BRANCH  15  18
HETATM   18  C3  UNL     1      83.670  98.996 -44.210  1.00  0.00     0.268 C 
HETATM   19  C4  UNL     1      82.775  98.104 -45.087  1.00  0.00     0.037 C 
ENDBRANCH  15  18
ENDBRANCH  12  15
ENDBRANCH   8   9
ENDBRANCH   1   8
BRANCH   7  20
HETATM   20  O3  UNL     1      91.107  96.540 -42.876  1.00  0.00    -0.358 OA
ATOM     21  H3  UNL     1      91.907  96.669 -42.379  1.00  0.00     0.217 HD
ENDBRANCH   7  20
BRANCH   3  22
HETATM   22  C12 UNL     1      91.181  92.607 -46.750  1.00  0.00    -0.065 C 
BRANCH  22  23
HETATM   23  C13 UNL     1      91.246  91.684 -47.567  1.00  0.00    -0.081 C 
BRANCH  23  24
HETATM   24  C14 UNL     1      91.332  90.607 -48.588  1.00  0.00     0.219 C 
BRANCH  24  25
HETATM   25  N3  UNL     1      90.415  89.525 -48.304  1.00  0.00    -0.327 N 
HETATM   26  C15 UNL     1      89.243  89.321 -49.072  1.00  0.00     0.362 C 
HETATM   27  O1  UNL     1      88.906  90.051 -50.034  1.00  0.00    -0.238 OA
ATOM     28  H3  UNL     1      90.617  88.893 -47.529  1.00  0.00     0.165 HD
BRANCH  26  29
HETATM   29  O2  UNL     1      88.409  88.241 -48.719  1.00  0.00    -0.294 OA
BRANCH  29  30
HETATM   30  C16 UNL     1      88.664  86.941 -49.198  1.00  0.00     0.061 C 
HETATM   31  C17 UNL     1      89.094  86.067 -48.065  1.00  0.00     0.046 C 
HETATM   32  C18 UNL     1      87.247  86.410 -49.573  1.00  0.00     0.046 C 
HETATM   33  C19 UNL     1      89.573  86.850 -50.367  1.00  0.00     0.046 C 
ENDBRANCH  29  30
ENDBRANCH  26  29
ENDBRANCH  24  25
ENDBRANCH  23  24
ENDBRANCH  22  23
ENDBRANCH   3  22
TORSDOF 12
ENDMDL
