MODEL 14
REMARK VINA RESULT: -5.941091885      2.787      4.131
REMARK  12 active torsions:
REMARK  status: ('A' for Active; 'I' for Inactive)
REMARK    1  A    between atoms: C2_2  and  N1_3 
REMARK    2  A    between atoms: N1_3  and  C3_4 
REMARK    3  A    between atoms: N1_3  and  C5_6 
REMARK    4  A    between atoms: N2_9  and  C8_10 
REMARK    5  A    between atoms: C8_10  and  C9_11 
REMARK    6  A    between atoms: C11_13  and  C12_14 
REMARK    7  A    between atoms: C12_14  and  C13_15 
REMARK    8  A    between atoms: C13_15  and  C14_16 
REMARK    9  A    between atoms: C14_16  and  N3_17 
REMARK       I    between atoms: N3_17  and  C15_19 
REMARK   10  A    between atoms: C15_19  and  O2_21 
REMARK   11  A    between atoms: O2_21  and  C16_22 
REMARK   12  A    between atoms: C22_29  and  O3_30 
ROOT
HETATM    1  C9  UNL     1      90.855  95.631 -44.888  1.00  0.00     0.010 A 
HETATM    2  C10 UNL     1      90.895  94.764 -45.932  1.00  0.00     0.036 A 
HETATM    3  C11 UNL     1      91.353  93.448 -45.761  1.00  0.00     0.020 A 
HETATM    4  C20 UNL     1      91.795  92.997 -44.500  1.00  0.00     0.041 A 
HETATM    5  C21 UNL     1      91.766  93.879 -43.446  1.00  0.00     0.041 A 
HETATM    6  I1  UNL     1      92.441  93.186 -41.596  1.00  0.00    -0.042 I 
HETATM    7  C22 UNL     1      91.317  95.113 -43.658  1.00  0.00     0.093 A 
ENDROOT
BRANCH   1   8
HETATM    8  C8  UNL     1      90.082  96.853 -44.784  1.00  0.00     0.073 C 
BRANCH   8   9
HETATM    9  N2  UNL     1      90.503  98.156 -44.766  1.00  0.00    -0.292 NA
HETATM   10  C7  UNL     1      91.779  98.709 -44.538  1.00  0.00     0.097 C 
HETATM   11  C6  UNL     1      92.297  99.647 -45.640  1.00  0.00     0.050 C 
HETATM   12  C5  UNL     1      91.325 100.712 -45.980  1.00  0.00     0.225 C 
HETATM   13  C24 UNL     1      89.945 100.091 -46.136  1.00  0.00     0.050 C 
HETATM   14  C23 UNL     1      90.143  98.612 -46.191  1.00  0.00     0.097 C 
BRANCH  12  15
HETATM   15  N1  UNL     1      91.659 101.486 -47.146  1.00  0.00     0.092 N 
BRANCH  15  16
HETATM   16  C2  UNL     1      92.976 101.189 -47.664  1.00  0.00     0.268 C 
HETATM   17  C1  UNL     1      93.032 100.700 -49.060  1.00  0.00     0.037 C 
ENDBRANCH  15  16
BRANCH  15  18
HETATM   18  C3  UNL     1      91.608 102.907 -46.988  1.00  0.00     0.268 C 
HETATM   19  C4  UNL     1      92.719 103.354 -46.022  1.00  0.00     0.037 C 
ENDBRANCH  15  18
ENDBRANCH  12  15
ENDBRANCH   8   9
ENDBRANCH   1   8
BRANCH   7  20
HETATM   20  O3  UNL     1      91.327  95.972 -42.544  1.00  0.00    -0.358 OA
ATOM     21  H3  UNL     1      91.040  95.620 -41.709  1.00  0.00     0.217 HD
ENDBRANCH   7  20
BRANCH   3  22
HETATM   22  C12 UNL     1      91.320  92.424 -46.774  1.00  0.00    -0.065 C 
BRANCH  22  23
HETATM   23  C13 UNL     1      91.353  91.501 -47.593  1.00  0.00    -0.081 C 
BRANCH  23  24
HETATM   24  C14 UNL     1      91.436  90.410 -48.600  1.00  0.00     0.219 C 
BRANCH  24  25
HETATM   25  N3  UNL     1      91.167  90.896 -49.936  1.00  0.00    -0.327 N 
HETATM   26  C15 UNL     1      89.871  90.832 -50.505  1.00  0.00     0.362 C 
HETATM   27  O1  UNL     1      88.876  90.351 -49.913  1.00  0.00    -0.238 OA
ATOM     28  H3  UNL     1      91.930  91.294 -50.483  1.00  0.00     0.165 HD
BRANCH  26  29
HETATM   29  O2  UNL     1      89.705  91.330 -51.812  1.00  0.00    -0.294 OA
BRANCH  29  30
HETATM   30  C16 UNL     1      89.631  92.714 -52.058  1.00  0.00     0.061 C 
HETATM   31  C17 UNL     1      90.951  93.205 -52.558  1.00  0.00     0.046 C 
HETATM   32  C18 UNL     1      88.693  92.811 -53.300  1.00  0.00     0.046 C 
HETATM   33  C19 UNL     1      89.097  93.540 -50.947  1.00  0.00     0.046 C 
ENDBRANCH  29  30
ENDBRANCH  26  29
ENDBRANCH  24  25
ENDBRANCH  23  24
ENDBRANCH  22  23
ENDBRANCH   3  22
TORSDOF 12
ENDMDL
