MODEL 11
REMARK VINA RESULT: -6.021039653      2.585      3.759
REMARK  12 active torsions:
REMARK  status: ('A' for Active; 'I' for Inactive)
REMARK    1  A    between atoms: C2_2  and  N1_3 
REMARK    2  A    between atoms: N1_3  and  C3_4 
REMARK    3  A    between atoms: N1_3  and  C5_6 
REMARK    4  A    between atoms: N2_9  and  C8_10 
REMARK    5  A    between atoms: C8_10  and  C9_11 
REMARK    6  A    between atoms: C11_13  and  C12_14 
REMARK    7  A    between atoms: C12_14  and  C13_15 
REMARK    8  A    between atoms: C13_15  and  C14_16 
REMARK    9  A    between atoms: C14_16  and  N3_17 
REMARK       I    between atoms: N3_17  and  C15_19 
REMARK   10  A    between atoms: C15_19  and  O2_21 
REMARK   11  A    between atoms: O2_21  and  C16_22 
REMARK   12  A    between atoms: C22_29  and  O3_30 
ROOT
HETATM    1  C9  UNL     1      90.889  95.533 -45.089  1.00  0.00     0.010 A 
HETATM    2  C10 UNL     1      90.950  94.605 -46.079  1.00  0.00     0.036 A 
HETATM    3  C11 UNL     1      91.390  93.297 -45.817  1.00  0.00     0.020 A 
HETATM    4  C20 UNL     1      91.790  92.917 -44.519  1.00  0.00     0.041 A 
HETATM    5  C21 UNL     1      91.738  93.860 -43.520  1.00  0.00     0.041 A 
HETATM    6  I1  UNL     1      92.350  93.272 -41.613  1.00  0.00    -0.042 I 
HETATM    7  C22 UNL     1      91.309  95.084 -43.818  1.00  0.00     0.093 A 
ENDROOT
BRANCH   1   8
HETATM    8  C8  UNL     1      90.125  96.765 -45.081  1.00  0.00     0.073 C 
BRANCH   8   9
HETATM    9  N2  UNL     1      90.346  97.935 -45.755  1.00  0.00    -0.292 NA
HETATM   10  C7  UNL     1      89.532  99.075 -45.915  1.00  0.00     0.097 C 
HETATM   11  C6  UNL     1      90.174 100.407 -45.497  1.00  0.00     0.050 C 
HETATM   12  C5  UNL     1      91.495 100.623 -46.132  1.00  0.00     0.225 C 
HETATM   13  C24 UNL     1      92.315  99.347 -46.014  1.00  0.00     0.050 C 
HETATM   14  C23 UNL     1      91.602  98.466 -45.040  1.00  0.00     0.097 C 
BRANCH  12  15
HETATM   15  N1  UNL     1      92.238 101.743 -45.617  1.00  0.00     0.092 N 
BRANCH  15  16
HETATM   16  C2  UNL     1      91.841 102.117 -44.278  1.00  0.00     0.268 C 
HETATM   17  C1  UNL     1      92.898 102.056 -43.243  1.00  0.00     0.037 C 
ENDBRANCH  15  16
BRANCH  15  18
HETATM   18  C3  UNL     1      92.181 102.942 -46.396  1.00  0.00     0.268 C 
HETATM   19  C4  UNL     1      93.182 102.843 -47.560  1.00  0.00     0.037 C 
ENDBRANCH  15  18
ENDBRANCH  12  15
ENDBRANCH   8   9
ENDBRANCH   1   8
BRANCH   7  20
HETATM   20  O3  UNL     1      91.294  96.007 -42.756  1.00  0.00    -0.358 OA
ATOM     21  H3  UNL     1      91.417  96.926 -42.965  1.00  0.00     0.217 HD
ENDBRANCH   7  20
BRANCH   3  22
HETATM   22  C12 UNL     1      91.376  92.216 -46.769  1.00  0.00    -0.065 C 
BRANCH  22  23
HETATM   23  C13 UNL     1      91.420  91.339 -47.637  1.00  0.00    -0.081 C 
BRANCH  23  24
HETATM   24  C14 UNL     1      91.464  90.321 -48.719  1.00  0.00     0.219 C 
BRANCH  24  25
HETATM   25  N3  UNL     1      91.145  90.896 -50.008  1.00  0.00    -0.327 N 
HETATM   26  C15 UNL     1      89.833  90.854 -50.538  1.00  0.00     0.362 C 
HETATM   27  O1  UNL     1      88.863  90.318 -49.952  1.00  0.00    -0.238 OA
ATOM     28  H3  UNL     1      91.885  91.343 -50.549  1.00  0.00     0.165 HD
BRANCH  26  29
HETATM   29  O2  UNL     1      89.618  91.441 -51.801  1.00  0.00    -0.294 OA
BRANCH  29  30
HETATM   30  C16 UNL     1      89.482  92.836 -51.940  1.00  0.00     0.061 C 
HETATM   31  C17 UNL     1      90.746  93.408 -52.496  1.00  0.00     0.046 C 
HETATM   32  C18 UNL     1      88.453  92.984 -53.101  1.00  0.00     0.046 C 
HETATM   33  C19 UNL     1      89.006  93.561 -50.737  1.00  0.00     0.046 C 
ENDBRANCH  29  30
ENDBRANCH  26  29
ENDBRANCH  24  25
ENDBRANCH  23  24
ENDBRANCH  22  23
ENDBRANCH   3  22
TORSDOF 12
ENDMDL
