MODEL 4
REMARK VINA RESULT: -6.219631248      1.947      2.983
REMARK  12 active torsions:
REMARK  status: ('A' for Active; 'I' for Inactive)
REMARK    1  A    between atoms: C2_2  and  N1_3 
REMARK    2  A    between atoms: N1_3  and  C3_4 
REMARK    3  A    between atoms: N1_3  and  C5_6 
REMARK    4  A    between atoms: N2_9  and  C8_10 
REMARK    5  A    between atoms: C8_10  and  C9_11 
REMARK    6  A    between atoms: C11_13  and  C12_14 
REMARK    7  A    between atoms: C12_14  and  C13_15 
REMARK    8  A    between atoms: C13_15  and  C14_16 
REMARK    9  A    between atoms: C14_16  and  N3_17 
REMARK       I    between atoms: N3_17  and  C15_19 
REMARK   10  A    between atoms: C15_19  and  O2_21 
REMARK   11  A    between atoms: O2_21  and  C16_22 
REMARK   12  A    between atoms: C22_29  and  O3_30 
ROOT
HETATM    1  C9  UNL     1      90.860  95.451 -44.991  1.00  0.00     0.010 A 
HETATM    2  C10 UNL     1      90.897  94.555 -46.011  1.00  0.00     0.036 A 
HETATM    3  C11 UNL     1      91.372  93.249 -45.809  1.00  0.00     0.020 A 
HETATM    4  C20 UNL     1      91.834  92.839 -44.540  1.00  0.00     0.041 A 
HETATM    5  C21 UNL     1      91.807  93.750 -43.512  1.00  0.00     0.041 A 
HETATM    6  I1  UNL     1      92.511  93.118 -41.651  1.00  0.00    -0.042 I 
HETATM    7  C22 UNL     1      91.342  94.973 -43.754  1.00  0.00     0.093 A 
ENDROOT
BRANCH   1   8
HETATM    8  C8  UNL     1      90.074  96.667 -44.913  1.00  0.00     0.073 C 
BRANCH   8   9
HETATM    9  N2  UNL     1      90.478  97.958 -44.702  1.00  0.00    -0.292 NA
HETATM   10  C7  UNL     1      90.534  99.061 -45.577  1.00  0.00     0.097 C 
HETATM   11  C6  UNL     1      89.786 100.317 -45.102  1.00  0.00     0.050 C 
HETATM   12  C5  UNL     1      90.177 100.725 -43.732  1.00  0.00     0.225 C 
HETATM   13  C24 UNL     1      90.187  99.496 -42.835  1.00  0.00     0.050 C 
HETATM   14  C23 UNL     1      89.507  98.404 -43.594  1.00  0.00     0.097 C 
BRANCH  12  15
HETATM   15  N1  UNL     1      89.362 101.759 -43.152  1.00  0.00     0.092 N 
BRANCH  15  16
HETATM   16  C2  UNL     1      89.197 101.613 -41.723  1.00  0.00     0.268 C 
HETATM   17  C1  UNL     1      89.936 102.580 -40.880  1.00  0.00     0.037 C 
ENDBRANCH  15  16
BRANCH  15  18
HETATM   18  C3  UNL     1      88.043 101.891 -43.690  1.00  0.00     0.268 C 
HETATM   19  C4  UNL     1      87.030 101.252 -42.723  1.00  0.00     0.037 C 
ENDBRANCH  15  18
ENDBRANCH  12  15
ENDBRANCH   8   9
ENDBRANCH   1   8
BRANCH   7  20
HETATM   20  O3  UNL     1      91.355  95.863 -42.664  1.00  0.00    -0.358 OA
ATOM     21  H3  UNL     1      92.155  95.930 -42.154  1.00  0.00     0.217 HD
ENDBRANCH   7  20
BRANCH   3  22
HETATM   22  C12 UNL     1      91.338  92.197 -46.792  1.00  0.00    -0.065 C 
BRANCH  22  23
HETATM   23  C13 UNL     1      91.395  91.320 -47.658  1.00  0.00    -0.081 C 
BRANCH  23  24
HETATM   24  C14 UNL     1      91.486  90.297 -48.734  1.00  0.00     0.219 C 
BRANCH  24  25
HETATM   25  N3  UNL     1      91.192  90.861 -50.033  1.00  0.00    -0.327 N 
HETATM   26  C15 UNL     1      89.894  90.797 -50.597  1.00  0.00     0.362 C 
HETATM   27  O1  UNL     1      88.918  90.250 -50.032  1.00  0.00    -0.238 OA
ATOM     28  H3  UNL     1      91.939  91.316 -50.558  1.00  0.00     0.165 HD
BRANCH  26  29
HETATM   29  O2  UNL     1      89.704  91.375 -51.868  1.00  0.00    -0.294 OA
BRANCH  29  30
HETATM   30  C16 UNL     1      89.551  92.767 -52.018  1.00  0.00     0.061 C 
HETATM   31  C17 UNL     1      90.819  93.353 -52.549  1.00  0.00     0.046 C 
HETATM   32  C18 UNL     1      88.546  92.895 -53.202  1.00  0.00     0.046 C 
HETATM   33  C19 UNL     1      89.040  93.492 -50.829  1.00  0.00     0.046 C 
ENDBRANCH  29  30
ENDBRANCH  26  29
ENDBRANCH  24  25
ENDBRANCH  23  24
ENDBRANCH  22  23
ENDBRANCH   3  22
TORSDOF 12
ENDMDL
