MODEL 1
REMARK VINA RESULT: -6.787370316      0.000      0.000
REMARK  10 active torsions:
REMARK  status: ('A' for Active; 'I' for Inactive)
REMARK    1  A    between atoms: C2_2  and  N1_3 
REMARK    2  A    between atoms: N1_3  and  C3_4 
REMARK    3  A    between atoms: N1_3  and  C5_6 
REMARK    4  A    between atoms: N2_9  and  C8_10 
REMARK    5  A    between atoms: C8_10  and  C9_11 
REMARK    6  A    between atoms: C11_13  and  C12_14 
REMARK    7  A    between atoms: C13_15  and  C14_16 
REMARK    8  A    between atoms: C14_16  and  O1_17 
REMARK    9  A    between atoms: O1_17  and  C15_18 
REMARK   10  A    between atoms: C23_27  and  O2_28 
ROOT
HETATM    1  C9  UNL     1      91.034  95.528 -45.094  1.00  0.00     0.006 A 
HETATM    2  C10 UNL     1      91.097  94.553 -46.060  1.00  0.00     0.032 A 
HETATM    3  C11 UNL     1      91.547  93.258 -45.774  1.00  0.00     0.019 A 
HETATM    4  C21 UNL     1      91.921  93.015 -44.471  1.00  0.00     0.041 A 
HETATM    5  C22 UNL     1      91.864  93.978 -43.493  1.00  0.00     0.041 A 
HETATM    6  I1  UNL     1      92.451  93.542 -41.524  1.00  0.00    -0.042 I 
HETATM    7  C23 UNL     1      91.422  95.247 -43.779  1.00  0.00     0.090 A 
ENDROOT
BRANCH   1   8
HETATM    8  C8  UNL     1      90.566  96.900 -45.368  1.00  0.00     0.313 C 
BRANCH   8   9
HETATM    9  N2  UNL     1      89.147  96.971 -45.330  1.00  0.00     0.092 N 
HETATM   10  C7  UNL     1      88.638  97.119 -46.676  1.00  0.00     0.275 C 
HETATM   11  C6  UNL     1      87.146  97.050 -46.652  1.00  0.00     0.066 C 
HETATM   12  C5  UNL     1      86.518  98.053 -45.720  1.00  0.00     0.226 C 
HETATM   13  C25 UNL     1      87.298  98.308 -44.479  1.00  0.00     0.066 C 
HETATM   14  C24 UNL     1      88.798  98.250 -44.669  1.00  0.00     0.275 C 
BRANCH  12  15
HETATM   15  N1  UNL     1      85.158  97.670 -45.396  1.00  0.00     0.092 N 
BRANCH  15  16
HETATM   16  C2  UNL     1      84.850  96.356 -45.899  1.00  0.00     0.268 C 
HETATM   17  C1  UNL     1      83.543  96.403 -46.660  1.00  0.00     0.037 C 
ENDBRANCH  15  16
BRANCH  15  18
HETATM   18  C3  UNL     1      84.977  97.635 -43.956  1.00  0.00     0.268 C 
HETATM   19  C4  UNL     1      83.690  98.317 -43.537  1.00  0.00     0.037 C 
ENDBRANCH  15  18
ENDBRANCH  12  15
ENDBRANCH   8   9
ENDBRANCH   1   8
BRANCH   7  20
HETATM   20  O2  UNL     1      91.353  96.241 -42.816  1.00  0.00    -0.359 OA
ATOM     21  H2  UNL     1      90.797  96.121 -42.055  1.00  0.00     0.217 HD
ENDBRANCH   7  20
BRANCH   3  22
HETATM   22  C12 UNL     1      91.612  92.238 -46.784  1.00  0.00    -0.065 C 
HETATM   23  C13 UNL     1      91.647  91.373 -47.638  1.00  0.00    -0.074 C 
BRANCH  23  24
HETATM   24  C14 UNL     1      91.663  90.335 -48.668  1.00  0.00     0.269 C 
BRANCH  24  25
HETATM   25  O1  UNL     1      91.279  90.870 -49.896  1.00  0.00    -0.340 OA
BRANCH  25  26
HETATM   26  C15 UNL     1      89.986  91.261 -50.155  1.00  0.00     0.070 A 
HETATM   27  C16 UNL     1      89.692  92.592 -50.478  1.00  0.00     0.037 A 
HETATM   28  C17 UNL     1      88.407  92.998 -50.740  1.00  0.00     0.003 A 
HETATM   29  C18 UNL     1      87.383  92.078 -50.685  1.00  0.00     0.000 A 
HETATM   30  C19 UNL     1      87.672  90.783 -50.371  1.00  0.00     0.003 A 
HETATM   31  C20 UNL     1      88.973  90.340 -50.099  1.00  0.00     0.037 A 
ENDBRANCH  25  26
ENDBRANCH  24  25
ENDBRANCH  23  24
ENDBRANCH   3  22
TORSDOF 10
ENDMDL
