MODEL 2
REMARK VINA RESULT: -6.719092003      1.724      2.408
REMARK  10 active torsions:
REMARK  status: ('A' for Active; 'I' for Inactive)
REMARK    1  A    between atoms: C2_2  and  N1_3 
REMARK    2  A    between atoms: N1_3  and  C3_4 
REMARK    3  A    between atoms: N1_3  and  C5_6 
REMARK    4  A    between atoms: N2_9  and  C8_10 
REMARK    5  A    between atoms: C8_10  and  C9_11 
REMARK    6  A    between atoms: C11_13  and  C12_14 
REMARK    7  A    between atoms: C13_15  and  C14_16 
REMARK    8  A    between atoms: C14_16  and  O1_17 
REMARK    9  A    between atoms: O1_17  and  C15_18 
REMARK   10  A    between atoms: C23_27  and  O2_28 
ROOT
HETATM    1  C9  UNL     1      91.071  95.386 -45.179  1.00  0.00     0.006 A 
HETATM    2  C10 UNL     1      91.076  94.423 -46.159  1.00  0.00     0.032 A 
HETATM    3  C11 UNL     1      91.496  93.112 -45.904  1.00  0.00     0.019 A 
HETATM    4  C21 UNL     1      91.902  92.840 -44.616  1.00  0.00     0.041 A 
HETATM    5  C22 UNL     1      91.903  93.791 -43.624  1.00  0.00     0.041 A 
HETATM    6  I1  UNL     1      92.536  93.311 -41.680  1.00  0.00    -0.042 I 
HETATM    7  C23 UNL     1      91.490  95.076 -43.881  1.00  0.00     0.090 A 
ENDROOT
BRANCH   1   8
HETATM    8  C8  UNL     1      90.635  96.774 -45.422  1.00  0.00     0.313 C 
BRANCH   8   9
HETATM    9  N2  UNL     1      89.219  96.881 -45.365  1.00  0.00     0.092 N 
HETATM   10  C7  UNL     1      88.699  97.079 -46.700  1.00  0.00     0.275 C 
HETATM   11  C6  UNL     1      87.207  97.047 -46.661  1.00  0.00     0.066 C 
HETATM   12  C5  UNL     1      86.615  98.041 -45.695  1.00  0.00     0.226 C 
HETATM   13  C25 UNL     1      87.415  98.242 -44.456  1.00  0.00     0.066 C 
HETATM   14  C24 UNL     1      88.911  98.150 -44.665  1.00  0.00     0.275 C 
BRANCH  12  15
HETATM   15  N1  UNL     1      85.249  97.684 -45.365  1.00  0.00     0.092 N 
BRANCH  15  16
HETATM   16  C2  UNL     1      84.925  96.362 -45.837  1.00  0.00     0.268 C 
HETATM   17  C1  UNL     1      83.565  96.385 -46.500  1.00  0.00     0.037 C 
ENDBRANCH  15  16
BRANCH  15  18
HETATM   18  C3  UNL     1      85.064  97.687 -43.925  1.00  0.00     0.268 C 
HETATM   19  C4  UNL     1      83.751  98.333 -43.532  1.00  0.00     0.037 C 
ENDBRANCH  15  18
ENDBRANCH  12  15
ENDBRANCH   8   9
ENDBRANCH   1   8
BRANCH   7  20
HETATM   20  O2  UNL     1      91.479  96.058 -42.903  1.00  0.00    -0.359 OA
ATOM     21  H2  UNL     1      92.045  95.974 -42.145  1.00  0.00     0.217 HD
ENDBRANCH   7  20
BRANCH   3  22
HETATM   22  C12 UNL     1      91.501  92.104 -46.927  1.00  0.00    -0.065 C 
HETATM   23  C13 UNL     1      91.486  91.244 -47.788  1.00  0.00    -0.074 C 
BRANCH  23  24
HETATM   24  C14 UNL     1      91.444  90.207 -48.818  1.00  0.00     0.269 C 
BRANCH  24  25
HETATM   25  O1  UNL     1      90.132  89.777 -49.013  1.00  0.00    -0.340 OA
BRANCH  25  26
HETATM   26  C15 UNL     1      89.740  88.481 -48.770  1.00  0.00     0.070 A 
HETATM   27  C16 UNL     1      90.547  87.404 -49.158  1.00  0.00     0.037 A 
HETATM   28  C17 UNL     1      90.170  86.105 -48.921  1.00  0.00     0.003 A 
HETATM   29  C18 UNL     1      88.973  85.854 -48.287  1.00  0.00     0.000 A 
HETATM   30  C19 UNL     1      88.190  86.904 -47.910  1.00  0.00     0.003 A 
HETATM   31  C20 UNL     1      88.548  88.239 -48.138  1.00  0.00     0.037 A 
ENDBRANCH  25  26
ENDBRANCH  24  25
ENDBRANCH  23  24
ENDBRANCH   3  22
TORSDOF 10
ENDMDL
