MODEL 6
REMARK VINA RESULT: -6.259051922      1.156      1.772
REMARK  10 active torsions:
REMARK  status: ('A' for Active; 'I' for Inactive)
REMARK    1  A    between atoms: C2_2  and  N1_3 
REMARK    2  A    between atoms: N1_3  and  C3_4 
REMARK    3  A    between atoms: N1_3  and  C5_6 
REMARK    4  A    between atoms: N2_9  and  C8_10 
REMARK    5  A    between atoms: C8_10  and  C9_11 
REMARK    6  A    between atoms: C11_13  and  C12_14 
REMARK    7  A    between atoms: C13_15  and  C14_16 
REMARK    8  A    between atoms: C14_16  and  O1_17 
REMARK    9  A    between atoms: O1_17  and  C15_18 
REMARK   10  A    between atoms: C23_27  and  O2_28 
ROOT
HETATM    1  C9  UNL     1      90.851  95.548 -45.101  1.00  0.00     0.006 A 
HETATM    2  C10 UNL     1      90.919  94.564 -46.058  1.00  0.00     0.032 A 
HETATM    3  C11 UNL     1      91.458  93.302 -45.783  1.00  0.00     0.019 A 
HETATM    4  C21 UNL     1      91.916  93.099 -44.500  1.00  0.00     0.041 A 
HETATM    5  C22 UNL     1      91.856  94.071 -43.531  1.00  0.00     0.041 A 
HETATM    6  I1  UNL     1      92.572  93.697 -41.592  1.00  0.00    -0.042 I 
HETATM    7  C23 UNL     1      91.326  95.308 -43.806  1.00  0.00     0.090 A 
ENDROOT
BRANCH   1   8
HETATM    8  C8  UNL     1      90.290  96.885 -45.365  1.00  0.00     0.313 C 
BRANCH   8   9
HETATM    9  N2  UNL     1      89.088  96.794 -46.118  1.00  0.00     0.092 N 
HETATM   10  C7  UNL     1      89.127  97.753 -47.201  1.00  0.00     0.275 C 
HETATM   11  C6  UNL     1      87.933  97.560 -48.076  1.00  0.00     0.066 C 
HETATM   12  C5  UNL     1      86.626  97.638 -47.329  1.00  0.00     0.226 C 
HETATM   13  C25 UNL     1      86.673  97.072 -45.953  1.00  0.00     0.066 C 
HETATM   14  C24 UNL     1      87.994  97.280 -45.245  1.00  0.00     0.275 C 
BRANCH  12  15
HETATM   15  N1  UNL     1      85.560  97.024 -48.095  1.00  0.00     0.092 N 
BRANCH  15  16
HETATM   16  C2  UNL     1      86.079  96.079 -49.050  1.00  0.00     0.268 C 
HETATM   17  C1  UNL     1      85.504  94.709 -48.765  1.00  0.00     0.037 C 
ENDBRANCH  15  16
BRANCH  15  18
HETATM   18  C3  UNL     1      84.663  96.300 -47.213  1.00  0.00     0.268 C 
HETATM   19  C4  UNL     1      83.300  96.959 -47.138  1.00  0.00     0.037 C 
ENDBRANCH  15  18
ENDBRANCH  12  15
ENDBRANCH   8   9
ENDBRANCH   1   8
BRANCH   7  20
HETATM   20  O2  UNL     1      91.250  96.310 -42.852  1.00  0.00    -0.359 OA
ATOM     21  H2  UNL     1      90.903  96.114 -41.990  1.00  0.00     0.217 HD
ENDBRANCH   7  20
BRANCH   3  22
HETATM   22  C12 UNL     1      91.529  92.273 -46.783  1.00  0.00    -0.065 C 
HETATM   23  C13 UNL     1      91.601  91.414 -47.642  1.00  0.00    -0.074 C 
BRANCH  23  24
HETATM   24  C14 UNL     1      91.705  90.395 -48.686  1.00  0.00     0.269 C 
BRANCH  24  25
HETATM   25  O1  UNL     1      91.296  90.918 -49.911  1.00  0.00    -0.340 OA
BRANCH  25  26
HETATM   26  C15 UNL     1      89.991  91.277 -50.158  1.00  0.00     0.070 A 
HETATM   27  C16 UNL     1      88.957  90.339 -50.046  1.00  0.00     0.037 A 
HETATM   28  C17 UNL     1      87.650  90.681 -50.288  1.00  0.00     0.003 A 
HETATM   29  C18 UNL     1      87.347  91.976 -50.649  1.00  0.00     0.000 A 
HETATM   30  C19 UNL     1      88.354  92.887 -50.757  1.00  0.00     0.003 A 
HETATM   31  C20 UNL     1      89.697  92.567 -50.515  1.00  0.00     0.037 A 
ENDBRANCH  25  26
ENDBRANCH  24  25
ENDBRANCH  23  24
ENDBRANCH   3  22
TORSDOF 10
ENDMDL
