MODEL 8
REMARK VINA RESULT: -5.996721795      2.836      4.641
REMARK  10 active torsions:
REMARK  status: ('A' for Active; 'I' for Inactive)
REMARK    1  A    between atoms: C2_2  and  N1_3 
REMARK    2  A    between atoms: N1_3  and  C3_4 
REMARK    3  A    between atoms: N1_3  and  C5_6 
REMARK    4  A    between atoms: N2_9  and  C8_10 
REMARK    5  A    between atoms: C8_10  and  C9_11 
REMARK    6  A    between atoms: C11_13  and  C12_14 
REMARK    7  A    between atoms: C13_15  and  C14_16 
REMARK    8  A    between atoms: C14_16  and  O1_17 
REMARK    9  A    between atoms: O1_17  and  C15_18 
REMARK   10  A    between atoms: C23_27  and  O2_28 
ROOT
HETATM    1  C9  UNL     1      90.877  95.515 -45.070  1.00  0.00     0.006 A 
HETATM    2  C10 UNL     1      90.989  94.532 -46.023  1.00  0.00     0.032 A 
HETATM    3  C11 UNL     1      91.547  93.281 -45.732  1.00  0.00     0.019 A 
HETATM    4  C21 UNL     1      91.976  93.091 -44.437  1.00  0.00     0.041 A 
HETATM    5  C22 UNL     1      91.872  94.063 -43.472  1.00  0.00     0.041 A 
HETATM    6  I1  UNL     1      92.546  93.707 -41.515  1.00  0.00    -0.042 I 
HETATM    7  C23 UNL     1      91.323  95.288 -43.763  1.00  0.00     0.090 A 
ENDROOT
BRANCH   1   8
HETATM    8  C8  UNL     1      90.295  96.841 -45.351  1.00  0.00     0.313 C 
BRANCH   8   9
HETATM    9  N2  UNL     1      90.905  97.845 -44.552  1.00  0.00     0.092 N 
HETATM   10  C7  UNL     1      89.948  98.897 -44.289  1.00  0.00     0.275 C 
HETATM   11  C6  UNL     1      90.539  99.880 -43.334  1.00  0.00     0.066 C 
HETATM   12  C5  UNL     1      91.855 100.448 -43.800  1.00  0.00     0.226 C 
HETATM   13  C25 UNL     1      92.710  99.480 -44.541  1.00  0.00     0.066 C 
HETATM   14  C24 UNL     1      91.936  98.497 -45.391  1.00  0.00     0.275 C 
BRANCH  12  15
HETATM   15  N1  UNL     1      92.586 101.026 -42.691  1.00  0.00     0.092 N 
BRANCH  15  16
HETATM   16  C2  UNL     1      93.204 102.273 -43.065  1.00  0.00     0.268 C 
HETATM   17  C1  UNL     1      92.203 103.124 -43.816  1.00  0.00     0.037 C 
ENDBRANCH  15  16
BRANCH  15  18
HETATM   18  C3  UNL     1      91.686 101.304 -41.587  1.00  0.00     0.268 C 
HETATM   19  C4  UNL     1      92.393 101.204 -40.250  1.00  0.00     0.037 C 
ENDBRANCH  15  18
ENDBRANCH  12  15
ENDBRANCH   8   9
ENDBRANCH   1   8
BRANCH   7  20
HETATM   20  O2  UNL     1      91.203  96.290 -42.814  1.00  0.00    -0.359 OA
ATOM     21  H2  UNL     1      90.386  96.393 -42.339  1.00  0.00     0.217 HD
ENDBRANCH   7  20
BRANCH   3  22
HETATM   22  C12 UNL     1      91.665  92.253 -46.728  1.00  0.00    -0.065 C 
HETATM   23  C13 UNL     1      91.743  91.379 -47.570  1.00  0.00    -0.074 C 
BRANCH  23  24
HETATM   24  C14 UNL     1      91.812  90.328 -48.586  1.00  0.00     0.269 C 
BRANCH  24  25
HETATM   25  O1  UNL     1      90.560  89.740 -48.754  1.00  0.00    -0.340 OA
BRANCH  25  26
HETATM   26  C15 UNL     1      89.812  89.917 -49.895  1.00  0.00     0.070 A 
HETATM   27  C16 UNL     1      89.076  88.857 -50.440  1.00  0.00     0.037 A 
HETATM   28  C17 UNL     1      88.323  89.017 -51.577  1.00  0.00     0.003 A 
HETATM   29  C18 UNL     1      88.289  90.248 -52.196  1.00  0.00     0.000 A 
HETATM   30  C19 UNL     1      89.005  91.278 -51.663  1.00  0.00     0.003 A 
HETATM   31  C20 UNL     1      89.782  91.144 -50.505  1.00  0.00     0.037 A 
ENDBRANCH  25  26
ENDBRANCH  24  25
ENDBRANCH  23  24
ENDBRANCH   3  22
TORSDOF 10
ENDMDL
