MODEL 1
REMARK VINA RESULT: -6.608591034      0.000      0.000
REMARK  10 active torsions:
REMARK  status: ('A' for Active; 'I' for Inactive)
REMARK    1  A    between atoms: C2_2  and  N1_3 
REMARK    2  A    between atoms: N1_3  and  C3_4 
REMARK    3  A    between atoms: N1_3  and  C5_6 
REMARK    4  A    between atoms: N2_9  and  C8_10 
REMARK    5  A    between atoms: C8_10  and  C9_11 
REMARK    6  A    between atoms: C11_13  and  C12_14 
REMARK    7  A    between atoms: C13_15  and  C14_16 
REMARK    8  A    between atoms: C14_16  and  N3_17 
REMARK    9  A    between atoms: N3_17  and  C15_19 
REMARK   10  A    between atoms: C23_28  and  O1_29 
ROOT
HETATM    1  C9  UNL     1      90.800  95.569 -44.740  1.00  0.00     0.006 A 
HETATM    2  C10 UNL     1      90.860  94.683 -45.783  1.00  0.00     0.032 A 
HETATM    3  C11 UNL     1      91.425  93.421 -45.672  1.00  0.00     0.019 A 
HETATM    4  C21 UNL     1      91.938  93.078 -44.438  1.00  0.00     0.041 A 
HETATM    5  C22 UNL     1      91.896  93.942 -43.360  1.00  0.00     0.041 A 
HETATM    6  I1  UNL     1      92.691  93.385 -41.485  1.00  0.00    -0.042 I 
HETATM    7  C23 UNL     1      91.327  95.190 -43.508  1.00  0.00     0.090 A 
ENDROOT
BRANCH   1   8
HETATM    8  C8  UNL     1      90.212  96.917 -44.804  1.00  0.00     0.313 C 
BRANCH   8   9
HETATM    9  N2  UNL     1      90.857  97.838 -45.697  1.00  0.00     0.092 N 
HETATM   10  C7  UNL     1      92.126  98.266 -45.189  1.00  0.00     0.275 C 
HETATM   11  C6  UNL     1      91.968  99.098 -43.947  1.00  0.00     0.066 C 
HETATM   12  C5  UNL     1      90.883 100.086 -44.129  1.00  0.00     0.226 C 
HETATM   13  C25 UNL     1      90.530 100.212 -45.570  1.00  0.00     0.066 C 
HETATM   14  C24 UNL     1      89.925  98.889 -45.993  1.00  0.00     0.275 C 
BRANCH  12  15
HETATM   15  N1  UNL     1      91.125 101.363 -43.484  1.00  0.00     0.092 N 
BRANCH  15  16
HETATM   16  C2  UNL     1      90.605 101.394 -42.158  1.00  0.00     0.268 C 
HETATM   17  C1  UNL     1      89.151 101.016 -42.037  1.00  0.00     0.037 C 
ENDBRANCH  15  16
BRANCH  15  18
HETATM   18  C3  UNL     1      92.486 101.815 -43.580  1.00  0.00     0.268 C 
HETATM   19  C4  UNL     1      92.870 102.427 -42.225  1.00  0.00     0.037 C 
ENDBRANCH  15  18
ENDBRANCH  12  15
ENDBRANCH   8   9
ENDBRANCH   1   8
BRANCH   7  20
HETATM   20  O1  UNL     1      91.303  96.031 -42.401  1.00  0.00    -0.359 OA
ATOM     21  H1  UNL     1      91.417  95.707 -41.515  1.00  0.00     0.217 HD
ENDBRANCH   7  20
BRANCH   3  22
HETATM   22  C12 UNL     1      91.479  92.507 -46.780  1.00  0.00    -0.065 C 
HETATM   23  C13 UNL     1      91.522  91.737 -47.711  1.00  0.00    -0.082 C 
BRANCH  23  24
HETATM   24  C14 UNL     1      91.566  90.791 -48.826  1.00  0.00     0.214 C 
BRANCH  24  25
HETATM   25  N3  UNL     1      91.152  91.396 -50.069  1.00  0.00    -0.380 N 
ATOM     26  H3  UNL     1      91.833  91.576 -50.806  1.00  0.00     0.160 HD
BRANCH  25  27
HETATM   27  C15 UNL     1      89.798  91.734 -50.255  1.00  0.00     0.028 A 
HETATM   28  C16 UNL     1      89.418  93.026 -50.517  1.00  0.00     0.029 A 
HETATM   29  C17 UNL     1      88.067  93.355 -50.701  1.00  0.00     0.002 A 
HETATM   30  C18 UNL     1      87.101  92.366 -50.616  1.00  0.00     0.000 A 
HETATM   31  C19 UNL     1      87.477  91.076 -50.354  1.00  0.00     0.002 A 
HETATM   32  C20 UNL     1      88.821  90.772 -50.176  1.00  0.00     0.029 A 
ENDBRANCH  25  27
ENDBRANCH  24  25
ENDBRANCH  23  24
ENDBRANCH   3  22
TORSDOF 10
ENDMDL
