MODEL 2
REMARK VINA RESULT: -6.606178112      1.301      1.757
REMARK  10 active torsions:
REMARK  status: ('A' for Active; 'I' for Inactive)
REMARK    1  A    between atoms: C2_2  and  N1_3 
REMARK    2  A    between atoms: N1_3  and  C3_4 
REMARK    3  A    between atoms: N1_3  and  C5_6 
REMARK    4  A    between atoms: N2_9  and  C8_10 
REMARK    5  A    between atoms: C8_10  and  C9_11 
REMARK    6  A    between atoms: C11_13  and  C12_14 
REMARK    7  A    between atoms: C13_15  and  C14_16 
REMARK    8  A    between atoms: C14_16  and  N3_17 
REMARK    9  A    between atoms: N3_17  and  C15_19 
REMARK   10  A    between atoms: C23_28  and  O1_29 
ROOT
HETATM    1  C9  UNL     1      90.873  95.603 -44.567  1.00  0.00     0.006 A 
HETATM    2  C10 UNL     1      90.882  94.754 -45.643  1.00  0.00     0.032 A 
HETATM    3  C11 UNL     1      91.389  93.465 -45.583  1.00  0.00     0.019 A 
HETATM    4  C21 UNL     1      91.898  93.054 -44.369  1.00  0.00     0.041 A 
HETATM    5  C22 UNL     1      91.907  93.879 -43.260  1.00  0.00     0.041 A 
HETATM    6  I1  UNL     1      92.695  93.218 -41.416  1.00  0.00    -0.042 I 
HETATM    7  C23 UNL     1      91.394  95.156 -43.356  1.00  0.00     0.090 A 
ENDROOT
BRANCH   1   8
HETATM    8  C8  UNL     1      90.346  96.978 -44.576  1.00  0.00     0.313 C 
BRANCH   8   9
HETATM    9  N2  UNL     1      90.897  97.851 -45.574  1.00  0.00     0.092 N 
HETATM   10  C7  UNL     1      92.202  98.315 -45.210  1.00  0.00     0.275 C 
HETATM   11  C6  UNL     1      92.148  99.216 -44.007  1.00  0.00     0.066 C 
HETATM   12  C5  UNL     1      91.039 100.185 -44.143  1.00  0.00     0.226 C 
HETATM   13  C25 UNL     1      90.555 100.227 -45.551  1.00  0.00     0.066 C 
HETATM   14  C24 UNL     1      89.929  98.878 -45.841  1.00  0.00     0.275 C 
BRANCH  12  15
HETATM   15  N1  UNL     1      91.324 101.498 -43.595  1.00  0.00     0.092 N 
BRANCH  15  16
HETATM   16  C2  UNL     1      91.080 101.551 -42.192  1.00  0.00     0.268 C 
HETATM   17  C1  UNL     1      89.641 101.357 -41.791  1.00  0.00     0.037 C 
ENDBRANCH  15  16
BRANCH  15  18
HETATM   18  C3  UNL     1      92.607 102.022 -43.977  1.00  0.00     0.268 C 
HETATM   19  C4  UNL     1      93.304 102.521 -42.703  1.00  0.00     0.037 C 
ENDBRANCH  15  18
ENDBRANCH  12  15
ENDBRANCH   8   9
ENDBRANCH   1   8
BRANCH   7  20
HETATM   20  O1  UNL     1      91.420  95.956 -42.219  1.00  0.00    -0.359 OA
ATOM     21  H1  UNL     1      92.111  96.589 -42.060  1.00  0.00     0.217 HD
ENDBRANCH   7  20
BRANCH   3  22
HETATM   22  C12 UNL     1      91.390  92.591 -46.725  1.00  0.00    -0.065 C 
HETATM   23  C13 UNL     1      91.387  91.856 -47.684  1.00  0.00    -0.082 C 
BRANCH  23  24
HETATM   24  C14 UNL     1      91.368  90.958 -48.839  1.00  0.00     0.214 C 
BRANCH  24  25
HETATM   25  N3  UNL     1      90.647  89.739 -48.569  1.00  0.00    -0.380 N 
ATOM     26  H3  UNL     1      90.680  89.316 -47.641  1.00  0.00     0.160 HD
BRANCH  25  27
HETATM   27  C15 UNL     1      89.896  89.138 -49.597  1.00  0.00     0.028 A 
HETATM   28  C16 UNL     1      89.227  89.895 -50.524  1.00  0.00     0.029 A 
HETATM   29  C17 UNL     1      88.481  89.289 -51.545  1.00  0.00     0.002 A 
HETATM   30  C18 UNL     1      88.417  87.908 -51.621  1.00  0.00     0.000 A 
HETATM   31  C19 UNL     1      89.083  87.149 -50.698  1.00  0.00     0.002 A 
HETATM   32  C20 UNL     1      89.816  87.771 -49.694  1.00  0.00     0.029 A 
ENDBRANCH  25  27
ENDBRANCH  24  25
ENDBRANCH  23  24
ENDBRANCH   3  22
TORSDOF 10
ENDMDL
