MODEL 17
REMARK VINA RESULT: -5.624603587      4.274      6.861
REMARK  10 active torsions:
REMARK  status: ('A' for Active; 'I' for Inactive)
REMARK    1  A    between atoms: C2_2  and  N1_3 
REMARK    2  A    between atoms: N1_3  and  C3_4 
REMARK    3  A    between atoms: N1_3  and  C5_6 
REMARK    4  A    between atoms: N2_9  and  C8_10 
REMARK    5  A    between atoms: C8_10  and  C9_11 
REMARK    6  A    between atoms: C11_13  and  C12_14 
REMARK    7  A    between atoms: C13_15  and  C14_16 
REMARK    8  A    between atoms: C14_16  and  N3_17 
REMARK    9  A    between atoms: N3_17  and  C15_19 
REMARK   10  A    between atoms: C23_28  and  O1_29 
ROOT
HETATM    1  C9  UNL     1      89.665 100.383 -42.479  1.00  0.00     0.006 A 
HETATM    2  C10 UNL     1      90.260  99.306 -43.080  1.00  0.00     0.032 A 
HETATM    3  C11 UNL     1      89.579  98.436 -43.918  1.00  0.00     0.019 A 
HETATM    4  C21 UNL     1      88.243  98.701 -44.133  1.00  0.00     0.041 A 
HETATM    5  C22 UNL     1      87.604  99.778 -43.546  1.00  0.00     0.041 A 
HETATM    6  I1  UNL     1      85.556 100.154 -43.897  1.00  0.00    -0.042 I 
HETATM    7  C23 UNL     1      88.314 100.622 -42.717  1.00  0.00     0.090 A 
ENDROOT
BRANCH   1   8
HETATM    8  C8  UNL     1      90.341 101.336 -41.583  1.00  0.00     0.313 C 
BRANCH   8   9
HETATM    9  N2  UNL     1      91.773 101.248 -41.546  1.00  0.00     0.092 N 
HETATM   10  C7  UNL     1      92.268 101.222 -40.202  1.00  0.00     0.275 C 
HETATM   11  C6  UNL     1      92.020 102.528 -39.500  1.00  0.00     0.066 C 
HETATM   12  C5  UNL     1      92.371 103.659 -40.386  1.00  0.00     0.226 C 
HETATM   13  C25 UNL     1      93.192 103.185 -41.535  1.00  0.00     0.066 C 
HETATM   14  C24 UNL     1      92.300 102.296 -42.376  1.00  0.00     0.275 C 
BRANCH  12  15
HETATM   15  N1  UNL     1      92.952 104.797 -39.699  1.00  0.00     0.092 N 
BRANCH  15  16
HETATM   16  C2  UNL     1      93.547 104.421 -38.459  1.00  0.00     0.268 C 
HETATM   17  C1  UNL     1      95.012 104.746 -38.335  1.00  0.00     0.037 C 
ENDBRANCH  15  16
BRANCH  15  18
HETATM   18  C3  UNL     1      93.806 105.604 -40.526  1.00  0.00     0.268 C 
HETATM   19  C4  UNL     1      93.066 106.918 -40.819  1.00  0.00     0.037 C 
ENDBRANCH  15  18
ENDBRANCH  12  15
ENDBRANCH   8   9
ENDBRANCH   1   8
BRANCH   7  20
HETATM   20  O1  UNL     1      87.638 101.695 -42.146  1.00  0.00    -0.359 OA
ATOM     21  H1  UNL     1      86.921 101.574 -41.533  1.00  0.00     0.217 HD
ENDBRANCH   7  20
BRANCH   3  22
HETATM   22  C12 UNL     1      90.223  97.310 -44.538  1.00  0.00    -0.065 C 
HETATM   23  C13 UNL     1      90.761  96.361 -45.059  1.00  0.00    -0.082 C 
BRANCH  23  24
HETATM   24  C14 UNL     1      91.404  95.201 -45.676  1.00  0.00     0.214 C 
BRANCH  24  25
HETATM   25  N3  UNL     1      91.198  93.994 -44.913  1.00  0.00    -0.380 N 
ATOM     26  H3  UNL     1      90.577  93.265 -45.261  1.00  0.00     0.160 HD
BRANCH  25  27
HETATM   27  C15 UNL     1      91.864  93.834 -43.682  1.00  0.00     0.028 A 
HETATM   28  C16 UNL     1      93.120  93.288 -43.620  1.00  0.00     0.029 A 
HETATM   29  C17 UNL     1      93.777  93.131 -42.390  1.00  0.00     0.002 A 
HETATM   30  C18 UNL     1      93.149  93.531 -41.222  1.00  0.00     0.000 A 
HETATM   31  C19 UNL     1      91.895  94.075 -41.280  1.00  0.00     0.002 A 
HETATM   32  C20 UNL     1      91.264  94.221 -42.510  1.00  0.00     0.029 A 
ENDBRANCH  25  27
ENDBRANCH  24  25
ENDBRANCH  23  24
ENDBRANCH   3  22
TORSDOF 10
ENDMDL
