MODEL 14
REMARK VINA RESULT: -5.832043395      4.509      7.056
REMARK  10 active torsions:
REMARK  status: ('A' for Active; 'I' for Inactive)
REMARK    1  A    between atoms: C2_2  and  N1_3 
REMARK    2  A    between atoms: N1_3  and  C3_4 
REMARK    3  A    between atoms: N1_3  and  C5_6 
REMARK    4  A    between atoms: N2_9  and  C8_10 
REMARK    5  A    between atoms: C8_10  and  C9_11 
REMARK    6  A    between atoms: C11_13  and  C12_14 
REMARK    7  A    between atoms: C13_15  and  C14_16 
REMARK    8  A    between atoms: C14_16  and  N3_17 
REMARK    9  A    between atoms: N3_17  and  C15_19 
REMARK   10  A    between atoms: C23_28  and  O1_29 
ROOT
HETATM    1  C9  UNL     1      89.208 100.621 -42.282  1.00  0.00     0.006 A 
HETATM    2  C10 UNL     1      89.900  99.597 -42.872  1.00  0.00     0.032 A 
HETATM    3  C11 UNL     1      89.324  98.721 -43.780  1.00  0.00     0.019 A 
HETATM    4  C21 UNL     1      87.992  98.922 -44.077  1.00  0.00     0.041 A 
HETATM    5  C22 UNL     1      87.259  99.944 -43.504  1.00  0.00     0.041 A 
HETATM    6  I1  UNL     1      85.221 100.224 -43.980  1.00  0.00    -0.042 I 
HETATM    7  C23 UNL     1      87.865 100.797 -42.604  1.00  0.00     0.090 A 
ENDROOT
BRANCH   1   8
HETATM    8  C8  UNL     1      89.771 101.579 -41.315  1.00  0.00     0.313 C 
BRANCH   8   9
HETATM    9  N2  UNL     1      90.855 102.387 -41.797  1.00  0.00     0.092 N 
HETATM   10  C7  UNL     1      92.120 101.923 -41.311  1.00  0.00     0.275 C 
HETATM   11  C6  UNL     1      92.236 102.106 -39.823  1.00  0.00     0.066 C 
HETATM   12  C5  UNL     1      91.751 103.447 -39.433  1.00  0.00     0.226 C 
HETATM   13  C25 UNL     1      91.644 104.330 -40.628  1.00  0.00     0.066 C 
HETATM   14  C24 UNL     1      90.546 103.759 -41.501  1.00  0.00     0.275 C 
BRANCH  12  15
HETATM   15  N1  UNL     1      92.485 104.051 -38.338  1.00  0.00     0.092 N 
BRANCH  15  16
HETATM   16  C2  UNL     1      91.651 104.289 -37.207  1.00  0.00     0.268 C 
HETATM   17  C1  UNL     1      90.214 103.867 -37.379  1.00  0.00     0.037 C 
ENDBRANCH  15  16
BRANCH  15  18
HETATM   18  C3  UNL     1      93.712 103.375 -38.016  1.00  0.00     0.268 C 
HETATM   19  C4  UNL     1      93.798 103.267 -36.486  1.00  0.00     0.037 C 
ENDBRANCH  15  18
ENDBRANCH  12  15
ENDBRANCH   8   9
ENDBRANCH   1   8
BRANCH   7  20
HETATM   20  O1  UNL     1      87.095 101.813 -42.049  1.00  0.00    -0.359 OA
ATOM     21  H1  UNL     1      86.232 102.034 -42.379  1.00  0.00     0.217 HD
ENDBRANCH   7  20
BRANCH   3  22
HETATM   22  C12 UNL     1      90.068  97.651 -44.387  1.00  0.00    -0.065 C 
HETATM   23  C13 UNL     1      90.690  96.749 -44.898  1.00  0.00    -0.082 C 
BRANCH  23  24
HETATM   24  C14 UNL     1      91.432  95.645 -45.507  1.00  0.00     0.214 C 
BRANCH  24  25
HETATM   25  N3  UNL     1      91.152  94.383 -44.867  1.00  0.00    -0.380 N 
ATOM     26  H3  UNL     1      90.508  93.719 -45.296  1.00  0.00     0.160 HD
BRANCH  25  27
HETATM   27  C15 UNL     1      91.777  94.075 -43.643  1.00  0.00     0.028 A 
HETATM   28  C16 UNL     1      91.197  94.409 -42.446  1.00  0.00     0.029 A 
HETATM   29  C17 UNL     1      91.826  94.099 -41.231  1.00  0.00     0.002 A 
HETATM   30  C18 UNL     1      93.049  93.448 -41.237  1.00  0.00     0.000 A 
HETATM   31  C19 UNL     1      93.630  93.115 -42.430  1.00  0.00     0.002 A 
HETATM   32  C20 UNL     1      92.989  93.431 -43.622  1.00  0.00     0.029 A 
ENDBRANCH  25  27
ENDBRANCH  24  25
ENDBRANCH  23  24
ENDBRANCH   3  22
TORSDOF 10
ENDMDL
