MODEL 3
REMARK VINA RESULT: -6.504323797      1.365      2.321
REMARK  10 active torsions:
REMARK  status: ('A' for Active; 'I' for Inactive)
REMARK    1  A    between atoms: C2_2  and  N1_3 
REMARK    2  A    between atoms: N1_3  and  C3_4 
REMARK    3  A    between atoms: N1_3  and  C5_6 
REMARK    4  A    between atoms: N2_9  and  C8_10 
REMARK    5  A    between atoms: C8_10  and  C9_11 
REMARK    6  A    between atoms: C11_13  and  C12_14 
REMARK    7  A    between atoms: C13_15  and  C14_16 
REMARK    8  A    between atoms: C14_16  and  N3_17 
REMARK    9  A    between atoms: N3_17  and  C15_19 
REMARK   10  A    between atoms: C23_28  and  O1_29 
ROOT
HETATM    1  C9  UNL     1      90.843  95.595 -44.577  1.00  0.00     0.006 A 
HETATM    2  C10 UNL     1      90.862  94.730 -45.639  1.00  0.00     0.032 A 
HETATM    3  C11 UNL     1      91.393  93.451 -45.562  1.00  0.00     0.019 A 
HETATM    4  C21 UNL     1      91.917  93.069 -44.345  1.00  0.00     0.041 A 
HETATM    5  C22 UNL     1      91.916  93.912 -43.249  1.00  0.00     0.041 A 
HETATM    6  I1  UNL     1      92.727  93.295 -41.399  1.00  0.00    -0.042 I 
HETATM    7  C23 UNL     1      91.379  95.178 -43.362  1.00  0.00     0.090 A 
ENDROOT
BRANCH   1   8
HETATM    8  C8  UNL     1      90.291  96.960 -44.605  1.00  0.00     0.313 C 
BRANCH   8   9
HETATM    9  N2  UNL     1      90.900  97.861 -45.542  1.00  0.00     0.092 N 
HETATM   10  C7  UNL     1      92.159  98.349 -45.066  1.00  0.00     0.275 C 
HETATM   11  C6  UNL     1      91.986  99.229 -43.859  1.00  0.00     0.066 C 
HETATM   12  C5  UNL     1      90.869 100.174 -44.071  1.00  0.00     0.226 C 
HETATM   13  C25 UNL     1      90.501 100.228 -45.514  1.00  0.00     0.066 C 
HETATM   14  C24 UNL     1      89.933  98.870 -45.873  1.00  0.00     0.275 C 
BRANCH  12  15
HETATM   15  N1  UNL     1      91.077 101.484 -43.484  1.00  0.00     0.092 N 
BRANCH  15  16
HETATM   16  C2  UNL     1      92.039 102.245 -44.211  1.00  0.00     0.268 C 
HETATM   17  C1  UNL     1      93.123 102.866 -43.370  1.00  0.00     0.037 C 
ENDBRANCH  15  16
BRANCH  15  18
HETATM   18  C3  UNL     1      89.861 102.201 -43.213  1.00  0.00     0.268 C 
HETATM   19  C4  UNL     1      89.251 101.616 -41.931  1.00  0.00     0.037 C 
ENDBRANCH  15  18
ENDBRANCH  12  15
ENDBRANCH   8   9
ENDBRANCH   1   8
BRANCH   7  20
HETATM   20  O1  UNL     1      91.397  95.996 -42.238  1.00  0.00    -0.359 OA
ATOM     21  H1  UNL     1      91.279  95.654 -41.360  1.00  0.00     0.217 HD
ENDBRANCH   7  20
BRANCH   3  22
HETATM   22  C12 UNL     1      91.404  92.559 -46.689  1.00  0.00    -0.065 C 
HETATM   23  C13 UNL     1      91.410  91.810 -47.638  1.00  0.00    -0.082 C 
BRANCH  23  24
HETATM   24  C14 UNL     1      91.399  90.900 -48.784  1.00  0.00     0.214 C 
BRANCH  24  25
HETATM   25  N3  UNL     1      90.688  89.677 -48.501  1.00  0.00    -0.380 N 
ATOM     26  H3  UNL     1      90.733  89.259 -47.572  1.00  0.00     0.160 HD
BRANCH  25  27
HETATM   27  C15 UNL     1      89.932  89.066 -49.519  1.00  0.00     0.028 A 
HETATM   28  C16 UNL     1      89.844  87.701 -49.618  1.00  0.00     0.029 A 
HETATM   29  C17 UNL     1      89.090  87.099 -50.635  1.00  0.00     0.002 A 
HETATM   30  C18 UNL     1      88.422  87.892 -51.554  1.00  0.00     0.000 A 
HETATM   31  C19 UNL     1      88.507  89.255 -51.459  1.00  0.00     0.002 A 
HETATM   32  C20 UNL     1      89.261  89.829 -50.442  1.00  0.00     0.029 A 
ENDBRANCH  25  27
ENDBRANCH  24  25
ENDBRANCH  23  24
ENDBRANCH   3  22
TORSDOF 10
ENDMDL
