MODEL 17
REMARK VINA RESULT: -6.036387413      2.289      5.270
REMARK  3 active torsions:
REMARK  status: ('A' for Active; 'I' for Inactive)
REMARK    1  A    between atoms: C1_2  and  C2_4 
REMARK    2  A    between atoms: C2_4  and  C3_5 
REMARK    3  A    between atoms: C3_5  and  C4_6 
ROOT
HETATM    1  C4  UNL     1      16.917 -23.768  12.655  1.00  0.00    -0.055 A 
HETATM    2  C5  UNL     1      16.871 -25.052  12.141  1.00  0.00     0.010 A 
HETATM    3  C6  UNL     1      17.466 -26.105  12.799  1.00  0.00     0.040 A 
HETATM    4  C7  UNL     1      18.128 -25.907  13.995  1.00  0.00     0.105 A 
HETATM    5  C8  UNL     1      18.187 -24.634  14.526  1.00  0.00     0.105 A 
HETATM    6  C9  UNL     1      17.585 -23.609  13.847  1.00  0.00     0.047 A 
HETATM    7  O3  UNL     1      18.911 -24.739  15.724  1.00  0.00    -0.323 OA
HETATM    8  C10 UNL     1      19.629 -25.978  15.728  1.00  0.00     0.352 C 
HETATM    9  O4  UNL     1      18.809 -26.760  14.866  1.00  0.00    -0.323 OA
ENDROOT
BRANCH   1  10
HETATM   10  C3  UNL     1      16.266 -22.713  11.902  1.00  0.00     0.049 C 
BRANCH  10  11
HETATM   11  C2  UNL     1      17.155 -21.768  11.176  1.00  0.00     0.117 C 
BRANCH  11  12
HETATM   12  C1  UNL     1      17.481 -20.583  12.014  1.00  0.00     0.172 C 
HETATM   13  O1  UNL     1      16.576 -19.997  12.672  1.00  0.00    -0.648 OA
HETATM   14  O2  UNL     1      18.758 -20.069  12.118  1.00  0.00    -0.648 OA
ENDBRANCH  11  12
ENDBRANCH  10  11
ENDBRANCH   1  10
TORSDOF 3
ENDMDL
