MODEL 14
REMARK VINA RESULT: -6.168111736      2.670      4.959
REMARK  3 active torsions:
REMARK  status: ('A' for Active; 'I' for Inactive)
REMARK    1  A    between atoms: C1_2  and  C2_4 
REMARK    2  A    between atoms: C2_4  and  C3_5 
REMARK    3  A    between atoms: C3_5  and  C4_6 
ROOT
HETATM    1  C4  UNL     1      16.503 -24.359  12.070  1.00  0.00    -0.055 A 
HETATM    2  C5  UNL     1      16.762 -25.683  11.758  1.00  0.00     0.010 A 
HETATM    3  C6  UNL     1      17.458 -26.496  12.624  1.00  0.00     0.040 A 
HETATM    4  C7  UNL     1      17.919 -26.009  13.833  1.00  0.00     0.105 A 
HETATM    5  C8  UNL     1      17.673 -24.692  14.163  1.00  0.00     0.105 A 
HETATM    6  C9  UNL     1      16.977 -23.910  13.280  1.00  0.00     0.047 A 
HETATM    7  O3  UNL     1      18.250 -24.487  15.425  1.00  0.00    -0.323 OA
HETATM    8  C10 UNL     1      19.182 -25.541  15.689  1.00  0.00     0.352 C 
HETATM    9  O4  UNL     1      18.636 -26.582  14.885  1.00  0.00    -0.323 OA
ENDROOT
BRANCH   1  10
HETATM   10  C3  UNL     1      15.763 -23.569  11.105  1.00  0.00     0.049 C 
BRANCH  10  11
HETATM   11  C2  UNL     1      16.043 -22.109  11.086  1.00  0.00     0.117 C 
BRANCH  11  12
HETATM   12  C1  UNL     1      15.071 -21.385  10.222  1.00  0.00     0.172 C 
HETATM   13  O1  UNL     1      15.021 -21.618   8.982  1.00  0.00    -0.648 OA
HETATM   14  O2  UNL     1      14.191 -20.442  10.715  1.00  0.00    -0.648 OA
ENDBRANCH  11  12
ENDBRANCH  10  11
ENDBRANCH   1  10
TORSDOF 3
ENDMDL
