MODEL 4
REMARK VINA RESULT: -6.707088701      1.013      1.946
REMARK  3 active torsions:
REMARK  status: ('A' for Active; 'I' for Inactive)
REMARK    1  A    between atoms: C1_2  and  C2_4 
REMARK    2  A    between atoms: C2_4  and  C3_5 
REMARK    3  A    between atoms: C3_5  and  C4_6 
ROOT
HETATM    1  C4  UNL     1      17.176 -24.971  12.276  1.00  0.00    -0.055 A 
HETATM    2  C5  UNL     1      16.053 -24.708  11.510  1.00  0.00     0.010 A 
HETATM    3  C6  UNL     1      15.754 -23.428  11.101  1.00  0.00     0.040 A 
HETATM    4  C7  UNL     1      16.569 -22.367  11.447  1.00  0.00     0.105 A 
HETATM    5  C8  UNL     1      17.694 -22.606  12.211  1.00  0.00     0.105 A 
HETATM    6  C9  UNL     1      17.963 -23.892  12.600  1.00  0.00     0.047 A 
HETATM    7  O3  UNL     1      18.314 -21.363  12.400  1.00  0.00    -0.323 OA
HETATM    8  C10 UNL     1      17.377 -20.322  12.101  1.00  0.00     0.352 C 
HETATM    9  O4  UNL     1      16.521 -20.997  11.185  1.00  0.00    -0.323 OA
ENDROOT
BRANCH   1  10
HETATM   10  C3  UNL     1      17.422 -26.346  12.666  1.00  0.00     0.049 C 
BRANCH  10  11
HETATM   11  C2  UNL     1      17.227 -27.381  11.616  1.00  0.00     0.117 C 
BRANCH  11  12
HETATM   12  C1  UNL     1      18.523 -27.772  10.999  1.00  0.00     0.172 C 
HETATM   13  O1  UNL     1      19.558 -27.900  11.712  1.00  0.00    -0.648 OA
HETATM   14  O2  UNL     1      18.665 -28.012   9.646  1.00  0.00    -0.648 OA
ENDBRANCH  11  12
ENDBRANCH  10  11
ENDBRANCH   1  10
TORSDOF 3
ENDMDL
