MODEL 2
REMARK VINA RESULT: -6.732070020      0.809      1.902
REMARK  3 active torsions:
REMARK  status: ('A' for Active; 'I' for Inactive)
REMARK    1  A    between atoms: C1_2  and  C2_4 
REMARK    2  A    between atoms: C2_4  and  C3_5 
REMARK    3  A    between atoms: C3_5  and  C4_6 
ROOT
HETATM    1  C4  UNL     1      16.217 -24.590  11.500  1.00  0.00    -0.055 A 
HETATM    2  C5  UNL     1      15.445 -23.771  10.694  1.00  0.00     0.010 A 
HETATM    3  C6  UNL     1      15.615 -22.405  10.697  1.00  0.00     0.040 A 
HETATM    4  C7  UNL     1      16.563 -21.812  11.509  1.00  0.00     0.105 A 
HETATM    5  C8  UNL     1      17.342 -22.610  12.322  1.00  0.00     0.105 A 
HETATM    6  C9  UNL     1      17.149 -23.966  12.295  1.00  0.00     0.047 A 
HETATM    7  O3  UNL     1      18.199 -21.745  13.019  1.00  0.00    -0.323 OA
HETATM    8  C10 UNL     1      17.684 -20.412  12.938  1.00  0.00     0.352 C 
HETATM    9  O4  UNL     1      16.950 -20.488  11.721  1.00  0.00    -0.323 OA
ENDROOT
BRANCH   1  10
HETATM   10  C3  UNL     1      15.978 -26.019  11.439  1.00  0.00     0.049 C 
BRANCH  10  11
HETATM   11  C2  UNL     1      17.116 -26.901  11.809  1.00  0.00     0.117 C 
BRANCH  11  12
HETATM   12  C1  UNL     1      17.723 -27.531  10.606  1.00  0.00     0.172 C 
HETATM   13  O1  UNL     1      18.936 -27.884  10.613  1.00  0.00    -0.648 OA
HETATM   14  O2  UNL     1      17.014 -27.762   9.444  1.00  0.00    -0.648 OA
ENDBRANCH  11  12
ENDBRANCH  10  11
ENDBRANCH   1  10
TORSDOF 3
ENDMDL
