MODEL 11
REMARK VINA RESULT: -6.308716624      1.378      5.845
REMARK  3 active torsions:
REMARK  status: ('A' for Active; 'I' for Inactive)
REMARK    1  A    between atoms: C1_2  and  C2_4 
REMARK    2  A    between atoms: C2_4  and  C3_5 
REMARK    3  A    between atoms: C3_5  and  C4_6 
ROOT
HETATM    1  C4  UNL     1      17.069 -24.182  12.433  1.00  0.00    -0.055 A 
HETATM    2  C5  UNL     1      16.140 -24.645  11.517  1.00  0.00     0.010 A 
HETATM    3  C6  UNL     1      16.083 -25.976  11.172  1.00  0.00     0.040 A 
HETATM    4  C7  UNL     1      16.955 -26.890  11.732  1.00  0.00     0.105 A 
HETATM    5  C8  UNL     1      17.890 -26.450  12.647  1.00  0.00     0.105 A 
HETATM    6  C9  UNL     1      17.920 -25.119  12.970  1.00  0.00     0.047 A 
HETATM    7  O3  UNL     1      18.623 -27.581  13.037  1.00  0.00    -0.323 OA
HETATM    8  C10 UNL     1      18.412 -28.626  12.082  1.00  0.00     0.352 C 
HETATM    9  O4  UNL     1      17.130 -28.266  11.578  1.00  0.00    -0.323 OA
ENDROOT
BRANCH   1  10
HETATM   10  C3  UNL     1      17.065 -22.765  12.745  1.00  0.00     0.049 C 
BRANCH  10  11
HETATM   11  C2  UNL     1      17.034 -21.830  11.589  1.00  0.00     0.117 C 
BRANCH  11  12
HETATM   12  C1  UNL     1      17.542 -20.485  11.972  1.00  0.00     0.172 C 
HETATM   13  O1  UNL     1      16.767 -19.635  12.495  1.00  0.00    -0.648 OA
HETATM   14  O2  UNL     1      18.854 -20.099  11.782  1.00  0.00    -0.648 OA
ENDBRANCH  11  12
ENDBRANCH  10  11
ENDBRANCH   1  10
TORSDOF 3
ENDMDL
