MODEL 13
REMARK VINA RESULT: -6.289628489      2.059      2.937
REMARK  1 active torsions:
REMARK  status: ('A' for Active; 'I' for Inactive)
REMARK    1  A    between atoms: C1_2  and  C2_4 
ROOT
HETATM    1  C2  UNL     1     -17.197  16.831 -13.195  1.00  0.00     0.075 A 
HETATM    2  C3  UNL     1     -16.263  17.268 -12.302  1.00  0.00     0.021 A 
HETATM    3  C4  UNL     1     -15.697  16.431 -11.343  1.00  0.00     0.002 A 
HETATM    4  C5  UNL     1     -16.105  15.121 -11.313  1.00  0.00     0.014 A 
HETATM    5  C6  UNL     1     -17.058  14.657 -12.217  1.00  0.00     0.001 A 
HETATM    6  C7  UNL     1     -17.661  13.435 -12.439  1.00  0.00     0.039 A 
HETATM    7  C8  UNL     1     -18.536  13.596 -13.491  1.00  0.00     0.143 A 
HETATM    8  O3  UNL     1     -18.481  14.841 -13.898  1.00  0.00    -0.321 OA
HETATM    9  C9  UNL     1     -17.606  15.515 -13.161  1.00  0.00     0.102 A 
ENDROOT
BRANCH   1  10
HETATM   10  C1  UNL     1     -17.790  17.733 -14.207  1.00  0.00     0.212 C 
HETATM   11  O1  UNL     1     -18.076  17.307 -15.355  1.00  0.00    -0.644 OA
HETATM   12  O2  UNL     1     -18.039  19.059 -13.902  1.00  0.00    -0.644 OA
ENDBRANCH   1  10
TORSDOF 1
ENDMDL
