MODEL 14
REMARK VINA RESULT: -6.258379744      2.982      4.138
REMARK  1 active torsions:
REMARK  status: ('A' for Active; 'I' for Inactive)
REMARK    1  A    between atoms: C1_2  and  C2_4 
ROOT
HETATM    1  C2  UNL     1     -17.458  15.640 -13.633  1.00  0.00     0.075 A 
HETATM    2  C3  UNL     1     -16.655  16.605 -13.101  1.00  0.00     0.021 A 
HETATM    3  C4  UNL     1     -15.968  16.427 -11.902  1.00  0.00     0.002 A 
HETATM    4  C5  UNL     1     -16.117  15.229 -11.248  1.00  0.00     0.014 A 
HETATM    5  C6  UNL     1     -16.933  14.233 -11.778  1.00  0.00     0.001 A 
HETATM    6  C7  UNL     1     -17.281  12.958 -11.377  1.00  0.00     0.039 A 
HETATM    7  C8  UNL     1     -18.136  12.449 -12.329  1.00  0.00     0.143 A 
HETATM    8  O3  UNL     1     -18.310  13.351 -13.264  1.00  0.00    -0.321 OA
HETATM    9  C9  UNL     1     -17.606  14.438 -12.975  1.00  0.00     0.102 A 
ENDROOT
BRANCH   1  10
HETATM   10  C1  UNL     1     -18.182  15.845 -14.908  1.00  0.00     0.212 C 
HETATM   11  O1  UNL     1     -19.167  16.624 -14.967  1.00  0.00    -0.644 OA
HETATM   12  O2  UNL     1     -17.784  15.178 -16.053  1.00  0.00    -0.644 OA
ENDBRANCH   1  10
TORSDOF 1
ENDMDL
