MODEL 9
REMARK VINA RESULT: -6.638688842      1.275      3.604
REMARK  1 active torsions:
REMARK  status: ('A' for Active; 'I' for Inactive)
REMARK    1  A    between atoms: C1_2  and  C2_4 
ROOT
HETATM    1  C2  UNL     1     -16.851  16.451 -12.628  1.00  0.00     0.075 A 
HETATM    2  C3  UNL     1     -15.890  15.902 -11.832  1.00  0.00     0.021 A 
HETATM    3  C4  UNL     1     -15.161  16.654 -10.914  1.00  0.00     0.002 A 
HETATM    4  C5  UNL     1     -15.435  17.996 -10.820  1.00  0.00     0.014 A 
HETATM    5  C6  UNL     1     -16.414  18.573 -11.626  1.00  0.00     0.001 A 
HETATM    6  C7  UNL     1     -16.912  19.854 -11.770  1.00  0.00     0.039 A 
HETATM    7  C8  UNL     1     -17.887  19.806 -12.740  1.00  0.00     0.143 A 
HETATM    8  O3  UNL     1     -17.990  18.574 -13.174  1.00  0.00    -0.321 OA
HETATM    9  C9  UNL     1     -17.124  17.799 -12.533  1.00  0.00     0.102 A 
ENDROOT
BRANCH   1  10
HETATM   10  C1  UNL     1     -17.617  15.639 -13.600  1.00  0.00     0.212 C 
HETATM   11  O1  UNL     1     -18.469  14.803 -13.205  1.00  0.00    -0.644 OA
HETATM   12  O2  UNL     1     -17.404  15.789 -14.958  1.00  0.00    -0.644 OA
ENDBRANCH   1  10
TORSDOF 1
ENDMDL
