MODEL 11
REMARK VINA RESULT: -5.614737291      2.659      3.957
REMARK  1 active torsions:
REMARK  status: ('A' for Active; 'I' for Inactive)
REMARK    1  A    between atoms: C1_2  and  C2_4 
ROOT
HETATM    1  C2  UNL     1     -15.596  17.716   2.425  1.00  0.00     0.068 A 
HETATM    2  C3  UNL     1     -15.142  18.660   3.331  1.00  0.00     0.107 A 
HETATM    3  N1  UNL     1     -15.617  19.866   2.977  1.00  0.00    -0.364 N 
ATOM      4  H1  UNL     1     -15.432  20.735   3.478  1.00  0.00     0.165 HD
HETATM    5  C4  UNL     1     -16.379  19.762   1.855  1.00  0.00     0.043 A 
HETATM    6  C5  UNL     1     -17.078  20.695   1.106  1.00  0.00     0.030 A 
HETATM    7  C6  UNL     1     -17.766  20.250  -0.004  1.00  0.00     0.002 A 
HETATM    8  C7  UNL     1     -17.743  18.912  -0.333  1.00  0.00     0.001 A 
HETATM    9  C8  UNL     1     -17.051  17.980   0.408  1.00  0.00     0.015 A 
HETATM   10  C9  UNL     1     -16.356  18.422   1.526  1.00  0.00     0.009 A 
ENDROOT
BRANCH   1  11
HETATM   11  C1  UNL     1     -15.317  16.285   2.437  1.00  0.00     0.211 C 
HETATM   12  O1  UNL     1     -14.156  15.855   2.660  1.00  0.00    -0.644 OA
HETATM   13  O2  UNL     1     -16.306  15.341   2.207  1.00  0.00    -0.644 OA
ENDBRANCH   1  11
TORSDOF 1
ENDMDL
