MODEL 5
REMARK VINA RESULT: -6.336870322      1.595      2.380
REMARK  1 active torsions:
REMARK  status: ('A' for Active; 'I' for Inactive)
REMARK    1  A    between atoms: C1_2  and  C2_4 
ROOT
HETATM    1  C2  UNL     1     -17.256  18.971   0.635  1.00  0.00     0.068 A 
HETATM    2  C3  UNL     1     -17.753  18.282  -0.460  1.00  0.00     0.107 A 
HETATM    3  N1  UNL     1     -17.336  17.007  -0.397  1.00  0.00    -0.364 N 
ATOM      4  H1  UNL     1     -17.561  16.286  -1.083  1.00  0.00     0.165 HD
HETATM    5  C4  UNL     1     -16.569  16.815   0.709  1.00  0.00     0.043 A 
HETATM    6  C5  UNL     1     -15.914  15.704   1.217  1.00  0.00     0.030 A 
HETATM    7  C6  UNL     1     -15.204  15.849   2.389  1.00  0.00     0.002 A 
HETATM    8  C7  UNL     1     -15.164  17.076   3.018  1.00  0.00     0.001 A 
HETATM    9  C8  UNL     1     -15.813  18.183   2.520  1.00  0.00     0.015 A 
HETATM   10  C9  UNL     1     -16.529  18.042   1.339  1.00  0.00     0.009 A 
ENDROOT
BRANCH   1  11
HETATM   11  C1  UNL     1     -17.468  20.377   0.955  1.00  0.00     0.211 C 
HETATM   12  O1  UNL     1     -16.579  21.234   0.717  1.00  0.00    -0.644 OA
HETATM   13  O2  UNL     1     -18.644  20.831   1.531  1.00  0.00    -0.644 OA
ENDBRANCH   1  11
TORSDOF 1
ENDMDL
