MODEL 9
REMARK VINA RESULT: -5.751134266      1.914      2.616
REMARK  1 active torsions:
REMARK  status: ('A' for Active; 'I' for Inactive)
REMARK    1  A    between atoms: C1_2  and  C2_4 
ROOT
HETATM    1  C2  UNL     1     -16.924  18.472   1.083  1.00  0.00     0.068 A 
HETATM    2  C3  UNL     1     -17.861  18.448   0.062  1.00  0.00     0.107 A 
HETATM    3  N1  UNL     1     -18.128  17.170  -0.253  1.00  0.00    -0.364 N 
ATOM      4  H1  UNL     1     -18.785  16.872  -0.974  1.00  0.00     0.165 HD
HETATM    5  C4  UNL     1     -17.397  16.328   0.527  1.00  0.00     0.043 A 
HETATM    6  C5  UNL     1     -17.311  14.947   0.594  1.00  0.00     0.030 A 
HETATM    7  C6  UNL     1     -16.450  14.396   1.519  1.00  0.00     0.002 A 
HETATM    8  C7  UNL     1     -15.710  15.218   2.342  1.00  0.00     0.001 A 
HETATM    9  C8  UNL     1     -15.791  16.591   2.280  1.00  0.00     0.015 A 
HETATM   10  C9  UNL     1     -16.656  17.152   1.350  1.00  0.00     0.009 A 
ENDROOT
BRANCH   1  11
HETATM   11  C1  UNL     1     -16.357  19.652   1.724  1.00  0.00     0.211 C 
HETATM   12  O1  UNL     1     -16.648  20.808   1.321  1.00  0.00    -0.644 OA
HETATM   13  O2  UNL     1     -15.480  19.558   2.794  1.00  0.00    -0.644 OA
ENDBRANCH   1  11
TORSDOF 1
ENDMDL
