MODEL 8
REMARK VINA RESULT: -5.799935075      1.857      2.807
REMARK  1 active torsions:
REMARK  status: ('A' for Active; 'I' for Inactive)
REMARK    1  A    between atoms: C1_2  and  C2_4 
ROOT
HETATM    1  C2  UNL     1     -16.983  16.809   0.793  1.00  0.00     0.068 A 
HETATM    2  C3  UNL     1     -15.994  16.873   1.761  1.00  0.00     0.107 A 
HETATM    3  N1  UNL     1     -15.811  15.646   2.277  1.00  0.00    -0.364 N 
ATOM      4  H1  UNL     1     -15.139  15.416   3.009  1.00  0.00     0.165 HD
HETATM    5  C4  UNL     1     -16.650  14.754   1.684  1.00  0.00     0.043 A 
HETATM    6  C5  UNL     1     -16.849  13.394   1.857  1.00  0.00     0.030 A 
HETATM    7  C6  UNL     1     -17.802  12.774   1.077  1.00  0.00     0.002 A 
HETATM    8  C7  UNL     1     -18.522  13.511   0.160  1.00  0.00     0.001 A 
HETATM    9  C8  UNL     1     -18.329  14.863  -0.016  1.00  0.00     0.015 A 
HETATM   10  C9  UNL     1     -17.370  15.492   0.767  1.00  0.00     0.009 A 
ENDROOT
BRANCH   1  11
HETATM   11  C1  UNL     1     -17.492  17.912  -0.013  1.00  0.00     0.211 C 
HETATM   12  O1  UNL     1     -17.298  17.946  -1.255  1.00  0.00    -0.644 OA
HETATM   13  O2  UNL     1     -18.206  18.962   0.543  1.00  0.00    -0.644 OA
ENDBRANCH   1  11
TORSDOF 1
ENDMDL
