MODEL 3
REMARK VINA RESULT: -6.423876778      2.381      3.853
REMARK  1 active torsions:
REMARK  status: ('A' for Active; 'I' for Inactive)
REMARK    1  A    between atoms: C1_2  and  C2_4 
ROOT
HETATM    1  C2  UNL     1     -16.733  16.202   0.845  1.00  0.00     0.068 A 
HETATM    2  C3  UNL     1     -15.778  15.895   1.801  1.00  0.00     0.107 A 
HETATM    3  N1  UNL     1     -15.419  17.024   2.434  1.00  0.00    -0.364 N 
ATOM      4  H1  UNL     1     -14.730  17.077   3.185  1.00  0.00     0.165 HD
HETATM    5  C4  UNL     1     -16.105  18.086   1.932  1.00  0.00     0.043 A 
HETATM    6  C5  UNL     1     -16.098  19.437   2.237  1.00  0.00     0.030 A 
HETATM    7  C6  UNL     1     -16.934  20.268   1.522  1.00  0.00     0.002 A 
HETATM    8  C7  UNL     1     -17.744  19.742   0.538  1.00  0.00     0.001 A 
HETATM    9  C8  UNL     1     -17.756  18.399   0.230  1.00  0.00     0.015 A 
HETATM   10  C9  UNL     1     -16.915  17.559   0.947  1.00  0.00     0.009 A 
ENDROOT
BRANCH   1  11
HETATM   11  C1  UNL     1     -17.391  15.273  -0.065  1.00  0.00     0.211 C 
HETATM   12  O1  UNL     1     -17.942  14.228   0.366  1.00  0.00    -0.644 OA
HETATM   13  O2  UNL     1     -17.441  15.494  -1.433  1.00  0.00    -0.644 OA
ENDBRANCH   1  11
TORSDOF 1
ENDMDL
