MODEL 18
REMARK VINA RESULT: -4.492419267      2.232      3.739
REMARK  0 active torsions:
REMARK  status: ('A' for Active; 'I' for Inactive)
ROOT
HETATM    1  C1  UNL     1      32.024 -19.841  -0.426  1.00  0.00     0.158 C 
HETATM    2  N1  UNL     1      30.942 -20.682   0.034  1.00  0.00    -0.332 N 
HETATM    3  C2  UNL     1      29.671 -20.550  -0.394  1.00  0.00     0.185 A 
HETATM    4  N2  UNL     1      28.666 -21.334   0.036  1.00  0.00    -0.339 N 
ATOM      5  H2  UNL     1      27.731 -21.170  -0.337  1.00  0.00     0.167 HD
HETATM    6  C3  UNL     1      28.832 -22.324   0.934  1.00  0.00     0.148 A 
HETATM    7  N3  UNL     1      27.738 -23.142   1.370  1.00  0.00    -0.080 NA
HETATM    8  C4  UNL     1      30.112 -22.515   1.414  1.00  0.00     0.119 A 
HETATM    9  N4  UNL     1      30.648 -23.369   2.285  1.00  0.00    -0.347 N 
ATOM     10  H4  UNL     1      30.152 -24.100   2.795  1.00  0.00     0.167 HD
HETATM   11  C5  UNL     1      31.956 -23.096   2.372  1.00  0.00     0.182 A 
HETATM   12  N5  UNL     1      32.290 -22.072   1.570  1.00  0.00    -0.336 N 
ATOM     13  H5  UNL     1      33.225 -21.680   1.464  1.00  0.00     0.168 HD
HETATM   14  C6  UNL     1      31.185 -21.652   0.933  1.00  0.00     0.139 A 
ENDROOT
TORSDOF 0
ENDMDL
