MODEL 16
REMARK VINA RESULT: -4.551236143      4.842      6.299
REMARK  0 active torsions:
REMARK  status: ('A' for Active; 'I' for Inactive)
ROOT
HETATM    1  C1  UNL     1      31.466 -22.994  -3.130  1.00  0.00     0.158 C 
HETATM    2  N1  UNL     1      31.790 -21.623  -2.807  1.00  0.00    -0.332 N 
HETATM    3  C2  UNL     1      32.403 -20.787  -3.668  1.00  0.00     0.185 A 
HETATM    4  N2  UNL     1      32.703 -19.511  -3.365  1.00  0.00    -0.339 N 
ATOM      5  H2  UNL     1      33.168 -18.941  -4.073  1.00  0.00     0.167 HD
HETATM    6  C3  UNL     1      32.422 -18.947  -2.175  1.00  0.00     0.148 A 
HETATM    7  N3  UNL     1      32.756 -17.583  -1.885  1.00  0.00    -0.080 NA
HETATM    8  C4  UNL     1      31.793 -19.749  -1.244  1.00  0.00     0.119 A 
HETATM    9  N4  UNL     1      31.369 -19.550   0.004  1.00  0.00    -0.347 N 
ATOM     10  H4  UNL     1      31.447 -18.682   0.534  1.00  0.00     0.167 HD
HETATM   11  C5  UNL     1      30.824 -20.693   0.437  1.00  0.00     0.182 A 
HETATM   12  N5  UNL     1      30.883 -21.645  -0.508  1.00  0.00    -0.336 N 
ATOM     13  H5  UNL     1      30.534 -22.599  -0.415  1.00  0.00     0.168 HD
HETATM   14  C6  UNL     1      31.478 -21.129  -1.596  1.00  0.00     0.139 A 
ENDROOT
TORSDOF 0
ENDMDL
