MODEL 3
REMARK VINA RESULT: -5.174429801      1.013      3.001
REMARK  0 active torsions:
REMARK  status: ('A' for Active; 'I' for Inactive)
ROOT
HETATM    1  C1  UNL     1      27.377 -24.033   1.660  1.00  0.00     0.158 C 
HETATM    2  N1  UNL     1      28.119 -22.792   1.660  1.00  0.00    -0.332 N 
HETATM    3  C2  UNL     1      29.465 -22.737   1.654  1.00  0.00     0.185 A 
HETATM    4  N2  UNL     1      30.153 -21.581   1.654  1.00  0.00    -0.339 N 
ATOM      5  H2  UNL     1      31.173 -21.624   1.648  1.00  0.00     0.167 HD
HETATM    6  C3  UNL     1      29.564 -20.370   1.662  1.00  0.00     0.148 A 
HETATM    7  N3  UNL     1      30.328 -19.156   1.662  1.00  0.00    -0.080 NA
HETATM    8  C4  UNL     1      28.184 -20.353   1.669  1.00  0.00     0.119 A 
HETATM    9  N4  UNL     1      27.277 -19.377   1.678  1.00  0.00    -0.347 N 
ATOM     10  H4  UNL     1      27.471 -18.376   1.681  1.00  0.00     0.167 HD
HETATM   11  C5  UNL     1      26.065 -19.947   1.682  1.00  0.00     0.182 A 
HETATM   12  N5  UNL     1      26.160 -21.285   1.678  1.00  0.00    -0.336 N 
ATOM     13  H5  UNL     1      25.376 -21.938   1.681  1.00  0.00     0.168 HD
HETATM   14  C6  UNL     1      27.461 -21.620   1.669  1.00  0.00     0.139 A 
ENDROOT
TORSDOF 0
ENDMDL
