MODEL 19
REMARK VINA RESULT: -4.431834543      5.557      6.740
REMARK  0 active torsions:
REMARK  status: ('A' for Active; 'I' for Inactive)
ROOT
HETATM    1  C1  UNL     1      33.384 -22.303   0.264  1.00  0.00     0.158 C 
HETATM    2  N1  UNL     1      32.998 -21.140  -0.504  1.00  0.00    -0.332 N 
HETATM    3  C2  UNL     1      32.875 -19.910   0.032  1.00  0.00     0.185 A 
HETATM    4  N2  UNL     1      32.516 -18.830  -0.685  1.00  0.00    -0.339 N 
ATOM      5  H2  UNL     1      32.446 -17.932  -0.206  1.00  0.00     0.167 HD
HETATM    6  C3  UNL     1      32.244 -18.873  -2.003  1.00  0.00     0.148 A 
HETATM    7  N3  UNL     1      31.864 -17.701  -2.738  1.00  0.00    -0.080 NA
HETATM    8  C4  UNL     1      32.351 -20.105  -2.617  1.00  0.00     0.119 A 
HETATM    9  N4  UNL     1      32.166 -20.529  -3.867  1.00  0.00    -0.347 N 
ATOM     10  H4  UNL     1      31.887 -19.954  -4.661  1.00  0.00     0.167 HD
HETATM   11  C5  UNL     1      32.414 -21.844  -3.892  1.00  0.00     0.182 A 
HETATM   12  N5  UNL     1      32.758 -22.296  -2.676  1.00  0.00    -0.336 N 
ATOM     13  H5  UNL     1      32.991 -23.260  -2.442  1.00  0.00     0.168 HD
HETATM   14  C6  UNL     1      32.742 -21.262  -1.818  1.00  0.00     0.139 A 
ENDROOT
TORSDOF 0
ENDMDL
