MODEL 6
REMARK VINA RESULT: -5.300514370      1.186      3.477
REMARK  0 active torsions:
REMARK  status: ('A' for Active; 'I' for Inactive)
ROOT
HETATM    1  C1  UNL     1      31.975 -22.276   1.975  1.00  0.00     0.158 C 
HETATM    2  N1  UNL     1      30.569 -21.939   1.953  1.00  0.00    -0.332 N 
HETATM    3  C2  UNL     1      29.605 -22.817   1.617  1.00  0.00     0.185 A 
HETATM    4  N2  UNL     1      28.298 -22.502   1.597  1.00  0.00    -0.339 N 
ATOM      5  H2  UNL     1      27.628 -23.225   1.331  1.00  0.00     0.167 HD
HETATM    6  C3  UNL     1      27.827 -21.279   1.911  1.00  0.00     0.148 A 
HETATM    7  N3  UNL     1      26.426 -20.976   1.880  1.00  0.00    -0.080 NA
HETATM    8  C4  UNL     1      28.763 -20.329   2.266  1.00  0.00     0.119 A 
HETATM    9  N4  UNL     1      28.681 -19.049   2.629  1.00  0.00    -0.347 N 
ATOM     10  H4  UNL     1      27.824 -18.502   2.714  1.00  0.00     0.167 HD
HETATM   11  C5  UNL     1      29.924 -18.611   2.862  1.00  0.00     0.182 A 
HETATM   12  N5  UNL     1      30.826 -19.583   2.656  1.00  0.00    -0.336 N 
ATOM     13  H5  UNL     1      31.836 -19.492   2.767  1.00  0.00     0.168 HD
HETATM   14  C6  UNL     1      30.175 -20.696   2.279  1.00  0.00     0.139 A 
ENDROOT
TORSDOF 0
ENDMDL
