MODEL 5
REMARK VINA RESULT: -5.311954250      1.781      3.430
REMARK  0 active torsions:
REMARK  status: ('A' for Active; 'I' for Inactive)
ROOT
HETATM    1  C1  UNL     1      32.067 -20.466  -0.178  1.00  0.00     0.158 C 
HETATM    2  N1  UNL     1      30.743 -20.637   0.377  1.00  0.00    -0.332 N 
HETATM    3  C2  UNL     1      29.893 -21.601  -0.025  1.00  0.00     0.185 A 
HETATM    4  N2  UNL     1      28.662 -21.758   0.493  1.00  0.00    -0.339 N 
ATOM      5  H2  UNL     1      28.078 -22.514   0.134  1.00  0.00     0.167 HD
HETATM    6  C3  UNL     1      28.160 -20.968   1.462  1.00  0.00     0.148 A 
HETATM    7  N3  UNL     1      26.842 -21.164   1.993  1.00  0.00    -0.080 NA
HETATM    8  C4  UNL     1      28.980 -19.958   1.922  1.00  0.00     0.119 A 
HETATM    9  N4  UNL     1      28.837 -19.006   2.843  1.00  0.00    -0.347 N 
ATOM     10  H4  UNL     1      28.013 -18.849   3.423  1.00  0.00     0.167 HD
HETATM   11  C5  UNL     1      29.970 -18.293   2.872  1.00  0.00     0.182 A 
HETATM   12  N5  UNL     1      30.858 -18.760   1.981  1.00  0.00    -0.336 N 
ATOM     13  H5  UNL     1      31.791 -18.382   1.817  1.00  0.00     0.168 HD
HETATM   14  C6  UNL     1      30.311 -19.808   1.344  1.00  0.00     0.139 A 
ENDROOT
TORSDOF 0
ENDMDL
