MODEL 1
REMARK VINA RESULT: -6.482676010      0.000      0.000
REMARK  7 active torsions:
REMARK  status: ('A' for Active; 'I' for Inactive)
REMARK    1  A    between atoms: C2_2  and  C3_3 
REMARK    2  A    between atoms: C3_3  and  S1_4 
REMARK    3  A    between atoms: S1_4  and  C4_5 
REMARK    4  A    between atoms: C8_11  and  N2_12 
REMARK       I    between atoms: N2_12  and  C9_14 
REMARK    5  A    between atoms: C9_14  and  C10_16 
REMARK    6  A    between atoms: C10_16  and  C11_17 
REMARK    7  A    between atoms: C11_17  and  C12_18 
ROOT
HETATM    1  C4  UNL     1      14.433  -5.111   0.513  1.00  0.00     0.113 A 
HETATM    2  N1  UNL     1      15.442  -5.345   1.326  1.00  0.00    -0.344 N 
ATOM      3  H1  UNL     1      16.197  -4.664   1.407  1.00  0.00     0.167 HD
HETATM    4  C5  UNL     1      15.481  -6.443   2.029  1.00  0.00     0.050 A 
HETATM    5  C6  UNL     1      16.494  -6.819   2.933  1.00  0.00     0.033 A 
HETATM    6  C7  UNL     1      16.391  -8.013   3.600  1.00  0.00     0.032 A 
HETATM    7  C8  UNL     1      15.373  -8.912   3.479  1.00  0.00     0.036 A 
HETATM    8  C13 UNL     1      14.366  -8.531   2.577  1.00  0.00     0.051 A 
HETATM    9  C14 UNL     1      14.447  -7.326   1.887  1.00  0.00     0.036 A 
HETATM   10  S2  UNL     1      13.467  -6.501   0.728  1.00  0.00    -0.063 SA
ENDROOT
BRANCH   7  11
HETATM   11  N2  UNL     1      15.203 -10.142   4.116  1.00  0.00    -0.327 N 
HETATM   12  C9  UNL     1      14.449 -10.392   5.292  1.00  0.00     0.222 C 
HETATM   13  O1  UNL     1      13.866  -9.438   5.842  1.00  0.00    -0.273 OA
ATOM     14  H2  UNL     1      15.669 -10.944   3.693  1.00  0.00     0.169 HD
BRANCH  12  15
HETATM   15  C10 UNL     1      14.365 -11.784   5.855  1.00  0.00     0.113 C 
BRANCH  15  16
HETATM   16  C11 UNL     1      15.637 -12.518   5.570  1.00  0.00     0.122 C 
BRANCH  16  17
HETATM   17  C12 UNL     1      15.993 -13.394   6.680  1.00  0.00     0.172 C 
HETATM   18  O2  UNL     1      15.992 -14.648   6.657  1.00  0.00    -0.648 OA
HETATM   19  O3  UNL     1      16.373 -12.767   7.888  1.00  0.00    -0.648 OA
ENDBRANCH  16  17
ENDBRANCH  15  16
ENDBRANCH  12  15
ENDBRANCH   7  11
BRANCH   1  20
HETATM   20  S1  UNL     1      14.249  -3.655  -0.507  1.00  0.00    -0.101 SA
BRANCH  20  21
HETATM   21  C3  UNL     1      12.542  -3.041  -0.421  1.00  0.00     0.107 C 
BRANCH  21  22
HETATM   22  C2  UNL     1      12.289  -1.927  -1.364  1.00  0.00    -0.026 C 
HETATM   23  C1  UNL     1      11.133  -1.284  -1.330  1.00  0.00     0.007 C 
ENDBRANCH  21  22
ENDBRANCH  20  21
ENDBRANCH   1  20
TORSDOF 7
ENDMDL
