MODEL 9
REMARK VINA RESULT: -5.876117114      1.217      1.791
REMARK  7 active torsions:
REMARK  status: ('A' for Active; 'I' for Inactive)
REMARK    1  A    between atoms: C2_2  and  C3_3 
REMARK    2  A    between atoms: C3_3  and  S1_4 
REMARK    3  A    between atoms: S1_4  and  C4_5 
REMARK    4  A    between atoms: C8_11  and  N2_12 
REMARK       I    between atoms: N2_12  and  C9_14 
REMARK    5  A    between atoms: C9_14  and  C10_16 
REMARK    6  A    between atoms: C10_16  and  C11_17 
REMARK    7  A    between atoms: C11_17  and  C12_18 
ROOT
HETATM    1  C4  UNL     1      14.306  -5.633   0.100  1.00  0.00     0.113 A 
HETATM    2  N1  UNL     1      13.440  -6.572   0.419  1.00  0.00    -0.344 N 
ATOM      3  H1  UNL     1      12.511  -6.569  -0.002  1.00  0.00     0.167 HD
HETATM    4  C5  UNL     1      13.764  -7.507   1.269  1.00  0.00     0.050 A 
HETATM    5  C6  UNL     1      12.940  -8.567   1.698  1.00  0.00     0.033 A 
HETATM    6  C7  UNL     1      13.429  -9.474   2.603  1.00  0.00     0.032 A 
HETATM    7  C8  UNL     1      14.676  -9.462   3.155  1.00  0.00     0.036 A 
HETATM    8  C13 UNL     1      15.492  -8.403   2.723  1.00  0.00     0.051 A 
HETATM    9  C14 UNL     1      15.020  -7.470   1.806  1.00  0.00     0.036 A 
HETATM   10  S2  UNL     1      15.665  -6.064   1.037  1.00  0.00    -0.063 SA
ENDROOT
BRANCH   7  11
HETATM   11  N2  UNL     1      15.238 -10.342   4.081  1.00  0.00    -0.327 N 
HETATM   12  C9  UNL     1      14.620 -10.848   5.254  1.00  0.00     0.222 C 
HETATM   13  O1  UNL     1      13.456 -10.489   5.519  1.00  0.00    -0.273 OA
ATOM     14  H2  UNL     1      16.191 -10.654   3.895  1.00  0.00     0.169 HD
BRANCH  12  15
HETATM   15  C10 UNL     1      15.366 -11.795   6.153  1.00  0.00     0.113 C 
BRANCH  15  16
HETATM   16  C11 UNL     1      14.659 -13.114   6.187  1.00  0.00     0.122 C 
BRANCH  16  17
HETATM   17  C12 UNL     1      15.613 -14.213   6.291  1.00  0.00     0.172 C 
HETATM   18  O2  UNL     1      16.105 -14.661   7.354  1.00  0.00    -0.648 OA
HETATM   19  O3  UNL     1      16.013 -14.825   5.081  1.00  0.00    -0.648 OA
ENDBRANCH  16  17
ENDBRANCH  15  16
ENDBRANCH  12  15
ENDBRANCH   7  11
BRANCH   1  20
HETATM   20  S1  UNL     1      14.000  -4.297  -1.046  1.00  0.00    -0.101 SA
BRANCH  20  21
HETATM   21  C3  UNL     1      12.840  -3.102  -0.321  1.00  0.00     0.107 C 
BRANCH  21  22
HETATM   22  C2  UNL     1      12.469  -2.023  -1.266  1.00  0.00    -0.026 C 
HETATM   23  C1  UNL     1      11.251  -1.508  -1.234  1.00  0.00     0.007 C 
ENDBRANCH  21  22
ENDBRANCH  20  21
ENDBRANCH   1  20
TORSDOF 7
ENDMDL
