MODEL 3
REMARK VINA RESULT: -5.961176311      2.261      2.772
REMARK  7 active torsions:
REMARK  status: ('A' for Active; 'I' for Inactive)
REMARK    1  A    between atoms: C2_2  and  C3_3 
REMARK    2  A    between atoms: C3_3  and  S1_4 
REMARK    3  A    between atoms: S1_4  and  C4_5 
REMARK    4  A    between atoms: C8_11  and  N2_12 
REMARK       I    between atoms: N2_12  and  C9_14 
REMARK    5  A    between atoms: C9_14  and  C10_16 
REMARK    6  A    between atoms: C10_16  and  C11_17 
REMARK    7  A    between atoms: C11_17  and  C12_18 
ROOT
HETATM    1  C4  UNL     1      15.825  -6.773   0.524  1.00  0.00     0.113 A 
HETATM    2  N1  UNL     1      14.739  -7.465   0.795  1.00  0.00    -0.344 N 
ATOM      3  H1  UNL     1      13.927  -7.396   0.181  1.00  0.00     0.167 HD
HETATM    4  C5  UNL     1      14.695  -8.240   1.843  1.00  0.00     0.050 A 
HETATM    5  C6  UNL     1      13.603  -9.033   2.250  1.00  0.00     0.033 A 
HETATM    6  C7  UNL     1      13.713  -9.798   3.384  1.00  0.00     0.032 A 
HETATM    7  C8  UNL     1      14.808  -9.877   4.192  1.00  0.00     0.036 A 
HETATM    8  C13 UNL     1      15.893  -9.085   3.781  1.00  0.00     0.051 A 
HETATM    9  C14 UNL     1      15.807  -8.300   2.636  1.00  0.00     0.036 A 
HETATM   10  S2  UNL     1      16.863  -7.216   1.802  1.00  0.00    -0.063 SA
ENDROOT
BRANCH   7  11
HETATM   11  N2  UNL     1      14.990 -10.623   5.357  1.00  0.00    -0.327 N 
HETATM   12  C9  UNL     1      15.519 -11.937   5.450  1.00  0.00     0.222 C 
HETATM   13  O1  UNL     1      15.865 -12.517   4.403  1.00  0.00    -0.273 OA
ATOM     14  H2  UNL     1      14.715 -10.178   6.233  1.00  0.00     0.169 HD
BRANCH  12  15
HETATM   15  C10 UNL     1      15.652 -12.606   6.790  1.00  0.00     0.113 C 
BRANCH  15  16
HETATM   16  C11 UNL     1      15.273 -14.048   6.671  1.00  0.00     0.122 C 
BRANCH  16  17
HETATM   17  C12 UNL     1      14.012 -14.313   7.354  1.00  0.00     0.172 C 
HETATM   18  O2  UNL     1      13.887 -14.751   8.523  1.00  0.00    -0.648 OA
HETATM   19  O3  UNL     1      12.828 -14.049   6.629  1.00  0.00    -0.648 OA
ENDBRANCH  16  17
ENDBRANCH  15  16
ENDBRANCH  12  15
ENDBRANCH   7  11
BRANCH   1  20
HETATM   20  S1  UNL     1      16.025  -5.676  -0.873  1.00  0.00    -0.101 SA
BRANCH  20  21
HETATM   21  C3  UNL     1      14.613  -4.540  -0.986  1.00  0.00     0.107 C 
BRANCH  21  22
HETATM   22  C2  UNL     1      14.391  -3.781   0.267  1.00  0.00    -0.026 C 
HETATM   23  C1  UNL     1      14.959  -2.597   0.430  1.00  0.00     0.007 C 
ENDBRANCH  21  22
ENDBRANCH  20  21
ENDBRANCH   1  20
TORSDOF 7
ENDMDL
