MODEL 4
REMARK VINA RESULT: -6.983364486      0.951      1.659
REMARK  4 active torsions:
REMARK  status: ('A' for Active; 'I' for Inactive)
REMARK    1  A    between atoms: C1_2  and  C2_4 
REMARK    2  A    between atoms: C2_4  and  O3_5 
REMARK    3  A    between atoms: C2_4  and  C9_13 
REMARK    4  A    between atoms: O3_5  and  C3_6 
ROOT
HETATM    1  O3  UNL     1      12.446 -15.310  10.593  1.00  0.00    -0.324 OA
ENDROOT
BRANCH   1   2
HETATM    2  C2  UNL     1      11.865 -16.546  10.762  1.00  0.00     0.329 C 
BRANCH   2   3
HETATM    3  C1  UNL     1      12.621 -17.359  11.765  1.00  0.00     0.214 C 
HETATM    4  O1  UNL     1      12.076 -18.417  12.161  1.00  0.00    -0.646 OA
HETATM    5  O2  UNL     1      13.864 -16.983  12.248  1.00  0.00    -0.646 OA
ENDBRANCH   2   3
BRANCH   2   6
HETATM    6  C9  UNL     1      11.774 -17.357   9.529  1.00  0.00     0.214 C 
HETATM    7  O4  UNL     1      10.734 -17.241   8.841  1.00  0.00    -0.646 OA
HETATM    8  O5  UNL     1      12.753 -18.226   9.094  1.00  0.00    -0.646 OA
ENDBRANCH   2   6
ENDBRANCH   1   2
BRANCH   1   9
HETATM    9  C3  UNL     1      13.290 -14.830   9.647  1.00  0.00     0.070 A 
HETATM   10  C4  UNL     1      14.617 -14.570   9.864  1.00  0.00     0.038 A 
HETATM   11  C5  UNL     1      15.435 -14.082   8.869  1.00  0.00     0.022 A 
HETATM   12  C6  UNL     1      14.922 -13.842   7.614  1.00  0.00     0.011 A 
HETATM   13 BR1  UNL     1      16.048 -13.160   6.207  1.00  0.00    -0.051 Br
HETATM   14  C7  UNL     1      13.589 -14.101   7.392  1.00  0.00     0.022 A 
HETATM   15  C8  UNL     1      12.781 -14.587   8.389  1.00  0.00     0.038 A 
ENDBRANCH   1   9
TORSDOF 4
ENDMDL
