MODEL 1
REMARK VINA RESULT: -7.038424845      0.000      0.000
REMARK  4 active torsions:
REMARK  status: ('A' for Active; 'I' for Inactive)
REMARK    1  A    between atoms: C1_2  and  C2_4 
REMARK    2  A    between atoms: C2_4  and  O3_5 
REMARK    3  A    between atoms: C2_4  and  C9_13 
REMARK    4  A    between atoms: O3_5  and  C3_6 
ROOT
HETATM    1  O3  UNL     1      12.813 -14.894  10.508  1.00  0.00    -0.324 OA
ENDROOT
BRANCH   1   2
HETATM    2  C2  UNL     1      12.718 -16.076  11.208  1.00  0.00     0.329 C 
BRANCH   2   3
HETATM    3  C1  UNL     1      13.860 -16.984  10.877  1.00  0.00     0.214 C 
HETATM    4  O1  UNL     1      14.923 -16.813  11.520  1.00  0.00    -0.646 OA
HETATM    5  O2  UNL     1      13.773 -17.973   9.911  1.00  0.00    -0.646 OA
ENDBRANCH   2   3
BRANCH   2   6
HETATM    6  C9  UNL     1      11.475 -16.838  10.964  1.00  0.00     0.214 C 
HETATM    7  O4  UNL     1      10.969 -17.439  11.938  1.00  0.00    -0.646 OA
HETATM    8  O5  UNL     1      10.844 -16.928   9.740  1.00  0.00    -0.646 OA
ENDBRANCH   2   6
ENDBRANCH   1   2
BRANCH   1   9
HETATM    9  C3  UNL     1      13.560 -14.537   9.436  1.00  0.00     0.070 A 
HETATM   10  C4  UNL     1      14.833 -14.038   9.521  1.00  0.00     0.038 A 
HETATM   11  C5  UNL     1      15.555 -13.689   8.400  1.00  0.00     0.022 A 
HETATM   12  C6  UNL     1      14.997 -13.838   7.150  1.00  0.00     0.011 A 
HETATM   13 BR1  UNL     1      15.987 -13.356   5.569  1.00  0.00    -0.051 Br
HETATM   14  C7  UNL     1      13.718 -14.338   7.060  1.00  0.00     0.022 A 
HETATM   15  C8  UNL     1      13.006 -14.684   8.182  1.00  0.00     0.038 A 
ENDBRANCH   1   9
TORSDOF 4
ENDMDL
