MODEL 2
REMARK VINA RESULT: -7.023929134      0.928      2.032
REMARK  4 active torsions:
REMARK  status: ('A' for Active; 'I' for Inactive)
REMARK    1  A    between atoms: C1_2  and  C2_4 
REMARK    2  A    between atoms: C2_4  and  O3_5 
REMARK    3  A    between atoms: C2_4  and  C9_13 
REMARK    4  A    between atoms: O3_5  and  C3_6 
ROOT
HETATM    1  O3  UNL     1      12.512 -15.300  10.541  1.00  0.00    -0.324 OA
ENDROOT
BRANCH   1   2
HETATM    2  C2  UNL     1      11.899 -16.518  10.734  1.00  0.00     0.329 C 
BRANCH   2   3
HETATM    3  C1  UNL     1      12.639 -17.333  11.747  1.00  0.00     0.214 C 
HETATM    4  O1  UNL     1      12.074 -18.374  12.157  1.00  0.00    -0.646 OA
HETATM    5  O2  UNL     1      13.889 -16.976  12.227  1.00  0.00    -0.646 OA
ENDBRANCH   2   3
BRANCH   2   6
HETATM    6  C9  UNL     1      11.781 -17.347   9.516  1.00  0.00     0.214 C 
HETATM    7  O4  UNL     1      10.731 -17.235   8.844  1.00  0.00    -0.646 OA
HETATM    8  O5  UNL     1      12.747 -18.230   9.077  1.00  0.00    -0.646 OA
ENDBRANCH   2   6
ENDBRANCH   1   2
BRANCH   1   9
HETATM    9  C3  UNL     1      13.268 -14.821   9.524  1.00  0.00     0.070 A 
HETATM   10  C4  UNL     1      12.794 -14.586   8.261  1.00  0.00     0.038 A 
HETATM   11  C5  UNL     1      13.603 -14.097   7.258  1.00  0.00     0.022 A 
HETATM   12  C6  UNL     1      14.930 -13.833   7.514  1.00  0.00     0.011 A 
HETATM   13 BR1  UNL     1      16.080 -13.150   6.128  1.00  0.00    -0.051 Br
HETATM   14  C7  UNL     1      15.411 -14.069   8.782  1.00  0.00     0.022 A 
HETATM   15  C8  UNL     1      14.598 -14.555   9.774  1.00  0.00     0.038 A 
ENDBRANCH   1   9
TORSDOF 4
ENDMDL
