MODEL 3
REMARK VINA RESULT: -7.013973246      0.048      1.219
REMARK  4 active torsions:
REMARK  status: ('A' for Active; 'I' for Inactive)
REMARK    1  A    between atoms: C1_2  and  C2_4 
REMARK    2  A    between atoms: C2_4  and  O3_5 
REMARK    3  A    between atoms: C2_4  and  C9_13 
REMARK    4  A    between atoms: O3_5  and  C3_6 
ROOT
HETATM    1  O3  UNL     1      12.830 -14.888  10.517  1.00  0.00    -0.324 OA
ENDROOT
BRANCH   1   2
HETATM    2  C2  UNL     1      12.738 -16.070  11.217  1.00  0.00     0.329 C 
BRANCH   2   3
HETATM    3  C1  UNL     1      13.875 -16.981  10.877  1.00  0.00     0.214 C 
HETATM    4  O1  UNL     1      14.946 -16.805  11.504  1.00  0.00    -0.646 OA
HETATM    5  O2  UNL     1      13.776 -17.977   9.919  1.00  0.00    -0.646 OA
ENDBRANCH   2   3
BRANCH   2   6
HETATM    6  C9  UNL     1      11.491 -16.829  10.981  1.00  0.00     0.214 C 
HETATM    7  O4  UNL     1      10.978 -17.409  11.965  1.00  0.00    -0.646 OA
HETATM    8  O5  UNL     1      10.865 -16.938   9.757  1.00  0.00    -0.646 OA
ENDBRANCH   2   6
ENDBRANCH   1   2
BRANCH   1   9
HETATM    9  C3  UNL     1      13.495 -14.561   9.382  1.00  0.00     0.070 A 
HETATM   10  C4  UNL     1      12.979 -14.708   8.121  1.00  0.00     0.038 A 
HETATM   11  C5  UNL     1      13.695 -14.361   6.997  1.00  0.00     0.022 A 
HETATM   12  C6  UNL     1      14.967 -13.849   7.123  1.00  0.00     0.011 A 
HETATM   13 BR1  UNL     1      15.986 -13.356   5.564  1.00  0.00    -0.051 Br
HETATM   14  C7  UNL     1      15.489 -13.699   8.387  1.00  0.00     0.022 A 
HETATM   15  C8  UNL     1      14.769 -14.048   9.502  1.00  0.00     0.038 A 
ENDBRANCH   1   9
TORSDOF 4
ENDMDL
