MODEL 5
REMARK VINA RESULT: -6.979443202      1.052      1.746
REMARK  4 active torsions:
REMARK  status: ('A' for Active; 'I' for Inactive)
REMARK    1  A    between atoms: C1_2  and  C2_4 
REMARK    2  A    between atoms: C2_4  and  O3_5 
REMARK    3  A    between atoms: C2_4  and  C9_13 
REMARK    4  A    between atoms: O3_5  and  C3_6 
ROOT
HETATM    1  O3  UNL     1      12.979 -15.581  10.463  1.00  0.00    -0.324 OA
ENDROOT
BRANCH   1   2
HETATM    2  C2  UNL     1      12.714 -16.917  10.664  1.00  0.00     0.329 C 
BRANCH   2   3
HETATM    3  C1  UNL     1      11.991 -17.499   9.490  1.00  0.00     0.214 C 
HETATM    4  O1  UNL     1      12.604 -18.366   8.823  1.00  0.00    -0.646 OA
HETATM    5  O2  UNL     1      10.707 -17.117   9.137  1.00  0.00    -0.646 OA
ENDBRANCH   2   3
BRANCH   2   6
HETATM    6  C9  UNL     1      11.899 -17.209  11.862  1.00  0.00     0.214 C 
HETATM    7  O4  UNL     1      11.865 -18.396  12.258  1.00  0.00    -0.646 OA
HETATM    8  O5  UNL     1      11.178 -16.265  12.563  1.00  0.00    -0.646 OA
ENDBRANCH   2   6
ENDBRANCH   1   2
BRANCH   1   9
HETATM    9  C3  UNL     1      13.633 -14.930   9.471  1.00  0.00     0.070 A 
HETATM   10  C4  UNL     1      14.918 -14.467   9.574  1.00  0.00     0.038 A 
HETATM   11  C5  UNL     1      15.541 -13.809   8.536  1.00  0.00     0.022 A 
HETATM   12  C6  UNL     1      14.868 -13.601   7.353  1.00  0.00     0.011 A 
HETATM   13 BR1  UNL     1      15.719 -12.684   5.888  1.00  0.00    -0.051 Br
HETATM   14  C7  UNL     1      13.576 -14.064   7.245  1.00  0.00     0.022 A 
HETATM   15  C8  UNL     1      12.963 -14.718   8.284  1.00  0.00     0.038 A 
ENDBRANCH   1   9
TORSDOF 4
ENDMDL
