MODEL 2
REMARK VINA RESULT: -7.333635047      3.666      7.333
REMARK  6 active torsions:
REMARK  status: ('A' for Active; 'I' for Inactive)
REMARK    1  A    between atoms: O1_2  and  C2_3 
REMARK    2  A    between atoms: C5_6  and  C6_7 
REMARK    3  A    between atoms: C6_7  and  C7_8 
REMARK    4  A    between atoms: C7_8  and  C8_9 
REMARK    5  A    between atoms: C7_8  and  C9_12 
REMARK    6  A    between atoms: C11_16  and  O6_17 
ROOT
HETATM    1  C2  UNL     1      15.306 -14.061   8.210  1.00  0.00     0.101 A 
HETATM    2  C3  UNL     1      16.146 -12.978   8.118  1.00  0.00     0.040 A 
HETATM    3  C4  UNL     1      15.936 -11.978   7.195  1.00  0.00     0.010 A 
HETATM    4  C5  UNL     1      14.847 -12.081   6.343  1.00  0.00    -0.054 A 
HETATM    5  C10 UNL     1      14.011 -13.169   6.442  1.00  0.00     0.046 A 
HETATM    6  C11 UNL     1      14.232 -14.155   7.365  1.00  0.00     0.102 A 
ENDROOT
BRANCH   4   7
HETATM    7  C6  UNL     1      14.612 -11.026   5.357  1.00  0.00     0.065 C 
BRANCH   7   8
HETATM    8  C7  UNL     1      13.999  -9.772   5.916  1.00  0.00     0.191 C 
BRANCH   8   9
HETATM    9  C8  UNL     1      14.919  -8.612   5.692  1.00  0.00     0.188 C 
HETATM   10  O2  UNL     1      15.323  -8.334   4.534  1.00  0.00    -0.647 OA
HETATM   11  O3  UNL     1      15.301  -7.866   6.805  1.00  0.00    -0.647 OA
ENDBRANCH   8   9
BRANCH   8  12
HETATM   12  C9  UNL     1      12.677  -9.475   5.339  1.00  0.00     0.188 C 
HETATM   13  O4  UNL     1      11.718  -9.184   6.085  1.00  0.00    -0.647 OA
HETATM   14  O5  UNL     1      12.476  -9.511   3.977  1.00  0.00    -0.647 OA
ENDBRANCH   8  12
ENDBRANCH   7   8
ENDBRANCH   4   7
BRANCH   6  15
HETATM   15  O6  UNL     1      13.391 -15.228   7.448  1.00  0.00    -0.353 OA
HETATM   16  C12 UNL     1      12.157 -15.339   6.783  1.00  0.00     0.210 C 
ENDBRANCH   6  15
BRANCH   1  17
HETATM   17  O1  UNL     1      15.592 -15.029   9.173  1.00  0.00    -0.353 OA
HETATM   18  C1  UNL     1      15.130 -14.930  10.491  1.00  0.00     0.210 C 
ENDBRANCH   1  17
TORSDOF 6
ENDMDL
