MODEL 3
REMARK VINA RESULT: -7.226923421      0.950      1.193
REMARK  6 active torsions:
REMARK  status: ('A' for Active; 'I' for Inactive)
REMARK    1  A    between atoms: O1_2  and  C2_3 
REMARK    2  A    between atoms: C5_6  and  C6_7 
REMARK    3  A    between atoms: C6_7  and  C7_8 
REMARK    4  A    between atoms: C7_8  and  C8_9 
REMARK    5  A    between atoms: C7_8  and  C9_12 
REMARK    6  A    between atoms: C11_16  and  O6_17 
ROOT
HETATM    1  C2  UNL     1      14.287 -13.536   7.272  1.00  0.00     0.101 A 
HETATM    2  C3  UNL     1      15.162 -13.549   8.331  1.00  0.00     0.040 A 
HETATM    3  C4  UNL     1      14.796 -14.043   9.564  1.00  0.00     0.010 A 
HETATM    4  C5  UNL     1      13.510 -14.536   9.724  1.00  0.00    -0.054 A 
HETATM    5  C10 UNL     1      12.642 -14.520   8.659  1.00  0.00     0.046 A 
HETATM    6  C11 UNL     1      13.019 -14.025   7.440  1.00  0.00     0.102 A 
ENDROOT
BRANCH   4   7
HETATM    7  C6  UNL     1      13.109 -15.064  11.028  1.00  0.00     0.065 C 
BRANCH   7   8
HETATM    8  C7  UNL     1      12.579 -16.471  10.998  1.00  0.00     0.191 C 
BRANCH   8   9
HETATM    9  C8  UNL     1      13.697 -17.430  10.730  1.00  0.00     0.188 C 
HETATM   10  O2  UNL     1      13.489 -18.480  10.069  1.00  0.00    -0.647 OA
HETATM   11  O3  UNL     1      14.956 -17.113  11.235  1.00  0.00    -0.647 OA
ENDBRANCH   8   9
BRANCH   8  12
HETATM   12  C9  UNL     1      11.888 -16.850  12.242  1.00  0.00     0.188 C 
HETATM   13  O4  UNL     1      10.985 -16.122  12.706  1.00  0.00    -0.647 OA
HETATM   14  O5  UNL     1      12.222 -18.007  12.910  1.00  0.00    -0.647 OA
ENDBRANCH   8  12
ENDBRANCH   7   8
ENDBRANCH   4   7
BRANCH   6  15
HETATM   15  O6  UNL     1      12.141 -14.017   6.393  1.00  0.00    -0.353 OA
HETATM   16  C12 UNL     1      10.848 -14.570   6.419  1.00  0.00     0.210 C 
ENDBRANCH   6  15
BRANCH   1  17
HETATM   17  O1  UNL     1      14.739 -13.017   6.059  1.00  0.00    -0.353 OA
HETATM   18  C1  UNL     1      16.007 -13.313   5.546  1.00  0.00     0.210 C 
ENDBRANCH   1  17
TORSDOF 6
ENDMDL
