MODEL 4
REMARK VINA RESULT: -7.028609106      0.857      2.019
REMARK  6 active torsions:
REMARK  status: ('A' for Active; 'I' for Inactive)
REMARK    1  A    between atoms: O1_2  and  C2_3 
REMARK    2  A    between atoms: C5_6  and  C6_7 
REMARK    3  A    between atoms: C6_7  and  C7_8 
REMARK    4  A    between atoms: C7_8  and  C8_9 
REMARK    5  A    between atoms: C7_8  and  C9_12 
REMARK    6  A    between atoms: C11_16  and  O6_17 
ROOT
HETATM    1  C2  UNL     1      14.069 -14.368   7.443  1.00  0.00     0.101 A 
HETATM    2  C3  UNL     1      14.777 -13.979   8.555  1.00  0.00     0.040 A 
HETATM    3  C4  UNL     1      14.328 -14.250   9.828  1.00  0.00     0.010 A 
HETATM    4  C5  UNL     1      13.130 -14.933   9.976  1.00  0.00    -0.054 A 
HETATM    5  C10 UNL     1      12.429 -15.320   8.858  1.00  0.00     0.046 A 
HETATM    6  C11 UNL     1      12.887 -15.043   7.599  1.00  0.00     0.102 A 
ENDROOT
BRANCH   4   7
HETATM    7  C6  UNL     1      12.641 -15.227  11.323  1.00  0.00     0.065 C 
BRANCH   7   8
HETATM    8  C7  UNL     1      12.997 -16.595  11.833  1.00  0.00     0.191 C 
BRANCH   8   9
HETATM    9  C8  UNL     1      11.751 -17.389  12.076  1.00  0.00     0.188 C 
HETATM   10  O2  UNL     1      10.621 -16.848  11.969  1.00  0.00    -0.647 OA
HETATM   11  O3  UNL     1      11.896 -18.731  12.419  1.00  0.00    -0.647 OA
ENDBRANCH   8   9
BRANCH   8  12
HETATM   12  C9  UNL     1      13.885 -17.334  10.920  1.00  0.00     0.188 C 
HETATM   13  O4  UNL     1      15.122 -17.162  10.970  1.00  0.00    -0.647 OA
HETATM   14  O5  UNL     1      13.372 -18.222  10.000  1.00  0.00    -0.647 OA
ENDBRANCH   8  12
ENDBRANCH   7   8
ENDBRANCH   4   7
BRANCH   6  15
HETATM   15  O6  UNL     1      12.176 -15.435   6.500  1.00  0.00    -0.353 OA
HETATM   16  C12 UNL     1      10.814 -15.161   6.280  1.00  0.00     0.210 C 
ENDBRANCH   6  15
BRANCH   1  17
HETATM   17  O1  UNL     1      14.596 -14.053   6.191  1.00  0.00    -0.353 OA
HETATM   18  C1  UNL     1      15.771 -14.638   5.706  1.00  0.00     0.210 C 
ENDBRANCH   1  17
TORSDOF 6
ENDMDL
