MODEL 8
REMARK VINA RESULT: -6.982365866      1.425      5.795
REMARK  6 active torsions:
REMARK  status: ('A' for Active; 'I' for Inactive)
REMARK    1  A    between atoms: O1_2  and  C2_3 
REMARK    2  A    between atoms: C5_6  and  C6_7 
REMARK    3  A    between atoms: C6_7  and  C7_8 
REMARK    4  A    between atoms: C7_8  and  C8_9 
REMARK    5  A    between atoms: C7_8  and  C9_12 
REMARK    6  A    between atoms: C11_16  and  O6_17 
ROOT
HETATM    1  C2  UNL     1      14.979 -16.203  11.466  1.00  0.00     0.101 A 
HETATM    2  C3  UNL     1      15.429 -15.160  10.692  1.00  0.00     0.040 A 
HETATM    3  C4  UNL     1      14.609 -14.531   9.782  1.00  0.00     0.010 A 
HETATM    4  C5  UNL     1      13.301 -14.974   9.653  1.00  0.00    -0.054 A 
HETATM    5  C10 UNL     1      12.859 -16.017  10.432  1.00  0.00     0.046 A 
HETATM    6  C11 UNL     1      13.686 -16.632  11.333  1.00  0.00     0.102 A 
ENDROOT
BRANCH   4   7
HETATM    7  C6  UNL     1      12.419 -14.315   8.688  1.00  0.00     0.065 C 
BRANCH   7   8
HETATM    8  C7  UNL     1      12.190 -15.091   7.421  1.00  0.00     0.191 C 
BRANCH   8   9
HETATM    9  C8  UNL     1      11.024 -14.516   6.676  1.00  0.00     0.188 C 
HETATM   10  O2  UNL     1      10.573 -15.097   5.656  1.00  0.00    -0.647 OA
HETATM   11  O3  UNL     1      10.471 -13.332   7.156  1.00  0.00    -0.647 OA
ENDBRANCH   8   9
BRANCH   8  12
HETATM   12  C9  UNL     1      13.373 -15.119   6.544  1.00  0.00     0.188 C 
HETATM   13  O4  UNL     1      13.734 -16.190   6.011  1.00  0.00    -0.647 OA
HETATM   14  O5  UNL     1      14.097 -13.974   6.298  1.00  0.00    -0.647 OA
ENDBRANCH   8  12
ENDBRANCH   7   8
ENDBRANCH   4   7
BRANCH   6  15
HETATM   15  O6  UNL     1      13.229 -17.668  12.098  1.00  0.00    -0.353 OA
HETATM   16  C12 UNL     1      11.892 -18.100  12.156  1.00  0.00     0.210 C 
ENDBRANCH   6  15
BRANCH   1  17
HETATM   17  O1  UNL     1      15.876 -16.782  12.364  1.00  0.00    -0.353 OA
HETATM   18  C1  UNL     1      17.238 -16.925  12.071  1.00  0.00     0.210 C 
ENDBRANCH   1  17
TORSDOF 6
ENDMDL
