MODEL 19
REMARK VINA RESULT: -6.300164159      6.873      8.643
REMARK  5 active torsions:
REMARK  status: ('A' for Active; 'I' for Inactive)
REMARK    1  A    between atoms: C2_2  and  N1_3 
REMARK       I    between atoms: N1_3  and  C3_5 
REMARK       I    between atoms: C3_5  and  N2_7 
REMARK    2  A    between atoms: N2_7  and  C4_9 
REMARK    3  A    between atoms: C4_9  and  C5_10 
REMARK    4  A    between atoms: C5_10  and  C6_11 
REMARK       I    between atoms: C6_11  and  N3_13 
REMARK    5  A    between atoms: N3_13  and  C7_15 
ROOT
HETATM    1  C6  UNL     1      17.205  -6.808   1.018  1.00  0.00     0.223 C 
HETATM    2  O2  UNL     1      17.527  -7.977   1.242  1.00  0.00    -0.273 OA
HETATM    3  N3  UNL     1      18.080  -5.916   0.377  1.00  0.00    -0.327 N 
ATOM      4  H3  UNL     1      17.735  -4.967   0.231  1.00  0.00     0.169 HD
ENDROOT
BRANCH   3   5
HETATM    5  C7  UNL     1      19.384  -6.189  -0.086  1.00  0.00     0.036 A 
HETATM    6  C8  UNL     1      20.476  -5.756   0.650  1.00  0.00     0.032 A 
HETATM    7  C9  UNL     1      21.764  -5.963   0.298  1.00  0.00     0.033 A 
HETATM    8  C10 UNL     1      22.082  -6.660  -0.881  1.00  0.00     0.050 A 
HETATM    9  N4  UNL     1      23.278  -6.924  -1.327  1.00  0.00    -0.353 N 
HETATM   10  C13 UNL     1      21.020  -7.097  -1.623  1.00  0.00     0.035 A 
HETATM   11  C11 UNL     1      23.443  -7.584  -2.448  1.00  0.00     0.048 A 
ATOM     12  H4  UNL     1      24.093  -6.613  -0.799  1.00  0.00     0.166 HD
HETATM   13  C12 UNL     1      24.717  -7.995  -3.143  1.00  0.00     0.076 C 
HETATM   14  S1  UNL     1      21.814  -7.866  -2.928  1.00  0.00    -0.075 SA
HETATM   15  C14 UNL     1      19.692  -6.868  -1.237  1.00  0.00     0.050 A 
ENDBRANCH   3   5
BRANCH   1  16
HETATM   16  C5  UNL     1      15.853  -6.342   1.442  1.00  0.00     0.123 C 
BRANCH  16  17
HETATM   17  C4  UNL     1      14.909  -7.488   1.652  1.00  0.00     0.133 C 
BRANCH  17  18
HETATM   18  N2  UNL     1      14.919  -7.869   3.043  1.00  0.00    -0.343 N 
HETATM   19  C3  UNL     1      14.209  -8.980   3.543  1.00  0.00     0.316 C 
HETATM   20  N1  UNL     1      14.245  -9.338   4.931  1.00  0.00    -0.344 N 
HETATM   21  O1  UNL     1      13.517  -9.696   2.784  1.00  0.00    -0.247 OA
ATOM     22  H1  UNL     1      14.794  -8.783   5.587  1.00  0.00     0.164 HD
ATOM     23  H2  UNL     1      15.466  -7.309   3.696  1.00  0.00     0.164 HD
BRANCH  20  24
HETATM   24  C2  UNL     1      13.504 -10.480   5.399  1.00  0.00     0.120 C 
HETATM   25  C1  UNL     1      12.137 -10.005   5.839  1.00  0.00     0.026 C 
ENDBRANCH  20  24
ENDBRANCH  17  18
ENDBRANCH  16  17
ENDBRANCH   1  16
TORSDOF 5
ENDMDL
