MODEL 14
REMARK VINA RESULT: -6.496917322      7.298      8.907
REMARK  5 active torsions:
REMARK  status: ('A' for Active; 'I' for Inactive)
REMARK    1  A    between atoms: C2_2  and  N1_3 
REMARK       I    between atoms: N1_3  and  C3_5 
REMARK       I    between atoms: C3_5  and  N2_7 
REMARK    2  A    between atoms: N2_7  and  C4_9 
REMARK    3  A    between atoms: C4_9  and  C5_10 
REMARK    4  A    between atoms: C5_10  and  C6_11 
REMARK       I    between atoms: C6_11  and  N3_13 
REMARK    5  A    between atoms: N3_13  and  C7_15 
ROOT
HETATM    1  C6  UNL     1      17.827  -6.950   0.978  1.00  0.00     0.223 C 
HETATM    2  O2  UNL     1      17.904  -8.140   0.663  1.00  0.00    -0.273 OA
HETATM    3  N3  UNL     1      18.857  -6.043   0.677  1.00  0.00    -0.327 N 
ATOM      4  H3  UNL     1      18.713  -5.078   0.973  1.00  0.00     0.169 HD
ENDROOT
BRANCH   3   5
HETATM    5  C7  UNL     1      20.067  -6.323   0.010  1.00  0.00     0.036 A 
HETATM    6  C8  UNL     1      21.271  -5.969   0.600  1.00  0.00     0.032 A 
HETATM    7  C9  UNL     1      22.485  -6.190   0.050  1.00  0.00     0.033 A 
HETATM    8  C10 UNL     1      22.600  -6.817  -1.204  1.00  0.00     0.050 A 
HETATM    9  N4  UNL     1      23.707  -7.084  -1.837  1.00  0.00    -0.353 N 
HETATM   10  C13 UNL     1      21.426  -7.174  -1.805  1.00  0.00     0.035 A 
HETATM   11  C11 UNL     1      23.682  -7.674  -3.008  1.00  0.00     0.048 A 
ATOM     12  H4  UNL     1      24.602  -6.832  -1.418  1.00  0.00     0.166 HD
HETATM   13  C12 UNL     1      24.824  -8.074  -3.908  1.00  0.00     0.076 C 
HETATM   14  S1  UNL     1      21.990  -7.879  -3.257  1.00  0.00    -0.075 SA
HETATM   15  C14 UNL     1      20.178  -6.933  -1.213  1.00  0.00     0.050 A 
ENDBRANCH   3   5
BRANCH   1  16
HETATM   16  C5  UNL     1      16.608  -6.474   1.695  1.00  0.00     0.123 C 
BRANCH  16  17
HETATM   17  C4  UNL     1      16.551  -6.996   3.100  1.00  0.00     0.133 C 
BRANCH  17  18
HETATM   18  N2  UNL     1      15.797  -8.226   3.124  1.00  0.00    -0.343 N 
HETATM   19  C3  UNL     1      15.168  -8.723   4.284  1.00  0.00     0.316 C 
HETATM   20  N1  UNL     1      14.419  -9.945   4.274  1.00  0.00    -0.344 N 
HETATM   21  O1  UNL     1      15.247  -8.107   5.372  1.00  0.00    -0.247 OA
ATOM     22  H1  UNL     1      14.328 -10.481   3.411  1.00  0.00     0.164 HD
ATOM     23  H2  UNL     1      15.714  -8.761   2.260  1.00  0.00     0.164 HD
BRANCH  20  24
HETATM   24  C2  UNL     1      13.793 -10.415   5.482  1.00  0.00     0.120 C 
HETATM   25  C1  UNL     1      12.392  -9.845   5.538  1.00  0.00     0.026 C 
ENDBRANCH  20  24
ENDBRANCH  17  18
ENDBRANCH  16  17
ENDBRANCH   1  16
TORSDOF 5
ENDMDL
