MODEL 1
REMARK VINA RESULT: -7.109747894      0.000      0.000
REMARK  5 active torsions:
REMARK  status: ('A' for Active; 'I' for Inactive)
REMARK    1  A    between atoms: C2_2  and  N1_3 
REMARK       I    between atoms: N1_3  and  C3_5 
REMARK       I    between atoms: C3_5  and  N2_7 
REMARK    2  A    between atoms: N2_7  and  C4_9 
REMARK    3  A    between atoms: C4_9  and  C5_10 
REMARK    4  A    between atoms: C5_10  and  C6_11 
REMARK       I    between atoms: C6_11  and  N3_13 
REMARK    5  A    between atoms: N3_13  and  C7_15 
ROOT
HETATM    1  C6  UNL     1      15.645 -12.243   5.987  1.00  0.00     0.223 C 
HETATM    2  O2  UNL     1      15.453 -12.910   4.968  1.00  0.00    -0.273 OA
HETATM    3  N3  UNL     1      15.201 -10.914   6.088  1.00  0.00    -0.327 N 
ATOM      4  H3  UNL     1      15.402 -10.433   6.965  1.00  0.00     0.169 HD
ENDROOT
BRANCH   3   5
HETATM    5  C7  UNL     1      14.508 -10.173   5.109  1.00  0.00     0.036 A 
HETATM    6  C8  UNL     1      13.181  -9.829   5.324  1.00  0.00     0.032 A 
HETATM    7  C9  UNL     1      12.425  -9.123   4.454  1.00  0.00     0.033 A 
HETATM    8  C10 UNL     1      12.964  -8.678   3.234  1.00  0.00     0.050 A 
HETATM    9  N4  UNL     1      12.341  -7.993   2.316  1.00  0.00    -0.353 N 
HETATM   10  C13 UNL     1      14.270  -9.005   3.000  1.00  0.00     0.035 A 
HETATM   11  C11 UNL     1      12.957  -7.637   1.215  1.00  0.00     0.048 A 
ATOM     12  H4  UNL     1      11.366  -7.731   2.457  1.00  0.00     0.166 HD
HETATM   13  C12 UNL     1      12.440  -6.853   0.035  1.00  0.00     0.076 C 
HETATM   14  S1  UNL     1      14.526  -8.302   1.463  1.00  0.00    -0.075 SA
HETATM   15  C14 UNL     1      15.034  -9.740   3.919  1.00  0.00     0.050 A 
ENDBRANCH   3   5
BRANCH   1  16
HETATM   16  C5  UNL     1      16.367 -12.870   7.131  1.00  0.00     0.123 C 
BRANCH  16  17
HETATM   17  C4  UNL     1      15.824 -14.231   7.453  1.00  0.00     0.133 C 
BRANCH  17  18
HETATM   18  N2  UNL     1      14.443 -14.113   7.851  1.00  0.00    -0.343 N 
HETATM   19  C3  UNL     1      13.393 -14.797   7.203  1.00  0.00     0.316 C 
HETATM   20  N1  UNL     1      12.030 -14.665   7.627  1.00  0.00    -0.344 N 
HETATM   21  O1  UNL     1      13.620 -15.547   6.226  1.00  0.00    -0.247 OA
ATOM     22  H1  UNL     1      11.797 -14.065   8.418  1.00  0.00     0.164 HD
ATOM     23  H2  UNL     1      14.214 -13.507   8.639  1.00  0.00     0.164 HD
BRANCH  20  24
HETATM   24  C2  UNL     1      10.990 -15.382   6.937  1.00  0.00     0.120 C 
HETATM   25  C1  UNL     1      10.257 -14.402   6.045  1.00  0.00     0.026 C 
ENDBRANCH  20  24
ENDBRANCH  17  18
ENDBRANCH  16  17
ENDBRANCH   1  16
TORSDOF 5
ENDMDL
