MODEL 6
REMARK VINA RESULT: -6.831034114      6.995      8.619
REMARK  5 active torsions:
REMARK  status: ('A' for Active; 'I' for Inactive)
REMARK    1  A    between atoms: C2_2  and  N1_3 
REMARK       I    between atoms: N1_3  and  C3_5 
REMARK       I    between atoms: C3_5  and  N2_7 
REMARK    2  A    between atoms: N2_7  and  C4_9 
REMARK    3  A    between atoms: C4_9  and  C5_10 
REMARK    4  A    between atoms: C5_10  and  C6_11 
REMARK       I    between atoms: C6_11  and  N3_13 
REMARK    5  A    between atoms: N3_13  and  C7_15 
ROOT
HETATM    1  C6  UNL     1      17.519  -7.034   1.228  1.00  0.00     0.223 C 
HETATM    2  O2  UNL     1      17.609  -8.163   0.742  1.00  0.00    -0.273 OA
HETATM    3  N3  UNL     1      18.551  -6.091   1.091  1.00  0.00    -0.327 N 
ATOM      4  H3  UNL     1      18.397  -5.181   1.524  1.00  0.00     0.169 HD
ENDROOT
BRANCH   3   5
HETATM    5  C7  UNL     1      19.778  -6.267   0.418  1.00  0.00     0.036 A 
HETATM    6  C8  UNL     1      20.943  -5.760   0.975  1.00  0.00     0.032 A 
HETATM    7  C9  UNL     1      22.168  -5.872   0.416  1.00  0.00     0.033 A 
HETATM    8  C10 UNL     1      22.337  -6.537  -0.812  1.00  0.00     0.050 A 
HETATM    9  N4  UNL     1      23.461  -6.711  -1.449  1.00  0.00    -0.353 N 
HETATM   10  C13 UNL     1      21.203  -7.046  -1.380  1.00  0.00     0.035 A 
HETATM   11  C11 UNL     1      23.488  -7.351  -2.593  1.00  0.00     0.048 A 
ATOM     12  H4  UNL     1      24.327  -6.345  -1.054  1.00  0.00     0.166 HD
HETATM   13  C12 UNL     1      24.657  -7.664  -3.492  1.00  0.00     0.076 C 
HETATM   14  S1  UNL     1      21.826  -7.748  -2.808  1.00  0.00    -0.075 SA
HETATM   15  C14 UNL     1      19.942  -6.916  -0.779  1.00  0.00     0.050 A 
ENDBRANCH   3   5
BRANCH   1  16
HETATM   16  C5  UNL     1      16.282  -6.671   1.979  1.00  0.00     0.123 C 
BRANCH  16  17
HETATM   17  C4  UNL     1      15.240  -7.746   1.886  1.00  0.00     0.133 C 
BRANCH  17  18
HETATM   18  N2  UNL     1      15.679  -8.905   2.623  1.00  0.00    -0.343 N 
HETATM   19  C3  UNL     1      14.961  -9.447   3.709  1.00  0.00     0.316 C 
HETATM   20  N1  UNL     1      15.421 -10.606   4.417  1.00  0.00    -0.344 N 
HETATM   21  O1  UNL     1      13.889  -8.926   4.094  1.00  0.00    -0.247 OA
ATOM     22  H1  UNL     1      16.289 -11.062   4.139  1.00  0.00     0.164 HD
ATOM     23  H2  UNL     1      16.551  -9.355   2.345  1.00  0.00     0.164 HD
BRANCH  20  24
HETATM   24  C2  UNL     1      14.655 -11.125   5.520  1.00  0.00     0.120 C 
HETATM   25  C1  UNL     1      15.252 -12.457   5.920  1.00  0.00     0.026 C 
ENDBRANCH  20  24
ENDBRANCH  17  18
ENDBRANCH  16  17
ENDBRANCH   1  16
TORSDOF 5
ENDMDL
