MODEL 2
REMARK VINA RESULT: -7.093954347      3.718      8.534
REMARK  5 active torsions:
REMARK  status: ('A' for Active; 'I' for Inactive)
REMARK    1  A    between atoms: C2_2  and  N1_3 
REMARK       I    between atoms: N1_3  and  C3_5 
REMARK       I    between atoms: C3_5  and  N2_7 
REMARK    2  A    between atoms: N2_7  and  C4_9 
REMARK    3  A    between atoms: C4_9  and  C5_10 
REMARK    4  A    between atoms: C5_10  and  C6_11 
REMARK       I    between atoms: C6_11  and  N3_13 
REMARK    5  A    between atoms: N3_13  and  C7_15 
ROOT
HETATM    1  C6  UNL     1      15.927 -13.356   5.477  1.00  0.00     0.223 C 
HETATM    2  O2  UNL     1      16.332 -14.517   5.393  1.00  0.00    -0.273 OA
HETATM    3  N3  UNL     1      15.142 -12.929   6.560  1.00  0.00    -0.327 N 
ATOM      4  H3  UNL     1      14.847 -11.952   6.552  1.00  0.00     0.169 HD
ENDROOT
BRANCH   3   5
HETATM    5  C7  UNL     1      14.716 -13.704   7.659  1.00  0.00     0.036 A 
HETATM    6  C8  UNL     1      15.471 -13.712   8.823  1.00  0.00     0.032 A 
HETATM    7  C9  UNL     1      15.156 -14.417   9.932  1.00  0.00     0.033 A 
HETATM    8  C10 UNL     1      13.997 -15.214   9.969  1.00  0.00     0.050 A 
HETATM    9  N4  UNL     1      13.587 -15.937  10.973  1.00  0.00    -0.353 N 
HETATM   10  C13 UNL     1      13.238 -15.222   8.833  1.00  0.00     0.035 A 
HETATM   11  C11 UNL     1      12.484 -16.641  10.883  1.00  0.00     0.048 A 
ATOM     12  H4  UNL     1      14.129 -15.954  11.837  1.00  0.00     0.166 HD
HETATM   13  C12 UNL     1      11.829 -17.536  11.904  1.00  0.00     0.076 C 
HETATM   14  S1  UNL     1      11.970 -16.277   9.280  1.00  0.00    -0.075 SA
HETATM   15  C14 UNL     1      13.587 -14.481   7.694  1.00  0.00     0.050 A 
ENDBRANCH   3   5
BRANCH   1  16
HETATM   16  C5  UNL     1      16.283 -12.391   4.396  1.00  0.00     0.123 C 
BRANCH  16  17
HETATM   17  C4  UNL     1      15.398 -11.180   4.418  1.00  0.00     0.133 C 
BRANCH  17  18
HETATM   18  N2  UNL     1      16.055 -10.094   3.733  1.00  0.00    -0.343 N 
HETATM   19  C3  UNL     1      15.379  -8.937   3.294  1.00  0.00     0.316 C 
HETATM   20  N1  UNL     1      16.063  -7.870   2.623  1.00  0.00    -0.344 N 
HETATM   21  O1  UNL     1      14.148  -8.804   3.479  1.00  0.00    -0.247 OA
ATOM     22  H1  UNL     1      17.065  -7.936   2.451  1.00  0.00     0.164 HD
ATOM     23  H2  UNL     1      17.057 -10.166   3.558  1.00  0.00     0.164 HD
BRANCH  20  24
HETATM   24  C2  UNL     1      15.332  -6.707   2.193  1.00  0.00     0.120 C 
HETATM   25  C1  UNL     1      16.033  -6.135   0.980  1.00  0.00     0.026 C 
ENDBRANCH  20  24
ENDBRANCH  17  18
ENDBRANCH  16  17
ENDBRANCH   1  16
TORSDOF 5
ENDMDL
