MODEL 3
REMARK VINA RESULT: -6.983856501      3.706      8.460
REMARK  5 active torsions:
REMARK  status: ('A' for Active; 'I' for Inactive)
REMARK    1  A    between atoms: C2_2  and  N1_3 
REMARK       I    between atoms: N1_3  and  C3_5 
REMARK       I    between atoms: C3_5  and  N2_7 
REMARK    2  A    between atoms: N2_7  and  C4_9 
REMARK    3  A    between atoms: C4_9  and  C5_10 
REMARK    4  A    between atoms: C5_10  and  C6_11 
REMARK       I    between atoms: C6_11  and  N3_13 
REMARK    5  A    between atoms: N3_13  and  C7_15 
ROOT
HETATM    1  C6  UNL     1      15.667 -13.374   5.399  1.00  0.00     0.223 C 
HETATM    2  O2  UNL     1      16.219 -14.474   5.466  1.00  0.00    -0.273 OA
HETATM    3  N3  UNL     1      14.519 -13.082   6.155  1.00  0.00    -0.327 N 
ATOM      4  H3  UNL     1      14.124 -12.148   6.040  1.00  0.00     0.169 HD
ENDROOT
BRANCH   3   5
HETATM    5  C7  UNL     1      13.853 -13.940   7.054  1.00  0.00     0.036 A 
HETATM    6  C8  UNL     1      12.674 -14.558   6.664  1.00  0.00     0.032 A 
HETATM    7  C9  UNL     1      11.957 -15.396   7.444  1.00  0.00     0.033 A 
HETATM    8  C10 UNL     1      12.385 -15.703   8.749  1.00  0.00     0.050 A 
HETATM    9  N4  UNL     1      11.785 -16.492   9.595  1.00  0.00    -0.353 N 
HETATM   10  C13 UNL     1      13.545 -15.105   9.155  1.00  0.00     0.035 A 
HETATM   11  C11 UNL     1      12.287 -16.697  10.789  1.00  0.00     0.048 A 
ATOM     12  H4  UNL     1      10.917 -16.955   9.325  1.00  0.00     0.166 HD
HETATM   13  C12 UNL     1      11.770 -17.557  11.914  1.00  0.00     0.076 C 
HETATM   14  S1  UNL     1      13.704 -15.720  10.742  1.00  0.00    -0.075 SA
HETATM   15  C14 UNL     1      14.271 -14.238   8.325  1.00  0.00     0.050 A 
ENDBRANCH   3   5
BRANCH   1  16
HETATM   16  C5  UNL     1      16.238 -12.336   4.493  1.00  0.00     0.123 C 
BRANCH  16  17
HETATM   17  C4  UNL     1      15.361 -11.122   4.414  1.00  0.00     0.133 C 
BRANCH  17  18
HETATM   18  N2  UNL     1      16.063 -10.068   3.723  1.00  0.00    -0.343 N 
HETATM   19  C3  UNL     1      15.437  -8.881   3.289  1.00  0.00     0.316 C 
HETATM   20  N1  UNL     1      16.165  -7.848   2.611  1.00  0.00    -0.344 N 
HETATM   21  O1  UNL     1      14.215  -8.689   3.484  1.00  0.00    -0.247 OA
ATOM     22  H1  UNL     1      17.161  -7.960   2.429  1.00  0.00     0.164 HD
ATOM     23  H2  UNL     1      17.059 -10.188   3.538  1.00  0.00     0.164 HD
BRANCH  20  24
HETATM   24  C2  UNL     1      15.486  -6.651   2.186  1.00  0.00     0.120 C 
HETATM   25  C1  UNL     1      16.117  -6.189   0.891  1.00  0.00     0.026 C 
ENDBRANCH  20  24
ENDBRANCH  17  18
ENDBRANCH  16  17
ENDBRANCH   1  16
TORSDOF 5
ENDMDL
