MODEL 1
REMARK VINA RESULT: -8.802722887      0.000      0.000
REMARK  1 active torsions:
REMARK  status: ('A' for Active; 'I' for Inactive)
REMARK    1  A    between atoms: O1_2  and  C2_3 
ROOT
HETATM    1  C2  UNL     1      -6.102 -32.226 -28.508  1.00  0.00     0.127 C 
HETATM    2  C3  UNL     1      -5.334 -31.113 -27.864  1.00  0.00     0.059 C 
HETATM    3  C4  UNL     1      -4.274 -31.686 -26.998  1.00  0.00    -0.018 C 
HETATM    4  C5  UNL     1      -4.098 -32.925 -26.668  1.00  0.00    -0.039 C 
HETATM    5  C6  UNL     1      -3.131 -33.668 -25.839  1.00  0.00     0.067 C 
HETATM    6  C7  UNL     1      -4.057 -34.644 -25.139  1.00  0.00     0.279 C 
HETATM    7  N1  UNL     1      -5.228 -34.833 -25.986  1.00  0.00     0.107 N 
HETATM    8  C8  UNL     1      -5.444 -36.220 -26.168  1.00  0.00     0.279 C 
HETATM    9  C9  UNL     1      -5.847 -36.643 -27.571  1.00  0.00     0.067 C 
HETATM   10  C10 UNL     1      -4.820 -36.038 -28.454  1.00  0.00    -0.049 C 
HETATM   11  C11 UNL     1      -4.403 -34.775 -28.272  1.00  0.00    -0.023 C 
HETATM   12  C12 UNL     1      -3.367 -34.250 -29.202  1.00  0.00     0.148 C 
HETATM   13  C13 UNL     1      -3.793 -34.710 -30.569  1.00  0.00     0.263 C 
HETATM   14  O2  UNL     1      -3.719 -33.970 -31.572  1.00  0.00    -0.265 OA
HETATM   15  O3  UNL     1      -4.283 -35.998 -30.720  1.00  0.00    -0.317 OA
HETATM   16  C14 UNL     1      -4.251 -36.835 -29.554  1.00  0.00     0.213 C 
HETATM   17  C15 UNL     1      -5.025 -34.032 -27.157  1.00  0.00     0.209 C 
HETATM   18  C16 UNL     1      -6.307 -33.326 -27.506  1.00  0.00     0.083 C 
ENDROOT
BRANCH   1  19
HETATM   19  O1  UNL     1      -7.390 -31.818 -28.889  1.00  0.00    -0.390 OA
HETATM   20  C1  UNL     1      -7.824 -30.738 -28.127  1.00  0.00     0.202 C 
ENDBRANCH   1  19
TORSDOF 1
ENDMDL
