MODEL 3
REMARK VINA RESULT: -5.834546589      8.167     10.251
REMARK  1 active torsions:
REMARK  status: ('A' for Active; 'I' for Inactive)
REMARK    1  A    between atoms: O1_2  and  C2_3 
ROOT
HETATM    1  C2  UNL     1      -2.553 -28.523 -34.743  1.00  0.00     0.127 C 
HETATM    2  C3  UNL     1      -3.653 -28.139 -35.683  1.00  0.00     0.059 C 
HETATM    3  C4  UNL     1      -4.272 -26.872 -35.221  1.00  0.00    -0.018 C 
HETATM    4  C5  UNL     1      -4.066 -26.243 -34.108  1.00  0.00    -0.039 C 
HETATM    5  C6  UNL     1      -4.574 -25.006 -33.487  1.00  0.00     0.067 C 
HETATM    6  C7  UNL     1      -4.736 -25.465 -32.049  1.00  0.00     0.279 C 
HETATM    7  N1  UNL     1      -3.809 -26.567 -31.825  1.00  0.00     0.107 N 
HETATM    8  C8  UNL     1      -3.051 -26.299 -30.661  1.00  0.00     0.279 C 
HETATM    9  C9  UNL     1      -1.575 -26.653 -30.744  1.00  0.00     0.067 C 
HETATM   10  C10 UNL     1      -1.098 -25.987 -31.981  1.00  0.00    -0.049 C 
HETATM   11  C11 UNL     1      -1.819 -26.025 -33.112  1.00  0.00    -0.023 C 
HETATM   12  C12 UNL     1      -1.267 -25.327 -34.306  1.00  0.00     0.148 C 
HETATM   13  C13 UNL     1       0.192 -25.687 -34.334  1.00  0.00     0.263 C 
HETATM   14  O2  UNL     1       0.787 -25.968 -35.395  1.00  0.00    -0.265 OA
HETATM   15  O3  UNL     1       0.901 -25.706 -33.142  1.00  0.00    -0.317 OA
HETATM   16  C14 UNL     1       0.191 -25.277 -31.970  1.00  0.00     0.213 C 
HETATM   17  C15 UNL     1      -3.097 -26.764 -33.053  1.00  0.00     0.209 C 
HETATM   18  C16 UNL     1      -2.987 -28.239 -33.334  1.00  0.00     0.083 C 
ENDROOT
BRANCH   1  19
HETATM   19  O1  UNL     1      -2.288 -29.902 -34.785  1.00  0.00    -0.390 OA
HETATM   20  C1  UNL     1      -3.415 -30.620 -35.174  1.00  0.00     0.202 C 
ENDBRANCH   1  19
TORSDOF 1
ENDMDL
