MODEL 4
REMARK VINA RESULT: -5.035653071      8.787     10.986
REMARK  1 active torsions:
REMARK  status: ('A' for Active; 'I' for Inactive)
REMARK    1  A    between atoms: O1_2  and  C2_3 
ROOT
HETATM    1  C2  UNL     1      -2.908 -29.754 -35.633  1.00  0.00     0.127 C 
HETATM    2  C3  UNL     1      -3.413 -29.909 -37.034  1.00  0.00     0.059 C 
HETATM    3  C4  UNL     1      -3.836 -28.584 -37.551  1.00  0.00    -0.018 C 
HETATM    4  C5  UNL     1      -3.944 -27.471 -36.899  1.00  0.00    -0.039 C 
HETATM    5  C6  UNL     1      -4.339 -26.089 -37.230  1.00  0.00     0.067 C 
HETATM    6  C7  UNL     1      -5.167 -25.738 -36.008  1.00  0.00     0.279 C 
HETATM    7  N1  UNL     1      -4.704 -26.567 -34.902  1.00  0.00     0.107 N 
HETATM    8  C8  UNL     1      -4.431 -25.738 -33.789  1.00  0.00     0.279 C 
HETATM    9  C9  UNL     1      -3.180 -26.087 -33.001  1.00  0.00     0.067 C 
HETATM   10  C10 UNL     1      -2.103 -26.159 -34.020  1.00  0.00    -0.049 C 
HETATM   11  C11 UNL     1      -2.300 -26.775 -35.196  1.00  0.00    -0.023 C 
HETATM   12  C12 UNL     1      -1.167 -26.796 -36.161  1.00  0.00     0.148 C 
HETATM   13  C13 UNL     1       0.048 -27.122 -35.337  1.00  0.00     0.263 C 
HETATM   14  O2  UNL     1       0.928 -27.914 -35.734  1.00  0.00    -0.265 OA
HETATM   15  O3  UNL     1       0.196 -26.525 -34.094  1.00  0.00    -0.317 OA
HETATM   16  C14 UNL     1      -0.794 -25.549 -33.733  1.00  0.00     0.213 C 
HETATM   17  C15 UNL     1      -3.633 -27.373 -35.410  1.00  0.00     0.209 C 
HETATM   18  C16 UNL     1      -3.783 -28.781 -34.898  1.00  0.00     0.083 C 
ENDROOT
BRANCH   1  19
HETATM   19  O1  UNL     1      -2.993 -30.957 -34.912  1.00  0.00    -0.390 OA
HETATM   20  C1  UNL     1      -2.334 -31.989 -35.573  1.00  0.00     0.202 C 
ENDBRANCH   1  19
TORSDOF 1
ENDMDL
