MODEL 2
REMARK VINA RESULT: -6.276813954      1.087      4.396
REMARK  1 active torsions:
REMARK  status: ('A' for Active; 'I' for Inactive)
REMARK    1  A    between atoms: O1_2  and  C2_3 
ROOT
HETATM    1  C2  UNL     1      -3.966 -34.621 -30.035  1.00  0.00     0.127 C 
HETATM    2  C3  UNL     1      -4.475 -36.010 -30.268  1.00  0.00     0.059 C 
HETATM    3  C4  UNL     1      -5.112 -36.513 -29.025  1.00  0.00    -0.018 C 
HETATM    4  C5  UNL     1      -5.108 -35.969 -27.851  1.00  0.00    -0.039 C 
HETATM    5  C6  UNL     1      -5.668 -36.309 -26.530  1.00  0.00     0.067 C 
HETATM    6  C7  UNL     1      -4.512 -35.913 -25.629  1.00  0.00     0.279 C 
HETATM    7  N1  UNL     1      -3.739 -34.890 -26.320  1.00  0.00     0.107 N 
HETATM    8  C8  UNL     1      -3.558 -33.787 -25.453  1.00  0.00     0.279 C 
HETATM    9  C9  UNL     1      -3.696 -32.417 -26.095  1.00  0.00     0.067 C 
HETATM   10  C10 UNL     1      -5.000 -32.464 -26.802  1.00  0.00    -0.049 C 
HETATM   11  C11 UNL     1      -5.362 -33.537 -27.522  1.00  0.00    -0.023 C 
HETATM   12  C12 UNL     1      -6.689 -33.500 -28.195  1.00  0.00     0.148 C 
HETATM   13  C13 UNL     1      -6.791 -32.125 -28.794  1.00  0.00     0.263 C 
HETATM   14  O2  UNL     1      -7.261 -31.930 -29.935  1.00  0.00    -0.265 OA
HETATM   15  O3  UNL     1      -6.348 -31.038 -28.057  1.00  0.00    -0.317 OA
HETATM   16  C14 UNL     1      -5.912 -31.311 -26.716  1.00  0.00     0.213 C 
HETATM   17  C15 UNL     1      -4.394 -34.651 -27.572  1.00  0.00     0.209 C 
HETATM   18  C16 UNL     1      -3.361 -34.542 -28.662  1.00  0.00     0.083 C 
ENDROOT
BRANCH   1  19
HETATM   19  O1  UNL     1      -2.929 -34.290 -30.922  1.00  0.00    -0.390 OA
HETATM   20  C1  UNL     1      -2.654 -35.341 -31.792  1.00  0.00     0.202 C 
ENDBRANCH   1  19
TORSDOF 1
ENDMDL
