MODEL 5
REMARK VINA RESULT: -9.946163160      2.973      6.334
REMARK  3 active torsions:
REMARK  status: ('A' for Active; 'I' for Inactive)
REMARK    1  A    between atoms: C5_6  and  C6_7 
REMARK    2  A    between atoms: C9_16  and  C10_17 
REMARK    3  A    between atoms: C10_17  and  C11_18 
ROOT
HETATM    1  N1  UNL     1      26.832  83.053  -2.841  1.00  0.00    -0.191 NA
HETATM    2  C1  UNL     1      26.336  83.287  -1.810  1.00  0.00     0.099 C 
HETATM    3  C2  UNL     1      25.712  83.595  -0.550  1.00  0.00     0.044 A 
HETATM    4  C3  UNL     1      26.286  84.527   0.287  1.00  0.00     0.023 A 
HETATM    5  C4  UNL     1      25.712  84.844   1.500  1.00  0.00     0.015 A 
HETATM    6  C5  UNL     1      24.534  84.243   1.936  1.00  0.00    -0.007 A 
HETATM    7  C18 UNL     1      23.971  83.317   1.095  1.00  0.00     0.015 A 
HETATM    8  C19 UNL     1      24.548  82.991  -0.134  1.00  0.00     0.023 A 
ENDROOT
BRANCH   6   9
HETATM    9  C6  UNL     1      23.940  84.588   3.221  1.00  0.00     0.075 A 
HETATM   10  C7  UNL     1      24.647  84.892   4.357  1.00  0.00     0.138 A 
HETATM   11  N2  UNL     1      24.020  85.205   5.530  1.00  0.00    -0.196 N 
HETATM   12  C8  UNL     1      22.683  85.224   5.606  1.00  0.00     0.719 A 
ATOM     13  H2  UNL     1      24.576  85.426   6.356  1.00  0.00     0.183 HD
HETATM   14  N3  UNL     1      21.805  85.492   6.610  1.00  0.00    -0.129 N 
HETATM   15  N7  UNL     1      21.983  84.927   4.500  1.00  0.00    -0.070 N 
HETATM   16  N4  UNL     1      20.572  85.369   6.154  1.00  0.00    -0.272 N 
ATOM     17  H3  UNL     1      22.058  85.748   7.564  1.00  0.00     0.205 HD
HETATM   18  C9  UNL     1      20.687  85.024   4.862  1.00  0.00     0.141 A 
ATOM     19  H4  UNL     1      19.707  85.507   6.677  1.00  0.00     0.189 HD
HETATM   20  N8  UNL     1      22.590  84.622   3.350  1.00  0.00    -0.276 N 
ATOM     21  H8  UNL     1      22.015  84.404   2.536  1.00  0.00     0.188 HD
BRANCH  18  22
HETATM   22  C10 UNL     1      19.553  84.781   3.944  1.00  0.00     0.121 C 
BRANCH  22  23
HETATM   23  C11 UNL     1      19.159  83.359   4.036  1.00  0.00    -0.022 A 
HETATM   24  C12 UNL     1      19.165  82.416   3.035  1.00  0.00     0.098 A 
HETATM   25  N5  UNL     1      18.738  81.245   3.533  1.00  0.00    -0.351 N 
HETATM   26  C13 UNL     1      18.448  81.398   4.849  1.00  0.00     0.115 A 
ATOM     27  H5  UNL     1      18.646  80.377   3.005  1.00  0.00     0.166 HD
HETATM   28  N6  UNL     1      17.989  80.541   5.799  1.00  0.00    -0.352 N 
HETATM   29  C17 UNL     1      18.709  82.712   5.165  1.00  0.00     0.016 A 
HETATM   30  C14 UNL     1      17.765  80.912   7.073  1.00  0.00     0.089 A 
ATOM     31  H6  UNL     1      17.806  79.573   5.533  1.00  0.00     0.166 HD
HETATM   32  C15 UNL     1      18.017  82.223   7.416  1.00  0.00     0.018 A 
HETATM   33  C16 UNL     1      18.486  83.120   6.476  1.00  0.00     0.017 A 
ENDBRANCH  22  23
ENDBRANCH  18  22
ENDBRANCH   6   9
TORSDOF 3
ENDMDL
