MODEL 4
REMARK VINA RESULT: -9.989609439      3.004      6.298
REMARK  3 active torsions:
REMARK  status: ('A' for Active; 'I' for Inactive)
REMARK    1  A    between atoms: C5_6  and  C6_7 
REMARK    2  A    between atoms: C9_16  and  C10_17 
REMARK    3  A    between atoms: C10_17  and  C11_18 
ROOT
HETATM    1  N1  UNL     1      27.060  82.858  -2.573  1.00  0.00    -0.191 NA
HETATM    2  C1  UNL     1      26.535  83.192  -1.585  1.00  0.00     0.099 C 
HETATM    3  C2  UNL     1      25.898  83.584  -0.356  1.00  0.00     0.044 A 
HETATM    4  C3  UNL     1      24.700  83.008   0.009  1.00  0.00     0.023 A 
HETATM    5  C4  UNL     1      24.067  83.364   1.181  1.00  0.00     0.015 A 
HETATM    6  C5  UNL     1      24.601  84.314   2.047  1.00  0.00    -0.007 A 
HETATM    7  C18 UNL     1      25.793  84.881   1.675  1.00  0.00     0.015 A 
HETATM    8  C19 UNL     1      26.440  84.526   0.489  1.00  0.00     0.023 A 
ENDROOT
BRANCH   6   9
HETATM    9  C6  UNL     1      23.919  84.679   3.282  1.00  0.00     0.075 A 
HETATM   10  C7  UNL     1      24.545  85.081   4.436  1.00  0.00     0.138 A 
HETATM   11  N2  UNL     1      23.838  85.406   5.559  1.00  0.00    -0.196 N 
HETATM   12  C8  UNL     1      22.500  85.344   5.567  1.00  0.00     0.719 A 
ATOM     13  H2  UNL     1      24.335  85.700   6.401  1.00  0.00     0.183 HD
HETATM   14  N3  UNL     1      21.555  85.601   6.511  1.00  0.00    -0.129 N 
HETATM   15  N7  UNL     1      21.879  84.952   4.443  1.00  0.00    -0.070 N 
HETATM   16  N4  UNL     1      20.358  85.378   6.000  1.00  0.00    -0.272 N 
ATOM     17  H3  UNL     1      21.741  85.916   7.463  1.00  0.00     0.205 HD
HETATM   18  C9  UNL     1      20.563  84.982   4.734  1.00  0.00     0.141 A 
ATOM     19  H4  UNL     1      19.460  85.485   6.471  1.00  0.00     0.189 HD
HETATM   20  N8  UNL     1      22.565  84.633   3.342  1.00  0.00    -0.276 N 
ATOM     21  H8  UNL     1      22.048  84.342   2.511  1.00  0.00     0.188 HD
BRANCH  18  22
HETATM   22  C10 UNL     1      19.497  84.625   3.773  1.00  0.00     0.121 C 
BRANCH  22  23
HETATM   23  C11 UNL     1      19.013  83.262   4.079  1.00  0.00    -0.022 A 
HETATM   24  C12 UNL     1      18.734  82.723   5.313  1.00  0.00     0.098 A 
HETATM   25  N5  UNL     1      18.314  81.458   5.154  1.00  0.00    -0.351 N 
HETATM   26  C13 UNL     1      18.312  81.150   3.834  1.00  0.00     0.115 A 
ATOM     27  H5  UNL     1      18.040  80.827   5.908  1.00  0.00     0.166 HD
HETATM   28  N6  UNL     1      17.982  80.024   3.149  1.00  0.00    -0.352 N 
HETATM   29  C17 UNL     1      18.746  82.270   3.162  1.00  0.00     0.016 A 
HETATM   30  C14 UNL     1      18.056  79.932   1.808  1.00  0.00     0.089 A 
ATOM     31  H6  UNL     1      17.662  79.210   3.677  1.00  0.00     0.166 HD
HETATM   32  C15 UNL     1      18.488  81.040   1.111  1.00  0.00     0.018 A 
HETATM   33  C16 UNL     1      18.831  82.202   1.775  1.00  0.00     0.017 A 
ENDBRANCH  22  23
ENDBRANCH  18  22
ENDBRANCH   6   9
TORSDOF 3
ENDMDL
