MODEL 3
REMARK VINA RESULT: -10.732750040      1.059      1.296
REMARK  3 active torsions:
REMARK  status: ('A' for Active; 'I' for Inactive)
REMARK    1  A    between atoms: C5_6  and  C6_7 
REMARK    2  A    between atoms: C9_16  and  C10_17 
REMARK    3  A    between atoms: C10_17  and  C11_18 
ROOT
HETATM    1  N1  UNL     1      19.790  81.905  -2.966  1.00  0.00    -0.191 NA
HETATM    2  C1  UNL     1      19.636  81.954  -1.810  1.00  0.00     0.099 C 
HETATM    3  C2  UNL     1      19.439  81.992  -0.385  1.00  0.00     0.044 A 
HETATM    4  C3  UNL     1      18.177  82.206   0.126  1.00  0.00     0.023 A 
HETATM    5  C4  UNL     1      17.958  82.247   1.487  1.00  0.00     0.015 A 
HETATM    6  C5  UNL     1      18.991  82.074   2.405  1.00  0.00    -0.007 A 
HETATM    7  C18 UNL     1      20.242  81.861   1.886  1.00  0.00     0.015 A 
HETATM    8  C19 UNL     1      20.472  81.820   0.509  1.00  0.00     0.023 A 
ENDROOT
BRANCH   6   9
HETATM    9  C6  UNL     1      18.743  82.120   3.839  1.00  0.00     0.075 A 
HETATM   10  C7  UNL     1      18.173  81.107   4.572  1.00  0.00     0.138 A 
HETATM   11  N2  UNL     1      17.969  81.223   5.917  1.00  0.00    -0.196 N 
HETATM   12  C8  UNL     1      18.322  82.338   6.569  1.00  0.00     0.719 A 
ATOM     13  H2  UNL     1      17.543  80.451   6.431  1.00  0.00     0.183 HD
HETATM   14  N3  UNL     1      18.244  82.729   7.870  1.00  0.00    -0.129 N 
HETATM   15  N7  UNL     1      18.879  83.334   5.862  1.00  0.00    -0.070 N 
HETATM   16  N4  UNL     1      18.741  83.946   7.989  1.00  0.00    -0.272 N 
ATOM     17  H3  UNL     1      17.863  82.169   8.633  1.00  0.00     0.205 HD
HETATM   18  C9  UNL     1      19.129  84.311   6.757  1.00  0.00     0.141 A 
ATOM     19  H4  UNL     1      18.814  84.498   8.844  1.00  0.00     0.189 HD
HETATM   20  N8  UNL     1      19.082  83.227   4.546  1.00  0.00    -0.276 N 
ATOM     21  H8  UNL     1      19.510  84.010   4.052  1.00  0.00     0.188 HD
BRANCH  18  22
HETATM   22  C10 UNL     1      19.750  85.608   6.413  1.00  0.00     0.121 C 
BRANCH  22  23
HETATM   23  C11 UNL     1      21.217  85.487   6.548  1.00  0.00    -0.022 A 
HETATM   24  C12 UNL     1      21.971  85.585   7.694  1.00  0.00     0.098 A 
HETATM   25  N5  UNL     1      23.265  85.410   7.385  1.00  0.00    -0.351 N 
HETATM   26  C13 UNL     1      23.381  85.198   6.051  1.00  0.00     0.115 A 
ATOM     27  H5  UNL     1      24.039  85.433   8.049  1.00  0.00     0.166 HD
HETATM   28  N6  UNL     1      24.450  84.971   5.242  1.00  0.00    -0.352 N 
HETATM   29  C17 UNL     1      22.110  85.245   5.526  1.00  0.00     0.016 A 
HETATM   30  C14 UNL     1      24.337  84.783   3.914  1.00  0.00     0.089 A 
ATOM     31  H6  UNL     1      25.379  84.941   5.662  1.00  0.00     0.166 HD
HETATM   32  C15 UNL     1      23.074  84.826   3.364  1.00  0.00     0.018 A 
HETATM   33  C16 UNL     1      21.965  85.053   4.156  1.00  0.00     0.017 A 
ENDBRANCH  22  23
ENDBRANCH  18  22
ENDBRANCH   6   9
TORSDOF 3
ENDMDL
