MODEL 2
REMARK VINA RESULT: -10.991602262      0.982      1.243
REMARK  3 active torsions:
REMARK  status: ('A' for Active; 'I' for Inactive)
REMARK    1  A    between atoms: C5_6  and  C6_7 
REMARK    2  A    between atoms: C9_16  and  C10_17 
REMARK    3  A    between atoms: C10_17  and  C11_18 
ROOT
HETATM    1  N1  UNL     1      20.689  81.730  -2.377  1.00  0.00    -0.191 NA
HETATM    2  C1  UNL     1      20.358  81.810  -1.261  1.00  0.00     0.099 C 
HETATM    3  C2  UNL     1      19.957  81.933   0.116  1.00  0.00     0.044 A 
HETATM    4  C3  UNL     1      20.899  81.817   1.116  1.00  0.00     0.023 A 
HETATM    5  C4  UNL     1      20.545  81.930   2.444  1.00  0.00     0.015 A 
HETATM    6  C5  UNL     1      19.229  82.166   2.838  1.00  0.00    -0.007 A 
HETATM    7  C18 UNL     1      18.301  82.278   1.835  1.00  0.00     0.015 A 
HETATM    8  C19 UNL     1      18.652  82.164   0.488  1.00  0.00     0.023 A 
ENDROOT
BRANCH   6   9
HETATM    9  C6  UNL     1      18.871  82.282   4.245  1.00  0.00     0.075 A 
HETATM   10  C7  UNL     1      18.212  81.321   4.970  1.00  0.00     0.138 A 
HETATM   11  N2  UNL     1      17.906  81.502   6.289  1.00  0.00    -0.196 N 
HETATM   12  C8  UNL     1      18.246  82.634   6.921  1.00  0.00     0.719 A 
ATOM     13  H2  UNL     1      17.415  80.768   6.799  1.00  0.00     0.183 HD
HETATM   14  N3  UNL     1      18.079  83.083   8.194  1.00  0.00    -0.129 N 
HETATM   15  N7  UNL     1      18.890  83.580   6.220  1.00  0.00    -0.070 N 
HETATM   16  N4  UNL     1      18.606  84.289   8.301  1.00  0.00    -0.272 N 
ATOM     17  H3  UNL     1      17.620  82.570   8.946  1.00  0.00     0.205 HD
HETATM   18  C9  UNL     1      19.102  84.587   7.090  1.00  0.00     0.141 A 
ATOM     19  H4  UNL     1      18.632  84.875   9.136  1.00  0.00     0.189 HD
HETATM   20  N8  UNL     1      19.192  83.408   4.930  1.00  0.00    -0.276 N 
ATOM     21  H8  UNL     1      19.684  84.155   4.439  1.00  0.00     0.188 HD
BRANCH  18  22
HETATM   22  C10 UNL     1      19.793  85.847   6.743  1.00  0.00     0.121 C 
BRANCH  22  23
HETATM   23  C11 UNL     1      21.253  85.627   6.808  1.00  0.00    -0.022 A 
HETATM   24  C12 UNL     1      22.059  85.633   7.923  1.00  0.00     0.098 A 
HETATM   25  N5  UNL     1      23.325  85.387   7.550  1.00  0.00    -0.351 N 
HETATM   26  C13 UNL     1      23.370  85.218   6.205  1.00  0.00     0.115 A 
ATOM     27  H5  UNL     1      24.126  85.334   8.179  1.00  0.00     0.166 HD
HETATM   28  N6  UNL     1      24.386  84.953   5.342  1.00  0.00    -0.352 N 
HETATM   29  C17 UNL     1      22.084  85.367   5.740  1.00  0.00     0.016 A 
HETATM   30  C14 UNL     1      24.205  84.823   4.015  1.00  0.00     0.089 A 
ATOM     31  H6  UNL     1      25.329  84.847   5.718  1.00  0.00     0.166 HD
HETATM   32  C15 UNL     1      22.925  84.968   3.523  1.00  0.00     0.018 A 
HETATM   33  C16 UNL     1      21.869  85.237   4.372  1.00  0.00     0.017 A 
ENDBRANCH  22  23
ENDBRANCH  18  22
ENDBRANCH   6   9
TORSDOF 3
ENDMDL
