MODEL 7
REMARK VINA RESULT: -9.532676368      1.034      1.657
REMARK  3 active torsions:
REMARK  status: ('A' for Active; 'I' for Inactive)
REMARK    1  A    between atoms: C5_6  and  C6_7 
REMARK    2  A    between atoms: C9_16  and  C10_17 
REMARK    3  A    between atoms: C10_17  and  C11_18 
ROOT
HETATM    1  N1  UNL     1      18.319  80.031  -1.735  1.00  0.00    -0.191 NA
HETATM    2  C1  UNL     1      18.317  80.359  -0.615  1.00  0.00     0.099 C 
HETATM    3  C2  UNL     1      18.337  80.753   0.769  1.00  0.00     0.044 A 
HETATM    4  C3  UNL     1      17.940  79.860   1.740  1.00  0.00     0.023 A 
HETATM    5  C4  UNL     1      17.948  80.209   3.074  1.00  0.00     0.015 A 
HETATM    6  C5  UNL     1      18.356  81.471   3.503  1.00  0.00    -0.007 A 
HETATM    7  C18 UNL     1      18.749  82.351   2.528  1.00  0.00     0.015 A 
HETATM    8  C19 UNL     1      18.742  82.004   1.175  1.00  0.00     0.023 A 
ENDROOT
BRANCH   6   9
HETATM    9  C6  UNL     1      18.359  81.824   4.916  1.00  0.00     0.075 A 
HETATM   10  C7  UNL     1      18.014  80.976   5.939  1.00  0.00     0.138 A 
HETATM   11  N2  UNL     1      18.039  81.380   7.244  1.00  0.00    -0.196 N 
HETATM   12  C8  UNL     1      18.405  82.627   7.567  1.00  0.00     0.719 A 
ATOM     13  H2  UNL     1      17.776  80.725   7.980  1.00  0.00     0.183 HD
HETATM   14  N3  UNL     1      18.522  83.294   8.747  1.00  0.00    -0.129 N 
HETATM   15  N7  UNL     1      18.744  83.464   6.574  1.00  0.00    -0.070 N 
HETATM   16  N4  UNL     1      18.927  84.528   8.510  1.00  0.00    -0.272 N 
ATOM     17  H3  UNL     1      18.329  82.903   9.669  1.00  0.00     0.205 HD
HETATM   18  C9  UNL     1      19.062  84.626   7.178  1.00  0.00     0.141 A 
ATOM     19  H4  UNL     1      19.102  85.259   9.200  1.00  0.00     0.189 HD
HETATM   20  N8  UNL     1      18.722  83.075   5.296  1.00  0.00    -0.276 N 
ATOM     21  H8  UNL     1      18.989  83.746   4.576  1.00  0.00     0.188 HD
BRANCH  18  22
HETATM   22  C10 UNL     1      19.502  85.839   6.457  1.00  0.00     0.121 C 
BRANCH  22  23
HETATM   23  C11 UNL     1      20.409  85.442   5.360  1.00  0.00    -0.022 A 
HETATM   24  C12 UNL     1      20.077  85.125   4.063  1.00  0.00     0.098 A 
HETATM   25  N5  UNL     1      21.195  84.824   3.385  1.00  0.00    -0.351 N 
HETATM   26  C13 UNL     1      22.264  84.935   4.212  1.00  0.00     0.115 A 
ATOM     27  H5  UNL     1      21.235  84.554   2.402  1.00  0.00     0.166 HD
HETATM   28  N6  UNL     1      23.597  84.744   4.029  1.00  0.00    -0.352 N 
HETATM   29  C17 UNL     1      21.779  85.319   5.441  1.00  0.00     0.016 A 
HETATM   30  C14 UNL     1      24.503  84.912   5.010  1.00  0.00     0.089 A 
ATOM     31  H6  UNL     1      23.925  84.460   3.106  1.00  0.00     0.166 HD
HETATM   32  C15 UNL     1      24.043  85.296   6.252  1.00  0.00     0.018 A 
HETATM   33  C16 UNL     1      22.694  85.501   6.473  1.00  0.00     0.017 A 
ENDBRANCH  22  23
ENDBRANCH  18  22
ENDBRANCH   6   9
TORSDOF 3
ENDMDL
