MODEL 6
REMARK VINA RESULT: -9.900989409      2.450      5.502
REMARK  3 active torsions:
REMARK  status: ('A' for Active; 'I' for Inactive)
REMARK    1  A    between atoms: C5_6  and  C6_7 
REMARK    2  A    between atoms: C9_16  and  C10_17 
REMARK    3  A    between atoms: C10_17  and  C11_18 
ROOT
HETATM    1  N1  UNL     1      25.419  82.646  -2.083  1.00  0.00    -0.191 NA
HETATM    2  C1  UNL     1      25.117  83.014  -1.017  1.00  0.00     0.099 C 
HETATM    3  C2  UNL     1      24.757  83.449   0.307  1.00  0.00     0.044 A 
HETATM    4  C3  UNL     1      23.672  82.884   0.941  1.00  0.00     0.023 A 
HETATM    5  C4  UNL     1      23.303  83.280   2.210  1.00  0.00     0.015 A 
HETATM    6  C5  UNL     1      24.004  84.261   2.907  1.00  0.00    -0.007 A 
HETATM    7  C18 UNL     1      25.082  84.817   2.267  1.00  0.00     0.015 A 
HETATM    8  C19 UNL     1      25.460  84.421   0.982  1.00  0.00     0.023 A 
ENDROOT
BRANCH   6   9
HETATM    9  C6  UNL     1      23.602  84.669   4.247  1.00  0.00     0.075 A 
HETATM   10  C7  UNL     1      24.466  84.943   5.278  1.00  0.00     0.138 A 
HETATM   11  N2  UNL     1      24.015  85.318   6.511  1.00  0.00    -0.196 N 
HETATM   12  C8  UNL     1      22.703  85.432   6.754  1.00  0.00     0.719 A 
ATOM     13  H2  UNL     1      24.685  85.514   7.256  1.00  0.00     0.183 HD
HETATM   14  N3  UNL     1      21.978  85.778   7.852  1.00  0.00    -0.129 N 
HETATM   15  N7  UNL     1      21.850  85.166   5.752  1.00  0.00    -0.070 N 
HETATM   16  N4  UNL     1      20.693  85.733   7.557  1.00  0.00    -0.272 N 
ATOM     17  H3  UNL     1      22.367  86.032   8.760  1.00  0.00     0.205 HD
HETATM   18  C9  UNL     1      20.620  85.359   6.270  1.00  0.00     0.141 A 
ATOM     19  H4  UNL     1      19.912  85.940   8.181  1.00  0.00     0.189 HD
HETATM   20  N8  UNL     1      22.285  84.799   4.544  1.00  0.00    -0.276 N 
ATOM     21  H8  UNL     1      21.598  84.608   3.814  1.00  0.00     0.188 HD
BRANCH  18  22
HETATM   22  C10 UNL     1      19.365  85.180   5.509  1.00  0.00     0.121 C 
BRANCH  22  23
HETATM   23  C11 UNL     1      18.944  83.766   5.604  1.00  0.00    -0.022 A 
HETATM   24  C12 UNL     1      18.578  83.069   6.732  1.00  0.00     0.098 A 
HETATM   25  N5  UNL     1      18.262  81.811   6.386  1.00  0.00    -0.351 N 
HETATM   26  C13 UNL     1      18.413  81.664   5.047  1.00  0.00     0.115 A 
ATOM     27  H5  UNL     1      17.955  81.081   7.030  1.00  0.00     0.166 HD
HETATM   28  N6  UNL     1      18.228  80.611   4.207  1.00  0.00    -0.352 N 
HETATM   29  C17 UNL     1      18.837  82.878   4.557  1.00  0.00     0.016 A 
HETATM   30  C14 UNL     1      18.443  80.685   2.880  1.00  0.00     0.089 A 
ATOM     31  H6  UNL     1      17.912  79.724   4.601  1.00  0.00     0.166 HD
HETATM   32  C15 UNL     1      18.869  81.890   2.364  1.00  0.00     0.018 A 
HETATM   33  C16 UNL     1      19.066  82.981   3.189  1.00  0.00     0.017 A 
ENDBRANCH  22  23
ENDBRANCH  18  22
ENDBRANCH   6   9
TORSDOF 3
ENDMDL
