MODEL 1
REMARK VINA RESULT: -11.919433085      0.000      0.000
REMARK  3 active torsions:
REMARK  status: ('A' for Active; 'I' for Inactive)
REMARK    1  A    between atoms: C5_6  and  C6_7 
REMARK    2  A    between atoms: C9_16  and  C10_17 
REMARK    3  A    between atoms: C10_17  and  C11_18 
ROOT
HETATM    1  N1  UNL     1      19.181  80.350  -1.512  1.00  0.00    -0.191 NA
HETATM    2  C1  UNL     1      19.065  80.676  -0.398  1.00  0.00     0.099 C 
HETATM    3  C2  UNL     1      18.942  81.064   0.983  1.00  0.00     0.044 A 
HETATM    4  C3  UNL     1      18.222  80.275   1.853  1.00  0.00     0.023 A 
HETATM    5  C4  UNL     1      18.087  80.620   3.182  1.00  0.00     0.015 A 
HETATM    6  C5  UNL     1      18.668  81.772   3.706  1.00  0.00    -0.007 A 
HETATM    7  C18 UNL     1      19.382  82.550   2.831  1.00  0.00     0.015 A 
HETATM    8  C19 UNL     1      19.522  82.207   1.484  1.00  0.00     0.023 A 
ENDROOT
BRANCH   6   9
HETATM    9  C6  UNL     1      18.516  82.124   5.111  1.00  0.00     0.075 A 
HETATM   10  C7  UNL     1      17.922  81.328   6.060  1.00  0.00     0.138 A 
HETATM   11  N2  UNL     1      17.813  81.726   7.362  1.00  0.00    -0.196 N 
HETATM   12  C8  UNL     1      18.287  82.915   7.756  1.00  0.00     0.719 A 
ATOM     13  H2  UNL     1      17.366  81.111   8.042  1.00  0.00     0.183 HD
HETATM   14  N3  UNL     1      18.321  83.562   8.953  1.00  0.00    -0.129 N 
HETATM   15  N7  UNL     1      18.869  83.700   6.836  1.00  0.00    -0.070 N 
HETATM   16  N4  UNL     1      18.911  84.732   8.798  1.00  0.00    -0.272 N 
ATOM     17  H3  UNL     1      17.950  83.200   9.831  1.00  0.00     0.205 HD
HETATM   18  C9  UNL     1      19.245  84.811   7.500  1.00  0.00     0.141 A 
ATOM     19  H4  UNL     1      19.079  85.435   9.518  1.00  0.00     0.189 HD
HETATM   20  N8  UNL     1      18.979  83.317   5.561  1.00  0.00    -0.276 N 
ATOM     21  H8  UNL     1      19.430  83.947   4.898  1.00  0.00     0.188 HD
BRANCH  18  22
HETATM   22  C10 UNL     1      19.936  85.957   6.870  1.00  0.00     0.121 C 
BRANCH  22  23
HETATM   23  C11 UNL     1      21.388  85.679   6.832  1.00  0.00    -0.022 A 
HETATM   24  C12 UNL     1      22.270  85.657   7.887  1.00  0.00     0.098 A 
HETATM   25  N5  UNL     1      23.496  85.359   7.427  1.00  0.00    -0.351 N 
HETATM   26  C13 UNL     1      23.439  85.185   6.083  1.00  0.00     0.115 A 
ATOM     27  H5  UNL     1      24.337  85.277   7.998  1.00  0.00     0.166 HD
HETATM   28  N6  UNL     1      24.380  84.878   5.152  1.00  0.00    -0.352 N 
HETATM   29  C17 UNL     1      22.129  85.383   5.710  1.00  0.00     0.016 A 
HETATM   30  C14 UNL     1      24.100  84.751   3.841  1.00  0.00     0.089 A 
ATOM     31  H6  UNL     1      25.342  84.736   5.461  1.00  0.00     0.166 HD
HETATM   32  C15 UNL     1      22.795  84.945   3.441  1.00  0.00     0.018 A 
HETATM   33  C16 UNL     1      21.813  85.258   4.361  1.00  0.00     0.017 A 
ENDBRANCH  22  23
ENDBRANCH  18  22
ENDBRANCH   6   9
TORSDOF 3
ENDMDL
