MODEL 1
REMARK VINA RESULT: -11.478669263      0.000      0.000
REMARK  3 active torsions:
REMARK  status: ('A' for Active; 'I' for Inactive)
REMARK    1  A    between atoms: O1_1  and  C1_3 
REMARK    2  A    between atoms: C4_6  and  C5_7 
REMARK    3  A    between atoms: C5_7  and  C6_8 
ROOT
HETATM    1  C6  UNL     1      18.857   9.357  38.709  1.00  0.00     0.141 A 
HETATM    2  N1  UNL     1      18.609   9.551  37.404  1.00  0.00    -0.272 N 
ATOM      3  H1  UNL     1      18.796   8.891  36.649  1.00  0.00     0.189 HD
HETATM    4  N2  UNL     1      18.085  10.744  37.282  1.00  0.00    -0.129 N 
ATOM      5  H2  UNL     1      17.791  11.174  36.405  1.00  0.00     0.205 HD
HETATM    6  C7  UNL     1      17.994  11.322  38.517  1.00  0.00     0.719 A 
HETATM    7  N3  UNL     1      17.539  12.512  38.928  1.00  0.00    -0.196 N 
ATOM      8  H3  UNL     1      17.168  13.182  38.254  1.00  0.00     0.183 HD
HETATM    9  C8  UNL     1      17.575  12.813  40.233  1.00  0.00     0.138 A 
HETATM   10  C9  UNL     1      18.068  11.928  41.150  1.00  0.00     0.075 A 
HETATM   11  C10 UNL     1      18.101  12.266  42.552  1.00  0.00    -0.006 A 
HETATM   12  C11 UNL     1      18.616  11.320  43.438  1.00  0.00     0.017 A 
HETATM   13  C12 UNL     1      18.690  11.547  44.790  1.00  0.00     0.043 A 
HETATM   14  C13 UNL     1      18.238  12.751  45.278  1.00  0.00     0.116 A 
HETATM   15  F1  UNL     1      18.302  12.992  46.609  1.00  0.00    -0.206 F 
HETATM   16  C14 UNL     1      17.728  13.689  44.411  1.00  0.00     0.043 A 
HETATM   17  C15 UNL     1      17.656  13.454  43.043  1.00  0.00     0.017 A 
HETATM   18  N4  UNL     1      18.514  10.748  40.691  1.00  0.00    -0.276 N 
ATOM     19  H4  UNL     1      18.888  10.068  41.354  1.00  0.00     0.188 HD
HETATM   20  N5  UNL     1      18.481  10.439  39.397  1.00  0.00    -0.070 N 
ENDROOT
BRANCH   1  21
HETATM   21  C5  UNL     1      19.455   8.124  39.282  1.00  0.00     0.119 C 
BRANCH  21  22
HETATM   22  C4  UNL     1      20.837   8.345  39.777  1.00  0.00    -0.051 A 
HETATM   23  C3  UNL     1      21.839   8.562  38.860  1.00  0.00     0.010 A 
HETATM   24  C2  UNL     1      23.149   8.776  39.219  1.00  0.00     0.037 A 
HETATM   25  C1  UNL     1      23.463   8.772  40.568  1.00  0.00     0.065 A 
HETATM   26  C17 UNL     1      22.479   8.556  41.527  1.00  0.00     0.037 A 
HETATM   27  C16 UNL     1      21.172   8.343  41.122  1.00  0.00     0.010 A 
BRANCH  25  28
HETATM   28  O1  UNL     1      24.754   8.978  41.034  1.00  0.00    -0.361 OA
ATOM     29  H1  UNL     1      25.025   8.736  41.912  1.00  0.00     0.217 HD
ENDBRANCH  25  28
ENDBRANCH  21  22
ENDBRANCH   1  21
TORSDOF 3
ENDMDL
