MODEL 2
REMARK VINA RESULT: -11.164078810      0.457      1.077
REMARK  3 active torsions:
REMARK  status: ('A' for Active; 'I' for Inactive)
REMARK    1  A    between atoms: O1_1  and  C1_3 
REMARK    2  A    between atoms: C4_6  and  C5_7 
REMARK    3  A    between atoms: C5_7  and  C6_8 
ROOT
HETATM    1  C6  UNL     1      18.737   9.601  39.105  1.00  0.00     0.141 A 
HETATM    2  N1  UNL     1      18.475   9.852  37.813  1.00  0.00    -0.272 N 
ATOM      3  H1  UNL     1      18.637   9.221  37.029  1.00  0.00     0.189 HD
HETATM    4  N2  UNL     1      17.973  11.060  37.748  1.00  0.00    -0.129 N 
ATOM      5  H2  UNL     1      17.675  11.531  36.894  1.00  0.00     0.205 HD
HETATM    6  C7  UNL     1      17.911  11.588  39.006  1.00  0.00     0.719 A 
HETATM    7  N3  UNL     1      17.487  12.769  39.473  1.00  0.00    -0.196 N 
ATOM      8  H3  UNL     1      17.120  13.474  38.832  1.00  0.00     0.183 HD
HETATM    9  C8  UNL     1      17.548  13.016  40.788  1.00  0.00     0.138 A 
HETATM   10  C9  UNL     1      18.037  12.084  41.661  1.00  0.00     0.075 A 
HETATM   11  C10 UNL     1      18.096  12.364  43.074  1.00  0.00    -0.006 A 
HETATM   12  C11 UNL     1      18.606  11.372  43.914  1.00  0.00     0.017 A 
HETATM   13  C12 UNL     1      18.703  11.542  45.272  1.00  0.00     0.043 A 
HETATM   14  C13 UNL     1      18.283  12.734  45.816  1.00  0.00     0.116 A 
HETATM   15  F1  UNL     1      18.372  12.918  47.154  1.00  0.00    -0.206 F 
HETATM   16  C14 UNL     1      17.779  13.716  44.995  1.00  0.00     0.043 A 
HETATM   17  C15 UNL     1      17.683  13.539  43.620  1.00  0.00     0.017 A 
HETATM   18  N4  UNL     1      18.451  10.915  41.148  1.00  0.00    -0.276 N 
ATOM     19  H4  UNL     1      18.821  10.202  41.776  1.00  0.00     0.188 HD
HETATM   20  N5  UNL     1      18.394  10.660  39.842  1.00  0.00    -0.070 N 
ENDROOT
BRANCH   1  21
HETATM   21  C5  UNL     1      19.319   8.333  39.619  1.00  0.00     0.119 C 
BRANCH  21  22
HETATM   22  C4  UNL     1      20.768   8.457  39.914  1.00  0.00    -0.051 A 
HETATM   23  C3  UNL     1      21.178   8.428  41.227  1.00  0.00     0.010 A 
HETATM   24  C2  UNL     1      22.497   8.535  41.602  1.00  0.00     0.037 A 
HETATM   25  C1  UNL     1      23.447   8.679  40.604  1.00  0.00     0.065 A 
HETATM   26  C17 UNL     1      23.074   8.713  39.265  1.00  0.00     0.037 A 
HETATM   27  C16 UNL     1      21.734   8.602  38.931  1.00  0.00     0.010 A 
BRANCH  25  28
HETATM   28  O1  UNL     1      24.804   8.795  40.877  1.00  0.00    -0.361 OA
ATOM     29  H1  UNL     1      25.176   9.560  41.298  1.00  0.00     0.217 HD
ENDBRANCH  25  28
ENDBRANCH  21  22
ENDBRANCH   1  21
TORSDOF 3
ENDMDL
