MODEL 4
REMARK VINA RESULT: -9.690976876      1.209      1.732
REMARK  3 active torsions:
REMARK  status: ('A' for Active; 'I' for Inactive)
REMARK    1  A    between atoms: O1_1  and  C1_3 
REMARK    2  A    between atoms: C4_6  and  C5_7 
REMARK    3  A    between atoms: C5_7  and  C6_8 
ROOT
HETATM    1  C6  UNL     1      18.629  10.188  40.153  1.00  0.00     0.141 A 
HETATM    2  N1  UNL     1      18.350  10.674  38.934  1.00  0.00    -0.272 N 
ATOM      3  H1  UNL     1      18.443  10.176  38.048  1.00  0.00     0.189 HD
HETATM    4  N2  UNL     1      17.938  11.907  39.093  1.00  0.00    -0.129 N 
ATOM      5  H2  UNL     1      17.653  12.536  38.343  1.00  0.00     0.205 HD
HETATM    6  C7  UNL     1      17.951  12.215  40.424  1.00  0.00     0.719 A 
HETATM    7  N3  UNL     1      17.628  13.326  41.098  1.00  0.00    -0.196 N 
ATOM      8  H3  UNL     1      17.297  14.152  40.601  1.00  0.00     0.183 HD
HETATM    9  C8  UNL     1      17.744  13.339  42.433  1.00  0.00     0.138 A 
HETATM   10  C9  UNL     1      18.186  12.241  43.117  1.00  0.00     0.075 A 
HETATM   11  C10 UNL     1      18.305  12.270  44.554  1.00  0.00    -0.006 A 
HETATM   12  C11 UNL     1      18.762  11.117  45.193  1.00  0.00     0.017 A 
HETATM   13  C12 UNL     1      18.910  11.045  46.555  1.00  0.00     0.043 A 
HETATM   14  C13 UNL     1      18.594  12.153  47.309  1.00  0.00     0.116 A 
HETATM   15  F1  UNL     1      18.733  12.100  48.654  1.00  0.00    -0.206 F 
HETATM   16  C14 UNL     1      18.143  13.293  46.686  1.00  0.00     0.043 A 
HETATM   17  C15 UNL     1      17.996  13.360  45.306  1.00  0.00     0.017 A 
HETATM   18  N4  UNL     1      18.498  11.151  42.398  1.00  0.00    -0.276 N 
ATOM     19  H4  UNL     1      18.831  10.317  42.882  1.00  0.00     0.188 HD
HETATM   20  N5  UNL     1      18.386  11.127  41.072  1.00  0.00    -0.070 N 
ENDROOT
BRANCH   1  21
HETATM   21  C5  UNL     1      19.128   8.815  40.423  1.00  0.00     0.119 C 
BRANCH  21  22
HETATM   22  C4  UNL     1      20.608   8.762  40.518  1.00  0.00    -0.051 A 
HETATM   23  C3  UNL     1      21.341   8.663  39.358  1.00  0.00     0.010 A 
HETATM   24  C2  UNL     1      22.716   8.607  39.343  1.00  0.00     0.037 A 
HETATM   25  C1  UNL     1      23.382   8.654  40.556  1.00  0.00     0.065 A 
HETATM   26  C17 UNL     1      22.678   8.753  41.751  1.00  0.00     0.037 A 
HETATM   27  C16 UNL     1      21.294   8.806  41.722  1.00  0.00     0.010 A 
BRANCH  25  28
HETATM   28  O1  UNL     1      24.766   8.605  40.649  1.00  0.00    -0.361 OA
ATOM     29  H1  UNL     1      25.266   7.833  40.413  1.00  0.00     0.217 HD
ENDBRANCH  25  28
ENDBRANCH  21  22
ENDBRANCH   1  21
TORSDOF 3
ENDMDL
