MODEL 6
REMARK VINA RESULT: -8.816339829      4.408      7.571
REMARK  3 active torsions:
REMARK  status: ('A' for Active; 'I' for Inactive)
REMARK    1  A    between atoms: O1_1  and  C1_3 
REMARK    2  A    between atoms: C4_6  and  C5_7 
REMARK    3  A    between atoms: C5_7  and  C6_8 
ROOT
HETATM    1  C6  UNL     1      18.578  12.859  45.310  1.00  0.00     0.141 A 
HETATM    2  N1  UNL     1      17.944  14.000  45.620  1.00  0.00    -0.272 N 
ATOM      3  H1  UNL     1      17.907  14.442  46.538  1.00  0.00     0.189 HD
HETATM    4  N2  UNL     1      17.379  14.440  44.523  1.00  0.00    -0.129 N 
ATOM      5  H2  UNL     1      16.824  15.292  44.445  1.00  0.00     0.205 HD
HETATM    6  C7  UNL     1      17.653  13.576  43.501  1.00  0.00     0.719 A 
HETATM    7  N3  UNL     1      17.314  13.571  42.206  1.00  0.00    -0.196 N 
ATOM      8  H3  UNL     1      16.742  14.321  41.820  1.00  0.00     0.183 HD
HETATM    9  C8  UNL     1      17.736  12.569  41.422  1.00  0.00     0.138 A 
HETATM   10  C9  UNL     1      18.504  11.555  41.921  1.00  0.00     0.075 A 
HETATM   11  C10 UNL     1      18.951  10.483  41.065  1.00  0.00    -0.006 A 
HETATM   12  C11 UNL     1      19.732   9.477  41.635  1.00  0.00     0.017 A 
HETATM   13  C12 UNL     1      20.205   8.416  40.904  1.00  0.00     0.043 A 
HETATM   14  C13 UNL     1      19.894   8.351  39.565  1.00  0.00     0.116 A 
HETATM   15  F1  UNL     1      20.353   7.312  38.829  1.00  0.00    -0.206 F 
HETATM   16  C14 UNL     1      19.125   9.339  38.996  1.00  0.00     0.043 A 
HETATM   17  C15 UNL     1      18.648  10.411  39.741  1.00  0.00     0.017 A 
HETATM   18  N4  UNL     1      18.818  11.602  43.226  1.00  0.00    -0.276 N 
ATOM     19  H4  UNL     1      19.389  10.858  43.625  1.00  0.00     0.188 HD
HETATM   20  N5  UNL     1      18.404  12.593  44.013  1.00  0.00    -0.070 N 
ENDROOT
BRANCH   1  21
HETATM   21  C5  UNL     1      19.350  12.032  46.273  1.00  0.00     0.119 C 
BRANCH  21  22
HETATM   22  C4  UNL     1      18.523  11.582  47.420  1.00  0.00    -0.051 A 
HETATM   23  C3  UNL     1      17.345  10.918  47.164  1.00  0.00     0.010 A 
HETATM   24  C2  UNL     1      16.511  10.462  48.158  1.00  0.00     0.037 A 
HETATM   25  C1  UNL     1      16.883  10.687  49.473  1.00  0.00     0.065 A 
HETATM   26  C17 UNL     1      18.065  11.354  49.775  1.00  0.00     0.037 A 
HETATM   27  C16 UNL     1      18.876  11.797  48.743  1.00  0.00     0.010 A 
BRANCH  25  28
HETATM   28  O1  UNL     1      16.111  10.267  50.548  1.00  0.00    -0.361 OA
ATOM     29  H1  UNL     1      15.196  10.030  50.458  1.00  0.00     0.217 HD
ENDBRANCH  25  28
ENDBRANCH  21  22
ENDBRANCH   1  21
TORSDOF 3
ENDMDL
