MODEL 3
REMARK VINA RESULT: -10.048658052      4.159      6.398
REMARK  3 active torsions:
REMARK  status: ('A' for Active; 'I' for Inactive)
REMARK    1  A    between atoms: O1_1  and  C1_3 
REMARK    2  A    between atoms: C4_6  and  C5_7 
REMARK    3  A    between atoms: C5_7  and  C6_8 
ROOT
HETATM    1  C6  UNL     1      20.699   8.759  41.032  1.00  0.00     0.141 A 
HETATM    2  N1  UNL     1      20.635   8.248  39.793  1.00  0.00    -0.272 N 
ATOM      3  H1  UNL     1      19.787   8.066  39.256  1.00  0.00     0.189 HD
HETATM    4  N2  UNL     1      21.865   8.025  39.402  1.00  0.00    -0.129 N 
ATOM      5  H2  UNL     1      22.137   7.636  38.499  1.00  0.00     0.205 HD
HETATM    6  C7  UNL     1      22.725   8.396  40.396  1.00  0.00     0.719 A 
HETATM    7  N3  UNL     1      24.060   8.370  40.494  1.00  0.00    -0.196 N 
ATOM      8  H3  UNL     1      24.627   8.021  39.721  1.00  0.00     0.183 HD
HETATM    9  C8  UNL     1      24.644   8.807  41.617  1.00  0.00     0.138 A 
HETATM   10  C9  UNL     1      23.902   9.279  42.664  1.00  0.00     0.075 A 
HETATM   11  C10 UNL     1      24.545   9.747  43.867  1.00  0.00    -0.006 A 
HETATM   12  C11 UNL     1      23.731  10.216  44.900  1.00  0.00     0.017 A 
HETATM   13  C12 UNL     1      24.247  10.682  46.083  1.00  0.00     0.043 A 
HETATM   14  C13 UNL     1      25.613  10.683  46.248  1.00  0.00     0.116 A 
HETATM   15  F1  UNL     1      26.139  11.140  47.409  1.00  0.00    -0.206 F 
HETATM   16  C14 UNL     1      26.421  10.223  45.235  1.00  0.00     0.043 A 
HETATM   17  C15 UNL     1      25.894   9.752  44.039  1.00  0.00     0.017 A 
HETATM   18  N4  UNL     1      22.567   9.285  42.521  1.00  0.00    -0.276 N 
ATOM     19  H4  UNL     1      21.988   9.631  43.286  1.00  0.00     0.188 HD
HETATM   20  N5  UNL     1      21.977   8.853  41.408  1.00  0.00    -0.070 N 
ENDROOT
BRANCH   1  21
HETATM   21  C5  UNL     1      19.520   9.155  41.846  1.00  0.00     0.119 C 
BRANCH  21  22
HETATM   22  C4  UNL     1      18.853  10.371  41.317  1.00  0.00    -0.051 A 
HETATM   23  C3  UNL     1      18.562  11.396  42.187  1.00  0.00     0.010 A 
HETATM   24  C2  UNL     1      17.946  12.561  41.794  1.00  0.00     0.037 A 
HETATM   25  C1  UNL     1      17.607  12.698  40.459  1.00  0.00     0.065 A 
HETATM   26  C17 UNL     1      17.883  11.685  39.546  1.00  0.00     0.037 A 
HETATM   27  C16 UNL     1      18.504  10.528  39.984  1.00  0.00     0.010 A 
BRANCH  25  28
HETATM   28  O1  UNL     1      16.983  13.834  39.960  1.00  0.00    -0.361 OA
ATOM     29  H1  UNL     1      17.390  14.398  39.315  1.00  0.00     0.217 HD
ENDBRANCH  25  28
ENDBRANCH  21  22
ENDBRANCH   1  21
TORSDOF 3
ENDMDL
