MODEL 7
REMARK VINA RESULT: -8.727103556      4.679      8.573
REMARK  3 active torsions:
REMARK  status: ('A' for Active; 'I' for Inactive)
REMARK    1  A    between atoms: O1_1  and  C1_3 
REMARK    2  A    between atoms: C4_6  and  C5_7 
REMARK    3  A    between atoms: C5_7  and  C6_8 
ROOT
HETATM    1  C6  UNL     1      18.016  13.502  44.853  1.00  0.00     0.141 A 
HETATM    2  N1  UNL     1      18.527  13.215  46.060  1.00  0.00    -0.272 N 
ATOM      3  H1  UNL     1      18.386  13.747  46.919  1.00  0.00     0.189 HD
HETATM    4  N2  UNL     1      19.240  12.125  45.930  1.00  0.00    -0.129 N 
ATOM      5  H2  UNL     1      19.753  11.660  46.679  1.00  0.00     0.205 HD
HETATM    6  C7  UNL     1      19.187  11.708  44.630  1.00  0.00     0.719 A 
HETATM    7  N3  UNL     1      19.735  10.667  43.990  1.00  0.00    -0.196 N 
ATOM      8  H3  UNL     1      20.321  10.003  44.495  1.00  0.00     0.183 HD
HETATM    9  C8  UNL     1      19.504  10.507  42.680  1.00  0.00     0.138 A 
HETATM   10  C9  UNL     1      18.720  11.387  41.986  1.00  0.00     0.075 A 
HETATM   11  C10 UNL     1      18.481  11.201  40.577  1.00  0.00    -0.006 A 
HETATM   12  C11 UNL     1      17.672  12.134  39.925  1.00  0.00     0.017 A 
HETATM   13  C12 UNL     1      17.385  12.044  38.586  1.00  0.00     0.043 A 
HETATM   14  C13 UNL     1      17.916  10.997  37.870  1.00  0.00     0.116 A 
HETATM   15  F1  UNL     1      17.643  10.893  36.548  1.00  0.00    -0.206 F 
HETATM   16  C14 UNL     1      18.714  10.073  38.505  1.00  0.00     0.043 A 
HETATM   17  C15 UNL     1      19.002  10.169  39.861  1.00  0.00     0.017 A 
HETATM   18  N4  UNL     1      18.193  12.415  42.670  1.00  0.00    -0.276 N 
ATOM     19  H4  UNL     1      17.605  13.087  42.177  1.00  0.00     0.188 HD
HETATM   20  N5  UNL     1      18.416  12.583  43.971  1.00  0.00    -0.070 N 
ENDROOT
BRANCH   1  21
HETATM   21  C5  UNL     1      17.141  14.667  44.560  1.00  0.00     0.119 C 
BRANCH  21  22
HETATM   22  C4  UNL     1      16.950  15.541  45.745  1.00  0.00    -0.051 A 
HETATM   23  C3  UNL     1      16.610  14.960  46.945  1.00  0.00     0.010 A 
HETATM   24  C2  UNL     1      16.410  15.684  48.097  1.00  0.00     0.037 A 
HETATM   25  C1  UNL     1      16.562  17.059  48.036  1.00  0.00     0.065 A 
HETATM   26  C17 UNL     1      16.905  17.685  46.843  1.00  0.00     0.037 A 
HETATM   27  C16 UNL     1      17.095  16.919  45.705  1.00  0.00     0.010 A 
BRANCH  25  28
HETATM   28  O1  UNL     1      16.384  17.879  49.142  1.00  0.00    -0.361 OA
ATOM     29  H1  UNL     1      16.232  17.535  50.014  1.00  0.00     0.217 HD
ENDBRANCH  25  28
ENDBRANCH  21  22
ENDBRANCH   1  21
TORSDOF 3
ENDMDL
