MODEL 1
REMARK VINA RESULT: -10.082947352      0.000      0.000
REMARK  9 active torsions:
REMARK  status: ('A' for Active; 'I' for Inactive)
REMARK    1  A    between atoms: N2_5  and  C4_6 
REMARK    2  A    between atoms: C4_6  and  O1_7 
REMARK    3  A    between atoms: C4_6  and  N3_9 
REMARK    4  A    between atoms: C7_12  and  N4_13 
REMARK       I    between atoms: N4_13  and  C8_15 
REMARK    5  A    between atoms: C8_15  and  C9_17 
REMARK    6  A    between atoms: C13_21  and  O3_22 
REMARK    7  A    between atoms: O3_22  and  C14_23 
REMARK    8  A    between atoms: C25_38  and  C26_39 
REMARK    9  A    between atoms: C26_39  and  C27_40 
ROOT
HETATM    1  N3  UNL     1      44.862  19.935  15.316  1.00  0.00    -0.329 N 
HETATM    2  C5  UNL     1      45.455  21.192  14.988  1.00  0.00     0.172 C 
HETATM    3  C6  UNL     1      44.447  21.874  14.121  1.00  0.00     0.032 A 
HETATM    4  C7  UNL     1      44.086  23.076  13.612  1.00  0.00     0.132 A 
HETATM    5  N5  UNL     1      42.983  22.853  12.884  1.00  0.00    -0.285 N 
ATOM      6  H5  UNL     1      42.471  23.571  12.371  1.00  0.00     0.188 HD
HETATM    7  N6  UNL     1      42.652  21.574  12.924  1.00  0.00    -0.300 N 
ATOM      8  H6  UNL     1      41.855  21.145  12.454  1.00  0.00     0.186 HD
HETATM    9  C21 UNL     1      43.558  20.936  13.696  1.00  0.00     0.065 A 
HETATM   10  C22 UNL     1      43.925  19.618  14.231  1.00  0.00     0.073 C 
HETATM   11  C23 UNL     1      44.597  18.841  13.129  1.00  0.00     0.045 C 
HETATM   12  C24 UNL     1      42.691  18.906  14.729  1.00  0.00     0.045 C 
ENDROOT
BRANCH   1  13
HETATM   13  C4  UNL     1      45.113  19.082  16.438  1.00  0.00     0.218 C 
BRANCH  13  14
HETATM   14  N2  UNL     1      44.643  19.222  17.723  1.00  0.00    -0.339 N 
HETATM   15  C3  UNL     1      43.573  18.523  18.328  1.00  0.00     0.157 C 
HETATM   16  C2  UNL     1      44.020  17.771  19.564  1.00  0.00     0.291 C 
HETATM   17  N1  UNL     1      44.778  18.626  20.450  1.00  0.00     0.087 N 
HETATM   18  C1  UNL     1      43.844  19.337  21.270  1.00  0.00     0.310 C 
HETATM   19  C33 UNL     1      45.776  19.434  19.848  1.00  0.00     0.297 C 
HETATM   20  C25 UNL     1      45.400  20.181  18.608  1.00  0.00     0.120 C 
BRANCH  20  21
HETATM   21  C26 UNL     1      44.594  21.412  18.862  1.00  0.00     0.065 C 
BRANCH  21  22
HETATM   22  C27 UNL     1      45.415  22.553  19.335  1.00  0.00    -0.056 A 
HETATM   23  C28 UNL     1      46.127  23.319  18.439  1.00  0.00     0.007 A 
HETATM   24  C29 UNL     1      46.909  24.387  18.831  1.00  0.00     0.001 A 
HETATM   25  C30 UNL     1      47.000  24.728  20.172  1.00  0.00     0.000 A 
HETATM   26  C31 UNL     1      46.295  23.968  21.062  1.00  0.00     0.001 A 
HETATM   27  C32 UNL     1      45.500  22.883  20.671  1.00  0.00     0.007 A 
ENDBRANCH  21  22
ENDBRANCH  20  21
ENDBRANCH  13  14
BRANCH  13  28
HETATM   28  O1  UNL     1      45.882  18.069  16.139  1.00  0.00    -0.332 OA
ATOM     29  H1  UNL     1      46.107  17.904  15.231  1.00  0.00     0.220 HD
ENDBRANCH  13  28
ENDBRANCH   1  13
BRANCH   4  30
HETATM   30  N4  UNL     1      44.703  24.338  13.771  1.00  0.00    -0.307 N 
HETATM   31  C8  UNL     1      45.289  25.107  12.748  1.00  0.00     0.257 C 
HETATM   32  O2  UNL     1      45.256  24.623  11.587  1.00  0.00    -0.267 OA
ATOM     33  H4  UNL     1      44.726  24.726  14.714  1.00  0.00     0.170 HD
BRANCH  31  34
HETATM   34  C9  UNL     1      45.924  26.405  12.920  1.00  0.00     0.035 A 
HETATM   35  C10 UNL     1      47.146  26.530  13.535  1.00  0.00     0.017 A 
HETATM   36  C11 UNL     1      47.785  27.745  13.728  1.00  0.00     0.004 A 
HETATM   37  C12 UNL     1      47.183  28.894  13.291  1.00  0.00     0.037 A 
HETATM   38  C13 UNL     1      45.963  28.805  12.673  1.00  0.00     0.077 A 
HETATM   39  C20 UNL     1      45.326  27.572  12.483  1.00  0.00     0.054 A 
BRANCH  38  40
HETATM   40  O3  UNL     1      45.262  29.922  12.190  1.00  0.00    -0.311 OA
BRANCH  40  41
HETATM   41  C14 UNL     1      45.941  30.737  11.306  1.00  0.00     0.076 A 
HETATM   42  C15 UNL     1      46.447  31.938  11.719  1.00  0.00     0.037 A 
HETATM   43  C16 UNL     1      47.120  32.735  10.818  1.00  0.00     0.003 A 
HETATM   44  C17 UNL     1      47.299  32.359   9.506  1.00  0.00     0.000 A 
HETATM   45  C18 UNL     1      46.774  31.141   9.132  1.00  0.00     0.003 A 
HETATM   46  C19 UNL     1      46.101  30.330  10.011  1.00  0.00     0.037 A 
ENDBRANCH  40  41
ENDBRANCH  38  40
ENDBRANCH  31  34
ENDBRANCH   4  30
TORSDOF 9
ENDMDL
