MODEL 2
REMARK VINA RESULT: -9.910507670      4.555      8.349
REMARK  9 active torsions:
REMARK  status: ('A' for Active; 'I' for Inactive)
REMARK    1  A    between atoms: N2_5  and  C4_6 
REMARK    2  A    between atoms: C4_6  and  O1_7 
REMARK    3  A    between atoms: C4_6  and  N3_9 
REMARK    4  A    between atoms: C7_12  and  N4_13 
REMARK       I    between atoms: N4_13  and  C8_15 
REMARK    5  A    between atoms: C8_15  and  C9_17 
REMARK    6  A    between atoms: C13_21  and  O3_22 
REMARK    7  A    between atoms: O3_22  and  C14_23 
REMARK    8  A    between atoms: C25_38  and  C26_39 
REMARK    9  A    between atoms: C26_39  and  C27_40 
ROOT
HETATM    1  N3  UNL     1      43.050  18.633  13.232  1.00  0.00    -0.329 N 
HETATM    2  C5  UNL     1      42.779  18.884  14.610  1.00  0.00     0.172 C 
HETATM    3  C6  UNL     1      43.784  18.062  15.352  1.00  0.00     0.032 A 
HETATM    4  C7  UNL     1      44.373  17.895  16.559  1.00  0.00     0.132 A 
HETATM    5  N5  UNL     1      45.243  16.886  16.410  1.00  0.00    -0.285 N 
ATOM      6  H5  UNL     1      45.843  16.522  17.150  1.00  0.00     0.188 HD
HETATM    7  N6  UNL     1      45.213  16.429  15.170  1.00  0.00    -0.300 N 
ATOM      8  H6  UNL     1      45.778  15.665  14.798  1.00  0.00     0.186 HD
HETATM    9  C21 UNL     1      44.303  17.153  14.484  1.00  0.00     0.065 A 
HETATM   10  C22 UNL     1      43.680  17.308  13.162  1.00  0.00     0.073 C 
HETATM   11  C23 UNL     1      42.653  16.215  13.003  1.00  0.00     0.045 C 
HETATM   12  C24 UNL     1      44.734  17.230  12.086  1.00  0.00     0.045 C 
ENDROOT
BRANCH   1  13
HETATM   13  C4  UNL     1      42.757  19.445  12.090  1.00  0.00     0.218 C 
BRANCH  13  14
HETATM   14  N2  UNL     1      43.508  20.476  11.576  1.00  0.00    -0.339 N 
HETATM   15  C3  UNL     1      44.339  20.448  10.431  1.00  0.00     0.157 C 
HETATM   16  C2  UNL     1      43.917  21.478   9.405  1.00  0.00     0.291 C 
HETATM   17  N1  UNL     1      43.747  22.780  10.013  1.00  0.00     0.087 N 
HETATM   18  C1  UNL     1      45.033  23.409  10.056  1.00  0.00     0.310 C 
HETATM   19  C33 UNL     1      43.024  22.820  11.232  1.00  0.00     0.297 C 
HETATM   20  C25 UNL     1      43.379  21.806  12.274  1.00  0.00     0.120 C 
BRANCH  20  21
HETATM   21  C26 UNL     1      44.625  22.128  13.033  1.00  0.00     0.065 C 
BRANCH  21  22
HETATM   22  C27 UNL     1      44.391  22.282  14.489  1.00  0.00    -0.056 A 
HETATM   23  C28 UNL     1      43.110  22.391  14.982  1.00  0.00     0.007 A 
HETATM   24  C29 UNL     1      42.842  22.541  16.328  1.00  0.00     0.001 A 
HETATM   25  C30 UNL     1      43.882  22.585  17.244  1.00  0.00     0.000 A 
HETATM   26  C31 UNL     1      45.154  22.477  16.756  1.00  0.00     0.001 A 
HETATM   27  C32 UNL     1      45.432  22.326  15.392  1.00  0.00     0.007 A 
ENDBRANCH  21  22
ENDBRANCH  20  21
ENDBRANCH  13  14
BRANCH  13  28
HETATM   28  O1  UNL     1      41.633  19.116  11.512  1.00  0.00    -0.332 OA
ATOM     29  H1  UNL     1      41.371  18.204  11.483  1.00  0.00     0.220 HD
ENDBRANCH  13  28
ENDBRANCH   1  13
BRANCH   4  30
HETATM   30  N4  UNL     1      44.159  18.599  17.766  1.00  0.00    -0.307 N 
HETATM   31  C8  UNL     1      45.155  19.184  18.571  1.00  0.00     0.257 C 
HETATM   32  O2  UNL     1      46.344  19.067  18.174  1.00  0.00    -0.267 OA
ATOM     33  H4  UNL     1      43.194  18.691  18.083  1.00  0.00     0.170 HD
BRANCH  31  34
HETATM   34  C9  UNL     1      44.927  19.906  19.813  1.00  0.00     0.035 A 
HETATM   35  C10 UNL     1      44.146  19.382  20.815  1.00  0.00     0.017 A 
HETATM   36  C11 UNL     1      43.894  20.037  22.011  1.00  0.00     0.004 A 
HETATM   37  C12 UNL     1      44.443  21.271  22.225  1.00  0.00     0.037 A 
HETATM   38  C13 UNL     1      45.227  21.824  21.246  1.00  0.00     0.077 A 
HETATM   39  C20 UNL     1      45.475  21.154  20.041  1.00  0.00     0.054 A 
BRANCH  38  40
HETATM   40  O3  UNL     1      45.834  23.084  21.367  1.00  0.00    -0.311 OA
BRANCH  40  41
HETATM   41  C14 UNL     1      45.375  24.071  20.516  1.00  0.00     0.076 A 
HETATM   42  C15 UNL     1      44.085  24.515  20.603  1.00  0.00     0.037 A 
HETATM   43  C16 UNL     1      43.649  25.501  19.743  1.00  0.00     0.003 A 
HETATM   44  C17 UNL     1      44.476  26.055  18.793  1.00  0.00     0.000 A 
HETATM   45  C18 UNL     1      45.768  25.578  18.740  1.00  0.00     0.003 A 
HETATM   46  C19 UNL     1      46.225  24.598  19.586  1.00  0.00     0.037 A 
ENDBRANCH  40  41
ENDBRANCH  38  40
ENDBRANCH  31  34
ENDBRANCH   4  30
TORSDOF 9
ENDMDL
