MODEL 3
REMARK VINA RESULT: -9.872746976      4.772      8.266
REMARK  9 active torsions:
REMARK  status: ('A' for Active; 'I' for Inactive)
REMARK    1  A    between atoms: N2_5  and  C4_6 
REMARK    2  A    between atoms: C4_6  and  O1_7 
REMARK    3  A    between atoms: C4_6  and  N3_9 
REMARK    4  A    between atoms: C7_12  and  N4_13 
REMARK       I    between atoms: N4_13  and  C8_15 
REMARK    5  A    between atoms: C8_15  and  C9_17 
REMARK    6  A    between atoms: C13_21  and  O3_22 
REMARK    7  A    between atoms: O3_22  and  C14_23 
REMARK    8  A    between atoms: C25_38  and  C26_39 
REMARK    9  A    between atoms: C26_39  and  C27_40 
ROOT
HETATM    1  N3  UNL     1      44.774  20.089  12.811  1.00  0.00    -0.329 N 
HETATM    2  C5  UNL     1      45.531  20.572  13.921  1.00  0.00     0.172 C 
HETATM    3  C6  UNL     1      45.160  22.015  14.037  1.00  0.00     0.032 A 
HETATM    4  C7  UNL     1      45.191  23.083  14.869  1.00  0.00     0.132 A 
HETATM    5  N5  UNL     1      44.609  24.089  14.203  1.00  0.00    -0.285 N 
ATOM      6  H5  UNL     1      44.481  25.032  14.569  1.00  0.00     0.188 HD
HETATM    7  N6  UNL     1      44.222  23.689  13.004  1.00  0.00    -0.300 N 
ATOM      8  H6  UNL     1      43.755  24.261  12.300  1.00  0.00     0.186 HD
HETATM    9  C21 UNL     1      44.558  22.387  12.875  1.00  0.00     0.065 A 
HETATM   10  C22 UNL     1      44.511  21.248  11.947  1.00  0.00     0.073 C 
HETATM   11  C23 UNL     1      45.604  21.436  10.926  1.00  0.00     0.045 C 
HETATM   12  C24 UNL     1      43.155  21.177  11.291  1.00  0.00     0.045 C 
ENDROOT
BRANCH   1  13
HETATM   13  C4  UNL     1      44.357  18.753  12.514  1.00  0.00     0.218 C 
BRANCH  13  14
HETATM   14  N2  UNL     1      43.324  18.047  13.086  1.00  0.00    -0.339 N 
HETATM   15  C3  UNL     1      41.974  18.003  12.663  1.00  0.00     0.157 C 
HETATM   16  C2  UNL     1      41.531  16.591  12.346  1.00  0.00     0.291 C 
HETATM   17  N1  UNL     1      41.872  15.683  13.418  1.00  0.00     0.087 N 
HETATM   18  C1  UNL     1      40.824  15.751  14.392  1.00  0.00     0.310 C 
HETATM   19  C33 UNL     1      43.183  15.793  13.948  1.00  0.00     0.297 C 
HETATM   20  C25 UNL     1      43.686  17.168  14.256  1.00  0.00     0.120 C 
BRANCH  20  21
HETATM   21  C26 UNL     1      43.153  17.737  15.530  1.00  0.00     0.065 C 
BRANCH  21  22
HETATM   22  C27 UNL     1      44.199  18.391  16.353  1.00  0.00    -0.056 A 
HETATM   23  C28 UNL     1      45.481  17.889  16.380  1.00  0.00     0.007 A 
HETATM   24  C29 UNL     1      46.487  18.460  17.134  1.00  0.00     0.001 A 
HETATM   25  C30 UNL     1      46.228  19.584  17.902  1.00  0.00     0.000 A 
HETATM   26  C31 UNL     1      44.956  20.084  17.876  1.00  0.00     0.001 A 
HETATM   27  C32 UNL     1      43.931  19.509  17.115  1.00  0.00     0.007 A 
ENDBRANCH  21  22
ENDBRANCH  20  21
ENDBRANCH  13  14
BRANCH  13  28
HETATM   28  O1  UNL     1      45.079  18.194  11.580  1.00  0.00    -0.332 OA
ATOM     29  H1  UNL     1      45.394  18.720  10.854  1.00  0.00     0.220 HD
ENDBRANCH  13  28
ENDBRANCH   1  13
BRANCH   4  30
HETATM   30  N4  UNL     1      45.717  23.183  16.177  1.00  0.00    -0.307 N 
HETATM   31  C8  UNL     1      45.026  23.642  17.314  1.00  0.00     0.257 C 
HETATM   32  O2  UNL     1      43.829  23.993  17.145  1.00  0.00    -0.267 OA
ATOM     33  H4  UNL     1      46.687  22.897  16.309  1.00  0.00     0.170 HD
BRANCH  31  34
HETATM   34  C9  UNL     1      45.574  23.745  18.658  1.00  0.00     0.035 A 
HETATM   35  C10 UNL     1      46.664  24.537  18.929  1.00  0.00     0.017 A 
HETATM   36  C11 UNL     1      47.226  24.658  20.191  1.00  0.00     0.004 A 
HETATM   37  C12 UNL     1      46.682  23.962  21.235  1.00  0.00     0.037 A 
HETATM   38  C13 UNL     1      45.595  23.162  20.999  1.00  0.00     0.077 A 
HETATM   39  C20 UNL     1      45.034  23.045  19.721  1.00  0.00     0.054 A 
BRANCH  38  40
HETATM   40  O3  UNL     1      44.964  22.405  22.000  1.00  0.00    -0.311 OA
BRANCH  40  41
HETATM   41  C14 UNL     1      44.679  21.090  21.688  1.00  0.00     0.076 A 
HETATM   42  C15 UNL     1      43.385  20.680  21.534  1.00  0.00     0.037 A 
HETATM   43  C16 UNL     1      43.124  19.362  21.224  1.00  0.00     0.003 A 
HETATM   44  C17 UNL     1      44.133  18.439  21.064  1.00  0.00     0.000 A 
HETATM   45  C18 UNL     1      45.423  18.895  21.228  1.00  0.00     0.003 A 
HETATM   46  C19 UNL     1      45.707  20.202  21.537  1.00  0.00     0.037 A 
ENDBRANCH  40  41
ENDBRANCH  38  40
ENDBRANCH  31  34
ENDBRANCH   4  30
TORSDOF 9
ENDMDL
