MODEL 1
REMARK VINA RESULT: -6.648739480      0.000      0.000
REMARK  4 active torsions:
REMARK  status: ('A' for Active; 'I' for Inactive)
REMARK    1  A    between atoms: C1_2  and  C2_4 
REMARK    2  A    between atoms: C2_4  and  C3_5 
REMARK    3  A    between atoms: C5_7  and  O3_8 
REMARK    4  A    between atoms: C8_12  and  O4_13 
ROOT
HETATM    1  C3  UNL     1      17.651  43.025  -2.125  1.00  0.00    -0.012 A 
HETATM    2  C4  UNL     1      17.738  41.849  -2.851  1.00  0.00     0.047 A 
HETATM    3  C5  UNL     1      18.271  41.883  -4.131  1.00  0.00     0.066 A 
HETATM    4  C6  UNL     1      18.714  43.049  -4.700  1.00  0.00     0.039 A 
HETATM    5  C7  UNL     1      18.625  44.214  -3.978  1.00  0.00     0.040 A 
HETATM    6  C8  UNL     1      18.102  44.180  -2.720  1.00  0.00     0.072 A 
ENDROOT
BRANCH   1   7
HETATM    7  C2  UNL     1      17.105  42.975  -0.742  1.00  0.00     0.154 C 
BRANCH   7   8
HETATM    8  C1  UNL     1      18.316  42.899   0.157  1.00  0.00     0.177 C 
HETATM    9  O1  UNL     1      18.552  41.811   0.777  1.00  0.00    -0.648 OA
HETATM   10  O2  UNL     1      19.196  43.933   0.351  1.00  0.00    -0.648 OA
ENDBRANCH   7   8
ENDBRANCH   1   7
BRANCH   6  11
HETATM   11  O4  UNL     1      18.010  45.350  -1.986  1.00  0.00    -0.360 OA
ATOM     12  H4  UNL     1      17.329  45.967  -2.231  1.00  0.00     0.217 HD
ENDBRANCH   6  11
BRANCH   3  13
HETATM   13  O3  UNL     1      18.368  40.709  -4.876  1.00  0.00    -0.361 OA
ATOM     14  H3  UNL     1      19.004  40.045  -4.635  1.00  0.00     0.217 HD
ENDBRANCH   3  13
TORSDOF 4
ENDMDL
