MODEL 6
REMARK VINA RESULT: -5.828341761      1.716      4.521
REMARK  4 active torsions:
REMARK  status: ('A' for Active; 'I' for Inactive)
REMARK    1  A    between atoms: C1_2  and  C2_4 
REMARK    2  A    between atoms: C2_4  and  C3_5 
REMARK    3  A    between atoms: C5_7  and  O3_8 
REMARK    4  A    between atoms: C8_12  and  O4_13 
ROOT
HETATM    1  C3  UNL     1      18.058  43.732  -2.381  1.00  0.00    -0.012 A 
HETATM    2  C4  UNL     1      18.845  44.812  -2.018  1.00  0.00     0.047 A 
HETATM    3  C5  UNL     1      19.346  44.879  -0.726  1.00  0.00     0.066 A 
HETATM    4  C6  UNL     1      19.084  43.904   0.203  1.00  0.00     0.039 A 
HETATM    5  C7  UNL     1      18.302  42.835  -0.161  1.00  0.00     0.040 A 
HETATM    6  C8  UNL     1      17.811  42.770  -1.430  1.00  0.00     0.072 A 
ENDROOT
BRANCH   1   7
HETATM    7  C2  UNL     1      17.549  43.654  -3.777  1.00  0.00     0.154 C 
BRANCH   7   8
HETATM    8  C1  UNL     1      18.569  42.828  -4.523  1.00  0.00     0.177 C 
HETATM    9  O1  UNL     1      19.512  43.427  -5.136  1.00  0.00    -0.648 OA
HETATM   10  O2  UNL     1      18.555  41.458  -4.584  1.00  0.00    -0.648 OA
ENDBRANCH   7   8
ENDBRANCH   1   7
BRANCH   6  11
HETATM   11  O4  UNL     1      17.023  41.695  -1.804  1.00  0.00    -0.360 OA
ATOM     12  H4  UNL     1      17.372  40.824  -1.652  1.00  0.00     0.217 HD
ENDBRANCH   6  11
BRANCH   3  13
HETATM   13  O3  UNL     1      20.141  45.957  -0.342  1.00  0.00    -0.361 OA
ATOM     14  H3  UNL     1      21.042  45.812  -0.078  1.00  0.00     0.217 HD
ENDBRANCH   3  13
TORSDOF 4
ENDMDL
