MODEL 9
REMARK VINA RESULT: -5.461085299      1.992      4.621
REMARK  4 active torsions:
REMARK  status: ('A' for Active; 'I' for Inactive)
REMARK    1  A    between atoms: C1_2  and  C2_4 
REMARK    2  A    between atoms: C2_4  and  C3_5 
REMARK    3  A    between atoms: C5_7  and  O3_8 
REMARK    4  A    between atoms: C8_12  and  O4_13 
ROOT
HETATM    1  C3  UNL     1      18.497  44.164  -0.746  1.00  0.00    -0.012 A 
HETATM    2  C4  UNL     1      19.471  43.967   0.218  1.00  0.00     0.047 A 
HETATM    3  C5  UNL     1      19.197  43.137   1.296  1.00  0.00     0.066 A 
HETATM    4  C6  UNL     1      17.988  42.505   1.433  1.00  0.00     0.039 A 
HETATM    5  C7  UNL     1      17.024  42.703   0.476  1.00  0.00     0.040 A 
HETATM    6  C8  UNL     1      17.294  43.519  -0.582  1.00  0.00     0.072 A 
ENDROOT
BRANCH   1   7
HETATM    7  C2  UNL     1      18.808  45.033  -1.913  1.00  0.00     0.154 C 
BRANCH   7   8
HETATM    8  C1  UNL     1      18.142  44.363  -3.091  1.00  0.00     0.177 C 
HETATM    9  O1  UNL     1      17.255  45.007  -3.740  1.00  0.00    -0.648 OA
HETATM   10  O2  UNL     1      18.435  43.095  -3.522  1.00  0.00    -0.648 OA
ENDBRANCH   7   8
ENDBRANCH   1   7
BRANCH   6  11
HETATM   11  O4  UNL     1      16.326  43.723  -1.552  1.00  0.00    -0.360 OA
ATOM     12  H4  UNL     1      15.459  43.974  -1.257  1.00  0.00     0.217 HD
ENDBRANCH   6  11
BRANCH   3  13
HETATM   13  O3  UNL     1      20.166  42.926   2.275  1.00  0.00    -0.361 OA
ATOM     14  H3  UNL     1      20.397  43.627   2.874  1.00  0.00     0.217 HD
ENDBRANCH   3  13
TORSDOF 4
ENDMDL
