MODEL 8
REMARK VINA RESULT: -5.711889055      1.580      4.459
REMARK  4 active torsions:
REMARK  status: ('A' for Active; 'I' for Inactive)
REMARK    1  A    between atoms: C1_2  and  C2_4 
REMARK    2  A    between atoms: C2_4  and  C3_5 
REMARK    3  A    between atoms: C5_7  and  O3_8 
REMARK    4  A    between atoms: C8_12  and  O4_13 
ROOT
HETATM    1  C3  UNL     1      17.821  43.687  -2.368  1.00  0.00    -0.012 A 
HETATM    2  C4  UNL     1      18.693  44.241  -1.446  1.00  0.00     0.047 A 
HETATM    3  C5  UNL     1      18.681  43.775  -0.139  1.00  0.00     0.066 A 
HETATM    4  C6  UNL     1      17.829  42.780   0.266  1.00  0.00     0.039 A 
HETATM    5  C7  UNL     1      16.965  42.234  -0.650  1.00  0.00     0.040 A 
HETATM    6  C8  UNL     1      16.977  42.692  -1.933  1.00  0.00     0.072 A 
ENDROOT
BRANCH   1   7
HETATM    7  C2  UNL     1      17.860  44.172  -3.774  1.00  0.00     0.154 C 
BRANCH   7   8
HETATM    8  C1  UNL     1      18.798  43.229  -4.490  1.00  0.00     0.177 C 
HETATM    9  O1  UNL     1      19.922  43.673  -4.893  1.00  0.00    -0.648 OA
HETATM   10  O2  UNL     1      18.522  41.909  -4.735  1.00  0.00    -0.648 OA
ENDBRANCH   7   8
ENDBRANCH   1   7
BRANCH   6  11
HETATM   11  O4  UNL     1      16.109  42.145  -2.863  1.00  0.00    -0.360 OA
ATOM     12  H4  UNL     1      15.397  41.608  -2.533  1.00  0.00     0.217 HD
ENDBRANCH   6  11
BRANCH   3  13
HETATM   13  O3  UNL     1      19.553  44.320   0.802  1.00  0.00    -0.361 OA
ATOM     14  H3  UNL     1      19.243  44.981   1.410  1.00  0.00     0.217 HD
ENDBRANCH   3  13
TORSDOF 4
ENDMDL
