MODEL 1
REMARK VINA RESULT: -8.761910029      0.000      0.000
REMARK  7 active torsions:
REMARK  status: ('A' for Active; 'I' for Inactive)
REMARK    1  A    between atoms: C2_2  and  N1_3 
REMARK    2  A    between atoms: C6_7  and  C7_8 
REMARK    3  A    between atoms: C7_8  and  N2_9 
REMARK       I    between atoms: N2_9  and  C8_11 
REMARK    4  A    between atoms: C8_11  and  C9_13 
REMARK    5  A    between atoms: C11_15  and  N3_16 
REMARK    6  A    between atoms: C12_19  and  N4_20 
REMARK    7  A    between atoms: C16_24  and  O4_25 
ROOT
HETATM    1  C9  UNL     1      29.190  21.359  12.012  1.00  0.00     0.067 A 
HETATM    2  C10 UNL     1      28.995  19.983  11.958  1.00  0.00     0.058 A 
HETATM    3  C11 UNL     1      28.363  19.294  12.961  1.00  0.00     0.130 A 
HETATM    4  C12 UNL     1      27.909  19.984  14.045  1.00  0.00     0.065 A 
HETATM    5  C15 UNL     1      28.100  21.356  14.108  1.00  0.00     0.069 A 
HETATM    6  C16 UNL     1      28.742  22.047  13.089  1.00  0.00     0.086 A 
ENDROOT
BRANCH   1   7
HETATM    7  C8  UNL     1      29.873  22.008  10.899  1.00  0.00     0.254 C 
HETATM    8  N2  UNL     1      31.213  22.406  10.835  1.00  0.00    -0.355 N 
ATOM      9  H2  UNL     1      31.822  22.243  11.636  1.00  0.00     0.162 HD
HETATM   10  O1  UNL     1      29.198  22.265   9.825  1.00  0.00    -0.268 OA
BRANCH   8  11
HETATM   11  C7  UNL     1      31.753  23.045   9.648  1.00  0.00     0.158 C 
BRANCH  11  12
HETATM   12  C6  UNL     1      32.742  22.198   8.932  1.00  0.00     0.240 C 
HETATM   13  N1  UNL     1      33.478  22.898   7.902  1.00  0.00     0.094 N 
HETATM   14  C3  UNL     1      34.046  21.850   7.061  1.00  0.00     0.273 C 
HETATM   15  C4  UNL     1      33.352  20.569   7.414  1.00  0.00     0.032 C 
HETATM   16  C5  UNL     1      32.114  21.076   8.132  1.00  0.00     0.039 C 
BRANCH  13  17
HETATM   17  C2  UNL     1      34.540  23.720   8.480  1.00  0.00     0.268 C 
HETATM   18  C1  UNL     1      35.645  23.870   7.460  1.00  0.00     0.037 C 
ENDBRANCH  13  17
ENDBRANCH  11  12
ENDBRANCH   8  11
ENDBRANCH   1   7
BRANCH   6  19
HETATM   19  O4  UNL     1      28.897  23.438  13.224  1.00  0.00    -0.355 OA
HETATM   20  C17 UNL     1      29.278  24.036  14.424  1.00  0.00     0.210 C 
ENDBRANCH   6  19
BRANCH   3  21
HETATM   21  N3  UNL     1      28.234  17.876  12.845  1.00  0.00    -0.113 N 
HETATM   22  O2  UNL     1      27.110  17.360  12.588  1.00  0.00    -0.532 OA
HETATM   23  O3  UNL     1      29.294  17.045  13.004  1.00  0.00    -0.532 OA
ENDBRANCH   3  21
BRANCH   4  24
HETATM   24  N4  UNL     1      27.214  19.348  15.110  1.00  0.00    -0.387 N 
HETATM   25  C13 UNL     1      27.831  18.777  16.278  1.00  0.00     0.149 C 
HETATM   26  C14 UNL     1      25.760  19.260  15.027  1.00  0.00     0.149 C 
ENDBRANCH   4  24
TORSDOF 7
ENDMDL
