MODEL 7
REMARK VINA RESULT: -8.153288970      1.545      2.367
REMARK  7 active torsions:
REMARK  status: ('A' for Active; 'I' for Inactive)
REMARK    1  A    between atoms: C2_2  and  N1_3 
REMARK    2  A    between atoms: C6_7  and  C7_8 
REMARK    3  A    between atoms: C7_8  and  N2_9 
REMARK       I    between atoms: N2_9  and  C8_11 
REMARK    4  A    between atoms: C8_11  and  C9_13 
REMARK    5  A    between atoms: C11_15  and  N3_16 
REMARK    6  A    between atoms: C12_19  and  N4_20 
REMARK    7  A    between atoms: C16_24  and  O4_25 
ROOT
HETATM    1  C9  UNL     1      30.296  20.668  10.974  1.00  0.00     0.067 A 
HETATM    2  C10 UNL     1      29.980  19.322  11.121  1.00  0.00     0.058 A 
HETATM    3  C11 UNL     1      29.049  18.885  12.027  1.00  0.00     0.130 A 
HETATM    4  C12 UNL     1      28.413  19.802  12.809  1.00  0.00     0.065 A 
HETATM    5  C15 UNL     1      28.722  21.147  12.670  1.00  0.00     0.069 A 
HETATM    6  C16 UNL     1      29.667  21.583  11.749  1.00  0.00     0.086 A 
ENDROOT
BRANCH   1   7
HETATM    7  C8  UNL     1      31.299  21.042   9.983  1.00  0.00     0.254 C 
HETATM    8  N2  UNL     1      32.215  22.098  10.053  1.00  0.00    -0.355 N 
ATOM      9  H2  UNL     1      32.219  22.704  10.873  1.00  0.00     0.162 HD
HETATM   10  O1  UNL     1      31.387  20.342   8.898  1.00  0.00    -0.268 OA
BRANCH   8  11
HETATM   11  C7  UNL     1      33.160  22.347   8.979  1.00  0.00     0.158 C 
BRANCH  11  12
HETATM   12  C6  UNL     1      33.774  23.699   9.048  1.00  0.00     0.240 C 
HETATM   13  N1  UNL     1      35.079  23.783   8.430  1.00  0.00     0.094 N 
HETATM   14  C3  UNL     1      35.674  25.004   8.964  1.00  0.00     0.273 C 
HETATM   15  C4  UNL     1      34.845  25.428  10.140  1.00  0.00     0.032 C 
HETATM   16  C5  UNL     1      34.086  24.153  10.458  1.00  0.00     0.039 C 
BRANCH  13  17
HETATM   17  C2  UNL     1      34.969  23.863   6.974  1.00  0.00     0.268 C 
HETATM   18  C1  UNL     1      36.350  23.720   6.377  1.00  0.00     0.037 C 
ENDBRANCH  13  17
ENDBRANCH  11  12
ENDBRANCH   8  11
ENDBRANCH   1   7
BRANCH   6  19
HETATM   19  O4  UNL     1      29.927  22.963  11.667  1.00  0.00    -0.355 OA
HETATM   20  C17 UNL     1      29.734  23.827  12.742  1.00  0.00     0.210 C 
ENDBRANCH   6  19
BRANCH   3  21
HETATM   21  N3  UNL     1      28.806  17.482  12.141  1.00  0.00    -0.113 N 
HETATM   22  O2  UNL     1      28.331  16.839  11.163  1.00  0.00    -0.532 OA
HETATM   23  O3  UNL     1      29.072  16.799  13.282  1.00  0.00    -0.532 OA
ENDBRANCH   3  21
BRANCH   4  24
HETATM   24  N4  UNL     1      27.411  19.433  13.748  1.00  0.00    -0.387 N 
HETATM   25  C13 UNL     1      26.031  19.178  13.429  1.00  0.00     0.149 C 
HETATM   26  C14 UNL     1      27.796  19.299  15.148  1.00  0.00     0.149 C 
ENDBRANCH   4  24
TORSDOF 7
ENDMDL
