MODEL 18
REMARK VINA RESULT: -7.863196693      2.763      8.650
REMARK  7 active torsions:
REMARK  status: ('A' for Active; 'I' for Inactive)
REMARK    1  A    between atoms: C2_2  and  N1_3 
REMARK    2  A    between atoms: C6_7  and  C7_8 
REMARK    3  A    between atoms: C7_8  and  N2_9 
REMARK       I    between atoms: N2_9  and  C8_11 
REMARK    4  A    between atoms: C8_11  and  C9_13 
REMARK    5  A    between atoms: C11_15  and  N3_16 
REMARK    6  A    between atoms: C12_19  and  N4_20 
REMARK    7  A    between atoms: C16_24  and  O4_25 
ROOT
HETATM    1  C9  UNL     1      32.839  22.318   8.983  1.00  0.00     0.067 A 
HETATM    2  C10 UNL     1      33.238  21.902   7.718  1.00  0.00     0.058 A 
HETATM    3  C11 UNL     1      34.210  22.557   7.006  1.00  0.00     0.130 A 
HETATM    4  C12 UNL     1      34.804  23.651   7.559  1.00  0.00     0.065 A 
HETATM    5  C15 UNL     1      34.412  24.074   8.820  1.00  0.00     0.069 A 
HETATM    6  C16 UNL     1      33.426  23.406   9.536  1.00  0.00     0.086 A 
ENDROOT
BRANCH   1   7
HETATM    7  C8  UNL     1      31.798  21.560   9.667  1.00  0.00     0.254 C 
HETATM    8  N2  UNL     1      31.106  21.919  10.830  1.00  0.00    -0.355 N 
ATOM      9  H2  UNL     1      31.321  22.804  11.288  1.00  0.00     0.162 HD
HETATM   10  O1  UNL     1      31.440  20.418   9.175  1.00  0.00    -0.268 OA
BRANCH   8  11
HETATM   11  C7  UNL     1      30.087  21.053  11.397  1.00  0.00     0.158 C 
BRANCH  11  12
HETATM   12  C6  UNL     1      29.684  21.454  12.770  1.00  0.00     0.240 C 
HETATM   13  N1  UNL     1      28.404  20.923  13.184  1.00  0.00     0.094 N 
HETATM   14  C3  UNL     1      28.000  21.746  14.319  1.00  0.00     0.273 C 
HETATM   15  C4  UNL     1      28.887  22.955  14.334  1.00  0.00     0.032 C 
HETATM   16  C5  UNL     1      29.447  22.942  12.923  1.00  0.00     0.039 C 
BRANCH  13  17
HETATM   17  C2  UNL     1      28.519  19.522  13.584  1.00  0.00     0.268 C 
HETATM   18  C1  UNL     1      28.070  19.391  15.021  1.00  0.00     0.037 C 
ENDBRANCH  13  17
ENDBRANCH  11  12
ENDBRANCH   8  11
ENDBRANCH   1   7
BRANCH   6  19
HETATM   19  O4  UNL     1      33.083  23.895  10.809  1.00  0.00    -0.355 OA
HETATM   20  C17 UNL     1      33.799  24.910  11.439  1.00  0.00     0.210 C 
ENDBRANCH   6  19
BRANCH   3  21
HETATM   21  N3  UNL     1      34.539  22.086   5.697  1.00  0.00    -0.113 N 
HETATM   22  O2  UNL     1      34.121  22.704   4.678  1.00  0.00    -0.532 OA
HETATM   23  O3  UNL     1      35.298  20.979   5.504  1.00  0.00    -0.532 OA
ENDBRANCH   3  21
BRANCH   4  24
HETATM   24  N4  UNL     1      35.843  24.363   6.900  1.00  0.00    -0.387 N 
HETATM   25  C13 UNL     1      37.108  23.804   6.502  1.00  0.00     0.149 C 
HETATM   26  C14 UNL     1      35.627  25.774   6.598  1.00  0.00     0.149 C 
ENDBRANCH   4  24
TORSDOF 7
ENDMDL
