MODEL 11
REMARK VINA RESULT: -8.009634674      1.912      3.550
REMARK  7 active torsions:
REMARK  status: ('A' for Active; 'I' for Inactive)
REMARK    1  A    between atoms: C2_2  and  N1_3 
REMARK    2  A    between atoms: C6_7  and  C7_8 
REMARK    3  A    between atoms: C7_8  and  N2_9 
REMARK       I    between atoms: N2_9  and  C8_11 
REMARK    4  A    between atoms: C8_11  and  C9_13 
REMARK    5  A    between atoms: C11_15  and  N3_16 
REMARK    6  A    between atoms: C12_19  and  N4_20 
REMARK    7  A    between atoms: C16_24  and  O4_25 
ROOT
HETATM    1  C9  UNL     1      30.308  21.179  11.353  1.00  0.00     0.067 A 
HETATM    2  C10 UNL     1      30.115  22.292  12.164  1.00  0.00     0.058 A 
HETATM    3  C11 UNL     1      29.804  22.181  13.495  1.00  0.00     0.130 A 
HETATM    4  C12 UNL     1      29.683  20.938  14.039  1.00  0.00     0.065 A 
HETATM    5  C15 UNL     1      29.873  19.822  13.238  1.00  0.00     0.069 A 
HETATM    6  C16 UNL     1      30.187  19.942  11.890  1.00  0.00     0.086 A 
ENDROOT
BRANCH   1   7
HETATM    7  C8  UNL     1      30.637  21.392   9.948  1.00  0.00     0.254 C 
HETATM    8  N2  UNL     1      31.716  20.860   9.234  1.00  0.00    -0.355 N 
ATOM      9  H2  UNL     1      32.377  20.247   9.709  1.00  0.00     0.162 HD
HETATM   10  O1  UNL     1      29.865  22.155   9.242  1.00  0.00    -0.268 OA
BRANCH   8  11
HETATM   11  C7  UNL     1      31.912  21.165   7.828  1.00  0.00     0.158 C 
BRANCH  11  12
HETATM   12  C6  UNL     1      33.305  21.580   7.513  1.00  0.00     0.240 C 
HETATM   13  N1  UNL     1      33.546  22.996   7.679  1.00  0.00     0.094 N 
HETATM   14  C3  UNL     1      34.773  23.263   6.935  1.00  0.00     0.273 C 
HETATM   15  C4  UNL     1      35.038  22.068   6.069  1.00  0.00     0.032 C 
HETATM   16  C5  UNL     1      33.682  21.387   6.059  1.00  0.00     0.039 C 
BRANCH  13  17
HETATM   17  C2  UNL     1      33.720  23.340   9.090  1.00  0.00     0.268 C 
HETATM   18  C1  UNL     1      34.837  24.351   9.208  1.00  0.00     0.037 C 
ENDBRANCH  13  17
ENDBRANCH  11  12
ENDBRANCH   8  11
ENDBRANCH   1   7
BRANCH   6  19
HETATM   19  O4  UNL     1      30.366  18.764  11.142  1.00  0.00    -0.355 OA
HETATM   20  C17 UNL     1      29.665  17.592  11.413  1.00  0.00     0.210 C 
ENDBRANCH   6  19
BRANCH   3  21
HETATM   21  N3  UNL     1      29.586  23.373  14.252  1.00  0.00    -0.113 N 
HETATM   22  O2  UNL     1      28.438  23.897  14.294  1.00  0.00    -0.532 OA
HETATM   23  O3  UNL     1      30.586  23.976  14.941  1.00  0.00    -0.532 OA
ENDBRANCH   3  21
BRANCH   4  24
HETATM   24  N4  UNL     1      29.397  20.739  15.417  1.00  0.00    -0.387 N 
HETATM   25  C13 UNL     1      30.305  21.013  16.500  1.00  0.00     0.149 C 
HETATM   26  C14 UNL     1      28.085  20.215  15.780  1.00  0.00     0.149 C 
ENDBRANCH   4  24
TORSDOF 7
ENDMDL
