MODEL 3
REMARK VINA RESULT: -8.433389768      2.443      7.955
REMARK  7 active torsions:
REMARK  status: ('A' for Active; 'I' for Inactive)
REMARK    1  A    between atoms: C2_2  and  N1_3 
REMARK    2  A    between atoms: C6_7  and  C7_8 
REMARK    3  A    between atoms: C7_8  and  N2_9 
REMARK       I    between atoms: N2_9  and  C8_11 
REMARK    4  A    between atoms: C8_11  and  C9_13 
REMARK    5  A    between atoms: C11_15  and  N3_16 
REMARK    6  A    between atoms: C12_19  and  N4_20 
REMARK    7  A    between atoms: C16_24  and  O4_25 
ROOT
HETATM    1  C9  UNL     1      31.617  22.890  10.099  1.00  0.00     0.067 A 
HETATM    2  C10 UNL     1      31.370  22.105   8.979  1.00  0.00     0.058 A 
HETATM    3  C11 UNL     1      32.260  22.012   7.940  1.00  0.00     0.130 A 
HETATM    4  C12 UNL     1      33.427  22.711   8.012  1.00  0.00     0.065 A 
HETATM    5  C15 UNL     1      33.683  23.497   9.125  1.00  0.00     0.069 A 
HETATM    6  C16 UNL     1      32.775  23.588  10.174  1.00  0.00     0.086 A 
ENDROOT
BRANCH   1   7
HETATM    7  C8  UNL     1      30.613  22.929  11.156  1.00  0.00     0.254 C 
HETATM    8  N2  UNL     1      30.796  23.299  12.494  1.00  0.00    -0.355 N 
ATOM      9  H2  UNL     1      31.722  23.582  12.812  1.00  0.00     0.162 HD
HETATM   10  O1  UNL     1      29.398  22.590  10.867  1.00  0.00    -0.268 OA
BRANCH   8  11
HETATM   11  C7  UNL     1      29.690  23.288  13.435  1.00  0.00     0.158 C 
BRANCH  11  12
HETATM   12  C6  UNL     1      29.576  22.007  14.180  1.00  0.00     0.240 C 
HETATM   13  N1  UNL     1      28.226  21.683  14.586  1.00  0.00     0.094 N 
HETATM   14  C3  UNL     1      28.374  20.675  15.630  1.00  0.00     0.273 C 
HETATM   15  C4  UNL     1      29.813  20.678  16.053  1.00  0.00     0.032 C 
HETATM   16  C5  UNL     1      30.290  22.015  15.516  1.00  0.00     0.039 C 
BRANCH  13  17
HETATM   17  C2  UNL     1      27.453  21.148  13.465  1.00  0.00     0.268 C 
HETATM   18  C1  UNL     1      26.089  20.740  13.971  1.00  0.00     0.037 C 
ENDBRANCH  13  17
ENDBRANCH  11  12
ENDBRANCH   8  11
ENDBRANCH   1   7
BRANCH   6  19
HETATM   19  O4  UNL     1      33.105  24.405  11.269  1.00  0.00    -0.355 OA
HETATM   20  C17 UNL     1      34.074  25.404  11.194  1.00  0.00     0.210 C 
ENDBRANCH   6  19
BRANCH   3  21
HETATM   21  N3  UNL     1      31.915  21.211   6.808  1.00  0.00    -0.113 N 
HETATM   22  O2  UNL     1      32.046  19.955   6.856  1.00  0.00    -0.532 OA
HETATM   23  O3  UNL     1      31.442  21.758   5.661  1.00  0.00    -0.532 OA
ENDBRANCH   3  21
BRANCH   4  24
HETATM   24  N4  UNL     1      34.416  22.640   6.993  1.00  0.00    -0.387 N 
HETATM   25  C13 UNL     1      34.824  21.437   6.317  1.00  0.00     0.149 C 
HETATM   26  C14 UNL     1      35.080  23.875   6.591  1.00  0.00     0.149 C 
ENDBRANCH   4  24
TORSDOF 7
ENDMDL
