MODEL 11
REMARK VINA RESULT: -8.058480869      3.217      8.193
REMARK  7 active torsions:
REMARK  status: ('A' for Active; 'I' for Inactive)
REMARK    1  A    between atoms: C2_2  and  N1_3 
REMARK    2  A    between atoms: C6_7  and  C7_8 
REMARK    3  A    between atoms: C7_8  and  N2_9 
REMARK       I    between atoms: N2_9  and  C8_11 
REMARK    4  A    between atoms: C8_11  and  C9_13 
REMARK    5  A    between atoms: C11_15  and  N3_16 
REMARK    6  A    between atoms: C12_19  and  N4_20 
REMARK    7  A    between atoms: C16_24  and  O4_25 
ROOT
HETATM    1  C9  UNL     1      30.167  21.152  11.205  1.00  0.00     0.068 A 
HETATM    2  C10 UNL     1      29.869  22.215  12.030  1.00  0.00     0.058 A 
HETATM    3  C11 UNL     1      29.406  22.059  13.340  1.00  0.00     0.130 A 
HETATM    4  C12 UNL     1      29.237  20.804  13.838  1.00  0.00     0.065 A 
HETATM    5  C15 UNL     1      29.526  19.694  13.037  1.00  0.00     0.069 A 
HETATM    6  C16 UNL     1      29.987  19.901  11.730  1.00  0.00     0.086 A 
ENDROOT
BRANCH   1   7
HETATM    7  C8  UNL     1      30.651  21.398   9.834  1.00  0.00     0.258 C 
HETATM    8  N2  UNL     1      31.844  20.962   9.277  1.00  0.00    -0.334 N 
ATOM      9  H2  UNL     1      32.460  20.397   9.860  1.00  0.00     0.168 HD
HETATM   10  O1  UNL     1      29.824  22.104   9.129  1.00  0.00    -0.267 OA
BRANCH   8  11
HETATM   11  C7  UNL     1      32.265  21.244   7.960  1.00  0.00     0.099 C 
BRANCH  11  12
HETATM   12  C6  UNL     1      33.411  22.079   7.647  1.00  0.00     0.261 C 
HETATM   13  N1  UNL     1      33.565  22.817   6.472  1.00  0.00     0.097 N 
HETATM   14  C3  UNL     1      34.903  23.457   6.715  1.00  0.00     0.273 C 
HETATM   15  C4  UNL     1      34.935  23.758   8.194  1.00  0.00     0.033 C 
HETATM   16  C5  UNL     1      33.642  23.169   8.712  1.00  0.00     0.043 C 
BRANCH  13  17
HETATM   17  C2  UNL     1      33.780  22.004   5.276  1.00  0.00     0.269 C 
HETATM   18  C1  UNL     1      34.957  21.099   5.536  1.00  0.00     0.037 C 
ENDBRANCH  13  17
ENDBRANCH  11  12
ENDBRANCH   8  11
ENDBRANCH   1   7
BRANCH   6  19
HETATM   19  O4  UNL     1      30.257  18.750  10.983  1.00  0.00    -0.355 OA
HETATM   20  C17 UNL     1      29.765  17.515  11.380  1.00  0.00     0.210 C 
ENDBRANCH   6  19
BRANCH   3  21
HETATM   21  N3  UNL     1      29.087  23.215  14.103  1.00  0.00    -0.113 N 
HETATM   22  O2  UNL     1      27.952  23.760  14.014  1.00  0.00    -0.532 OA
HETATM   23  O3  UNL     1      30.000  23.758  14.948  1.00  0.00    -0.532 OA
ENDBRANCH   3  21
BRANCH   4  24
HETATM   24  N4  UNL     1      28.811  20.559  15.170  1.00  0.00    -0.387 N 
HETATM   25  C13 UNL     1      29.668  20.653  16.331  1.00  0.00     0.149 C 
HETATM   26  C14 UNL     1      27.416  20.185  15.435  1.00  0.00     0.149 C 
ENDBRANCH   4  24
TORSDOF 7
ENDMDL
