MODEL 17
REMARK VINA RESULT: -7.881839957      2.545      4.729
REMARK  7 active torsions:
REMARK  status: ('A' for Active; 'I' for Inactive)
REMARK    1  A    between atoms: C2_2  and  N1_3 
REMARK    2  A    between atoms: C6_7  and  C7_8 
REMARK    3  A    between atoms: C7_8  and  N2_9 
REMARK       I    between atoms: N2_9  and  C8_11 
REMARK    4  A    between atoms: C8_11  and  C9_13 
REMARK    5  A    between atoms: C11_15  and  N3_16 
REMARK    6  A    between atoms: C12_19  and  N4_20 
REMARK    7  A    between atoms: C16_24  and  O4_25 
ROOT
HETATM    1  C9  UNL     1      31.152  22.464  10.190  1.00  0.00     0.068 A 
HETATM    2  C10 UNL     1      31.007  21.748   9.021  1.00  0.00     0.058 A 
HETATM    3  C11 UNL     1      31.958  21.758   7.996  1.00  0.00     0.130 A 
HETATM    4  C12 UNL     1      33.086  22.505   8.146  1.00  0.00     0.065 A 
HETATM    5  C15 UNL     1      33.276  23.249   9.316  1.00  0.00     0.069 A 
HETATM    6  C16 UNL     1      32.294  23.209  10.315  1.00  0.00     0.086 A 
ENDROOT
BRANCH   1   7
HETATM    7  C8  UNL     1      30.104  22.403  11.224  1.00  0.00     0.258 C 
HETATM    8  N2  UNL     1      30.260  22.039  12.554  1.00  0.00    -0.334 N 
ATOM      9  H2  UNL     1      31.198  21.796  12.871  1.00  0.00     0.168 HD
HETATM   10  O1  UNL     1      28.935  22.738  10.776  1.00  0.00    -0.267 OA
BRANCH   8  11
HETATM   11  C7  UNL     1      29.213  21.979  13.499  1.00  0.00     0.099 C 
BRANCH  11  12
HETATM   12  C6  UNL     1      28.533  20.751  13.865  1.00  0.00     0.261 C 
HETATM   13  N1  UNL     1      28.943  19.468  13.495  1.00  0.00     0.097 N 
HETATM   14  C3  UNL     1      27.879  18.633  14.150  1.00  0.00     0.273 C 
HETATM   15  C4  UNL     1      27.567  19.336  15.449  1.00  0.00     0.033 C 
HETATM   16  C5  UNL     1      28.409  20.591  15.393  1.00  0.00     0.043 C 
BRANCH  13  17
HETATM   17  C2  UNL     1      28.788  19.177  12.071  1.00  0.00     0.269 C 
HETATM   18  C1  UNL     1      30.073  18.562  11.581  1.00  0.00     0.037 C 
ENDBRANCH  13  17
ENDBRANCH  11  12
ENDBRANCH   8  11
ENDBRANCH   1   7
BRANCH   6  19
HETATM   19  O4  UNL     1      32.546  23.974  11.457  1.00  0.00    -0.355 OA
HETATM   20  C17 UNL     1      33.712  24.716  11.570  1.00  0.00     0.210 C 
ENDBRANCH   6  19
BRANCH   3  21
HETATM   21  N3  UNL     1      31.704  21.019   6.810  1.00  0.00    -0.113 N 
HETATM   22  O2  UNL     1      31.968  19.786   6.743  1.00  0.00    -0.532 OA
HETATM   23  O3  UNL     1      31.168  21.625   5.721  1.00  0.00    -0.532 OA
ENDBRANCH   3  21
BRANCH   4  24
HETATM   24  N4  UNL     1      34.119  22.537   7.172  1.00  0.00    -0.387 N 
HETATM   25  C13 UNL     1      34.565  21.386   6.419  1.00  0.00     0.149 C 
HETATM   26  C14 UNL     1      34.806  23.800   6.876  1.00  0.00     0.149 C 
ENDBRANCH   4  24
TORSDOF 7
ENDMDL
