MODEL 20
REMARK VINA RESULT: -7.802282601      2.016      3.626
REMARK  7 active torsions:
REMARK  status: ('A' for Active; 'I' for Inactive)
REMARK    1  A    between atoms: C2_2  and  N1_3 
REMARK    2  A    between atoms: C6_7  and  C7_8 
REMARK    3  A    between atoms: C7_8  and  N2_9 
REMARK       I    between atoms: N2_9  and  C8_11 
REMARK    4  A    between atoms: C8_11  and  C9_13 
REMARK    5  A    between atoms: C11_15  and  N3_16 
REMARK    6  A    between atoms: C12_19  and  N4_20 
REMARK    7  A    between atoms: C16_24  and  O4_25 
ROOT
HETATM    1  C9  UNL     1      32.400  22.262   9.031  1.00  0.00     0.068 A 
HETATM    2  C10 UNL     1      32.686  21.838   7.751  1.00  0.00     0.058 A 
HETATM    3  C11 UNL     1      33.737  22.361   6.990  1.00  0.00     0.130 A 
HETATM    4  C12 UNL     1      34.523  23.334   7.526  1.00  0.00     0.065 A 
HETATM    5  C15 UNL     1      34.270  23.796   8.823  1.00  0.00     0.069 A 
HETATM    6  C16 UNL     1      33.205  23.243   9.546  1.00  0.00     0.086 A 
ENDROOT
BRANCH   1   7
HETATM    7  C8  UNL     1      31.274  21.662   9.769  1.00  0.00     0.258 C 
HETATM    8  N2  UNL     1      29.959  22.105   9.794  1.00  0.00    -0.334 N 
ATOM      9  H2  UNL     1      29.726  22.927   9.236  1.00  0.00     0.168 HD
HETATM   10  O1  UNL     1      31.618  20.612  10.445  1.00  0.00    -0.267 OA
BRANCH   8  11
HETATM   11  C7  UNL     1      28.922  21.501  10.536  1.00  0.00     0.099 C 
BRANCH  11  12
HETATM   12  C6  UNL     1      28.425  22.027  11.794  1.00  0.00     0.261 C 
HETATM   13  N1  UNL     1      28.102  21.255  12.912  1.00  0.00     0.097 N 
HETATM   14  C3  UNL     1      27.659  22.323  13.873  1.00  0.00     0.273 C 
HETATM   15  C4  UNL     1      28.560  23.502  13.596  1.00  0.00     0.033 C 
HETATM   16  C5  UNL     1      29.392  23.054  12.415  1.00  0.00     0.043 C 
BRANCH  13  17
HETATM   17  C2  UNL     1      26.911  20.424  12.742  1.00  0.00     0.269 C 
HETATM   18  C1  UNL     1      26.074  20.552  13.989  1.00  0.00     0.037 C 
ENDBRANCH  13  17
ENDBRANCH  11  12
ENDBRANCH   8  11
ENDBRANCH   1   7
BRANCH   6  19
HETATM   19  O4  UNL     1      33.006  23.749  10.834  1.00  0.00    -0.355 OA
HETATM   20  C17 UNL     1      33.866  24.700  11.362  1.00  0.00     0.210 C 
ENDBRANCH   6  19
BRANCH   3  21
HETATM   21  N3  UNL     1      33.932  21.889   5.664  1.00  0.00    -0.113 N 
HETATM   22  O2  UNL     1      33.599  22.592   4.669  1.00  0.00    -0.532 OA
HETATM   23  O3  UNL     1      34.483  20.670   5.439  1.00  0.00    -0.532 OA
ENDBRANCH   3  21
BRANCH   4  24
HETATM   24  N4  UNL     1      35.635  23.887   6.838  1.00  0.00    -0.387 N 
HETATM   25  C13 UNL     1      36.613  23.109   6.110  1.00  0.00     0.149 C 
HETATM   26  C14 UNL     1      35.844  25.340   6.835  1.00  0.00     0.149 C 
ENDBRANCH   4  24
TORSDOF 7
ENDMDL
