MODEL 16
REMARK VINA RESULT: -7.927878514      2.113      3.770
REMARK  7 active torsions:
REMARK  status: ('A' for Active; 'I' for Inactive)
REMARK    1  A    between atoms: C2_2  and  N1_3 
REMARK    2  A    between atoms: C6_7  and  C7_8 
REMARK    3  A    between atoms: C7_8  and  N2_9 
REMARK       I    between atoms: N2_9  and  C8_11 
REMARK    4  A    between atoms: C8_11  and  C9_13 
REMARK    5  A    between atoms: C11_15  and  N3_16 
REMARK    6  A    between atoms: C12_19  and  N4_20 
REMARK    7  A    between atoms: C16_24  and  O4_25 
ROOT
HETATM    1  C9  UNL     1      32.258  22.474   9.708  1.00  0.00     0.068 A 
HETATM    2  C10 UNL     1      32.216  21.889   8.460  1.00  0.00     0.058 A 
HETATM    3  C11 UNL     1      33.121  22.198   7.440  1.00  0.00     0.130 A 
HETATM    4  C12 UNL     1      34.095  23.119   7.675  1.00  0.00     0.065 A 
HETATM    5  C15 UNL     1      34.177  23.740   8.927  1.00  0.00     0.069 A 
HETATM    6  C16 UNL     1      33.247  23.398   9.917  1.00  0.00     0.086 A 
ENDROOT
BRANCH   1   7
HETATM    7  C8  UNL     1      31.268  22.095  10.731  1.00  0.00     0.258 C 
HETATM    8  N2  UNL     1      30.435  22.945  11.445  1.00  0.00    -0.334 N 
ATOM      9  H2  UNL     1      30.491  23.943  11.242  1.00  0.00     0.168 HD
HETATM   10  O1  UNL     1      31.222  20.817  10.937  1.00  0.00    -0.267 OA
BRANCH   8  11
HETATM   11  C7  UNL     1      29.516  22.527  12.430  1.00  0.00     0.099 C 
BRANCH  11  12
HETATM   12  C6  UNL     1      28.423  21.608  12.169  1.00  0.00     0.261 C 
HETATM   13  N1  UNL     1      27.282  21.476  12.963  1.00  0.00     0.097 N 
HETATM   14  C3  UNL     1      26.538  20.407  12.212  1.00  0.00     0.273 C 
HETATM   15  C4  UNL     1      26.816  20.683  10.753  1.00  0.00     0.033 C 
HETATM   16  C5  UNL     1      27.791  21.838  10.782  1.00  0.00     0.043 C 
BRANCH  13  17
HETATM   17  C2  UNL     1      27.529  20.874  14.272  1.00  0.00     0.269 C 
HETATM   18  C1  UNL     1      26.359  19.981  14.600  1.00  0.00     0.037 C 
ENDBRANCH  13  17
ENDBRANCH  11  12
ENDBRANCH   8  11
ENDBRANCH   1   7
BRANCH   6  19
HETATM   19  O4  UNL     1      33.384  24.054  11.144  1.00  0.00    -0.355 OA
HETATM   20  C17 UNL     1      34.090  25.245  11.236  1.00  0.00     0.210 C 
ENDBRANCH   6  19
BRANCH   3  21
HETATM   21  N3  UNL     1      32.975  21.572   6.173  1.00  0.00    -0.113 N 
HETATM   22  O2  UNL     1      32.460  22.188   5.199  1.00  0.00    -0.532 OA
HETATM   23  O3  UNL     1      33.389  20.294   5.983  1.00  0.00    -0.532 OA
ENDBRANCH   3  21
BRANCH   4  24
HETATM   24  N4  UNL     1      35.078  23.459   6.708  1.00  0.00    -0.387 N 
HETATM   25  C13 UNL     1      35.758  22.502   5.864  1.00  0.00     0.149 C 
HETATM   26  C14 UNL     1      35.459  24.863   6.516  1.00  0.00     0.149 C 
ENDBRANCH   4  24
TORSDOF 7
ENDMDL
