MODEL 2
REMARK VINA RESULT: -8.316366811      3.357      9.267
REMARK  7 active torsions:
REMARK  status: ('A' for Active; 'I' for Inactive)
REMARK    1  A    between atoms: C2_2  and  N1_3 
REMARK    2  A    between atoms: C6_7  and  C7_8 
REMARK    3  A    between atoms: C7_8  and  N2_9 
REMARK       I    between atoms: N2_9  and  C8_11 
REMARK    4  A    between atoms: C8_11  and  C9_13 
REMARK    5  A    between atoms: C11_15  and  N3_16 
REMARK    6  A    between atoms: C12_19  and  N4_20 
REMARK    7  A    between atoms: C16_24  and  O4_25 
ROOT
HETATM    1  C9  UNL     1      28.941  21.157  11.761  1.00  0.00     0.068 A 
HETATM    2  C10 UNL     1      28.960  19.779  11.734  1.00  0.00     0.058 A 
HETATM    3  C11 UNL     1      28.234  18.988  12.630  1.00  0.00     0.130 A 
HETATM    4  C12 UNL     1      27.467  19.593  13.577  1.00  0.00     0.065 A 
HETATM    5  C15 UNL     1      27.418  20.990  13.643  1.00  0.00     0.069 A 
HETATM    6  C16 UNL     1      28.164  21.741  12.724  1.00  0.00     0.086 A 
ENDROOT
BRANCH   1   7
HETATM    7  C8  UNL     1      29.736  21.921  10.782  1.00  0.00     0.258 C 
HETATM    8  N2  UNL     1      31.112  22.094  10.774  1.00  0.00    -0.334 N 
ATOM      9  H2  UNL     1      31.651  21.638  11.509  1.00  0.00     0.168 HD
HETATM   10  O1  UNL     1      29.007  22.465   9.859  1.00  0.00    -0.267 OA
BRANCH   8  11
HETATM   11  C7  UNL     1      31.820  22.855   9.819  1.00  0.00     0.099 C 
BRANCH  11  12
HETATM   12  C6  UNL     1      32.307  22.314   8.564  1.00  0.00     0.261 C 
HETATM   13  N1  UNL     1      33.648  22.276   8.176  1.00  0.00     0.097 N 
HETATM   14  C3  UNL     1      33.532  21.624   6.827  1.00  0.00     0.273 C 
HETATM   15  C4  UNL     1      32.418  20.615   6.969  1.00  0.00     0.033 C 
HETATM   16  C5  UNL     1      31.904  20.838   8.373  1.00  0.00     0.043 C 
BRANCH  13  17
HETATM   17  C2  UNL     1      34.224  23.587   7.881  1.00  0.00     0.269 C 
HETATM   18  C1  UNL     1      35.168  23.428   6.717  1.00  0.00     0.037 C 
ENDBRANCH  13  17
ENDBRANCH  11  12
ENDBRANCH   8  11
ENDBRANCH   1   7
BRANCH   6  19
HETATM   19  O4  UNL     1      28.070  23.130  12.845  1.00  0.00    -0.355 OA
HETATM   20  C17 UNL     1      28.626  23.787  13.932  1.00  0.00     0.210 C 
ENDBRANCH   6  19
BRANCH   3  21
HETATM   21  N3  UNL     1      28.346  17.574  12.552  1.00  0.00    -0.113 N 
HETATM   22  O2  UNL     1      28.617  16.885  13.574  1.00  0.00    -0.532 OA
HETATM   23  O3  UNL     1      28.162  16.932  11.370  1.00  0.00    -0.532 OA
ENDBRANCH   3  21
BRANCH   4  24
HETATM   24  N4  UNL     1      26.667  18.864  14.497  1.00  0.00    -0.387 N 
HETATM   25  C13 UNL     1      25.354  18.338  14.197  1.00  0.00     0.149 C 
HETATM   26  C14 UNL     1      27.166  18.601  15.852  1.00  0.00     0.149 C 
ENDBRANCH   4  24
TORSDOF 7
ENDMDL
