MODEL 5
REMARK VINA RESULT: -8.210668032      2.692      4.825
REMARK  7 active torsions:
REMARK  status: ('A' for Active; 'I' for Inactive)
REMARK    1  A    between atoms: C2_2  and  N1_3 
REMARK    2  A    between atoms: C6_7  and  C7_8 
REMARK    3  A    between atoms: C7_8  and  N2_9 
REMARK       I    between atoms: N2_9  and  C8_11 
REMARK    4  A    between atoms: C8_11  and  C9_13 
REMARK    5  A    between atoms: C11_15  and  N3_16 
REMARK    6  A    between atoms: C12_19  and  N4_20 
REMARK    7  A    between atoms: C16_24  and  O4_25 
ROOT
HETATM    1  C9  UNL     1      31.260  22.743  10.220  1.00  0.00     0.068 A 
HETATM    2  C10 UNL     1      30.978  22.033   9.073  1.00  0.00     0.058 A 
HETATM    3  C11 UNL     1      31.895  21.868   8.031  1.00  0.00     0.130 A 
HETATM    4  C12 UNL     1      33.130  22.430   8.140  1.00  0.00     0.065 A 
HETATM    5  C15 UNL     1      33.462  23.161   9.286  1.00  0.00     0.069 A 
HETATM    6  C16 UNL     1      32.509  23.300  10.304  1.00  0.00     0.086 A 
ENDROOT
BRANCH   1   7
HETATM    7  C8  UNL     1      30.239  22.873  11.275  1.00  0.00     0.258 C 
HETATM    8  N2  UNL     1      30.430  23.322  12.573  1.00  0.00    -0.334 N 
ATOM      9  H2  UNL     1      31.370  23.611  12.841  1.00  0.00     0.168 HD
HETATM   10  O1  UNL     1      29.059  22.511  10.879  1.00  0.00    -0.267 OA
BRANCH   8  11
HETATM   11  C7  UNL     1      29.415  23.408  13.550  1.00  0.00     0.099 C 
BRANCH  11  12
HETATM   12  C6  UNL     1      29.082  22.325  14.457  1.00  0.00     0.261 C 
HETATM   13  N1  UNL     1      28.296  21.219  14.129  1.00  0.00     0.097 N 
HETATM   14  C3  UNL     1      28.306  20.469  15.431  1.00  0.00     0.273 C 
HETATM   15  C4  UNL     1      29.688  20.683  16.000  1.00  0.00     0.033 C 
HETATM   16  C5  UNL     1      30.339  21.635  15.022  1.00  0.00     0.043 C 
BRANCH  13  17
HETATM   17  C2  UNL     1      26.883  21.530  13.917  1.00  0.00     0.269 C 
HETATM   18  C1  UNL     1      26.078  20.317  14.304  1.00  0.00     0.037 C 
ENDBRANCH  13  17
ENDBRANCH  11  12
ENDBRANCH   8  11
ENDBRANCH   1   7
BRANCH   6  19
HETATM   19  O4  UNL     1      32.904  24.042  11.420  1.00  0.00    -0.355 OA
HETATM   20  C17 UNL     1      33.937  24.963  11.330  1.00  0.00     0.210 C 
ENDBRANCH   6  19
BRANCH   3  21
HETATM   21  N3  UNL     1      31.501  21.152   6.869  1.00  0.00    -0.113 N 
HETATM   22  O2  UNL     1      31.597  19.894   6.816  1.00  0.00    -0.532 OA
HETATM   23  O3  UNL     1      31.007  21.808   5.788  1.00  0.00    -0.532 OA
ENDBRANCH   3  21
BRANCH   4  24
HETATM   24  N4  UNL     1      34.133  22.275   7.146  1.00  0.00    -0.387 N 
HETATM   25  C13 UNL     1      34.413  21.036   6.456  1.00  0.00     0.149 C 
HETATM   26  C14 UNL     1      34.964  23.422   6.761  1.00  0.00     0.149 C 
ENDBRANCH   4  24
TORSDOF 7
ENDMDL
