MODEL 6
REMARK VINA RESULT: -8.144715706      3.170      9.214
REMARK  7 active torsions:
REMARK  status: ('A' for Active; 'I' for Inactive)
REMARK    1  A    between atoms: C2_2  and  N1_3 
REMARK    2  A    between atoms: C6_7  and  C7_8 
REMARK    3  A    between atoms: C7_8  and  N2_9 
REMARK       I    between atoms: N2_9  and  C8_11 
REMARK    4  A    between atoms: C8_11  and  C9_13 
REMARK    5  A    between atoms: C11_15  and  N3_16 
REMARK    6  A    between atoms: C12_19  and  N4_20 
REMARK    7  A    between atoms: C16_24  and  O4_25 
ROOT
HETATM    1  C9  UNL     1      29.519  20.926  11.509  1.00  0.00     0.068 A 
HETATM    2  C10 UNL     1      29.206  19.593  11.667  1.00  0.00     0.058 A 
HETATM    3  C11 UNL     1      28.465  19.106  12.749  1.00  0.00     0.130 A 
HETATM    4  C12 UNL     1      28.025  19.978  13.696  1.00  0.00     0.065 A 
HETATM    5  C15 UNL     1      28.319  21.340  13.578  1.00  0.00     0.069 A 
HETATM    6  C16 UNL     1      29.066  21.781  12.477  1.00  0.00     0.086 A 
ENDROOT
BRANCH   1   7
HETATM    7  C8  UNL     1      30.306  21.362  10.341  1.00  0.00     0.258 C 
HETATM    8  N2  UNL     1      31.662  21.167  10.126  1.00  0.00    -0.334 N 
ATOM      9  H2  UNL     1      32.186  20.656  10.836  1.00  0.00     0.168 HD
HETATM   10  O1  UNL     1      29.592  21.989   9.460  1.00  0.00    -0.267 OA
BRANCH   8  11
HETATM   11  C7  UNL     1      32.370  21.624   8.994  1.00  0.00     0.099 C 
BRANCH  11  12
HETATM   12  C6  UNL     1      33.450  22.591   9.060  1.00  0.00     0.261 C 
HETATM   13  N1  UNL     1      33.832  23.438   8.018  1.00  0.00     0.097 N 
HETATM   14  C3  UNL     1      34.967  24.183   8.661  1.00  0.00     0.273 C 
HETATM   15  C4  UNL     1      34.558  24.359  10.104  1.00  0.00     0.033 C 
HETATM   16  C5  UNL     1      33.252  23.604  10.205  1.00  0.00     0.043 C 
BRANCH  13  17
HETATM   17  C2  UNL     1      34.459  22.754   6.889  1.00  0.00     0.269 C 
HETATM   18  C1  UNL     1      35.681  23.540   6.491  1.00  0.00     0.037 C 
ENDBRANCH  13  17
ENDBRANCH  11  12
ENDBRANCH   8  11
ENDBRANCH   1   7
BRANCH   6  19
HETATM   19  O4  UNL     1      29.325  23.154  12.419  1.00  0.00    -0.355 OA
HETATM   20  C17 UNL     1      28.769  24.020  13.348  1.00  0.00     0.210 C 
ENDBRANCH   6  19
BRANCH   3  21
HETATM   21  N3  UNL     1      28.224  17.709  12.849  1.00  0.00    -0.113 N 
HETATM   22  O2  UNL     1      27.058  17.261  13.027  1.00  0.00    -0.532 OA
HETATM   23  O3  UNL     1      29.249  16.824  12.752  1.00  0.00    -0.532 OA
ENDBRANCH   3  21
BRANCH   4  24
HETATM   24  N4  UNL     1      27.231  19.571  14.802  1.00  0.00    -0.387 N 
HETATM   25  C13 UNL     1      27.764  19.033  16.034  1.00  0.00     0.149 C 
HETATM   26  C14 UNL     1      25.769  19.688  14.735  1.00  0.00     0.149 C 
ENDBRANCH   4  24
TORSDOF 7
ENDMDL
