MODEL 12
REMARK VINA RESULT: -7.048131354      2.926      6.492
REMARK  6 active torsions:
REMARK  status: ('A' for Active; 'I' for Inactive)
REMARK    1  A    between atoms: C2_2  and  C3_3 
REMARK    2  A    between atoms: C3_3  and  C4_4 
REMARK    3  A    between atoms: C4_4  and  N1_5 
REMARK    4  A    between atoms: C6_10  and  N3_11 
REMARK    5  A    between atoms: N3_11  and  S1_13 
REMARK    6  A    between atoms: S1_13  and  C8_16 
ROOT
HETATM    1  N1  UNL     1      34.287   1.948   9.440  1.00  0.00    -0.287 N 
HETATM    2  C5  UNL     1      35.169   3.009   9.120  1.00  0.00     0.114 C 
HETATM    3  N2  UNL     1      36.124   3.375   9.902  1.00  0.00    -0.386 N 
ATOM      4  H21 UNL     1      36.759   4.139   9.672  1.00  0.00     0.157 HD
ATOM      5  H22 UNL     1      36.246   2.881  10.787  1.00  0.00     0.157 HD
HETATM    6  C6  UNL     1      34.989   3.740   7.811  1.00  0.00     0.255 C 
HETATM    7  C14 UNL     1      34.889   2.711   6.756  1.00  0.00     0.256 C 
HETATM    8  O3  UNL     1      35.499   2.679   5.678  1.00  0.00    -0.270 OA
HETATM    9  N4  UNL     1      33.980   1.616   7.002  1.00  0.00    -0.277 N 
ATOM     10  H4  UNL     1      33.553   1.115   6.223  1.00  0.00     0.173 HD
HETATM   11  C15 UNL     1      33.686   1.243   8.350  1.00  0.00     0.330 C 
HETATM   12  O4  UNL     1      32.890   0.286   8.528  1.00  0.00    -0.246 OA
ENDROOT
BRANCH   6  13
HETATM   13  N3  UNL     1      35.998   4.704   7.663  1.00  0.00    -0.290 N 
HETATM   14  C7  UNL     1      37.231   4.202   7.226  1.00  0.00     0.164 C 
BRANCH  13  15
HETATM   15  S1  UNL     1      35.467   6.196   7.146  1.00  0.00     0.261 S 
HETATM   16  O1  UNL     1      33.969   6.290   7.421  1.00  0.00    -0.200 OA
HETATM   17  O2  UNL     1      35.583   6.409   5.649  1.00  0.00    -0.200 OA
BRANCH  15  18
HETATM   18  C8  UNL     1      36.183   7.564   7.925  1.00  0.00     0.079 A 
HETATM   19  C9  UNL     1      36.611   7.424   9.229  1.00  0.00     0.025 A 
HETATM   20  C10 UNL     1      37.185   8.524   9.859  1.00  0.00     0.002 A 
HETATM   21  C11 UNL     1      37.333   9.734   9.217  1.00  0.00     0.000 A 
HETATM   22  C12 UNL     1      36.888   9.828   7.904  1.00  0.00     0.002 A 
HETATM   23  C13 UNL     1      36.315   8.759   7.252  1.00  0.00     0.025 A 
ENDBRANCH  15  18
ENDBRANCH  13  15
ENDBRANCH   6  13
BRANCH   1  24
HETATM   24  C4  UNL     1      34.014   1.582  10.787  1.00  0.00     0.135 C 
BRANCH  24  25
HETATM   25  C3  UNL     1      33.096   2.478  11.543  1.00  0.00     0.020 C 
BRANCH  25  26
HETATM   26  C2  UNL     1      31.735   1.929  11.823  1.00  0.00    -0.003 C 
HETATM   27  C1  UNL     1      31.708   0.422  11.878  1.00  0.00     0.005 C 
ENDBRANCH  25  26
ENDBRANCH  24  25
ENDBRANCH   1  24
TORSDOF 6
ENDMDL
