MODEL 13
REMARK VINA RESULT: -7.042691241      2.300      6.012
REMARK  6 active torsions:
REMARK  status: ('A' for Active; 'I' for Inactive)
REMARK    1  A    between atoms: C2_2  and  C3_3 
REMARK    2  A    between atoms: C3_3  and  C4_4 
REMARK    3  A    between atoms: C4_4  and  N1_5 
REMARK    4  A    between atoms: C6_10  and  N3_11 
REMARK    5  A    between atoms: N3_11  and  S1_13 
REMARK    6  A    between atoms: S1_13  and  C8_16 
ROOT
HETATM    1  N1  UNL     1      34.151   1.520   8.693  1.00  0.00    -0.287 N 
HETATM    2  C5  UNL     1      35.551   1.323   8.766  1.00  0.00     0.114 C 
HETATM    3  N2  UNL     1      36.088   0.461   9.558  1.00  0.00    -0.386 N 
ATOM      4  H21 UNL     1      37.097   0.319   9.611  1.00  0.00     0.157 HD
ATOM      5  H22 UNL     1      35.479  -0.097  10.157  1.00  0.00     0.157 HD
HETATM    6  C6  UNL     1      36.453   2.149   7.880  1.00  0.00     0.255 C 
HETATM    7  C14 UNL     1      35.910   2.056   6.510  1.00  0.00     0.256 C 
HETATM    8  O3  UNL     1      36.534   1.805   5.470  1.00  0.00    -0.270 OA
HETATM    9  N4  UNL     1      34.491   2.281   6.359  1.00  0.00    -0.277 N 
ATOM     10  H4  UNL     1      34.115   2.630   5.476  1.00  0.00     0.173 HD
HETATM   11  C15 UNL     1      33.620   2.010   7.458  1.00  0.00     0.330 C 
HETATM   12  O4  UNL     1      32.392   2.217   7.292  1.00  0.00    -0.246 OA
ENDROOT
BRANCH   6  13
HETATM   13  N3  UNL     1      37.788   1.754   8.062  1.00  0.00    -0.290 N 
HETATM   14  C7  UNL     1      38.203   0.693   7.245  1.00  0.00     0.164 C 
BRANCH  13  15
HETATM   15  S1  UNL     1      38.838   2.993   8.428  1.00  0.00     0.261 S 
HETATM   16  O1  UNL     1      38.642   4.103   7.399  1.00  0.00    -0.200 OA
HETATM   17  O2  UNL     1      40.302   2.622   8.299  1.00  0.00    -0.200 OA
BRANCH  15  18
HETATM   18  C8  UNL     1      38.622   3.734   9.977  1.00  0.00     0.079 A 
HETATM   19  C9  UNL     1      37.933   4.926  10.041  1.00  0.00     0.025 A 
HETATM   20  C10 UNL     1      37.759   5.525  11.285  1.00  0.00     0.002 A 
HETATM   21  C11 UNL     1      38.254   4.959  12.439  1.00  0.00     0.000 A 
HETATM   22  C12 UNL     1      38.941   3.756  12.327  1.00  0.00     0.002 A 
HETATM   23  C13 UNL     1      39.130   3.139  11.110  1.00  0.00     0.025 A 
ENDBRANCH  15  18
ENDBRANCH  13  15
ENDBRANCH   6  13
BRANCH   1  24
HETATM   24  C4  UNL     1      33.297   1.234   9.794  1.00  0.00     0.135 C 
BRANCH  24  25
HETATM   25  C3  UNL     1      33.201   2.282  10.848  1.00  0.00     0.020 C 
BRANCH  25  26
HETATM   26  C2  UNL     1      32.150   2.066  11.887  1.00  0.00    -0.003 C 
HETATM   27  C1  UNL     1      31.705   0.629  11.985  1.00  0.00     0.005 C 
ENDBRANCH  25  26
ENDBRANCH  24  25
ENDBRANCH   1  24
TORSDOF 6
ENDMDL
