MODEL 1
REMARK VINA RESULT: -7.422599305      0.000      0.000
REMARK  6 active torsions:
REMARK  status: ('A' for Active; 'I' for Inactive)
REMARK    1  A    between atoms: C2_2  and  C3_3 
REMARK    2  A    between atoms: C3_3  and  C4_4 
REMARK    3  A    between atoms: C4_4  and  N1_5 
REMARK    4  A    between atoms: C6_10  and  N3_11 
REMARK    5  A    between atoms: N3_11  and  S1_13 
REMARK    6  A    between atoms: S1_13  and  C8_16 
ROOT
HETATM    1  N1  UNL     1      38.143   3.952  10.298  1.00  0.00    -0.287 N 
HETATM    2  C5  UNL     1      37.295   3.523   9.247  1.00  0.00     0.114 C 
HETATM    3  N2  UNL     1      37.424   3.946   8.038  1.00  0.00    -0.386 N 
ATOM      4  H21 UNL     1      36.814   3.638   7.281  1.00  0.00     0.157 HD
ATOM      5  H22 UNL     1      38.163   4.619   7.833  1.00  0.00     0.157 HD
HETATM    6  C6  UNL     1      36.201   2.528   9.550  1.00  0.00     0.255 C 
HETATM    7  C14 UNL     1      36.825   1.420  10.301  1.00  0.00     0.256 C 
HETATM    8  O3  UNL     1      36.703   0.205  10.088  1.00  0.00    -0.270 OA
HETATM    9  N4  UNL     1      37.676   1.786  11.409  1.00  0.00    -0.277 N 
ATOM     10  H4  UNL     1      37.808   1.145  12.192  1.00  0.00     0.173 HD
HETATM   11  C15 UNL     1      38.330   3.056  11.397  1.00  0.00     0.330 C 
HETATM   12  O4  UNL     1      39.062   3.342  12.378  1.00  0.00    -0.246 OA
ENDROOT
BRANCH   6  13
HETATM   13  N3  UNL     1      35.524   2.191   8.367  1.00  0.00    -0.290 N 
HETATM   14  C7  UNL     1      36.073   1.109   7.665  1.00  0.00     0.164 C 
BRANCH  13  15
HETATM   15  S1  UNL     1      33.875   2.409   8.421  1.00  0.00     0.261 S 
HETATM   16  O1  UNL     1      33.267   1.752   7.184  1.00  0.00    -0.200 OA
HETATM   17  O2  UNL     1      33.437   3.857   8.324  1.00  0.00    -0.200 OA
BRANCH  15  18
HETATM   18  C8  UNL     1      33.064   1.708   9.779  1.00  0.00     0.079 A 
HETATM   19  C9  UNL     1      32.892   2.481  10.908  1.00  0.00     0.025 A 
HETATM   20  C10 UNL     1      32.242   1.919  12.003  1.00  0.00     0.002 A 
HETATM   21  C11 UNL     1      31.773   0.624  11.983  1.00  0.00     0.000 A 
HETATM   22  C12 UNL     1      31.969  -0.118  10.825  1.00  0.00     0.002 A 
HETATM   23  C13 UNL     1      32.608   0.409   9.725  1.00  0.00     0.025 A 
ENDBRANCH  15  18
ENDBRANCH  13  15
ENDBRANCH   6  13
BRANCH   1  24
HETATM   24  C4  UNL     1      38.795   5.215  10.264  1.00  0.00     0.135 C 
BRANCH  24  25
HETATM   25  C3  UNL     1      38.038   6.367  10.826  1.00  0.00     0.020 C 
BRANCH  25  26
HETATM   26  C2  UNL     1      38.529   6.893  12.136  1.00  0.00    -0.003 C 
HETATM   27  C1  UNL     1      37.740   6.375  13.311  1.00  0.00     0.005 C 
ENDBRANCH  25  26
ENDBRANCH  24  25
ENDBRANCH   1  24
TORSDOF 6
ENDMDL
