MODEL 7
REMARK VINA RESULT: -7.189831907      1.765      1.953
REMARK  6 active torsions:
REMARK  status: ('A' for Active; 'I' for Inactive)
REMARK    1  A    between atoms: C2_2  and  C3_3 
REMARK    2  A    between atoms: C3_3  and  C4_4 
REMARK    3  A    between atoms: C4_4  and  N1_5 
REMARK    4  A    between atoms: C6_10  and  N3_11 
REMARK    5  A    between atoms: N3_11  and  S1_13 
REMARK    6  A    between atoms: S1_13  and  C8_16 
ROOT
HETATM    1  N1  UNL     1      38.837   3.243   8.834  1.00  0.00    -0.287 N 
HETATM    2  C5  UNL     1      37.720   2.665   8.183  1.00  0.00     0.114 C 
HETATM    3  N2  UNL     1      37.712   2.402   6.923  1.00  0.00    -0.386 N 
ATOM      4  H21 UNL     1      36.908   1.985   6.454  1.00  0.00     0.157 HD
ATOM      5  H22 UNL     1      38.543   2.624   6.374  1.00  0.00     0.157 HD
HETATM    6  C6  UNL     1      36.490   2.336   8.996  1.00  0.00     0.255 C 
HETATM    7  C14 UNL     1      36.946   1.580  10.179  1.00  0.00     0.256 C 
HETATM    8  O3  UNL     1      36.481   0.519  10.619  1.00  0.00    -0.270 OA
HETATM    9  N4  UNL     1      38.062   2.133  10.911  1.00  0.00    -0.277 N 
ATOM     10  H4  UNL     1      38.178   1.933  11.904  1.00  0.00     0.173 HD
HETATM   11  C15 UNL     1      39.002   2.964  10.228  1.00  0.00     0.330 C 
HETATM   12  O4  UNL     1      39.960   3.429  10.895  1.00  0.00    -0.246 OA
ENDROOT
BRANCH   6  13
HETATM   13  N3  UNL     1      35.532   1.717   8.178  1.00  0.00    -0.290 N 
HETATM   14  C7  UNL     1      35.704   0.336   8.014  1.00  0.00     0.164 C 
BRANCH  13  15
HETATM   15  S1  UNL     1      34.002   2.367   8.279  1.00  0.00     0.261 S 
HETATM   16  O1  UNL     1      33.198   1.883   7.075  1.00  0.00    -0.200 OA
HETATM   17  O2  UNL     1      33.963   3.878   8.168  1.00  0.00    -0.200 OA
BRANCH  15  18
HETATM   18  C8  UNL     1      33.084   1.922   9.676  1.00  0.00     0.079 A 
HETATM   19  C9  UNL     1      33.409   2.500  10.884  1.00  0.00     0.025 A 
HETATM   20  C10 UNL     1      32.673   2.143  12.010  1.00  0.00     0.002 A 
HETATM   21  C11 UNL     1      31.640   1.234  11.944  1.00  0.00     0.000 A 
HETATM   22  C12 UNL     1      31.347   0.677  10.705  1.00  0.00     0.002 A 
HETATM   23  C13 UNL     1      32.056   1.010   9.573  1.00  0.00     0.025 A 
ENDBRANCH  15  18
ENDBRANCH  13  15
ENDBRANCH   6  13
BRANCH   1  24
HETATM   24  C4  UNL     1      39.769   4.059   8.136  1.00  0.00     0.135 C 
BRANCH  24  25
HETATM   25  C3  UNL     1      39.494   5.523   8.130  1.00  0.00     0.020 C 
BRANCH  25  26
HETATM   26  C2  UNL     1      40.648   6.404   8.479  1.00  0.00    -0.003 C 
HETATM   27  C1  UNL     1      41.875   5.631   8.891  1.00  0.00     0.005 C 
ENDBRANCH  25  26
ENDBRANCH  24  25
ENDBRANCH   1  24
TORSDOF 6
ENDMDL
