MODEL 11
REMARK VINA RESULT: -7.104893662      2.369      6.342
REMARK  6 active torsions:
REMARK  status: ('A' for Active; 'I' for Inactive)
REMARK    1  A    between atoms: C2_2  and  C3_3 
REMARK    2  A    between atoms: C3_3  and  C4_4 
REMARK    3  A    between atoms: C4_4  and  N1_5 
REMARK    4  A    between atoms: C6_10  and  N3_11 
REMARK    5  A    between atoms: N3_11  and  S1_13 
REMARK    6  A    between atoms: S1_13  and  C8_16 
ROOT
HETATM    1  N1  UNL     1      34.416   2.498   9.514  1.00  0.00    -0.287 N 
HETATM    2  C5  UNL     1      35.679   3.110   9.705  1.00  0.00     0.114 C 
HETATM    3  N2  UNL     1      36.581   2.611  10.478  1.00  0.00    -0.386 N 
ATOM      4  H21 UNL     1      37.491   3.052  10.615  1.00  0.00     0.157 HD
ATOM      5  H22 UNL     1      36.372   1.744  10.974  1.00  0.00     0.157 HD
HETATM    6  C6  UNL     1      35.988   4.393   8.971  1.00  0.00     0.255 C 
HETATM    7  C14 UNL     1      35.643   4.170   7.553  1.00  0.00     0.256 C 
HETATM    8  O3  UNL     1      36.337   4.433   6.561  1.00  0.00    -0.270 OA
HETATM    9  N4  UNL     1      34.352   3.580   7.285  1.00  0.00    -0.277 N 
ATOM     10  H4  UNL     1      33.878   3.758   6.399  1.00  0.00     0.173 HD
HETATM   11  C15 UNL     1      33.748   2.745   8.273  1.00  0.00     0.330 C 
HETATM   12  O4  UNL     1      32.624   2.248   8.008  1.00  0.00    -0.246 OA
ENDROOT
BRANCH   6  13
HETATM   13  N3  UNL     1      37.304   4.794   9.249  1.00  0.00    -0.290 N 
HETATM   14  C7  UNL     1      38.287   4.152   8.483  1.00  0.00     0.164 C 
BRANCH  13  15
HETATM   15  S1  UNL     1      37.474   6.398   9.660  1.00  0.00     0.261 S 
HETATM   16  O1  UNL     1      36.241   7.149   9.164  1.00  0.00    -0.200 OA
HETATM   17  O2  UNL     1      38.633   7.094   8.973  1.00  0.00    -0.200 OA
BRANCH  15  18
HETATM   18  C8  UNL     1      37.590   6.736  11.353  1.00  0.00     0.079 A 
HETATM   19  C9  UNL     1      37.501   8.049  11.765  1.00  0.00     0.025 A 
HETATM   20  C10 UNL     1      37.596   8.323  13.126  1.00  0.00     0.002 A 
HETATM   21  C11 UNL     1      37.775   7.325  14.058  1.00  0.00     0.000 A 
HETATM   22  C12 UNL     1      37.860   6.017  13.596  1.00  0.00     0.002 A 
HETATM   23  C13 UNL     1      37.770   5.712  12.257  1.00  0.00     0.025 A 
ENDBRANCH  15  18
ENDBRANCH  13  15
ENDBRANCH   6  13
BRANCH   1  24
HETATM   24  C4  UNL     1      33.835   1.660  10.505  1.00  0.00     0.135 C 
BRANCH  24  25
HETATM   25  C3  UNL     1      33.113   2.346  11.612  1.00  0.00     0.020 C 
BRANCH  25  26
HETATM   26  C2  UNL     1      31.670   1.991  11.767  1.00  0.00    -0.003 C 
HETATM   27  C1  UNL     1      31.282   0.753  10.999  1.00  0.00     0.005 C 
ENDBRANCH  25  26
ENDBRANCH  24  25
ENDBRANCH   1  24
TORSDOF 6
ENDMDL
