MODEL 8
REMARK VINA RESULT: -7.167373304      0.897      1.185
REMARK  6 active torsions:
REMARK  status: ('A' for Active; 'I' for Inactive)
REMARK    1  A    between atoms: C2_2  and  C3_3 
REMARK    2  A    between atoms: C3_3  and  C4_4 
REMARK    3  A    between atoms: C4_4  and  N1_5 
REMARK    4  A    between atoms: C6_10  and  N3_11 
REMARK    5  A    between atoms: N3_11  and  S1_13 
REMARK    6  A    between atoms: S1_13  and  C8_16 
ROOT
HETATM    1  N1  UNL     1      38.341   3.779   9.883  1.00  0.00    -0.287 N 
HETATM    2  C5  UNL     1      37.431   3.257   8.932  1.00  0.00     0.114 C 
HETATM    3  N2  UNL     1      37.573   3.440   7.666  1.00  0.00    -0.386 N 
ATOM      4  H21 UNL     1      36.917   3.064   6.980  1.00  0.00     0.157 HD
ATOM      5  H22 UNL     1      38.371   3.984   7.338  1.00  0.00     0.157 HD
HETATM    6  C6  UNL     1      36.249   2.452   9.417  1.00  0.00     0.255 C 
HETATM    7  C14 UNL     1      36.775   1.439  10.353  1.00  0.00     0.256 C 
HETATM    8  O3  UNL     1      36.526   0.225  10.366  1.00  0.00    -0.270 OA
HETATM    9  N4  UNL     1      37.685   1.909  11.373  1.00  0.00    -0.277 N 
ATOM     10  H4  UNL     1      37.770   1.409  12.258  1.00  0.00     0.173 HD
HETATM   11  C15 UNL     1      38.464   3.081  11.127  1.00  0.00     0.330 C 
HETATM   12  O4  UNL     1      39.244   3.462  12.035  1.00  0.00    -0.246 OA
ENDROOT
BRANCH   6  13
HETATM   13  N3  UNL     1      35.514   1.979   8.319  1.00  0.00    -0.290 N 
HETATM   14  C7  UNL     1      35.985   0.778   7.770  1.00  0.00     0.164 C 
BRANCH  13  15
HETATM   15  S1  UNL     1      33.879   2.287   8.388  1.00  0.00     0.261 S 
HETATM   16  O1  UNL     1      33.219   1.631   7.177  1.00  0.00    -0.200 OA
HETATM   17  O2  UNL     1      33.519   3.754   8.258  1.00  0.00    -0.200 OA
BRANCH  15  18
HETATM   18  C8  UNL     1      33.052   1.667   9.776  1.00  0.00     0.079 A 
HETATM   19  C9  UNL     1      32.910   2.489  10.873  1.00  0.00     0.025 A 
HETATM   20  C10 UNL     1      32.247   1.993  11.992  1.00  0.00     0.002 A 
HETATM   21  C11 UNL     1      31.736   0.714  12.025  1.00  0.00     0.000 A 
HETATM   22  C12 UNL     1      31.902  -0.078  10.896  1.00  0.00     0.002 A 
HETATM   23  C13 UNL     1      32.554   0.383   9.774  1.00  0.00     0.025 A 
ENDBRANCH  15  18
ENDBRANCH  13  15
ENDBRANCH   6  13
BRANCH   1  24
HETATM   24  C4  UNL     1      39.117   4.940   9.617  1.00  0.00     0.135 C 
BRANCH  24  25
HETATM   25  C3  UNL     1      38.522   6.242  10.027  1.00  0.00     0.020 C 
BRANCH  25  26
HETATM   26  C2  UNL     1      37.753   6.968   8.971  1.00  0.00    -0.003 C 
HETATM   27  C1  UNL     1      36.261   6.794   9.105  1.00  0.00     0.005 C 
ENDBRANCH  25  26
ENDBRANCH  24  25
ENDBRANCH   1  24
TORSDOF 6
ENDMDL
