MODEL 9
REMARK VINA RESULT: -7.151374873      1.625      2.132
REMARK  6 active torsions:
REMARK  status: ('A' for Active; 'I' for Inactive)
REMARK    1  A    between atoms: C2_2  and  C3_3 
REMARK    2  A    between atoms: C3_3  and  C4_4 
REMARK    3  A    between atoms: C4_4  and  N1_5 
REMARK    4  A    between atoms: C6_10  and  N3_11 
REMARK    5  A    between atoms: N3_11  and  S1_13 
REMARK    6  A    between atoms: S1_13  and  C8_16 
ROOT
HETATM    1  N1  UNL     1      38.064   4.589  10.114  1.00  0.00    -0.287 N 
HETATM    2  C5  UNL     1      36.854   4.421   9.398  1.00  0.00     0.114 C 
HETATM    3  N2  UNL     1      35.997   5.372   9.254  1.00  0.00    -0.386 N 
ATOM      4  H21 UNL     1      35.125   5.251   8.738  1.00  0.00     0.157 HD
ATOM      5  H22 UNL     1      36.200   6.279   9.676  1.00  0.00     0.157 HD
HETATM    6  C6  UNL     1      36.554   3.080   8.773  1.00  0.00     0.255 C 
HETATM    7  C14 UNL     1      37.755   2.683   8.012  1.00  0.00     0.256 C 
HETATM    8  O3  UNL     1      37.802   2.262   6.847  1.00  0.00    -0.270 OA
HETATM    9  N4  UNL     1      39.023   2.797   8.695  1.00  0.00    -0.277 N 
ATOM     10  H4  UNL     1      39.807   2.200   8.431  1.00  0.00     0.173 HD
HETATM   11  C15 UNL     1      39.166   3.754   9.746  1.00  0.00     0.330 C 
HETATM   12  O4  UNL     1      40.282   3.826  10.319  1.00  0.00    -0.246 OA
ENDROOT
BRANCH   6  13
HETATM   13  N3  UNL     1      35.345   3.146   8.062  1.00  0.00    -0.290 N 
HETATM   14  C7  UNL     1      35.417   3.840   6.846  1.00  0.00     0.164 C 
BRANCH  13  15
HETATM   15  S1  UNL     1      34.376   1.800   8.206  1.00  0.00     0.261 S 
HETATM   16  O1  UNL     1      35.277   0.569   8.266  1.00  0.00    -0.200 OA
HETATM   17  O2  UNL     1      33.485   1.548   7.005  1.00  0.00    -0.200 OA
BRANCH  15  18
HETATM   18  C8  UNL     1      33.380   1.733   9.619  1.00  0.00     0.079 A 
HETATM   19  C9  UNL     1      32.222   0.987   9.568  1.00  0.00     0.025 A 
HETATM   20  C10 UNL     1      31.419   0.933  10.703  1.00  0.00     0.002 A 
HETATM   21  C11 UNL     1      31.751   1.601  11.861  1.00  0.00     0.000 A 
HETATM   22  C12 UNL     1      32.928   2.340  11.866  1.00  0.00     0.002 A 
HETATM   23  C13 UNL     1      33.744   2.414  10.760  1.00  0.00     0.025 A 
ENDBRANCH  15  18
ENDBRANCH  13  15
ENDBRANCH   6  13
BRANCH   1  24
HETATM   24  C4  UNL     1      38.192   5.555  11.149  1.00  0.00     0.135 C 
BRANCH  24  25
HETATM   25  C3  UNL     1      37.582   5.205  12.462  1.00  0.00     0.020 C 
BRANCH  25  26
HETATM   26  C2  UNL     1      38.047   6.008  13.632  1.00  0.00    -0.003 C 
HETATM   27  C1  UNL     1      37.464   7.399  13.661  1.00  0.00     0.005 C 
ENDBRANCH  25  26
ENDBRANCH  24  25
ENDBRANCH   1  24
TORSDOF 6
ENDMDL
