MODEL 7
REMARK VINA RESULT: -9.957052132      5.797     11.405
REMARK  6 active torsions:
REMARK  status: ('A' for Active; 'I' for Inactive)
REMARK       I    between atoms: N1_2  and  C2_4 
REMARK    1  A    between atoms: C2_4  and  C3_6 
REMARK    2  A    between atoms: C5_8  and  O2_9 
REMARK    3  A    between atoms: O2_9  and  C6_10 
REMARK    4  A    between atoms: C9_13  and  N2_14 
REMARK       I    between atoms: N2_14  and  C10_16 
REMARK       I    between atoms: C10_16  and  N3_18 
REMARK    5  A    between atoms: N3_18  and  C11_20 
REMARK    6  A    between atoms: C15_25  and  C16_26 
ROOT
HETATM    1  C6  UNL     1     -27.434  -1.726 -10.566  1.00  0.00     0.076 A 
HETATM    2  C7  UNL     1     -27.749  -1.647 -11.903  1.00  0.00     0.039 A 
HETATM    3  C8  UNL     1     -26.734  -1.526 -12.858  1.00  0.00     0.032 A 
HETATM    4  C9  UNL     1     -25.454  -1.489 -12.445  1.00  0.00     0.036 A 
HETATM    5  C18 UNL     1     -25.143  -1.570 -11.079  1.00  0.00     0.032 A 
HETATM    6  C19 UNL     1     -26.128  -1.689 -10.134  1.00  0.00     0.039 A 
ENDROOT
BRANCH   4   7
HETATM    7  N2  UNL     1     -24.361  -1.359 -13.329  1.00  0.00    -0.309 N 
HETATM    8  C10 UNL     1     -23.482  -0.254 -13.422  1.00  0.00     0.325 C 
HETATM    9  O3  UNL     1     -23.636   0.722 -12.681  1.00  0.00    -0.247 OA
HETATM   10  N3  UNL     1     -22.407  -0.209 -14.346  1.00  0.00    -0.309 N 
ATOM     11  H3  UNL     1     -22.298  -1.028 -14.944  1.00  0.00     0.170 HD
ATOM     12  H2  UNL     1     -24.188  -2.139 -13.963  1.00  0.00     0.170 HD
BRANCH  10  13
HETATM   13  C11 UNL     1     -21.478   0.819 -14.542  1.00  0.00     0.037 A 
HETATM   14  C12 UNL     1     -21.818   2.136 -14.554  1.00  0.00     0.031 A 
HETATM   15  C13 UNL     1     -20.878   3.145 -14.734  1.00  0.00     0.027 A 
HETATM   16  C14 UNL     1     -19.565   2.847 -14.906  1.00  0.00     0.049 A 
HETATM   17 CL1  UNL     1     -18.354   4.109 -15.136  1.00  0.00    -0.083 Cl
HETATM   18  C15 UNL     1     -19.187   1.514 -14.899  1.00  0.00     0.071 A 
HETATM   19  C17 UNL     1     -20.118   0.524 -14.721  1.00  0.00     0.047 A 
BRANCH  18  20
HETATM   20  C16 UNL     1     -17.762   1.201 -15.088  1.00  0.00     0.419 C 
HETATM   21  F1  UNL     1     -17.038   1.582 -13.957  1.00  0.00    -0.166 F 
HETATM   22  F2  UNL     1     -17.239   1.697 -16.241  1.00  0.00    -0.166 F 
HETATM   23  F3  UNL     1     -17.622  -0.193 -15.148  1.00  0.00    -0.166 F 
ENDBRANCH  18  20
ENDBRANCH  10  13
ENDBRANCH   4   7
BRANCH   1  24
HETATM   24  O2  UNL     1     -28.473  -1.846  -9.634  1.00  0.00    -0.311 OA
BRANCH  24  25
HETATM   25  C5  UNL     1     -28.188  -1.753  -8.282  1.00  0.00     0.079 A 
HETATM   26  C4  UNL     1     -28.211  -2.856  -7.436  1.00  0.00     0.072 A 
HETATM   27  C3  UNL     1     -27.922  -2.739  -6.095  1.00  0.00     0.103 A 
HETATM   28  N4  UNL     1     -27.607  -1.552  -5.549  1.00  0.00    -0.361 N 
HETATM   29  C21 UNL     1     -27.576  -0.457  -6.351  1.00  0.00     0.091 A 
ATOM     30  H4  UNL     1     -27.395  -1.475  -4.555  1.00  0.00     0.165 HD
HETATM   31  C20 UNL     1     -27.862  -0.547  -7.702  1.00  0.00     0.054 A 
BRANCH  27  32
HETATM   32  C2  UNL     1     -27.951  -3.901  -5.220  1.00  0.00     0.267 C 
HETATM   33  N1  UNL     1     -28.616  -5.100  -5.567  1.00  0.00    -0.360 N 
HETATM   34  C1  UNL     1     -28.650  -6.254  -4.708  1.00  0.00     0.149 C 
ATOM     35  H1  UNL     1     -29.094  -5.149  -6.467  1.00  0.00     0.162 HD
HETATM   36  O1  UNL     1     -27.373  -3.849  -4.123  1.00  0.00    -0.266 OA
ENDBRANCH  27  32
ENDBRANCH  24  25
ENDBRANCH   1  24
TORSDOF 6
ENDMDL
