MODEL 3
REMARK VINA RESULT: -10.838376392      1.284      1.499
REMARK  6 active torsions:
REMARK  status: ('A' for Active; 'I' for Inactive)
REMARK       I    between atoms: N1_2  and  C2_4 
REMARK    1  A    between atoms: C2_4  and  C3_6 
REMARK    2  A    between atoms: C5_8  and  O2_9 
REMARK    3  A    between atoms: O2_9  and  C6_10 
REMARK    4  A    between atoms: C9_13  and  N2_14 
REMARK       I    between atoms: N2_14  and  C10_16 
REMARK       I    between atoms: C10_16  and  N3_18 
REMARK    5  A    between atoms: N3_18  and  C11_20 
REMARK    6  A    between atoms: C15_25  and  C16_26 
ROOT
HETATM    1  C6  UNL     1     -23.934  -0.912 -13.461  1.00  0.00     0.076 A 
HETATM    2  C7  UNL     1     -25.042  -1.408 -14.107  1.00  0.00     0.039 A 
HETATM    3  C8  UNL     1     -26.226  -1.636 -13.397  1.00  0.00     0.032 A 
HETATM    4  C9  UNL     1     -26.257  -1.362 -12.080  1.00  0.00     0.036 A 
HETATM    5  C18 UNL     1     -25.121  -0.855 -11.430  1.00  0.00     0.032 A 
HETATM    6  C19 UNL     1     -23.957  -0.627 -12.114  1.00  0.00     0.039 A 
ENDROOT
BRANCH   4   7
HETATM    7  N2  UNL     1     -27.400  -1.566 -11.275  1.00  0.00    -0.309 N 
HETATM    8  C10 UNL     1     -27.432  -2.185 -10.003  1.00  0.00     0.325 C 
HETATM    9  O3  UNL     1     -26.388  -2.607  -9.495  1.00  0.00    -0.247 OA
HETATM   10  N3  UNL     1     -28.631  -2.351  -9.265  1.00  0.00    -0.309 N 
ATOM     11  H3  UNL     1     -29.478  -1.991  -9.704  1.00  0.00     0.170 HD
ATOM     12  H2  UNL     1     -28.289  -1.235 -11.649  1.00  0.00     0.170 HD
BRANCH  10  13
HETATM   13  C11 UNL     1     -28.798  -2.947  -8.010  1.00  0.00     0.037 A 
HETATM   14  C12 UNL     1     -28.906  -4.292  -7.835  1.00  0.00     0.031 A 
HETATM   15  C13 UNL     1     -29.056  -4.868  -6.578  1.00  0.00     0.027 A 
HETATM   16  C14 UNL     1     -29.100  -4.097  -5.462  1.00  0.00     0.049 A 
HETATM   17 CL1  UNL     1     -29.289  -4.805  -3.857  1.00  0.00    -0.083 Cl
HETATM   18  C15 UNL     1     -28.993  -2.723  -5.608  1.00  0.00     0.071 A 
HETATM   19  C17 UNL     1     -28.845  -2.161  -6.849  1.00  0.00     0.047 A 
BRANCH  18  20
HETATM   20  C16 UNL     1     -29.043  -1.895  -4.393  1.00  0.00     0.419 C 
HETATM   21  F1  UNL     1     -27.868  -2.059  -3.657  1.00  0.00    -0.166 F 
HETATM   22  F2  UNL     1     -30.164  -2.084  -3.646  1.00  0.00    -0.166 F 
HETATM   23  F3  UNL     1     -29.038  -0.547  -4.779  1.00  0.00    -0.166 F 
ENDBRANCH  18  20
ENDBRANCH  10  13
ENDBRANCH   4   7
BRANCH   1  24
HETATM   24  O2  UNL     1     -22.763  -0.694 -14.199  1.00  0.00    -0.311 OA
BRANCH  24  25
HETATM   25  C5  UNL     1     -22.207   0.574 -14.233  1.00  0.00     0.079 A 
HETATM   26  C4  UNL     1     -20.893   0.802 -14.625  1.00  0.00     0.072 A 
HETATM   27  C3  UNL     1     -20.360   2.071 -14.652  1.00  0.00     0.103 A 
HETATM   28  N4  UNL     1     -21.092   3.142 -14.299  1.00  0.00    -0.361 N 
HETATM   29  C21 UNL     1     -22.378   2.950 -13.912  1.00  0.00     0.091 A 
ATOM     30  H4  UNL     1     -20.690   4.079 -14.321  1.00  0.00     0.165 HD
HETATM   31  C20 UNL     1     -22.938   1.685 -13.876  1.00  0.00     0.054 A 
BRANCH  27  32
HETATM   32  C2  UNL     1     -18.983   2.297 -15.064  1.00  0.00     0.267 C 
HETATM   33  N1  UNL     1     -18.467   3.588 -15.319  1.00  0.00    -0.360 N 
HETATM   34  C1  UNL     1     -17.107   3.822 -15.728  1.00  0.00     0.149 C 
ATOM     35  H1  UNL     1     -19.086   4.392 -15.209  1.00  0.00     0.162 HD
HETATM   36  O1  UNL     1     -18.224   1.326 -15.201  1.00  0.00    -0.266 OA
ENDBRANCH  27  32
ENDBRANCH  24  25
ENDBRANCH   1  24
TORSDOF 6
ENDMDL
