MODEL 15
REMARK VINA RESULT: -9.303455010      1.368      1.753
REMARK  6 active torsions:
REMARK  status: ('A' for Active; 'I' for Inactive)
REMARK       I    between atoms: N1_2  and  C2_4 
REMARK    1  A    between atoms: C2_4  and  C3_6 
REMARK    2  A    between atoms: C5_8  and  O2_9 
REMARK    3  A    between atoms: O2_9  and  C6_10 
REMARK    4  A    between atoms: C9_13  and  N2_14 
REMARK       I    between atoms: N2_14  and  C10_16 
REMARK       I    between atoms: C10_16  and  N3_18 
REMARK    5  A    between atoms: N3_18  and  C11_20 
REMARK    6  A    between atoms: C15_25  and  C16_26 
ROOT
HETATM    1  C6  UNL     1     -23.660   0.602 -13.485  1.00  0.00     0.076 A 
HETATM    2  C7  UNL     1     -23.761   0.735 -12.120  1.00  0.00     0.039 A 
HETATM    3  C8  UNL     1     -24.475  -0.209 -11.373  1.00  0.00     0.032 A 
HETATM    4  C9  UNL     1     -25.054  -1.241 -12.013  1.00  0.00     0.036 A 
HETATM    5  C18 UNL     1     -24.944  -1.367 -13.406  1.00  0.00     0.032 A 
HETATM    6  C19 UNL     1     -24.248  -0.451 -14.149  1.00  0.00     0.039 A 
ENDROOT
BRANCH   4   7
HETATM    7  N2  UNL     1     -25.803  -2.238 -11.351  1.00  0.00    -0.309 N 
HETATM    8  C10 UNL     1     -26.510  -2.090 -10.135  1.00  0.00     0.325 C 
HETATM    9  O3  UNL     1     -26.510  -1.002  -9.550  1.00  0.00    -0.247 OA
HETATM   10  N3  UNL     1     -27.236  -3.152  -9.538  1.00  0.00    -0.309 N 
ATOM     11  H3  UNL     1     -27.224  -4.038 -10.043  1.00  0.00     0.170 HD
ATOM     12  H2  UNL     1     -25.836  -3.157 -11.793  1.00  0.00     0.170 HD
BRANCH  10  13
HETATM   13  C11 UNL     1     -27.966  -3.137  -8.345  1.00  0.00     0.037 A 
HETATM   14  C12 UNL     1     -28.771  -4.161  -7.954  1.00  0.00     0.031 A 
HETATM   15  C13 UNL     1     -29.477  -4.136  -6.756  1.00  0.00     0.027 A 
HETATM   16  C14 UNL     1     -29.387  -3.071  -5.919  1.00  0.00     0.049 A 
HETATM   17 CL1  UNL     1     -30.272  -3.017  -4.394  1.00  0.00    -0.083 Cl
HETATM   18  C15 UNL     1     -28.574  -2.012  -6.290  1.00  0.00     0.071 A 
HETATM   19  C17 UNL     1     -27.881  -2.042  -7.471  1.00  0.00     0.047 A 
BRANCH  18  20
HETATM   20  C16 UNL     1     -28.483  -0.861  -5.377  1.00  0.00     0.419 C 
HETATM   21  F1  UNL     1     -27.959  -1.269  -4.149  1.00  0.00    -0.166 F 
HETATM   22  F2  UNL     1     -29.646  -0.169  -5.249  1.00  0.00    -0.166 F 
HETATM   23  F3  UNL     1     -27.534   0.034  -5.892  1.00  0.00    -0.166 F 
ENDBRANCH  18  20
ENDBRANCH  10  13
ENDBRANCH   4   7
BRANCH   1  24
HETATM   24  O2  UNL     1     -22.939   1.564 -14.205  1.00  0.00    -0.311 OA
BRANCH  24  25
HETATM   25  C5  UNL     1     -21.624   1.306 -14.556  1.00  0.00     0.079 A 
HETATM   26  C4  UNL     1     -20.641   2.289 -14.545  1.00  0.00     0.072 A 
HETATM   27  C3  UNL     1     -19.340   2.009 -14.897  1.00  0.00     0.103 A 
HETATM   28  N4  UNL     1     -18.968   0.771 -15.267  1.00  0.00    -0.361 N 
HETATM   29  C21 UNL     1     -19.906  -0.209 -15.288  1.00  0.00     0.091 A 
ATOM     30  H4  UNL     1     -18.002   0.573 -15.528  1.00  0.00     0.165 HD
HETATM   31  C20 UNL     1     -21.221   0.046 -14.938  1.00  0.00     0.054 A 
BRANCH  27  32
HETATM   32  C2  UNL     1     -18.321   3.047 -14.882  1.00  0.00     0.267 C 
HETATM   33  N1  UNL     1     -17.422   3.248 -15.956  1.00  0.00    -0.360 N 
HETATM   34  C1  UNL     1     -16.411   4.271 -15.950  1.00  0.00     0.149 C 
ATOM     35  H1  UNL     1     -17.495   2.641 -16.772  1.00  0.00     0.162 HD
HETATM   36  O1  UNL     1     -18.226   3.790 -13.893  1.00  0.00    -0.266 OA
ENDBRANCH  27  32
ENDBRANCH  24  25
ENDBRANCH   1  24
TORSDOF 6
ENDMDL
