MODEL 6
REMARK VINA RESULT: -10.013096989      6.082     11.416
REMARK  6 active torsions:
REMARK  status: ('A' for Active; 'I' for Inactive)
REMARK       I    between atoms: N1_2  and  C2_4 
REMARK    1  A    between atoms: C2_4  and  C3_6 
REMARK    2  A    between atoms: C5_8  and  O2_9 
REMARK    3  A    between atoms: O2_9  and  C6_10 
REMARK    4  A    between atoms: C9_13  and  N2_14 
REMARK       I    between atoms: N2_14  and  C10_16 
REMARK       I    between atoms: C10_16  and  N3_18 
REMARK    5  A    between atoms: N3_18  and  C11_20 
REMARK    6  A    between atoms: C15_25  and  C16_26 
ROOT
HETATM    1  C6  UNL     1     -26.795  -1.345 -11.511  1.00  0.00     0.076 A 
HETATM    2  C7  UNL     1     -25.613  -1.081 -10.858  1.00  0.00     0.039 A 
HETATM    3  C8  UNL     1     -24.414  -1.015 -11.575  1.00  0.00     0.032 A 
HETATM    4  C9  UNL     1     -24.441  -1.213 -12.906  1.00  0.00     0.036 A 
HETATM    5  C18 UNL     1     -25.651  -1.480 -13.563  1.00  0.00     0.032 A 
HETATM    6  C19 UNL     1     -26.832  -1.548 -12.872  1.00  0.00     0.039 A 
ENDROOT
BRANCH   4   7
HETATM    7  N2  UNL     1     -23.284  -1.176 -13.716  1.00  0.00    -0.309 N 
HETATM    8  C10 UNL     1     -22.412  -0.075 -13.886  1.00  0.00     0.325 C 
HETATM    9  O3  UNL     1     -22.633   0.985 -13.291  1.00  0.00    -0.247 OA
HETATM   10  N3  UNL     1     -21.270  -0.127 -14.724  1.00  0.00    -0.309 N 
ATOM     11  H3  UNL     1     -21.107  -1.014 -15.200  1.00  0.00     0.170 HD
ATOM     12  H2  UNL     1     -23.055  -2.028 -14.228  1.00  0.00     0.170 HD
BRANCH  10  13
HETATM   13  C11 UNL     1     -20.339   0.885 -14.981  1.00  0.00     0.037 A 
HETATM   14  C12 UNL     1     -20.691   2.182 -15.194  1.00  0.00     0.031 A 
HETATM   15  C13 UNL     1     -19.751   3.178 -15.432  1.00  0.00     0.027 A 
HETATM   16  C14 UNL     1     -18.425   2.888 -15.462  1.00  0.00     0.049 A 
HETATM   17 CL1  UNL     1     -17.213   4.135 -15.762  1.00  0.00    -0.083 Cl
HETATM   18  C15 UNL     1     -18.035   1.576 -15.249  1.00  0.00     0.071 A 
HETATM   19  C17 UNL     1     -18.966   0.598 -15.015  1.00  0.00     0.047 A 
BRANCH  18  20
HETATM   20  C16 UNL     1     -16.596   1.270 -15.284  1.00  0.00     0.419 C 
HETATM   21  F1  UNL     1     -16.381  -0.051 -14.886  1.00  0.00    -0.166 F 
HETATM   22  F2  UNL     1     -15.829   2.159 -14.597  1.00  0.00    -0.166 F 
HETATM   23  F3  UNL     1     -16.169   1.316 -16.619  1.00  0.00    -0.166 F 
ENDBRANCH  18  20
ENDBRANCH  10  13
ENDBRANCH   4   7
BRANCH   1  24
HETATM   24  O2  UNL     1     -27.979  -1.405 -10.765  1.00  0.00    -0.311 OA
BRANCH  24  25
HETATM   25  C5  UNL     1     -27.950  -1.927  -9.482  1.00  0.00     0.079 A 
HETATM   26  C4  UNL     1     -27.828  -1.126  -8.353  1.00  0.00     0.072 A 
HETATM   27  C3  UNL     1     -27.801  -1.666  -7.087  1.00  0.00     0.103 A 
HETATM   28  N4  UNL     1     -27.892  -2.994  -6.893  1.00  0.00    -0.361 N 
HETATM   29  C21 UNL     1     -28.012  -3.801  -7.977  1.00  0.00     0.091 A 
ATOM     30  H4  UNL     1     -27.871  -3.386  -5.952  1.00  0.00     0.165 HD
HETATM   31  C20 UNL     1     -28.042  -3.283  -9.261  1.00  0.00     0.054 A 
BRANCH  27  32
HETATM   32  C2  UNL     1     -27.673  -0.817  -5.913  1.00  0.00     0.267 C 
HETATM   33  N1  UNL     1     -28.170   0.506  -5.872  1.00  0.00    -0.360 N 
HETATM   34  C1  UNL     1     -28.048   1.354  -4.716  1.00  0.00     0.149 C 
ATOM     35  H1  UNL     1     -28.638   0.876  -6.699  1.00  0.00     0.162 HD
HETATM   36  O1  UNL     1     -27.105  -1.260  -4.903  1.00  0.00    -0.266 OA
ENDBRANCH  27  32
ENDBRANCH  24  25
ENDBRANCH   1  24
TORSDOF 6
ENDMDL
