MODEL 5
REMARK VINA RESULT: -10.170359363      5.962     11.636
REMARK  6 active torsions:
REMARK  status: ('A' for Active; 'I' for Inactive)
REMARK       I    between atoms: N1_2  and  C2_4 
REMARK    1  A    between atoms: C2_4  and  C3_6 
REMARK    2  A    between atoms: C5_8  and  O2_9 
REMARK    3  A    between atoms: O2_9  and  C6_10 
REMARK    4  A    between atoms: C9_13  and  N2_14 
REMARK       I    between atoms: N2_14  and  C10_16 
REMARK       I    between atoms: C10_16  and  N3_18 
REMARK    5  A    between atoms: N3_18  and  C11_20 
REMARK    6  A    between atoms: C15_25  and  C16_26 
ROOT
HETATM    1  C6  UNL     1     -27.170  -1.477 -11.109  1.00  0.00     0.076 A 
HETATM    2  C7  UNL     1     -25.947  -1.284 -10.509  1.00  0.00     0.039 A 
HETATM    3  C8  UNL     1     -24.786  -1.210 -11.288  1.00  0.00     0.032 A 
HETATM    4  C9  UNL     1     -24.891  -1.331 -12.624  1.00  0.00     0.036 A 
HETATM    5  C18 UNL     1     -26.144  -1.527 -13.226  1.00  0.00     0.032 A 
HETATM    6  C19 UNL     1     -27.287  -1.601 -12.475  1.00  0.00     0.039 A 
ENDROOT
BRANCH   4   7
HETATM    7  N2  UNL     1     -23.780  -1.280 -13.493  1.00  0.00    -0.309 N 
HETATM    8  C10 UNL     1     -22.892  -0.191 -13.659  1.00  0.00     0.325 C 
HETATM    9  O3  UNL     1     -23.054   0.843 -13.004  1.00  0.00    -0.247 OA
HETATM   10  N3  UNL     1     -21.798  -0.228 -14.561  1.00  0.00    -0.309 N 
ATOM     11  H3  UNL     1     -21.682  -1.094 -15.086  1.00  0.00     0.170 HD
ATOM     12  H2  UNL     1     -23.599  -2.111 -14.057  1.00  0.00     0.170 HD
BRANCH  10  13
HETATM   13  C11 UNL     1     -20.858   0.775 -14.821  1.00  0.00     0.037 A 
HETATM   14  C12 UNL     1     -21.196   2.080 -15.006  1.00  0.00     0.031 A 
HETATM   15  C13 UNL     1     -20.247   3.067 -15.248  1.00  0.00     0.027 A 
HETATM   16  C14 UNL     1     -18.925   2.759 -15.309  1.00  0.00     0.049 A 
HETATM   17 CL1  UNL     1     -17.702   3.993 -15.614  1.00  0.00    -0.083 Cl
HETATM   18  C15 UNL     1     -18.550   1.438 -15.125  1.00  0.00     0.071 A 
HETATM   19  C17 UNL     1     -19.490   0.470 -14.886  1.00  0.00     0.047 A 
BRANCH  18  20
HETATM   20  C16 UNL     1     -17.117   1.113 -15.194  1.00  0.00     0.419 C 
HETATM   21  F1  UNL     1     -16.437   1.739 -14.147  1.00  0.00    -0.166 F 
HETATM   22  F2  UNL     1     -16.556   1.358 -16.408  1.00  0.00    -0.166 F 
HETATM   23  F3  UNL     1     -16.964  -0.259 -14.949  1.00  0.00    -0.166 F 
ENDBRANCH  18  20
ENDBRANCH  10  13
ENDBRANCH   4   7
BRANCH   1  24
HETATM   24  O2  UNL     1     -28.313  -1.547 -10.303  1.00  0.00    -0.311 OA
BRANCH  24  25
HETATM   25  C5  UNL     1     -28.203  -2.019  -9.005  1.00  0.00     0.079 A 
HETATM   26  C4  UNL     1     -28.482  -3.337  -8.664  1.00  0.00     0.072 A 
HETATM   27  C3  UNL     1     -28.364  -3.785  -7.367  1.00  0.00     0.103 A 
HETATM   28  N4  UNL     1     -27.974  -2.962  -6.378  1.00  0.00    -0.361 N 
HETATM   29  C21 UNL     1     -27.695  -1.670  -6.681  1.00  0.00     0.091 A 
ATOM     30  H4  UNL     1     -27.891  -3.302  -5.420  1.00  0.00     0.165 HD
HETATM   31  C20 UNL     1     -27.805  -1.194  -7.977  1.00  0.00     0.054 A 
BRANCH  27  32
HETATM   32  C2  UNL     1     -28.660  -5.167  -7.023  1.00  0.00     0.267 C 
HETATM   33  N1  UNL     1     -28.432  -6.240  -7.916  1.00  0.00    -0.360 N 
HETATM   34  C1  UNL     1     -28.722  -7.610  -7.585  1.00  0.00     0.149 C 
ATOM     35  H1  UNL     1     -28.045  -6.033  -8.837  1.00  0.00     0.162 HD
HETATM   36  O1  UNL     1     -29.131  -5.426  -5.905  1.00  0.00    -0.266 OA
ENDBRANCH  27  32
ENDBRANCH  24  25
ENDBRANCH   1  24
TORSDOF 6
ENDMDL
