MODEL 2
REMARK VINA RESULT: -11.176107030      1.803      2.287
REMARK  6 active torsions:
REMARK  status: ('A' for Active; 'I' for Inactive)
REMARK       I    between atoms: N1_2  and  C2_4 
REMARK    1  A    between atoms: C2_4  and  C3_6 
REMARK    2  A    between atoms: C5_8  and  O2_9 
REMARK    3  A    between atoms: O2_9  and  C6_10 
REMARK    4  A    between atoms: C9_13  and  N2_14 
REMARK       I    between atoms: N2_14  and  C10_16 
REMARK       I    between atoms: C10_16  and  N3_18 
REMARK    5  A    between atoms: N3_18  and  C11_20 
REMARK    6  A    between atoms: C15_25  and  C16_26 
ROOT
HETATM    1  C6  UNL     1     -23.245  -0.986 -13.788  1.00  0.00     0.076 A 
HETATM    2  C7  UNL     1     -24.426  -1.085 -14.486  1.00  0.00     0.039 A 
HETATM    3  C8  UNL     1     -25.605  -1.450 -13.826  1.00  0.00     0.032 A 
HETATM    4  C9  UNL     1     -25.559  -1.700 -12.505  1.00  0.00     0.036 A 
HETATM    5  C18 UNL     1     -24.349  -1.595 -11.801  1.00  0.00     0.032 A 
HETATM    6  C19 UNL     1     -23.189  -1.238 -12.435  1.00  0.00     0.039 A 
ENDROOT
BRANCH   4   7
HETATM    7  N2  UNL     1     -26.690  -2.084 -11.752  1.00  0.00    -0.309 N 
HETATM    8  C10 UNL     1     -26.849  -1.960 -10.351  1.00  0.00     0.325 C 
HETATM    9  O3  UNL     1     -25.943  -1.475  -9.667  1.00  0.00    -0.247 OA
HETATM   10  N3  UNL     1     -28.024  -2.377  -9.677  1.00  0.00    -0.309 N 
ATOM     11  H3  UNL     1     -28.760  -2.770 -10.264  1.00  0.00     0.170 HD
ATOM     12  H2  UNL     1     -27.470  -2.490 -12.270  1.00  0.00     0.170 HD
BRANCH  10  13
HETATM   13  C11 UNL     1     -28.302  -2.316  -8.307  1.00  0.00     0.037 A 
HETATM   14  C12 UNL     1     -28.018  -1.230  -7.538  1.00  0.00     0.031 A 
HETATM   15  C13 UNL     1     -28.316  -1.181  -6.181  1.00  0.00     0.027 A 
HETATM   16  C14 UNL     1     -28.912  -2.233  -5.562  1.00  0.00     0.049 A 
HETATM   17 CL1  UNL     1     -29.300  -2.195  -3.842  1.00  0.00    -0.083 Cl
HETATM   18  C15 UNL     1     -29.213  -3.354  -6.319  1.00  0.00     0.071 A 
HETATM   19  C17 UNL     1     -28.918  -3.396  -7.656  1.00  0.00     0.047 A 
BRANCH  18  20
HETATM   20  C16 UNL     1     -29.858  -4.490  -5.641  1.00  0.00     0.419 C 
HETATM   21  F1  UNL     1     -31.069  -4.082  -5.078  1.00  0.00    -0.166 F 
HETATM   22  F2  UNL     1     -29.051  -5.127  -4.750  1.00  0.00    -0.166 F 
HETATM   23  F3  UNL     1     -30.214  -5.437  -6.611  1.00  0.00    -0.166 F 
ENDBRANCH  18  20
ENDBRANCH  10  13
ENDBRANCH   4   7
BRANCH   1  24
HETATM   24  O2  UNL     1     -22.082  -0.618 -14.477  1.00  0.00    -0.311 OA
BRANCH  24  25
HETATM   25  C5  UNL     1     -21.615   0.682 -14.377  1.00  0.00     0.079 A 
HETATM   26  C4  UNL     1     -20.291   1.021 -14.632  1.00  0.00     0.072 A 
HETATM   27  C3  UNL     1     -19.849   2.321 -14.527  1.00  0.00     0.103 A 
HETATM   28  N4  UNL     1     -20.682   3.315 -14.174  1.00  0.00    -0.361 N 
HETATM   29  C21 UNL     1     -21.980   3.014 -13.919  1.00  0.00     0.091 A 
ATOM     30  H4  UNL     1     -20.345   4.275 -14.098  1.00  0.00     0.165 HD
HETATM   31  C20 UNL     1     -22.450   1.715 -14.017  1.00  0.00     0.054 A 
BRANCH  27  32
HETATM   32  C2  UNL     1     -18.460   2.663 -14.796  1.00  0.00     0.267 C 
HETATM   33  N1  UNL     1     -18.088   3.802 -15.547  1.00  0.00    -0.360 N 
HETATM   34  C1  UNL     1     -16.719   4.148 -15.819  1.00  0.00     0.149 C 
ATOM     35  H1  UNL     1     -18.825   4.406 -15.913  1.00  0.00     0.162 HD
HETATM   36  O1  UNL     1     -17.560   1.932 -14.355  1.00  0.00    -0.266 OA
ENDBRANCH  27  32
ENDBRANCH  24  25
ENDBRANCH   1  24
TORSDOF 6
ENDMDL
