MODEL 1
REMARK VINA RESULT: -11.651805260      0.000      0.000
REMARK  6 active torsions:
REMARK  status: ('A' for Active; 'I' for Inactive)
REMARK       I    between atoms: N1_2  and  C2_4 
REMARK    1  A    between atoms: C2_4  and  C3_6 
REMARK    2  A    between atoms: C5_8  and  O2_9 
REMARK    3  A    between atoms: O2_9  and  C6_10 
REMARK    4  A    between atoms: C9_13  and  N2_14 
REMARK       I    between atoms: N2_14  and  C10_16 
REMARK       I    between atoms: C10_16  and  N3_18 
REMARK    5  A    between atoms: N3_18  and  C11_20 
REMARK    6  A    between atoms: C15_25  and  C16_26 
ROOT
HETATM    1  C6  UNL     1     -23.121  -1.048 -13.782  1.00  0.00     0.076 A 
HETATM    2  C7  UNL     1     -24.321  -0.903 -14.440  1.00  0.00     0.039 A 
HETATM    3  C8  UNL     1     -25.520  -1.225 -13.793  1.00  0.00     0.032 A 
HETATM    4  C9  UNL     1     -25.474  -1.674 -12.526  1.00  0.00     0.036 A 
HETATM    5  C18 UNL     1     -24.246  -1.816 -11.863  1.00  0.00     0.032 A 
HETATM    6  C19 UNL     1     -23.065  -1.505 -12.484  1.00  0.00     0.039 A 
ENDROOT
BRANCH   4   7
HETATM    7  N2  UNL     1     -26.626  -2.033 -11.793  1.00  0.00    -0.309 N 
HETATM    8  C10 UNL     1     -26.806  -1.909 -10.395  1.00  0.00     0.325 C 
HETATM    9  O3  UNL     1     -25.900  -1.446  -9.694  1.00  0.00    -0.247 OA
HETATM   10  N3  UNL     1     -28.001  -2.299  -9.740  1.00  0.00    -0.309 N 
ATOM     11  H3  UNL     1     -28.736  -2.674 -10.340  1.00  0.00     0.170 HD
ATOM     12  H2  UNL     1     -27.407  -2.420 -12.324  1.00  0.00     0.170 HD
BRANCH  10  13
HETATM   13  C11 UNL     1     -28.300  -2.236  -8.375  1.00  0.00     0.037 A 
HETATM   14  C12 UNL     1     -28.552  -3.337  -7.617  1.00  0.00     0.031 A 
HETATM   15  C13 UNL     1     -28.831  -3.256  -6.257  1.00  0.00     0.027 A 
HETATM   16  C14 UNL     1     -28.864  -2.055  -5.626  1.00  0.00     0.049 A 
HETATM   17 CL1  UNL     1     -29.216  -1.926  -3.902  1.00  0.00    -0.083 Cl
HETATM   18  C15 UNL     1     -28.612  -0.914  -6.371  1.00  0.00     0.071 A 
HETATM   19  C17 UNL     1     -28.337  -1.000  -7.711  1.00  0.00     0.047 A 
BRANCH  18  20
HETATM   20  C16 UNL     1     -28.651   0.384  -5.679  1.00  0.00     0.419 C 
HETATM   21  F1  UNL     1     -27.609   0.459  -4.753  1.00  0.00    -0.166 F 
HETATM   22  F2  UNL     1     -29.862   0.680  -5.136  1.00  0.00    -0.166 F 
HETATM   23  F3  UNL     1     -28.371   1.390  -6.615  1.00  0.00    -0.166 F 
ENDBRANCH  18  20
ENDBRANCH  10  13
ENDBRANCH   4   7
BRANCH   1  24
HETATM   24  O2  UNL     1     -21.938  -0.718 -14.456  1.00  0.00    -0.311 OA
BRANCH  24  25
HETATM   25  C5  UNL     1     -21.493   0.594 -14.446  1.00  0.00     0.079 A 
HETATM   26  C4  UNL     1     -20.231   0.957 -14.902  1.00  0.00     0.072 A 
HETATM   27  C3  UNL     1     -19.810   2.268 -14.883  1.00  0.00     0.103 A 
HETATM   28  N4  UNL     1     -20.604   3.250 -14.422  1.00  0.00    -0.361 N 
HETATM   29  C21 UNL     1     -21.842   2.925 -13.970  1.00  0.00     0.091 A 
ATOM     30  H4  UNL     1     -20.284   4.218 -14.411  1.00  0.00     0.165 HD
HETATM   31  C20 UNL     1     -22.290   1.615 -13.978  1.00  0.00     0.054 A 
BRANCH  27  32
HETATM   32  C2  UNL     1     -18.486   2.636 -15.362  1.00  0.00     0.267 C 
HETATM   33  N1  UNL     1     -18.036   3.976 -15.402  1.00  0.00    -0.360 N 
HETATM   34  C1  UNL     1     -16.729   4.349 -15.875  1.00  0.00     0.149 C 
ATOM     35  H1  UNL     1     -18.665   4.711 -15.081  1.00  0.00     0.162 HD
HETATM   36  O1  UNL     1     -17.715   1.747 -15.755  1.00  0.00    -0.266 OA
ENDBRANCH  27  32
ENDBRANCH  24  25
ENDBRANCH   1  24
TORSDOF 6
ENDMDL
