MODEL 1
REMARK VINA RESULT: -11.550112257      0.000      0.000
REMARK  6 active torsions:
REMARK  status: ('A' for Active; 'I' for Inactive)
REMARK    1  A    between atoms: O1_2  and  C2_3 
REMARK    2  A    between atoms: C7_10  and  O2_11 
REMARK    3  A    between atoms: O2_11  and  C8_12 
REMARK    4  A    between atoms: C11_15  and  N2_16 
REMARK       I    between atoms: N2_16  and  C12_18 
REMARK       I    between atoms: C12_18  and  N3_20 
REMARK    5  A    between atoms: N3_20  and  C13_22 
REMARK    6  A    between atoms: C21_34  and  O5_35 
ROOT
HETATM    1  C8  UNL     1     -22.683  -0.788 -13.332  1.00  0.00     0.077 A 
HETATM    2  C9  UNL     1     -22.486  -1.304 -12.070  1.00  0.00     0.039 A 
HETATM    3  C10 UNL     1     -23.529  -1.862 -11.312  1.00  0.00     0.034 A 
HETATM    4  C11 UNL     1     -24.795  -1.910 -11.812  1.00  0.00     0.058 A 
HETATM    5  C17 UNL     1     -25.001  -1.397 -13.072  1.00  0.00     0.063 A 
HETATM    6 CL1  UNL     1     -26.596  -1.421 -13.788  1.00  0.00    -0.082 Cl
HETATM    7  C18 UNL     1     -23.974  -0.851 -13.813  1.00  0.00     0.063 A 
ENDROOT
BRANCH   1   8
HETATM    8  O2  UNL     1     -21.608  -0.254 -14.023  1.00  0.00    -0.310 OA
BRANCH   8   9
HETATM    9  C7  UNL     1     -21.452   1.118 -14.110  1.00  0.00     0.090 A 
HETATM   10  C6  UNL     1     -22.459   2.028 -13.792  1.00  0.00     0.055 A 
HETATM   11  C5  UNL     1     -22.257   3.385 -13.893  1.00  0.00     0.091 A 
HETATM   12  N1  UNL     1     -21.076   3.867 -14.306  1.00  0.00    -0.365 N 
HETATM   13  C4  UNL     1     -20.076   2.998 -14.623  1.00  0.00     0.048 A 
ATOM     14  H1  UNL     1     -20.928   4.873 -14.382  1.00  0.00     0.165 HD
HETATM   15  C3  UNL     1     -18.850   3.460 -15.049  1.00  0.00     0.070 A 
HETATM   16  C19 UNL     1     -20.243   1.623 -14.532  1.00  0.00     0.027 A 
HETATM   17  C2  UNL     1     -17.821   2.600 -15.376  1.00  0.00     0.103 A 
HETATM   18  C21 UNL     1     -17.999   1.237 -15.282  1.00  0.00     0.102 A 
HETATM   19  C20 UNL     1     -19.222   0.756 -14.856  1.00  0.00     0.056 A 
BRANCH  17  20
HETATM   20  O1  UNL     1     -16.586   3.090 -15.806  1.00  0.00    -0.353 OA
HETATM   21  C1  UNL     1     -16.391   4.448 -16.104  1.00  0.00     0.210 C 
ENDBRANCH  17  20
BRANCH  18  22
HETATM   22  O5  UNL     1     -16.967   0.392 -15.611  1.00  0.00    -0.353 OA
HETATM   23  C22 UNL     1     -16.663  -0.743 -14.843  1.00  0.00     0.210 C 
ENDBRANCH  18  22
ENDBRANCH   8   9
ENDBRANCH   1   8
BRANCH   4  24
HETATM   24  N2  UNL     1     -25.862  -2.452 -11.099  1.00  0.00    -0.307 N 
HETATM   25  C12 UNL     1     -26.317  -2.120  -9.821  1.00  0.00     0.326 C 
HETATM   26  O3  UNL     1     -25.763  -1.238  -9.157  1.00  0.00    -0.247 OA
HETATM   27  N3  UNL     1     -27.446  -2.777  -9.207  1.00  0.00    -0.293 N 
ATOM     28  H3  UNL     1     -27.942  -3.513  -9.710  1.00  0.00     0.172 HD
ATOM     29  H2  UNL     1     -26.380  -3.191 -11.573  1.00  0.00     0.170 HD
BRANCH  27  30
HETATM   30  C13 UNL     1     -27.872  -2.398  -7.896  1.00  0.00     0.132 A 
HETATM   31  C14 UNL     1     -28.484  -3.139  -6.935  1.00  0.00     0.084 A 
HETATM   32  C15 UNL     1     -28.692  -2.325  -5.843  1.00  0.00     0.076 A 
HETATM   33  C16 UNL     1     -29.337  -2.740  -4.566  1.00  0.00     0.079 C 
HETATM   34  O4  UNL     1     -28.208  -1.155  -6.182  1.00  0.00    -0.241 OA
HETATM   35  N4  UNL     1     -27.723  -1.168  -7.374  1.00  0.00    -0.245 N 
ATOM     36  H4  UNL     1     -27.295  -0.373  -7.848  1.00  0.00     0.196 HD
ENDBRANCH  27  30
ENDBRANCH   4  24
TORSDOF 6
ENDMDL
