MODEL 4
REMARK VINA RESULT: -9.540431363      2.401     11.460
REMARK  6 active torsions:
REMARK  status: ('A' for Active; 'I' for Inactive)
REMARK    1  A    between atoms: O1_2  and  C2_3 
REMARK    2  A    between atoms: C7_10  and  O2_11 
REMARK    3  A    between atoms: O2_11  and  C8_12 
REMARK    4  A    between atoms: C11_15  and  N2_16 
REMARK       I    between atoms: N2_16  and  C12_18 
REMARK       I    between atoms: C12_18  and  N3_20 
REMARK    5  A    between atoms: N3_20  and  C13_22 
REMARK    6  A    between atoms: C21_34  and  O5_35 
ROOT
HETATM    1  C8  UNL     1     -27.139  -1.663  -9.792  1.00  0.00     0.077 A 
HETATM    2  C9  UNL     1     -25.825  -1.433  -9.451  1.00  0.00     0.039 A 
HETATM    3  C10 UNL     1     -24.830  -1.180 -10.410  1.00  0.00     0.034 A 
HETATM    4  C11 UNL     1     -25.142  -1.155 -11.735  1.00  0.00     0.058 A 
HETATM    5  C17 UNL     1     -26.453  -1.384 -12.085  1.00  0.00     0.063 A 
HETATM    6 CL1  UNL     1     -26.936  -1.368 -13.765  1.00  0.00    -0.082 Cl
HETATM    7  C18 UNL     1     -27.426  -1.631 -11.140  1.00  0.00     0.063 A 
ENDROOT
BRANCH   1   8
HETATM    8  O2  UNL     1     -28.068  -1.905  -8.793  1.00  0.00    -0.310 OA
BRANCH   8   9
HETATM    9  C7  UNL     1     -27.991  -3.063  -8.039  1.00  0.00     0.090 A 
HETATM   10  C6  UNL     1     -27.853  -4.334  -8.596  1.00  0.00     0.055 A 
HETATM   11  C5  UNL     1     -27.780  -5.458  -7.805  1.00  0.00     0.091 A 
HETATM   12  N1  UNL     1     -27.842  -5.355  -6.471  1.00  0.00    -0.365 N 
HETATM   13  C4  UNL     1     -27.977  -4.124  -5.903  1.00  0.00     0.048 A 
ATOM     14  H1  UNL     1     -27.789  -6.189  -5.886  1.00  0.00     0.165 HD
HETATM   15  C3  UNL     1     -28.042  -3.983  -4.534  1.00  0.00     0.070 A 
HETATM   16  C19 UNL     1     -28.052  -2.968  -6.668  1.00  0.00     0.027 A 
HETATM   17  C2  UNL     1     -28.178  -2.747  -3.935  1.00  0.00     0.103 A 
HETATM   18  C21 UNL     1     -28.252  -1.606  -4.705  1.00  0.00     0.102 A 
HETATM   19  C20 UNL     1     -28.188  -1.729  -6.079  1.00  0.00     0.056 A 
BRANCH  17  20
HETATM   20  O1  UNL     1     -28.242  -2.626  -2.545  1.00  0.00    -0.353 OA
HETATM   21  C1  UNL     1     -29.339  -3.105  -1.810  1.00  0.00     0.210 C 
ENDBRANCH  17  20
BRANCH  18  22
HETATM   22  O5  UNL     1     -28.388  -0.383  -4.096  1.00  0.00    -0.353 OA
HETATM   23  C22 UNL     1     -27.379   0.591  -4.152  1.00  0.00     0.210 C 
ENDBRANCH  18  22
ENDBRANCH   8   9
ENDBRANCH   1   8
BRANCH   4  24
HETATM   24  N2  UNL     1     -24.191  -0.910 -12.723  1.00  0.00    -0.307 N 
HETATM   25  C12 UNL     1     -23.451   0.252 -12.955  1.00  0.00     0.326 C 
HETATM   26  O3  UNL     1     -23.590   1.249 -12.239  1.00  0.00    -0.247 OA
HETATM   27  N3  UNL     1     -22.493   0.358 -14.030  1.00  0.00    -0.293 N 
ATOM     28  H3  UNL     1     -22.337  -0.435 -14.653  1.00  0.00     0.172 HD
ATOM     29  H2  UNL     1     -24.010  -1.683 -13.363  1.00  0.00     0.170 HD
BRANCH  27  30
HETATM   30  C13 UNL     1     -21.761   1.570 -14.223  1.00  0.00     0.132 A 
HETATM   31  C14 UNL     1     -20.476   1.752 -14.625  1.00  0.00     0.084 A 
HETATM   32  C15 UNL     1     -20.232   3.107 -14.659  1.00  0.00     0.076 A 
HETATM   33  C16 UNL     1     -18.943   3.745 -15.048  1.00  0.00     0.079 C 
HETATM   34  O4  UNL     1     -21.353   3.674 -14.286  1.00  0.00    -0.241 OA
HETATM   35  N4  UNL     1     -22.264   2.801 -14.026  1.00  0.00    -0.245 N 
ATOM     36  H4  UNL     1     -23.213   3.009 -13.718  1.00  0.00     0.196 HD
ENDBRANCH  27  30
ENDBRANCH   4  24
TORSDOF 6
ENDMDL
