MODEL 2
REMARK VINA RESULT: -10.924681102      1.126      1.217
REMARK  6 active torsions:
REMARK  status: ('A' for Active; 'I' for Inactive)
REMARK    1  A    between atoms: O1_2  and  C2_3 
REMARK    2  A    between atoms: C7_10  and  O2_11 
REMARK    3  A    between atoms: O2_11  and  C8_12 
REMARK    4  A    between atoms: C11_15  and  N2_16 
REMARK       I    between atoms: N2_16  and  C12_18 
REMARK       I    between atoms: C12_18  and  N3_20 
REMARK    5  A    between atoms: N3_20  and  C13_22 
REMARK    6  A    between atoms: C21_34  and  O5_35 
ROOT
HETATM    1  C8  UNL     1     -22.137  -0.110 -13.605  1.00  0.00     0.077 A 
HETATM    2  C9  UNL     1     -22.262  -0.166 -12.234  1.00  0.00     0.039 A 
HETATM    3  C10 UNL     1     -23.481  -0.458 -11.600  1.00  0.00     0.034 A 
HETATM    4  C11 UNL     1     -24.601  -0.700 -12.337  1.00  0.00     0.058 A 
HETATM    5  C17 UNL     1     -24.485  -0.645 -13.707  1.00  0.00     0.063 A 
HETATM    6 CL1  UNL     1     -25.874  -0.943 -14.725  1.00  0.00    -0.082 Cl
HETATM    7  C18 UNL     1     -23.285  -0.358 -14.325  1.00  0.00     0.063 A 
ENDROOT
BRANCH   1   8
HETATM    8  O2  UNL     1     -20.903   0.184 -14.163  1.00  0.00    -0.310 OA
BRANCH   8   9
HETATM    9  C7  UNL     1     -20.543   1.499 -14.399  1.00  0.00     0.090 A 
HETATM   10  C6  UNL     1     -21.427   2.570 -14.278  1.00  0.00     0.055 A 
HETATM   11  C5  UNL     1     -21.023   3.863 -14.523  1.00  0.00     0.091 A 
HETATM   12  N1  UNL     1     -19.760   4.122 -14.888  1.00  0.00    -0.365 N 
HETATM   13  C4  UNL     1     -18.878   3.092 -15.013  1.00  0.00     0.048 A 
ATOM     14  H1  UNL     1     -19.463   5.081 -15.071  1.00  0.00     0.165 HD
HETATM   15  C3  UNL     1     -17.572   3.324 -15.386  1.00  0.00     0.070 A 
HETATM   16  C19 UNL     1     -19.249   1.776 -14.774  1.00  0.00     0.027 A 
HETATM   17  C2  UNL     1     -16.659   2.298 -15.520  1.00  0.00     0.103 A 
HETATM   18  C21 UNL     1     -17.039   0.995 -15.279  1.00  0.00     0.102 A 
HETATM   19  C20 UNL     1     -18.345   0.744 -14.904  1.00  0.00     0.056 A 
BRANCH  17  20
HETATM   20  O1  UNL     1     -15.340   2.555 -15.898  1.00  0.00    -0.353 OA
HETATM   21  C1  UNL     1     -14.755   3.821 -15.731  1.00  0.00     0.210 C 
ENDBRANCH  17  20
BRANCH  18  22
HETATM   22  O5  UNL     1     -16.122  -0.017 -15.416  1.00  0.00    -0.353 OA
HETATM   23  C22 UNL     1     -16.347  -1.300 -14.894  1.00  0.00     0.210 C 
ENDBRANCH  18  22
ENDBRANCH   8   9
ENDBRANCH   1   8
BRANCH   4  24
HETATM   24  N2  UNL     1     -25.831  -0.993 -11.754  1.00  0.00    -0.307 N 
HETATM   25  C12 UNL     1     -26.103  -1.413 -10.450  1.00  0.00     0.326 C 
HETATM   26  O3  UNL     1     -25.193  -1.573  -9.630  1.00  0.00    -0.247 OA
HETATM   27  N3  UNL     1     -27.443  -1.681  -9.986  1.00  0.00    -0.293 N 
ATOM     28  H3  UNL     1     -28.234  -1.565 -10.621  1.00  0.00     0.172 HD
ATOM     29  H2  UNL     1     -26.644  -0.886 -12.361  1.00  0.00     0.170 HD
BRANCH  27  30
HETATM   30  C13 UNL     1     -27.667  -2.108  -8.641  1.00  0.00     0.132 A 
HETATM   31  C14 UNL     1     -28.345  -3.190  -8.176  1.00  0.00     0.084 A 
HETATM   32  C15 UNL     1     -28.279  -3.170  -6.800  1.00  0.00     0.076 A 
HETATM   33  C16 UNL     1     -28.892  -4.177  -5.890  1.00  0.00     0.079 C 
HETATM   34  O4  UNL     1     -27.580  -2.103  -6.499  1.00  0.00    -0.241 OA
HETATM   35  N4  UNL     1     -27.209  -1.464  -7.553  1.00  0.00    -0.245 N 
ATOM     36  H4  UNL     1     -26.657  -0.606  -7.562  1.00  0.00     0.196 HD
ENDBRANCH  27  30
ENDBRANCH   4  24
TORSDOF 6
ENDMDL
