MODEL 5
REMARK VINA RESULT: -9.489464040      1.453      1.813
REMARK  6 active torsions:
REMARK  status: ('A' for Active; 'I' for Inactive)
REMARK    1  A    between atoms: O1_2  and  C2_3 
REMARK    2  A    between atoms: C7_10  and  O2_11 
REMARK    3  A    between atoms: O2_11  and  C8_12 
REMARK    4  A    between atoms: C11_15  and  N2_16 
REMARK       I    between atoms: N2_16  and  C12_18 
REMARK       I    between atoms: C12_18  and  N3_20 
REMARK    5  A    between atoms: N3_20  and  C13_22 
REMARK    6  A    between atoms: C21_34  and  O5_35 
ROOT
HETATM    1  C8  UNL     1     -22.651  -0.152 -14.181  1.00  0.00     0.077 A 
HETATM    2  C9  UNL     1     -23.920  -0.546 -14.542  1.00  0.00     0.039 A 
HETATM    3  C10 UNL     1     -24.749  -1.295 -13.689  1.00  0.00     0.034 A 
HETATM    4  C11 UNL     1     -24.312  -1.662 -12.452  1.00  0.00     0.058 A 
HETATM    5  C17 UNL     1     -23.045  -1.273 -12.083  1.00  0.00     0.063 A 
HETATM    6 CL1  UNL     1     -22.409  -1.702 -10.513  1.00  0.00    -0.082 Cl
HETATM    7  C18 UNL     1     -22.235  -0.537 -12.924  1.00  0.00     0.063 A 
ENDROOT
BRANCH   1   8
HETATM    8  O2  UNL     1     -21.889   0.585 -15.072  1.00  0.00    -0.310 OA
BRANCH   8   9
HETATM    9  C7  UNL     1     -21.173   1.683 -14.631  1.00  0.00     0.090 A 
HETATM   10  C6  UNL     1     -21.771   2.852 -14.162  1.00  0.00     0.055 A 
HETATM   11  C5  UNL     1     -21.017   3.921 -13.732  1.00  0.00     0.091 A 
HETATM   12  N1  UNL     1     -19.679   3.860 -13.756  1.00  0.00    -0.365 N 
HETATM   13  C4  UNL     1     -19.071   2.730 -14.210  1.00  0.00     0.048 A 
ATOM     14  H1  UNL     1     -19.121   4.653 -13.439  1.00  0.00     0.165 HD
HETATM   15  C3  UNL     1     -17.696   2.634 -14.248  1.00  0.00     0.070 A 
HETATM   16  C19 UNL     1     -19.798   1.632 -14.651  1.00  0.00     0.027 A 
HETATM   17  C2  UNL     1     -17.057   1.500 -14.703  1.00  0.00     0.103 A 
HETATM   18  C21 UNL     1     -17.790   0.416 -15.138  1.00  0.00     0.102 A 
HETATM   19  C20 UNL     1     -19.168   0.494 -15.107  1.00  0.00     0.056 A 
BRANCH  17  20
HETATM   20  O1  UNL     1     -15.663   1.424 -14.732  1.00  0.00    -0.353 OA
HETATM   21  C1  UNL     1     -14.909   1.200 -13.568  1.00  0.00     0.210 C 
ENDBRANCH  17  20
BRANCH  18  22
HETATM   22  O5  UNL     1     -17.141  -0.707 -15.589  1.00  0.00    -0.353 OA
HETATM   23  C22 UNL     1     -16.696  -1.709 -14.714  1.00  0.00     0.210 C 
ENDBRANCH  18  22
ENDBRANCH   8   9
ENDBRANCH   1   8
BRANCH   4  24
HETATM   24  N2  UNL     1     -25.096  -2.404 -11.572  1.00  0.00    -0.307 N 
HETATM   25  C12 UNL     1     -25.768  -1.975 -10.425  1.00  0.00     0.326 C 
HETATM   26  O3  UNL     1     -25.720  -0.795 -10.064  1.00  0.00    -0.247 OA
HETATM   27  N3  UNL     1     -26.548  -2.871  -9.605  1.00  0.00    -0.293 N 
ATOM     28  H3  UNL     1     -26.623  -3.857  -9.857  1.00  0.00     0.172 HD
ATOM     29  H2  UNL     1     -25.192  -3.395 -11.795  1.00  0.00     0.170 HD
BRANCH  27  30
HETATM   30  C13 UNL     1     -27.218  -2.380  -8.441  1.00  0.00     0.132 A 
HETATM   31  C14 UNL     1     -28.235  -2.930  -7.730  1.00  0.00     0.084 A 
HETATM   32  C15 UNL     1     -28.535  -2.077  -6.691  1.00  0.00     0.076 A 
HETATM   33  C16 UNL     1     -29.593  -2.299  -5.665  1.00  0.00     0.079 C 
HETATM   34  O4  UNL     1     -27.705  -1.069  -6.816  1.00  0.00    -0.241 OA
HETATM   35  N4  UNL     1     -26.924  -1.220  -7.829  1.00  0.00    -0.245 N 
ATOM     36  H4  UNL     1     -26.199  -0.564  -8.120  1.00  0.00     0.196 HD
ENDBRANCH  27  30
ENDBRANCH   4  24
TORSDOF 6
ENDMDL
