MODEL 6
REMARK VINA RESULT: -9.447762891      2.287     11.498
REMARK  6 active torsions:
REMARK  status: ('A' for Active; 'I' for Inactive)
REMARK    1  A    between atoms: O1_2  and  C2_3 
REMARK    2  A    between atoms: C7_10  and  O2_11 
REMARK    3  A    between atoms: O2_11  and  C8_12 
REMARK    4  A    between atoms: C11_15  and  N2_16 
REMARK       I    between atoms: N2_16  and  C12_18 
REMARK       I    between atoms: C12_18  and  N3_20 
REMARK    5  A    between atoms: N3_20  and  C13_22 
REMARK    6  A    between atoms: C21_34  and  O5_35 
ROOT
HETATM    1  C8  UNL     1     -26.123  -1.988 -10.405  1.00  0.00     0.077 A 
HETATM    2  C9  UNL     1     -25.057  -1.220  -9.993  1.00  0.00     0.039 A 
HETATM    3  C10 UNL     1     -24.348  -0.381 -10.869  1.00  0.00     0.034 A 
HETATM    4  C11 UNL     1     -24.704  -0.298 -12.181  1.00  0.00     0.058 A 
HETATM    5  C17 UNL     1     -25.768  -1.062 -12.602  1.00  0.00     0.063 A 
HETATM    6 CL1  UNL     1     -26.289  -1.013 -14.270  1.00  0.00    -0.082 Cl
HETATM    7  C18 UNL     1     -26.461  -1.885 -11.737  1.00  0.00     0.063 A 
ENDROOT
BRANCH   1   8
HETATM    8  O2  UNL     1     -26.776  -2.793  -9.486  1.00  0.00    -0.310 OA
BRANCH   8   9
HETATM    9  C7  UNL     1     -27.299  -2.244  -8.329  1.00  0.00     0.090 A 
HETATM   10  C6  UNL     1     -27.098  -0.918  -7.949  1.00  0.00     0.055 A 
HETATM   11  C5  UNL     1     -27.639  -0.415  -6.788  1.00  0.00     0.091 A 
HETATM   12  N1  UNL     1     -28.377  -1.197  -5.989  1.00  0.00    -0.365 N 
HETATM   13  C4  UNL     1     -28.587  -2.497  -6.338  1.00  0.00     0.048 A 
ATOM     14  H1  UNL     1     -28.777  -0.823  -5.128  1.00  0.00     0.165 HD
HETATM   15  C3  UNL     1     -29.342  -3.328  -5.538  1.00  0.00     0.070 A 
HETATM   16  C19 UNL     1     -28.058  -3.038  -7.501  1.00  0.00     0.027 A 
HETATM   17  C2  UNL     1     -29.570  -4.648  -5.870  1.00  0.00     0.103 A 
HETATM   18  C21 UNL     1     -29.039  -5.175  -7.028  1.00  0.00     0.102 A 
HETATM   19  C20 UNL     1     -28.280  -4.356  -7.841  1.00  0.00     0.056 A 
BRANCH  17  20
HETATM   20  O1  UNL     1     -30.338  -5.473  -5.046  1.00  0.00    -0.353 OA
HETATM   21  C1  UNL     1     -30.429  -5.257  -3.661  1.00  0.00     0.210 C 
ENDBRANCH  17  20
BRANCH  18  22
HETATM   22  O5  UNL     1     -29.272  -6.490  -7.346  1.00  0.00    -0.353 OA
HETATM   23  C22 UNL     1     -28.297  -7.289  -7.961  1.00  0.00     0.210 C 
ENDBRANCH  18  22
ENDBRANCH   8   9
ENDBRANCH   1   8
BRANCH   4  24
HETATM   24  N2  UNL     1     -24.033   0.519 -13.088  1.00  0.00    -0.307 N 
HETATM   25  C12 UNL     1     -22.660   0.616 -13.328  1.00  0.00     0.326 C 
HETATM   26  O3  UNL     1     -21.854  -0.079 -12.700  1.00  0.00    -0.247 OA
HETATM   27  N3  UNL     1     -22.107   1.518 -14.309  1.00  0.00    -0.293 N 
ATOM     28  H3  UNL     1     -22.727   2.116 -14.857  1.00  0.00     0.172 HD
ATOM     29  H2  UNL     1     -24.623   1.129 -13.653  1.00  0.00     0.170 HD
BRANCH  27  30
HETATM   30  C13 UNL     1     -20.694   1.577 -14.516  1.00  0.00     0.132 A 
HETATM   31  C14 UNL     1     -19.878   2.658 -14.623  1.00  0.00     0.084 A 
HETATM   32  C15 UNL     1     -18.594   2.200 -14.817  1.00  0.00     0.076 A 
HETATM   33  C16 UNL     1     -17.386   3.056 -14.984  1.00  0.00     0.079 C 
HETATM   34  O4  UNL     1     -18.685   0.893 -14.820  1.00  0.00    -0.241 OA
HETATM   35  N4  UNL     1     -19.900   0.501 -14.645  1.00  0.00    -0.245 N 
ATOM     36  H4  UNL     1     -20.209  -0.470 -14.611  1.00  0.00     0.196 HD
ENDBRANCH  27  30
ENDBRANCH   4  24
TORSDOF 6
ENDMDL
