MODEL 3
REMARK VINA RESULT: -10.454601481      2.562     11.241
REMARK  6 active torsions:
REMARK  status: ('A' for Active; 'I' for Inactive)
REMARK    1  A    between atoms: O1_2  and  C2_3 
REMARK    2  A    between atoms: C7_10  and  O2_11 
REMARK    3  A    between atoms: O2_11  and  C8_12 
REMARK    4  A    between atoms: C11_15  and  N2_16 
REMARK       I    between atoms: N2_16  and  C12_18 
REMARK       I    between atoms: C12_18  and  N3_20 
REMARK    5  A    between atoms: N3_20  and  C13_22 
REMARK    6  A    between atoms: C21_34  and  O5_35 
ROOT
HETATM    1  C8  UNL     1     -26.903  -1.560 -10.319  1.00  0.00     0.077 A 
HETATM    2  C9  UNL     1     -27.254  -1.083 -11.562  1.00  0.00     0.039 A 
HETATM    3  C10 UNL     1     -26.302  -0.774 -12.548  1.00  0.00     0.034 A 
HETATM    4  C11 UNL     1     -24.973  -0.942 -12.299  1.00  0.00     0.058 A 
HETATM    5  C17 UNL     1     -24.613  -1.418 -11.060  1.00  0.00     0.063 A 
HETATM    6 CL1  UNL     1     -22.929  -1.661 -10.660  1.00  0.00    -0.082 Cl
HETATM    7  C18 UNL     1     -25.552  -1.719 -10.095  1.00  0.00     0.063 A 
ENDROOT
BRANCH   1   8
HETATM    8  O2  UNL     1     -27.895  -1.843  -9.395  1.00  0.00    -0.310 OA
BRANCH   8   9
HETATM    9  C7  UNL     1     -27.641  -1.713  -8.041  1.00  0.00     0.090 A 
HETATM   10  C6  UNL     1     -27.207  -0.526  -7.452  1.00  0.00     0.055 A 
HETATM   11  C5  UNL     1     -26.968  -0.443  -6.099  1.00  0.00     0.091 A 
HETATM   12  N1  UNL     1     -27.147  -1.513  -5.311  1.00  0.00    -0.365 N 
HETATM   13  C4  UNL     1     -27.570  -2.684  -5.863  1.00  0.00     0.048 A 
ATOM     14  H1  UNL     1     -26.968  -1.450  -4.309  1.00  0.00     0.165 HD
HETATM   15  C3  UNL     1     -27.765  -3.802  -5.081  1.00  0.00     0.070 A 
HETATM   16  C19 UNL     1     -27.823  -2.804  -7.223  1.00  0.00     0.027 A 
HETATM   17  C2  UNL     1     -28.194  -4.999  -5.617  1.00  0.00     0.103 A 
HETATM   18  C21 UNL     1     -28.441  -5.107  -6.969  1.00  0.00     0.102 A 
HETATM   19  C20 UNL     1     -28.251  -3.996  -7.767  1.00  0.00     0.056 A 
BRANCH  17  20
HETATM   20  O1  UNL     1     -28.386  -6.120  -4.806  1.00  0.00    -0.353 OA
HETATM   21  C1  UNL     1     -28.400  -6.026  -3.405  1.00  0.00     0.210 C 
ENDBRANCH  17  20
BRANCH  18  22
HETATM   22  O5  UNL     1     -28.866  -6.304  -7.489  1.00  0.00    -0.353 OA
HETATM   23  C22 UNL     1     -27.991  -7.180  -8.149  1.00  0.00     0.210 C 
ENDBRANCH  18  22
ENDBRANCH   8   9
ENDBRANCH   1   8
BRANCH   4  24
HETATM   24  N2  UNL     1     -23.993  -0.649 -13.244  1.00  0.00    -0.307 N 
HETATM   25  C12 UNL     1     -23.140   0.456 -13.306  1.00  0.00     0.326 C 
HETATM   26  O3  UNL     1     -23.188   1.345 -12.450  1.00  0.00    -0.247 OA
HETATM   27  N3  UNL     1     -22.165   0.623 -14.357  1.00  0.00    -0.293 N 
ATOM     28  H3  UNL     1     -22.081  -0.082 -15.090  1.00  0.00     0.172 HD
ATOM     29  H2  UNL     1     -23.882  -1.334 -13.991  1.00  0.00     0.170 HD
BRANCH  27  30
HETATM   30  C13 UNL     1     -21.316   1.773 -14.373  1.00  0.00     0.132 A 
HETATM   31  C14 UNL     1     -19.979   1.860 -14.601  1.00  0.00     0.084 A 
HETATM   32  C15 UNL     1     -19.621   3.187 -14.509  1.00  0.00     0.076 A 
HETATM   33  C16 UNL     1     -18.245   3.727 -14.691  1.00  0.00     0.079 C 
HETATM   34  O4  UNL     1     -20.730   3.831 -14.236  1.00  0.00    -0.241 OA
HETATM   35  N4  UNL     1     -21.736   3.030 -14.152  1.00  0.00    -0.245 N 
ATOM     36  H4  UNL     1     -22.696   3.306 -13.948  1.00  0.00     0.196 HD
ENDBRANCH  27  30
ENDBRANCH   4  24
TORSDOF 6
ENDMDL
