MODEL 1
REMARK VINA RESULT: -9.655063027      0.000      0.000
REMARK  5 active torsions:
REMARK  status: ('A' for Active; 'I' for Inactive)
REMARK    1  A    between atoms: N1_2  and  C2_3 
REMARK    2  A    between atoms: N1_2  and  S1_22 
REMARK    3  A    between atoms: N3_8  and  C4_9 
REMARK    4  A    between atoms: C4_9  and  C5_10 
REMARK    5  A    between atoms: S1_22  and  C13_25 
ROOT
HETATM    1  C2  UNL     1      33.081 -19.038  57.420  1.00  0.00     0.233 C 
HETATM    2  C3  UNL     1      33.963 -20.202  57.488  1.00  0.00     0.110 C 
HETATM    3  N2  UNL     1      33.733 -21.074  58.417  1.00  0.00    -0.387 N 
ATOM      4  H21 UNL     1      34.348 -21.885  58.465  1.00  0.00     0.157 HD
ATOM      5  H22 UNL     1      32.966 -20.960  59.080  1.00  0.00     0.157 HD
HETATM    6  N3  UNL     1      35.025 -20.360  56.570  1.00  0.00    -0.283 N 
HETATM    7  C11 UNL     1      35.423 -19.333  55.670  1.00  0.00     0.330 C 
HETATM    8  O1  UNL     1      36.369 -19.469  54.851  1.00  0.00    -0.246 OA
HETATM    9  N4  UNL     1      34.696 -18.114  55.728  1.00  0.00    -0.277 N 
ATOM     10  H4  UNL     1      34.958 -17.359  55.095  1.00  0.00     0.173 HD
HETATM   11  C12 UNL     1      33.621 -17.902  56.630  1.00  0.00     0.252 C 
HETATM   12  O2  UNL     1      33.140 -16.737  56.742  1.00  0.00    -0.271 OA
ENDROOT
BRANCH   1  13
HETATM   13  N1  UNL     1      32.695 -18.603  58.720  1.00  0.00    -0.190 NA
HETATM   14  C1  UNL     1      33.064 -17.282  59.097  1.00  0.00     0.131 C 
BRANCH  13  15
HETATM   15  S1  UNL     1      30.999 -18.805  58.918  1.00  0.00     0.244 S 
HETATM   16  O3  UNL     1      30.726 -20.289  58.982  1.00  0.00    -0.206 OA
HETATM   17  O4  UNL     1      30.552 -18.125  60.188  1.00  0.00    -0.206 OA
BRANCH  15  18
HETATM   18  C13 UNL     1      30.186 -18.152  57.531  1.00  0.00     0.074 A 
HETATM   19  C14 UNL     1      29.776 -16.835  57.570  1.00  0.00     0.025 A 
HETATM   20  C15 UNL     1      29.127 -16.270  56.498  1.00  0.00     0.002 A 
HETATM   21  C16 UNL     1      28.884 -17.015  55.377  1.00  0.00     0.000 A 
HETATM   22  C17 UNL     1      29.296 -18.325  55.344  1.00  0.00     0.002 A 
HETATM   23  C18 UNL     1      29.939 -18.917  56.389  1.00  0.00     0.025 A 
ENDBRANCH  15  18
ENDBRANCH  13  15
ENDBRANCH   1  13
BRANCH   6  24
HETATM   24  C4  UNL     1      35.746 -21.622  56.539  1.00  0.00     0.173 C 
BRANCH  24  25
HETATM   25  C5  UNL     1      35.111 -22.559  55.586  1.00  0.00    -0.040 A 
HETATM   26  C6  UNL     1      34.951 -22.293  54.241  1.00  0.00     0.009 A 
HETATM   27  C7  UNL     1      34.359 -23.174  53.371  1.00  0.00     0.001 A 
HETATM   28  C8  UNL     1      33.897 -24.380  53.834  1.00  0.00     0.000 A 
HETATM   29  C9  UNL     1      34.046 -24.673  55.185  1.00  0.00     0.001 A 
HETATM   30  C10 UNL     1      34.643 -23.773  56.040  1.00  0.00     0.009 A 
ENDBRANCH  24  25
ENDBRANCH   6  24
TORSDOF 5
ENDMDL
