MODEL 3
REMARK VINA RESULT: -9.325756203      2.754      6.717
REMARK  5 active torsions:
REMARK  status: ('A' for Active; 'I' for Inactive)
REMARK    1  A    between atoms: N1_2  and  C2_3 
REMARK    2  A    between atoms: N1_2  and  S1_22 
REMARK    3  A    between atoms: N3_8  and  C4_9 
REMARK    4  A    between atoms: C4_9  and  C5_10 
REMARK    5  A    between atoms: S1_22  and  C13_25 
ROOT
HETATM    1  C2  UNL     1      32.852 -20.826  59.673  1.00  0.00     0.233 C 
HETATM    2  C3  UNL     1      32.912 -20.009  58.462  1.00  0.00     0.110 C 
HETATM    3  N2  UNL     1      33.137 -20.616  57.341  1.00  0.00    -0.387 N 
ATOM      4  H21 UNL     1      33.179 -20.047  56.497  1.00  0.00     0.157 HD
ATOM      5  H22 UNL     1      33.269 -21.627  57.296  1.00  0.00     0.157 HD
HETATM    6  N3  UNL     1      32.729 -18.610  58.523  1.00  0.00    -0.283 N 
HETATM    7  C11 UNL     1      32.675 -17.894  59.751  1.00  0.00     0.330 C 
HETATM    8  O1  UNL     1      32.514 -16.647  59.810  1.00  0.00    -0.246 OA
HETATM    9  N4  UNL     1      32.815 -18.656  60.942  1.00  0.00    -0.277 N 
ATOM     10  H4  UNL     1      32.782 -18.171  61.838  1.00  0.00     0.173 HD
HETATM   11  C12 UNL     1      33.000 -20.063  60.938  1.00  0.00     0.252 C 
HETATM   12  O2  UNL     1      33.291 -20.642  62.024  1.00  0.00    -0.271 OA
ENDROOT
BRANCH   1  13
HETATM   13  N1  UNL     1      33.792 -21.896  59.623  1.00  0.00    -0.190 NA
HETATM   14  C1  UNL     1      34.930 -21.798  60.470  1.00  0.00     0.131 C 
BRANCH  13  15
HETATM   15  S1  UNL     1      32.985 -23.387  59.912  1.00  0.00     0.244 S 
HETATM   16  O3  UNL     1      33.262 -23.781  61.343  1.00  0.00    -0.206 OA
HETATM   17  O4  UNL     1      31.504 -23.214  59.684  1.00  0.00    -0.206 OA
BRANCH  15  18
HETATM   18  C13 UNL     1      33.648 -24.601  58.865  1.00  0.00     0.074 A 
HETATM   19  C14 UNL     1      33.906 -24.268  57.552  1.00  0.00     0.025 A 
HETATM   20  C15 UNL     1      34.431 -25.193  56.682  1.00  0.00     0.002 A 
HETATM   21  C16 UNL     1      34.703 -26.461  57.117  1.00  0.00     0.000 A 
HETATM   22  C17 UNL     1      34.445 -26.787  58.426  1.00  0.00     0.002 A 
HETATM   23  C18 UNL     1      33.924 -25.895  59.314  1.00  0.00     0.025 A 
ENDBRANCH  15  18
ENDBRANCH  13  15
ENDBRANCH   1  13
BRANCH   6  24
HETATM   24  C4  UNL     1      32.589 -17.863  57.283  1.00  0.00     0.173 C 
BRANCH  24  25
HETATM   25  C5  UNL     1      31.195 -17.932  56.790  1.00  0.00    -0.040 A 
HETATM   26  C6  UNL     1      30.130 -17.313  57.414  1.00  0.00     0.009 A 
HETATM   27  C7  UNL     1      28.843 -17.388  56.944  1.00  0.00     0.001 A 
HETATM   28  C8  UNL     1      28.577 -18.104  55.803  1.00  0.00     0.000 A 
HETATM   29  C9  UNL     1      29.632 -18.737  55.156  1.00  0.00     0.001 A 
HETATM   30  C10 UNL     1      30.916 -18.648  55.647  1.00  0.00     0.009 A 
ENDBRANCH  24  25
ENDBRANCH   6  24
TORSDOF 5
ENDMDL
