MODEL 5
REMARK VINA RESULT: -9.237620938      2.802      6.578
REMARK  5 active torsions:
REMARK  status: ('A' for Active; 'I' for Inactive)
REMARK    1  A    between atoms: N1_2  and  C2_3 
REMARK    2  A    between atoms: N1_2  and  S1_22 
REMARK    3  A    between atoms: N3_8  and  C4_9 
REMARK    4  A    between atoms: C4_9  and  C5_10 
REMARK    5  A    between atoms: S1_22  and  C13_25 
ROOT
HETATM    1  C2  UNL     1      35.483 -19.941  56.691  1.00  0.00     0.233 C 
HETATM    2  C3  UNL     1      34.451 -19.107  57.305  1.00  0.00     0.110 C 
HETATM    3  N2  UNL     1      33.798 -19.604  58.307  1.00  0.00    -0.387 N 
ATOM      4  H21 UNL     1      33.078 -19.022  58.735  1.00  0.00     0.157 HD
ATOM      5  H22 UNL     1      33.992 -20.541  58.661  1.00  0.00     0.157 HD
HETATM    6  N3  UNL     1      34.183 -17.809  56.816  1.00  0.00    -0.283 N 
HETATM    7  C11 UNL     1      34.741 -17.313  55.605  1.00  0.00     0.330 C 
HETATM    8  O1  UNL     1      34.504 -16.158  55.165  1.00  0.00    -0.246 OA
HETATM    9  N4  UNL     1      35.597 -18.191  54.889  1.00  0.00    -0.277 N 
ATOM     10  H4  UNL     1      36.012 -17.865  54.016  1.00  0.00     0.173 HD
HETATM   11  C12 UNL     1      35.900 -19.504  55.335  1.00  0.00     0.252 C 
HETATM   12  O2  UNL     1      36.527 -20.282  54.558  1.00  0.00    -0.271 OA
ENDROOT
BRANCH   1  13
HETATM   13  N1  UNL     1      35.101 -21.314  56.678  1.00  0.00    -0.190 NA
HETATM   14  C1  UNL     1      34.761 -21.878  55.418  1.00  0.00     0.131 C 
BRANCH  13  15
HETATM   15  S1  UNL     1      36.327 -22.262  57.422  1.00  0.00     0.244 S 
HETATM   16  O3  UNL     1      36.501 -23.509  56.589  1.00  0.00    -0.206 OA
HETATM   17  O4  UNL     1      37.613 -21.475  57.478  1.00  0.00    -0.206 OA
BRANCH  15  18
HETATM   18  C13 UNL     1      35.800 -22.725  59.009  1.00  0.00     0.074 A 
HETATM   19  C14 UNL     1      34.475 -23.064  59.188  1.00  0.00     0.025 A 
HETATM   20  C15 UNL     1      34.007 -23.438  60.425  1.00  0.00     0.002 A 
HETATM   21  C16 UNL     1      34.859 -23.477  61.494  1.00  0.00     0.000 A 
HETATM   22  C17 UNL     1      36.177 -23.139  61.309  1.00  0.00     0.002 A 
HETATM   23  C18 UNL     1      36.674 -22.763  60.098  1.00  0.00     0.025 A 
ENDBRANCH  15  18
ENDBRANCH  13  15
ENDBRANCH   1  13
BRANCH   6  24
HETATM   24  C4  UNL     1      33.301 -16.939  57.577  1.00  0.00     0.173 C 
BRANCH  24  25
HETATM   25  C5  UNL     1      31.885 -17.282  57.319  1.00  0.00    -0.040 A 
HETATM   26  C6  UNL     1      31.392 -17.617  56.073  1.00  0.00     0.009 A 
HETATM   27  C7  UNL     1      30.075 -17.932  55.851  1.00  0.00     0.001 A 
HETATM   28  C8  UNL     1      29.188 -17.923  56.898  1.00  0.00     0.000 A 
HETATM   29  C9  UNL     1      29.659 -17.590  58.163  1.00  0.00     0.001 A 
HETATM   30  C10 UNL     1      30.985 -17.276  58.362  1.00  0.00     0.009 A 
ENDBRANCH  24  25
ENDBRANCH   6  24
TORSDOF 5
ENDMDL
