MODEL 2
REMARK VINA RESULT: -9.509456958      0.056      1.292
REMARK  5 active torsions:
REMARK  status: ('A' for Active; 'I' for Inactive)
REMARK    1  A    between atoms: N1_2  and  C2_3 
REMARK    2  A    between atoms: N1_2  and  S1_22 
REMARK    3  A    between atoms: N3_8  and  C4_9 
REMARK    4  A    between atoms: C4_9  and  C5_10 
REMARK    5  A    between atoms: S1_22  and  C13_25 
ROOT
HETATM    1  C2  UNL     1      33.073 -19.026  57.399  1.00  0.00     0.233 C 
HETATM    2  C3  UNL     1      33.974 -20.175  57.477  1.00  0.00     0.110 C 
HETATM    3  N2  UNL     1      33.766 -21.035  58.422  1.00  0.00    -0.387 N 
ATOM      4  H21 UNL     1      34.394 -21.837  58.476  1.00  0.00     0.157 HD
ATOM      5  H22 UNL     1      33.004 -20.923  59.091  1.00  0.00     0.157 HD
HETATM    6  N3  UNL     1      35.028 -20.332  56.550  1.00  0.00    -0.283 N 
HETATM    7  C11 UNL     1      35.401 -19.314  55.630  1.00  0.00     0.330 C 
HETATM    8  O1  UNL     1      36.341 -19.449  54.804  1.00  0.00    -0.246 OA
HETATM    9  N4  UNL     1      34.657 -18.106  55.676  1.00  0.00    -0.277 N 
ATOM     10  H4  UNL     1      34.901 -17.356  55.029  1.00  0.00     0.173 HD
HETATM   11  C12 UNL     1      33.588 -17.895  56.586  1.00  0.00     0.252 C 
HETATM   12  O2  UNL     1      33.091 -16.736  56.684  1.00  0.00    -0.271 OA
ENDROOT
BRANCH   1  13
HETATM   13  N1  UNL     1      32.694 -18.576  58.697  1.00  0.00    -0.190 NA
HETATM   14  C1  UNL     1      33.054 -17.246  59.051  1.00  0.00     0.131 C 
BRANCH  13  15
HETATM   15  S1  UNL     1      31.002 -18.791  58.911  1.00  0.00     0.244 S 
HETATM   16  O3  UNL     1      30.734 -20.277  58.926  1.00  0.00    -0.206 OA
HETATM   17  O4  UNL     1      30.571 -18.159  60.211  1.00  0.00    -0.206 OA
BRANCH  15  18
HETATM   18  C13 UNL     1      30.167 -18.091  57.561  1.00  0.00     0.074 A 
HETATM   19  C14 UNL     1      29.904 -18.888  56.465  1.00  0.00     0.025 A 
HETATM   20  C15 UNL     1      29.246 -18.381  55.370  1.00  0.00     0.002 A 
HETATM   21  C16 UNL     1      28.842 -17.075  55.360  1.00  0.00     0.000 A 
HETATM   22  C17 UNL     1      29.104 -16.287  56.454  1.00  0.00     0.002 A 
HETATM   23  C18 UNL     1      29.756 -16.756  57.555  1.00  0.00     0.025 A 
ENDBRANCH  15  18
ENDBRANCH  13  15
ENDBRANCH   1  13
BRANCH   6  24
HETATM   24  C4  UNL     1      35.769 -21.584  56.532  1.00  0.00     0.173 C 
BRANCH  24  25
HETATM   25  C5  UNL     1      35.117 -22.558  55.628  1.00  0.00    -0.040 A 
HETATM   26  C6  UNL     1      34.613 -23.774  56.047  1.00  0.00     0.009 A 
HETATM   27  C7  UNL     1      34.013 -24.666  55.195  1.00  0.00     0.001 A 
HETATM   28  C8  UNL     1      33.894 -24.360  53.862  1.00  0.00     0.000 A 
HETATM   29  C9  UNL     1      34.394 -23.142  53.415  1.00  0.00     0.001 A 
HETATM   30  C10 UNL     1      34.994 -22.262  54.288  1.00  0.00     0.009 A 
ENDBRANCH  24  25
ENDBRANCH   6  24
TORSDOF 5
ENDMDL
