MODEL 6
REMARK VINA RESULT: -9.206094336      2.379      6.585
REMARK  5 active torsions:
REMARK  status: ('A' for Active; 'I' for Inactive)
REMARK    1  A    between atoms: N1_2  and  C2_3 
REMARK    2  A    between atoms: N1_2  and  S1_22 
REMARK    3  A    between atoms: N3_8  and  C4_9 
REMARK    4  A    between atoms: C4_9  and  C5_10 
REMARK    5  A    between atoms: S1_22  and  C13_25 
ROOT
HETATM    1  C2  UNL     1      33.275 -21.412  58.408  1.00  0.00     0.233 C 
HETATM    2  C3  UNL     1      33.139 -20.046  57.906  1.00  0.00     0.110 C 
HETATM    3  N2  UNL     1      33.810 -19.729  56.845  1.00  0.00    -0.387 N 
ATOM      4  H21 UNL     1      33.716 -18.776  56.494  1.00  0.00     0.157 HD
ATOM      5  H22 UNL     1      34.412 -20.403  56.371  1.00  0.00     0.157 HD
HETATM    6  N3  UNL     1      32.305 -19.113  58.561  1.00  0.00    -0.283 N 
HETATM    7  C11 UNL     1      31.714 -19.368  59.829  1.00  0.00     0.330 C 
HETATM    8  O1  UNL     1      30.971 -18.539  60.417  1.00  0.00    -0.246 OA
HETATM    9  N4  UNL     1      31.998 -20.625  60.426  1.00  0.00    -0.277 N 
ATOM     10  H4  UNL     1      31.589 -20.837  61.336  1.00  0.00     0.173 HD
HETATM   11  C12 UNL     1      32.828 -21.598  59.812  1.00  0.00     0.252 C 
HETATM   12  O2  UNL     1      33.173 -22.615  60.481  1.00  0.00    -0.271 OA
ENDROOT
BRANCH   1  13
HETATM   13  N1  UNL     1      34.603 -21.898  58.238  1.00  0.00    -0.190 NA
HETATM   14  C1  UNL     1      35.446 -21.891  59.384  1.00  0.00     0.131 C 
BRANCH  13  15
HETATM   15  S1  UNL     1      34.558 -23.479  57.566  1.00  0.00     0.244 S 
HETATM   16  O3  UNL     1      35.816 -24.192  58.002  1.00  0.00    -0.206 OA
HETATM   17  O4  UNL     1      33.334 -24.207  58.061  1.00  0.00    -0.206 OA
BRANCH  15  18
HETATM   18  C13 UNL     1      34.563 -23.358  55.834  1.00  0.00     0.074 A 
HETATM   19  C14 UNL     1      34.119 -24.437  55.099  1.00  0.00     0.025 A 
HETATM   20  C15 UNL     1      34.103 -24.392  53.725  1.00  0.00     0.002 A 
HETATM   21  C16 UNL     1      34.530 -23.268  53.074  1.00  0.00     0.000 A 
HETATM   22  C17 UNL     1      34.970 -22.196  53.812  1.00  0.00     0.002 A 
HETATM   23  C18 UNL     1      35.000 -22.207  55.174  1.00  0.00     0.025 A 
ENDBRANCH  15  18
ENDBRANCH  13  15
ENDBRANCH   1  13
BRANCH   6  24
HETATM   24  C4  UNL     1      32.037 -17.836  57.919  1.00  0.00     0.173 C 
BRANCH  24  25
HETATM   25  C5  UNL     1      30.808 -17.917  57.098  1.00  0.00    -0.040 A 
HETATM   26  C6  UNL     1      30.742 -18.564  55.879  1.00  0.00     0.009 A 
HETATM   27  C7  UNL     1      29.595 -18.628  55.130  1.00  0.00     0.001 A 
HETATM   28  C8  UNL     1      28.447 -18.033  55.591  1.00  0.00     0.000 A 
HETATM   29  C9  UNL     1      28.487 -17.375  56.815  1.00  0.00     0.001 A 
HETATM   30  C10 UNL     1      29.651 -17.323  57.550  1.00  0.00     0.009 A 
ENDBRANCH  24  25
ENDBRANCH   6  24
TORSDOF 5
ENDMDL
