MODEL 1
REMARK VINA RESULT: -9.904132677      0.000      0.000
REMARK  4 active torsions:
REMARK  status: ('A' for Active; 'I' for Inactive)
REMARK       I    between atoms: C1_2  and  N2_4 
REMARK    1  A    between atoms: N2_4  and  C2_6 
REMARK    2  A    between atoms: C3_10  and  S2_11 
REMARK    3  A    between atoms: S2_11  and  C4_12 
REMARK    4  A    between atoms: C15_23  and  C16_24 
ROOT
HETATM    1  C2  UNL     1      11.283 -29.043 -20.385  1.00  0.00     0.112 A 
HETATM    2  S1  UNL     1      10.144 -30.300 -20.411  1.00  0.00     0.006 SA
HETATM    3  N3  UNL     1       9.528 -30.149 -18.857  1.00  0.00    -0.318 N 
ATOM      4  H3  UNL     1       8.800 -30.708 -18.413  1.00  0.00     0.175 HD
HETATM    5  C3  UNL     1      10.214 -29.126 -18.337  1.00  0.00     0.095 A 
HETATM    6  C15 UNL     1      11.138 -28.528 -19.111  1.00  0.00     0.098 A 
ENDROOT
BRANCH   5   7
HETATM    7  S2  UNL     1       9.851 -28.624 -16.614  1.00  0.00    -0.101 SA
BRANCH   7   8
HETATM    8  C4  UNL     1       8.163 -27.969 -16.493  1.00  0.00     0.087 C 
HETATM    9  C5  UNL     1       7.839 -26.944 -17.524  1.00  0.00     0.020 C 
HETATM   10  C6  UNL     1       6.375 -26.593 -17.420  1.00  0.00     0.002 C 
HETATM   11  C7  UNL     1       6.326 -25.295 -16.611  1.00  0.00     0.005 C 
HETATM   12  C8  UNL     1       6.088 -25.684 -15.194  1.00  0.00     0.039 C 
HETATM   13  C9  UNL     1       7.099 -26.550 -14.589  1.00  0.00    -0.051 A 
HETATM   14  C10 UNL     1       7.120 -26.298 -13.210  1.00  0.00     0.007 A 
HETATM   15  C14 UNL     1       7.949 -27.488 -15.126  1.00  0.00    -0.038 A 
HETATM   16  C11 UNL     1       7.969 -26.965 -12.376  1.00  0.00     0.001 A 
HETATM   17  C12 UNL     1       8.821 -27.906 -12.912  1.00  0.00     0.001 A 
HETATM   18  C13 UNL     1       8.808 -28.158 -14.258  1.00  0.00     0.009 A 
ENDBRANCH   7   8
ENDBRANCH   5   7
BRANCH   6  19
HETATM   19  C16 UNL     1      11.979 -27.386 -18.657  1.00  0.00     0.270 C 
HETATM   20  N4  UNL     1      13.357 -27.589 -18.396  1.00  0.00    -0.057 NA
HETATM   21  O2  UNL     1      11.474 -26.267 -18.511  1.00  0.00    -0.271 OA
ENDBRANCH   6  19
BRANCH   1  22
HETATM   22  N2  UNL     1      12.095 -28.669 -21.344  1.00  0.00    -0.303 N 
HETATM   23  C1  UNL     1      13.031 -29.592 -21.871  1.00  0.00     0.333 C 
HETATM   24  N1  UNL     1      13.930 -30.295 -21.043  1.00  0.00    -0.040 NA
HETATM   25  O1  UNL     1      13.057 -29.788 -23.105  1.00  0.00    -0.251 OA
ATOM     26  H2  UNL     1      12.054 -27.717 -21.708  1.00  0.00     0.171 HD
ENDBRANCH   1  22
TORSDOF 4
ENDMDL
