MODEL 6
REMARK VINA RESULT: -9.083387593      1.736      3.245
REMARK  4 active torsions:
REMARK  status: ('A' for Active; 'I' for Inactive)
REMARK       I    between atoms: C1_2  and  N2_4 
REMARK    1  A    between atoms: N2_4  and  C2_6 
REMARK    2  A    between atoms: C3_10  and  S2_11 
REMARK    3  A    between atoms: S2_11  and  C4_12 
REMARK    4  A    between atoms: C15_23  and  C16_24 
ROOT
HETATM    1  C2  UNL     1      12.723 -29.421 -19.308  1.00  0.00     0.112 A 
HETATM    2  S1  UNL     1      13.568 -29.090 -17.874  1.00  0.00     0.006 SA
HETATM    3  N3  UNL     1      12.298 -29.165 -16.780  1.00  0.00    -0.318 N 
ATOM      4  H3  UNL     1      12.330 -29.028 -15.770  1.00  0.00     0.175 HD
HETATM    5  C3  UNL     1      11.234 -29.445 -17.539  1.00  0.00     0.095 A 
HETATM    6  C15 UNL     1      11.425 -29.584 -18.864  1.00  0.00     0.098 A 
ENDROOT
BRANCH   5   7
HETATM    7  S2  UNL     1       9.602 -29.608 -16.724  1.00  0.00    -0.101 SA
BRANCH   7   8
HETATM    8  C4  UNL     1       9.451 -28.400 -15.378  1.00  0.00     0.087 C 
HETATM    9  C5  UNL     1       9.472 -29.007 -14.018  1.00  0.00     0.020 C 
HETATM   10  C6  UNL     1       9.496 -27.902 -12.991  1.00  0.00     0.002 C 
HETATM   11  C7  UNL     1       8.046 -27.750 -12.524  1.00  0.00     0.005 C 
HETATM   12  C8  UNL     1       7.449 -26.656 -13.338  1.00  0.00     0.039 C 
HETATM   13  C9  UNL     1       7.433 -26.869 -14.784  1.00  0.00    -0.051 A 
HETATM   14  C10 UNL     1       6.340 -26.169 -15.317  1.00  0.00     0.007 A 
HETATM   15  C14 UNL     1       8.258 -27.585 -15.619  1.00  0.00    -0.038 A 
HETATM   16  C11 UNL     1       6.070 -26.178 -16.653  1.00  0.00     0.001 A 
HETATM   17  C12 UNL     1       6.895 -26.895 -17.492  1.00  0.00     0.001 A 
HETATM   18  C13 UNL     1       7.964 -27.582 -16.981  1.00  0.00     0.009 A 
ENDBRANCH   7   8
ENDBRANCH   5   7
BRANCH   6  19
HETATM   19  C16 UNL     1      10.329 -29.886 -19.827  1.00  0.00     0.270 C 
HETATM   20  N4  UNL     1      10.529 -30.865 -20.832  1.00  0.00    -0.057 NA
HETATM   21  O2  UNL     1       9.252 -29.286 -19.744  1.00  0.00    -0.271 OA
ENDBRANCH   6  19
BRANCH   1  22
HETATM   22  N2  UNL     1      13.199 -29.496 -20.527  1.00  0.00    -0.303 N 
HETATM   23  C1  UNL     1      14.287 -30.359 -20.804  1.00  0.00     0.333 C 
HETATM   24  N1  UNL     1      15.490 -30.300 -20.070  1.00  0.00    -0.040 NA
HETATM   25  O1  UNL     1      14.176 -31.197 -21.724  1.00  0.00    -0.251 OA
ATOM     26  H2  UNL     1      12.788 -28.935 -21.273  1.00  0.00     0.171 HD
ENDBRANCH   1  22
TORSDOF 4
ENDMDL
