MODEL 5
REMARK VINA RESULT: -9.168777671      1.565      2.115
REMARK  4 active torsions:
REMARK  status: ('A' for Active; 'I' for Inactive)
REMARK       I    between atoms: C1_2  and  N2_4 
REMARK    1  A    between atoms: N2_4  and  C2_6 
REMARK    2  A    between atoms: C3_10  and  S2_11 
REMARK    3  A    between atoms: S2_11  and  C4_12 
REMARK    4  A    between atoms: C15_23  and  C16_24 
ROOT
HETATM    1  C2  UNL     1      11.152 -28.527 -20.038  1.00  0.00     0.112 A 
HETATM    2  S1  UNL     1      12.175 -27.362 -19.347  1.00  0.00     0.006 SA
HETATM    3  N3  UNL     1      11.617 -27.406 -17.765  1.00  0.00    -0.318 N 
ATOM      4  H3  UNL     1      11.944 -26.860 -16.969  1.00  0.00     0.175 HD
HETATM    5  C3  UNL     1      10.643 -28.322 -17.792  1.00  0.00     0.095 A 
HETATM    6  C15 UNL     1      10.377 -28.924 -18.965  1.00  0.00     0.098 A 
ENDROOT
BRANCH   5   7
HETATM    7  S2  UNL     1       9.743 -28.679 -16.238  1.00  0.00    -0.101 SA
BRANCH   7   8
HETATM    8  C4  UNL     1       8.082 -27.950 -16.294  1.00  0.00     0.087 C 
HETATM    9  C5  UNL     1       7.883 -26.990 -17.415  1.00  0.00     0.020 C 
HETATM   10  C6  UNL     1       6.433 -26.573 -17.449  1.00  0.00     0.002 C 
HETATM   11  C7  UNL     1       6.383 -25.219 -16.737  1.00  0.00     0.005 C 
HETATM   12  C8  UNL     1       6.022 -25.496 -15.320  1.00  0.00     0.039 C 
HETATM   13  C9  UNL     1       6.945 -26.356 -14.581  1.00  0.00    -0.051 A 
HETATM   14  C10 UNL     1       6.875 -26.007 -13.224  1.00  0.00     0.007 A 
HETATM   15  C14 UNL     1       7.789 -27.363 -14.984  1.00  0.00    -0.038 A 
HETATM   16  C11 UNL     1       7.628 -26.646 -12.283  1.00  0.00     0.001 A 
HETATM   17  C12 UNL     1       8.474 -27.656 -12.685  1.00  0.00     0.001 A 
HETATM   18  C13 UNL     1       8.549 -28.004 -14.008  1.00  0.00     0.009 A 
ENDBRANCH   7   8
ENDBRANCH   5   7
BRANCH   6  19
HETATM   19  C16 UNL     1       9.315 -29.954 -19.141  1.00  0.00     0.270 C 
HETATM   20  N4  UNL     1       9.177 -30.989 -18.182  1.00  0.00    -0.057 NA
HETATM   21  O2  UNL     1       8.559 -29.901 -20.117  1.00  0.00    -0.271 OA
ENDBRANCH   6  19
BRANCH   1  22
HETATM   22  N2  UNL     1      11.116 -28.933 -21.284  1.00  0.00    -0.303 N 
HETATM   23  C1  UNL     1      11.771 -30.134 -21.649  1.00  0.00     0.333 C 
HETATM   24  N1  UNL     1      13.131 -30.360 -21.353  1.00  0.00    -0.040 NA
HETATM   25  O1  UNL     1      11.124 -31.018 -22.251  1.00  0.00    -0.251 OA
ATOM     26  H2  UNL     1      10.619 -28.387 -21.987  1.00  0.00     0.171 HD
ENDBRANCH   1  22
TORSDOF 4
ENDMDL
