MODEL 7
REMARK VINA RESULT: -6.337104811      2.161      3.546
REMARK  10 active torsions:
REMARK  status: ('A' for Active; 'I' for Inactive)
REMARK    1  A    between atoms: O1_2  and  C2_3 
REMARK    2  A    between atoms: C5_6  and  C6_7 
REMARK    3  A    between atoms: C7_8  and  C8_9 
REMARK    4  A    between atoms: C8_9  and  O2_10 
REMARK    5  A    between atoms: O2_10  and  C9_11 
REMARK    6  A    between atoms: C10_13  and  C11_14 
REMARK    7  A    between atoms: C11_14  and  O4_15 
REMARK    8  A    between atoms: C12_17  and  O5_18 
REMARK    9  A    between atoms: C13_20  and  O6_21 
REMARK   10  A    between atoms: C14_23  and  O7_24 
ROOT
HETATM    1  C9  UNL     1     -14.104  -0.306 -13.145  1.00  0.00     0.292 C 
HETATM    2  O3  UNL     1     -15.344  -0.128 -12.533  1.00  0.00    -0.348 OA
HETATM    3  C10 UNL     1     -15.222   0.369 -11.244  1.00  0.00     0.179 C 
HETATM    4  C12 UNL     1     -14.291  -0.405 -10.371  1.00  0.00     0.180 C 
HETATM    5  C13 UNL     1     -12.966  -0.732 -11.044  1.00  0.00     0.183 C 
HETATM    6  C14 UNL     1     -13.342  -1.369 -12.389  1.00  0.00     0.204 C 
ENDROOT
BRANCH   1   7
HETATM    7  O2  UNL     1     -14.331  -0.616 -14.466  1.00  0.00    -0.347 OA
BRANCH   7   8
HETATM    8  C8  UNL     1     -14.750   0.513 -15.129  1.00  0.00     0.265 C 
BRANCH   8   9
HETATM    9  C7  UNL     1     -13.604   1.407 -15.287  1.00  0.00    -0.075 C 
HETATM   10  C6  UNL     1     -12.668   2.165 -15.416  1.00  0.00    -0.065 C 
BRANCH  10  11
HETATM   11  C5  UNL     1     -11.561   3.065 -15.591  1.00  0.00     0.018 A 
HETATM   12  C4  UNL     1     -10.506   3.113 -14.704  1.00  0.00     0.023 A 
HETATM   13  C3  UNL     1      -9.449   3.982 -14.883  1.00  0.00     0.038 A 
HETATM   14  C2  UNL     1      -9.393   4.847 -15.957  1.00  0.00     0.068 A 
HETATM   15  C16 UNL     1     -10.444   4.806 -16.848  1.00  0.00     0.038 A 
HETATM   16  C15 UNL     1     -11.499   3.939 -16.669  1.00  0.00     0.023 A 
BRANCH  14  17
HETATM   17  O1  UNL     1      -8.316   5.727 -16.131  1.00  0.00    -0.356 OA
HETATM   18  C1  UNL     1      -8.603   7.101 -16.288  1.00  0.00     0.210 C 
ENDBRANCH  14  17
ENDBRANCH  10  11
ENDBRANCH   8   9
ENDBRANCH   7   8
ENDBRANCH   1   7
BRANCH   6  19
HETATM   19  O7  UNL     1     -12.261  -1.878 -13.059  1.00  0.00    -0.388 OA
ATOM     20  H7  UNL     1     -12.476  -2.527 -13.718  1.00  0.00     0.210 HD
ENDBRANCH   6  19
BRANCH   3  21
HETATM   21  C11 UNL     1     -14.921   1.856 -11.221  1.00  0.00     0.198 C 
BRANCH  21  22
HETATM   22  O4  UNL     1     -14.476   2.236  -9.964  1.00  0.00    -0.398 OA
ATOM     23  H4  UNL     1     -15.054   2.895  -9.597  1.00  0.00     0.209 HD
ENDBRANCH  21  22
ENDBRANCH   3  21
BRANCH   5  24
HETATM   24  O6  UNL     1     -12.260   0.457 -11.251  1.00  0.00    -0.390 OA
ATOM     25  H6  UNL     1     -11.356   0.326 -10.990  1.00  0.00     0.210 HD
ENDBRANCH   5  24
BRANCH   4  26
HETATM   26  O5  UNL     1     -14.898  -1.639 -10.096  1.00  0.00    -0.390 OA
ATOM     27  H5  UNL     1     -14.995  -1.707  -9.153  1.00  0.00     0.210 HD
ENDBRANCH   4  26
TORSDOF 10
ENDMDL
