MODEL 3
REMARK VINA RESULT: -6.481635903      2.671      4.197
REMARK  10 active torsions:
REMARK  status: ('A' for Active; 'I' for Inactive)
REMARK    1  A    between atoms: O1_2  and  C2_3 
REMARK    2  A    between atoms: C5_6  and  C6_7 
REMARK    3  A    between atoms: C7_8  and  C8_9 
REMARK    4  A    between atoms: C8_9  and  O2_10 
REMARK    5  A    between atoms: O2_10  and  C9_11 
REMARK    6  A    between atoms: C10_13  and  C11_14 
REMARK    7  A    between atoms: C11_14  and  O4_15 
REMARK    8  A    between atoms: C12_17  and  O5_18 
REMARK    9  A    between atoms: C13_20  and  O6_21 
REMARK   10  A    between atoms: C14_23  and  O7_24 
ROOT
HETATM    1  C9  UNL     1     -14.592  -0.247 -13.137  1.00  0.00     0.292 C 
HETATM    2  O3  UNL     1     -15.721  -0.139 -12.325  1.00  0.00    -0.348 OA
HETATM    3  C10 UNL     1     -15.417   0.389 -11.079  1.00  0.00     0.179 C 
HETATM    4  C12 UNL     1     -14.302  -0.306 -10.371  1.00  0.00     0.180 C 
HETATM    5  C13 UNL     1     -13.091  -0.557 -11.256  1.00  0.00     0.183 C 
HETATM    6  C14 UNL     1     -13.643  -1.244 -12.513  1.00  0.00     0.204 C 
ENDROOT
BRANCH   1   7
HETATM    7  O2  UNL     1     -15.017  -0.597 -14.398  1.00  0.00    -0.347 OA
BRANCH   7   8
HETATM    8  C8  UNL     1     -15.133   0.537 -15.167  1.00  0.00     0.265 C 
BRANCH   8   9
HETATM    9  C7  UNL     1     -13.864   1.261 -15.114  1.00  0.00    -0.075 C 
HETATM   10  C6  UNL     1     -12.801   1.841 -15.074  1.00  0.00    -0.065 C 
BRANCH  10  11
HETATM   11  C5  UNL     1     -11.540   2.526 -15.004  1.00  0.00     0.018 A 
HETATM   12  C4  UNL     1     -10.507   2.083 -14.204  1.00  0.00     0.023 A 
HETATM   13  C3  UNL     1      -9.300   2.750 -14.145  1.00  0.00     0.038 A 
HETATM   14  C2  UNL     1      -9.065   3.894 -14.881  1.00  0.00     0.068 A 
HETATM   15  C16 UNL     1     -10.092   4.344 -15.682  1.00  0.00     0.038 A 
HETATM   16  C15 UNL     1     -11.297   3.678 -15.741  1.00  0.00     0.023 A 
BRANCH  14  17
HETATM   17  O1  UNL     1      -7.836   4.566 -14.814  1.00  0.00    -0.356 OA
HETATM   18  C1  UNL     1      -7.344   4.920 -13.539  1.00  0.00     0.210 C 
ENDBRANCH  14  17
ENDBRANCH  10  11
ENDBRANCH   8   9
ENDBRANCH   7   8
ENDBRANCH   1   7
BRANCH   6  19
HETATM   19  O7  UNL     1     -12.659  -1.693 -13.352  1.00  0.00    -0.388 OA
ATOM     20  H7  UNL     1     -12.196  -2.462 -13.040  1.00  0.00     0.210 HD
ENDBRANCH   6  19
BRANCH   3  21
HETATM   21  C11 UNL     1     -15.218   1.893 -11.119  1.00  0.00     0.198 C 
BRANCH  21  22
HETATM   22  O4  UNL     1     -14.540   2.317  -9.988  1.00  0.00    -0.398 OA
ATOM     23  H4  UNL     1     -13.607   2.168 -10.088  1.00  0.00     0.209 HD
ENDBRANCH  21  22
ENDBRANCH   3  21
BRANCH   5  24
HETATM   24  O6  UNL     1     -12.512   0.671 -11.589  1.00  0.00    -0.390 OA
ATOM     25  H6  UNL     1     -11.572   0.612 -11.461  1.00  0.00     0.210 HD
ENDBRANCH   5  24
BRANCH   4  26
HETATM   26  O5  UNL     1     -14.769  -1.571  -9.987  1.00  0.00    -0.390 OA
ATOM     27  H5  UNL     1     -14.065  -2.006  -9.520  1.00  0.00     0.210 HD
ENDBRANCH   4  26
TORSDOF 10
ENDMDL
