MODEL 4
REMARK VINA RESULT: -6.451754508      2.298      3.718
REMARK  10 active torsions:
REMARK  status: ('A' for Active; 'I' for Inactive)
REMARK    1  A    between atoms: O1_2  and  C2_3 
REMARK    2  A    between atoms: C5_6  and  C6_7 
REMARK    3  A    between atoms: C7_8  and  C8_9 
REMARK    4  A    between atoms: C8_9  and  O2_10 
REMARK    5  A    between atoms: O2_10  and  C9_11 
REMARK    6  A    between atoms: C10_13  and  C11_14 
REMARK    7  A    between atoms: C11_14  and  O4_15 
REMARK    8  A    between atoms: C12_17  and  O5_18 
REMARK    9  A    between atoms: C13_20  and  O6_21 
REMARK   10  A    between atoms: C14_23  and  O7_24 
ROOT
HETATM    1  C9  UNL     1     -14.526  -0.315 -13.129  1.00  0.00     0.292 C 
HETATM    2  O3  UNL     1     -15.665  -0.217 -12.331  1.00  0.00    -0.348 OA
HETATM    3  C10 UNL     1     -15.385   0.335 -11.089  1.00  0.00     0.179 C 
HETATM    4  C12 UNL     1     -14.265  -0.329 -10.359  1.00  0.00     0.180 C 
HETATM    5  C13 UNL     1     -13.040  -0.571 -11.227  1.00  0.00     0.183 C 
HETATM    6  C14 UNL     1     -13.566  -1.285 -12.479  1.00  0.00     0.204 C 
ENDROOT
BRANCH   1   7
HETATM    7  O2  UNL     1     -14.930  -0.690 -14.388  1.00  0.00    -0.347 OA
BRANCH   7   8
HETATM    8  C8  UNL     1     -15.201   0.435 -15.130  1.00  0.00     0.265 C 
BRANCH   8   9
HETATM    9  C7  UNL     1     -13.980   1.234 -15.220  1.00  0.00    -0.075 C 
HETATM   10  C6  UNL     1     -12.981   1.914 -15.291  1.00  0.00    -0.065 C 
BRANCH  10  11
HETATM   11  C5  UNL     1     -11.798   2.723 -15.399  1.00  0.00     0.018 A 
HETATM   12  C4  UNL     1     -11.593   3.589 -16.452  1.00  0.00     0.023 A 
HETATM   13  C3  UNL     1     -10.453   4.360 -16.545  1.00  0.00     0.038 A 
HETATM   14  C2  UNL     1      -9.458   4.305 -15.589  1.00  0.00     0.068 A 
HETATM   15  C16 UNL     1      -9.654   3.441 -14.533  1.00  0.00     0.038 A 
HETATM   16  C15 UNL     1     -10.793   2.671 -14.441  1.00  0.00     0.023 A 
BRANCH  14  17
HETATM   17  O1  UNL     1      -8.302   5.091 -15.691  1.00  0.00    -0.356 OA
HETATM   18  C1  UNL     1      -8.450   6.494 -15.629  1.00  0.00     0.210 C 
ENDBRANCH  14  17
ENDBRANCH  10  11
ENDBRANCH   8   9
ENDBRANCH   7   8
ENDBRANCH   1   7
BRANCH   6  19
HETATM   19  O7  UNL     1     -12.564  -1.728 -13.301  1.00  0.00    -0.388 OA
ATOM     20  H7  UNL     1     -11.695  -1.429 -13.060  1.00  0.00     0.210 HD
ENDBRANCH   6  19
BRANCH   3  21
HETATM   21  C11 UNL     1     -15.213   1.842 -11.149  1.00  0.00     0.198 C 
BRANCH  21  22
HETATM   22  O4  UNL     1     -14.564   2.296 -10.012  1.00  0.00    -0.398 OA
ATOM     23  H4  UNL     1     -15.139   2.860  -9.508  1.00  0.00     0.209 HD
ENDBRANCH  21  22
ENDBRANCH   3  21
BRANCH   5  24
HETATM   24  O6  UNL     1     -12.480   0.663 -11.571  1.00  0.00    -0.390 OA
ATOM     25  H6  UNL     1     -12.476   1.224 -10.804  1.00  0.00     0.210 HD
ENDBRANCH   5  24
BRANCH   4  26
HETATM   26  O5  UNL     1     -14.713  -1.597  -9.962  1.00  0.00    -0.390 OA
ATOM     27  H5  UNL     1     -14.283  -1.809  -9.142  1.00  0.00     0.210 HD
ENDBRANCH   4  26
TORSDOF 10
ENDMDL
