MODEL 20
REMARK VINA RESULT: -5.593244782      2.934      4.038
REMARK  10 active torsions:
REMARK  status: ('A' for Active; 'I' for Inactive)
REMARK    1  A    between atoms: O1_2  and  C2_3 
REMARK    2  A    between atoms: C5_6  and  C6_7 
REMARK    3  A    between atoms: C7_8  and  C8_9 
REMARK    4  A    between atoms: C8_9  and  O2_10 
REMARK    5  A    between atoms: O2_10  and  C9_11 
REMARK    6  A    between atoms: C10_13  and  C11_14 
REMARK    7  A    between atoms: C11_14  and  O4_15 
REMARK    8  A    between atoms: C12_17  and  O5_18 
REMARK    9  A    between atoms: C13_20  and  O6_21 
REMARK   10  A    between atoms: C14_23  and  O7_24 
ROOT
HETATM    1  C9  UNL     1     -13.727   0.098 -13.211  1.00  0.00     0.292 C 
HETATM    2  O3  UNL     1     -14.799   0.937 -12.906  1.00  0.00    -0.348 OA
HETATM    3  C10 UNL     1     -14.768   1.360 -11.585  1.00  0.00     0.179 C 
HETATM    4  C12 UNL     1     -14.638   0.258 -10.587  1.00  0.00     0.180 C 
HETATM    5  C13 UNL     1     -13.561  -0.754 -10.945  1.00  0.00     0.183 C 
HETATM    6  C14 UNL     1     -13.857  -1.166 -12.394  1.00  0.00     0.204 C 
ENDROOT
BRANCH   1   7
HETATM    7  O2  UNL     1     -13.738  -0.114 -14.570  1.00  0.00    -0.347 OA
BRANCH   7   8
HETATM    8  C8  UNL     1     -15.020   0.044 -15.042  1.00  0.00     0.265 C 
BRANCH   8   9
HETATM    9  C7  UNL     1     -14.955   0.724 -16.334  1.00  0.00    -0.075 C 
HETATM   10  C6  UNL     1     -14.879   1.293 -17.401  1.00  0.00    -0.065 C 
BRANCH  10  11
HETATM   11  C5  UNL     1     -14.797   1.988 -18.656  1.00  0.00     0.018 A 
HETATM   12  C4  UNL     1     -15.894   2.164 -19.472  1.00  0.00     0.023 A 
HETATM   13  C3  UNL     1     -15.802   2.832 -20.676  1.00  0.00     0.038 A 
HETATM   14  C2  UNL     1     -14.608   3.358 -21.126  1.00  0.00     0.068 A 
HETATM   15  C16 UNL     1     -13.505   3.187 -20.316  1.00  0.00     0.038 A 
HETATM   16  C15 UNL     1     -13.598   2.519 -19.115  1.00  0.00     0.023 A 
BRANCH  14  17
HETATM   17  O1  UNL     1     -14.523   4.036 -22.350  1.00  0.00    -0.356 OA
HETATM   18  C1  UNL     1     -15.361   5.155 -22.546  1.00  0.00     0.210 C 
ENDBRANCH  14  17
ENDBRANCH  10  11
ENDBRANCH   8   9
ENDBRANCH   7   8
ENDBRANCH   1   7
BRANCH   6  19
HETATM   19  O7  UNL     1     -13.073  -2.204 -12.824  1.00  0.00    -0.388 OA
ATOM     20  H7  UNL     1     -13.540  -2.875 -13.308  1.00  0.00     0.210 HD
ENDBRANCH   6  19
BRANCH   3  21
HETATM   21  C11 UNL     1     -13.751   2.462 -11.353  1.00  0.00     0.198 C 
BRANCH  21  22
HETATM   22  O4  UNL     1     -14.048   3.151 -10.187  1.00  0.00    -0.398 OA
ATOM     23  H4  UNL     1     -13.689   4.030 -10.225  1.00  0.00     0.209 HD
ENDBRANCH  21  22
ENDBRANCH   3  21
BRANCH   5  24
HETATM   24  O6  UNL     1     -12.312  -0.132 -10.863  1.00  0.00    -0.390 OA
ATOM     25  H6  UNL     1     -11.643  -0.745 -11.145  1.00  0.00     0.210 HD
ENDBRANCH   5  24
BRANCH   4  26
HETATM   26  O5  UNL     1     -15.848  -0.452 -10.583  1.00  0.00    -0.390 OA
ATOM     27  H5  UNL     1     -15.800  -1.104 -11.271  1.00  0.00     0.210 HD
ENDBRANCH   4  26
TORSDOF 10
ENDMDL
