MODEL 7
REMARK VINA RESULT: -7.563288216      4.100      7.537
REMARK  3 active torsions:
REMARK  status: ('A' for Active; 'I' for Inactive)
REMARK    1  A    between atoms: N1_1  and  S1_4 
REMARK    2  A    between atoms: S1_4  and  C1_7 
REMARK    3  A    between atoms: C3_9  and  C4_10 
ROOT
HETATM    1  C1  UNL     1      -4.954  28.042  45.483  1.00  0.00     0.120 A 
HETATM    2  C2  UNL     1      -5.558  28.350  46.669  1.00  0.00     0.047 A 
HETATM    3  C3  UNL     1      -6.719  27.733  46.940  1.00  0.00     0.006 A 
HETATM    4  C11 UNL     1      -7.192  26.855  46.007  1.00  0.00     0.065 A 
HETATM    5  S3  UNL     1      -6.008  26.912  44.780  1.00  0.00    -0.087 SA
ENDROOT
BRANCH   3   6
HETATM    6  C4  UNL     1      -7.491  27.971  48.197  1.00  0.00     0.086 A 
HETATM    7  N2  UNL     1      -8.601  27.429  48.598  1.00  0.00    -0.349 N 
HETATM    8  C5  UNL     1      -9.136  27.762  49.736  1.00  0.00     0.050 A 
ATOM      9  H2  UNL     1      -9.060  26.731  48.012  1.00  0.00     0.166 HD
HETATM   10  C6  UNL     1     -10.326  27.253  50.279  1.00  0.00     0.031 A 
HETATM   11  C10 UNL     1      -8.477  28.704  50.485  1.00  0.00     0.033 A 
HETATM   12  C7  UNL     1     -10.800  27.672  51.487  1.00  0.00     0.002 A 
HETATM   13  C8  UNL     1     -10.141  28.612  52.234  1.00  0.00     0.002 A 
HETATM   14  C9  UNL     1      -8.974  29.131  51.730  1.00  0.00     0.021 A 
HETATM   15  S2  UNL     1      -7.128  29.043  49.490  1.00  0.00    -0.070 SA
ENDBRANCH   3   6
BRANCH   1  16
HETATM   16  S1  UNL     1      -3.424  28.708  44.882  1.00  0.00     0.263 S 
HETATM   17  O1  UNL     1      -3.594  28.882  43.399  1.00  0.00    -0.200 OA
HETATM   18  O2  UNL     1      -2.341  27.735  45.152  1.00  0.00    -0.200 OA
BRANCH  16  19
HETATM   19  N1  UNL     1      -3.129  30.207  45.682  1.00  0.00    -0.324 N 
ATOM     20  H12 UNL     1      -2.821  31.048  45.193  1.00  0.00     0.169 HD
ATOM     21  H11 UNL     1      -3.300  30.147  46.686  1.00  0.00     0.169 HD
ENDBRANCH  16  19
ENDBRANCH   1  16
TORSDOF 3
ENDMDL
