MODEL 1
REMARK VINA RESULT: -8.264821028      0.000      0.000
REMARK  3 active torsions:
REMARK  status: ('A' for Active; 'I' for Inactive)
REMARK    1  A    between atoms: N1_1  and  S1_4 
REMARK    2  A    between atoms: S1_4  and  C1_7 
REMARK    3  A    between atoms: C3_9  and  C4_10 
ROOT
HETATM    1  C1  UNL     1      -9.059  28.179  50.390  1.00  0.00     0.120 A 
HETATM    2  C2  UNL     1      -8.452  27.886  49.201  1.00  0.00     0.047 A 
HETATM    3  C3  UNL     1      -7.286  28.501  48.945  1.00  0.00     0.006 A 
HETATM    4  C11 UNL     1      -6.813  29.364  49.892  1.00  0.00     0.065 A 
HETATM    5  S3  UNL     1      -8.002  29.294  51.113  1.00  0.00    -0.087 SA
ENDROOT
BRANCH   3   6
HETATM    6  C4  UNL     1      -6.511  28.278  47.687  1.00  0.00     0.086 A 
HETATM    7  N2  UNL     1      -5.454  28.894  47.249  1.00  0.00    -0.349 N 
HETATM    8  C5  UNL     1      -4.906  28.562  46.118  1.00  0.00     0.050 A 
ATOM      9  H2  UNL     1      -5.048  29.650  47.801  1.00  0.00     0.166 HD
HETATM   10  C6  UNL     1      -3.769  29.147  45.538  1.00  0.00     0.031 A 
HETATM   11  C10 UNL     1      -5.492  27.538  45.415  1.00  0.00     0.033 A 
HETATM   12  C7  UNL     1      -3.274  28.719  44.341  1.00  0.00     0.002 A 
HETATM   13  C8  UNL     1      -3.860  27.698  43.641  1.00  0.00     0.002 A 
HETATM   14  C9  UNL     1      -4.974  27.105  44.181  1.00  0.00     0.021 A 
HETATM   15  S2  UNL     1      -6.796  27.128  46.442  1.00  0.00    -0.070 SA
ENDBRANCH   3   6
BRANCH   1  16
HETATM   16  S1  UNL     1     -10.594  27.513  50.975  1.00  0.00     0.263 S 
HETATM   17  O1  UNL     1     -11.619  28.597  50.798  1.00  0.00    -0.200 OA
HETATM   18  O2  UNL     1     -10.455  27.184  52.412  1.00  0.00    -0.200 OA
BRANCH  16  19
HETATM   19  N1  UNL     1     -10.969  26.108  50.047  1.00  0.00    -0.324 N 
ATOM     20  H12 UNL     1     -11.330  26.150  49.094  1.00  0.00     0.169 HD
ATOM     21  H11 UNL     1     -10.786  25.247  50.563  1.00  0.00     0.169 HD
ENDBRANCH  16  19
ENDBRANCH   1  16
TORSDOF 3
ENDMDL
