MODEL 3
REMARK VINA RESULT: -7.637021305      0.939      1.441
REMARK  3 active torsions:
REMARK  status: ('A' for Active; 'I' for Inactive)
REMARK    1  A    between atoms: N1_1  and  S1_4 
REMARK    2  A    between atoms: S1_4  and  C1_7 
REMARK    3  A    between atoms: C3_9  and  C4_10 
ROOT
HETATM    1  C1  UNL     1      -9.164  28.217  50.624  1.00  0.00     0.120 A 
HETATM    2  C2  UNL     1      -8.498  28.060  49.441  1.00  0.00     0.047 A 
HETATM    3  C3  UNL     1      -7.305  28.666  49.329  1.00  0.00     0.006 A 
HETATM    4  C11 UNL     1      -6.865  29.384  50.403  1.00  0.00     0.065 A 
HETATM    5  S3  UNL     1      -8.122  29.196  51.541  1.00  0.00    -0.087 SA
ENDROOT
BRANCH   3   6
HETATM    6  C4  UNL     1      -6.466  28.581  48.095  1.00  0.00     0.086 A 
HETATM    7  N2  UNL     1      -6.567  27.773  47.083  1.00  0.00    -0.349 N 
HETATM    8  C5  UNL     1      -5.737  27.843  46.085  1.00  0.00     0.050 A 
ATOM      9  H2  UNL     1      -7.309  27.073  47.071  1.00  0.00     0.166 HD
HETATM   10  C6  UNL     1      -5.740  27.033  44.939  1.00  0.00     0.031 A 
HETATM   11  C10 UNL     1      -4.758  28.803  46.151  1.00  0.00     0.033 A 
HETATM   12  C7  UNL     1      -4.820  27.192  43.944  1.00  0.00     0.002 A 
HETATM   13  C8  UNL     1      -3.844  28.151  44.012  1.00  0.00     0.002 A 
HETATM   14  C9  UNL     1      -3.813  28.960  45.121  1.00  0.00     0.021 A 
HETATM   15  S2  UNL     1      -5.108  29.537  47.655  1.00  0.00    -0.070 SA
ENDBRANCH   3   6
BRANCH   1  16
HETATM   16  S1  UNL     1     -10.746  27.530  51.036  1.00  0.00     0.263 S 
HETATM   17  O1  UNL     1     -11.759  28.602  50.748  1.00  0.00    -0.200 OA
HETATM   18  O2  UNL     1     -10.762  27.201  52.479  1.00  0.00    -0.200 OA
BRANCH  16  19
HETATM   19  N1  UNL     1     -10.998  26.122  50.072  1.00  0.00    -0.324 N 
ATOM     20  H12 UNL     1     -11.621  26.105  49.264  1.00  0.00     0.169 HD
ATOM     21  H11 UNL     1     -10.455  25.326  50.406  1.00  0.00     0.169 HD
ENDBRANCH  16  19
ENDBRANCH   1  16
TORSDOF 3
ENDMDL
