MODEL 6
REMARK VINA RESULT: -7.583211610      4.111      7.547
REMARK  3 active torsions:
REMARK  status: ('A' for Active; 'I' for Inactive)
REMARK    1  A    between atoms: N1_1  and  S1_4 
REMARK    2  A    between atoms: S1_4  and  C1_7 
REMARK    3  A    between atoms: C3_9  and  C4_10 
ROOT
HETATM    1  C1  UNL     1      -4.847  27.947  45.298  1.00  0.00     0.120 A 
HETATM    2  C2  UNL     1      -5.440  28.272  46.485  1.00  0.00     0.047 A 
HETATM    3  C3  UNL     1      -6.625  27.698  46.751  1.00  0.00     0.006 A 
HETATM    4  C11 UNL     1      -7.130  26.844  45.813  1.00  0.00     0.065 A 
HETATM    5  S3  UNL     1      -5.943  26.862  44.588  1.00  0.00    -0.087 SA
ENDROOT
BRANCH   3   6
HETATM    6  C4  UNL     1      -7.388  27.959  48.009  1.00  0.00     0.086 A 
HETATM    7  N2  UNL     1      -8.482  27.405  48.440  1.00  0.00    -0.349 N 
HETATM    8  C5  UNL     1      -9.012  27.762  49.572  1.00  0.00     0.050 A 
ATOM      9  H2  UNL     1      -8.931  26.679  47.882  1.00  0.00     0.166 HD
HETATM   10  C6  UNL     1     -10.184  27.243  50.145  1.00  0.00     0.031 A 
HETATM   11  C10 UNL     1      -8.367  28.742  50.284  1.00  0.00     0.033 A 
HETATM   12  C7  UNL     1     -10.655  27.690  51.345  1.00  0.00     0.002 A 
HETATM   13  C8  UNL     1     -10.010  28.669  52.053  1.00  0.00     0.002 A 
HETATM   14  C9  UNL     1      -8.860  29.197  51.520  1.00  0.00     0.021 A 
HETATM   15  S2  UNL     1      -7.037  29.080  49.264  1.00  0.00    -0.070 SA
ENDBRANCH   3   6
BRANCH   1  16
HETATM   16  S1  UNL     1      -3.292  28.557  44.702  1.00  0.00     0.263 S 
HETATM   17  O1  UNL     1      -2.244  27.608  45.210  1.00  0.00    -0.200 OA
HETATM   18  O2  UNL     1      -3.062  29.907  45.267  1.00  0.00    -0.200 OA
BRANCH  16  19
HETATM   19  N1  UNL     1      -3.347  28.603  42.979  1.00  0.00    -0.324 N 
ATOM     20  H12 UNL     1      -2.674  29.121  42.414  1.00  0.00     0.169 HD
ATOM     21  H11 UNL     1      -4.122  28.056  42.605  1.00  0.00     0.169 HD
ENDBRANCH  16  19
ENDBRANCH   1  16
TORSDOF 3
ENDMDL
