MODEL 2
REMARK VINA RESULT: -7.780798502      4.141      7.393
REMARK  3 active torsions:
REMARK  status: ('A' for Active; 'I' for Inactive)
REMARK    1  A    between atoms: N1_1  and  S1_4 
REMARK    2  A    between atoms: S1_4  and  C1_7 
REMARK    3  A    between atoms: C3_9  and  C4_10 
ROOT
HETATM    1  C1  UNL     1      -4.701  27.967  45.135  1.00  0.00     0.120 A 
HETATM    2  C2  UNL     1      -5.351  28.185  46.317  1.00  0.00     0.047 A 
HETATM    3  C3  UNL     1      -6.566  27.631  46.454  1.00  0.00     0.006 A 
HETATM    4  C11 UNL     1      -7.044  26.901  45.404  1.00  0.00     0.065 A 
HETATM    5  S3  UNL     1      -5.788  27.005  44.253  1.00  0.00    -0.087 SA
ENDROOT
BRANCH   3   6
HETATM    6  C4  UNL     1      -7.392  27.785  47.691  1.00  0.00     0.086 A 
HETATM    7  N2  UNL     1      -7.112  28.404  48.798  1.00  0.00    -0.349 N 
HETATM    8  C5  UNL     1      -7.962  28.434  49.782  1.00  0.00     0.050 A 
ATOM      9  H2  UNL     1      -6.211  28.873  48.897  1.00  0.00     0.166 HD
HETATM   10  C6  UNL     1      -7.779  29.064  51.022  1.00  0.00     0.031 A 
HETATM   11  C10 UNL     1      -9.158  27.788  49.595  1.00  0.00     0.033 A 
HETATM   12  C7  UNL     1      -8.741  29.036  51.990  1.00  0.00     0.002 A 
HETATM   13  C8  UNL     1      -9.934  28.391  51.802  1.00  0.00     0.002 A 
HETATM   14  C9  UNL     1     -10.144  27.763  50.599  1.00  0.00     0.021 A 
HETATM   15  S2  UNL     1      -8.969  27.180  48.008  1.00  0.00    -0.070 SA
ENDBRANCH   3   6
BRANCH   1  16
HETATM   16  S1  UNL     1      -3.096  28.578  44.693  1.00  0.00     0.263 S 
HETATM   17  O1  UNL     1      -2.102  27.627  45.298  1.00  0.00    -0.200 OA
HETATM   18  O2  UNL     1      -2.921  29.926  45.281  1.00  0.00    -0.200 OA
BRANCH  16  19
HETATM   19  N1  UNL     1      -2.984  28.628  42.973  1.00  0.00    -0.324 N 
ATOM     20  H12 UNL     1      -3.665  28.182  42.358  1.00  0.00     0.169 HD
ATOM     21  H11 UNL     1      -2.167  29.149  42.656  1.00  0.00     0.169 HD
ENDBRANCH  16  19
ENDBRANCH   1  16
TORSDOF 3
ENDMDL
