MODEL 1
REMARK VINA RESULT: -7.971406516      0.000      0.000
REMARK  2 active torsions:
REMARK  status: ('A' for Active; 'I' for Inactive)
REMARK    1  A    between atoms: C1_2  and  C2_3 
REMARK    2  A    between atoms: C1_2  and  C6_9 
ROOT
HETATM    1  C6  UNL     1      23.042  36.719  -6.070  1.00  0.00     0.160 A 
HETATM    2  N2  UNL     1      23.601  35.658  -6.667  1.00  0.00    -0.337 N 
ATOM      3  H2  UNL     1      23.509  35.433  -7.657  1.00  0.00     0.167 HD
HETATM    4  C7  UNL     1      24.301  34.931  -5.776  1.00  0.00     0.060 A 
HETATM    5  C8  UNL     1      25.049  33.776  -5.839  1.00  0.00     0.032 A 
HETATM    6  C9  UNL     1      25.646  33.283  -4.705  1.00  0.00     0.002 A 
HETATM    7  C10 UNL     1      25.548  33.882  -3.468  1.00  0.00     0.002 A 
HETATM    8  C11 UNL     1      24.803  35.036  -3.402  1.00  0.00     0.032 A 
HETATM    9  C12 UNL     1      24.185  35.555  -4.548  1.00  0.00     0.060 A 
HETATM   10  N3  UNL     1      23.416  36.633  -4.766  1.00  0.00    -0.337 N 
ATOM     11  H3  UNL     1      23.147  37.303  -4.046  1.00  0.00     0.167 HD
ENDROOT
BRANCH   1  12
HETATM   12  C1  UNL     1      22.191  37.778  -6.639  1.00  0.00     0.242 C 
HETATM   13  O1  UNL     1      22.416  38.079  -7.841  1.00  0.00    -0.282 OA
BRANCH  12  14
HETATM   14  C2  UNL     1      21.179  38.394  -5.807  1.00  0.00     0.086 A 
HETATM   15  C3  UNL     1      21.159  39.711  -5.417  1.00  0.00     0.035 A 
HETATM   16  C4  UNL     1      20.012  39.869  -4.640  1.00  0.00     0.019 A 
HETATM   17  C5  UNL     1      19.363  38.660  -4.570  1.00  0.00     0.088 A 
HETATM   18  N1  UNL     1      20.082  37.781  -5.282  1.00  0.00    -0.363 N 
ATOM     19  H1  UNL     1      19.842  36.798  -5.411  1.00  0.00     0.165 HD
ENDBRANCH  12  14
ENDBRANCH   1  12
TORSDOF 2
ENDMDL
