MODEL 2
REMARK VINA RESULT: -7.907527302      0.233      1.431
REMARK  2 active torsions:
REMARK  status: ('A' for Active; 'I' for Inactive)
REMARK    1  A    between atoms: C1_2  and  C2_3 
REMARK    2  A    between atoms: C1_2  and  C6_9 
ROOT
HETATM    1  C6  UNL     1      22.999  36.781  -5.966  1.00  0.00     0.160 A 
HETATM    2  N2  UNL     1      23.438  36.608  -4.713  1.00  0.00    -0.337 N 
ATOM      3  H2  UNL     1      23.225  37.226  -3.931  1.00  0.00     0.167 HD
HETATM    4  C7  UNL     1      24.201  35.501  -4.631  1.00  0.00     0.060 A 
HETATM    5  C8  UNL     1      24.890  34.869  -3.618  1.00  0.00     0.032 A 
HETATM    6  C9  UNL     1      25.596  33.722  -3.882  1.00  0.00     0.002 A 
HETATM    7  C10 UNL     1      25.668  33.138  -5.128  1.00  0.00     0.002 A 
HETATM    8  C11 UNL     1      24.981  33.766  -6.140  1.00  0.00     0.032 A 
HETATM    9  C12 UNL     1      24.254  34.938  -5.892  1.00  0.00     0.060 A 
HETATM   10  N3  UNL     1      23.514  35.741  -6.673  1.00  0.00    -0.337 N 
ATOM     11  H3  UNL     1      23.358  35.590  -7.669  1.00  0.00     0.167 HD
ENDROOT
BRANCH   1  12
HETATM   12  C1  UNL     1      22.150  37.846  -6.525  1.00  0.00     0.242 C 
HETATM   13  O1  UNL     1      22.390  38.173  -7.718  1.00  0.00    -0.282 OA
BRANCH  12  14
HETATM   14  C2  UNL     1      21.122  38.440  -5.696  1.00  0.00     0.086 A 
HETATM   15  C3  UNL     1      20.973  39.783  -5.447  1.00  0.00     0.035 A 
HETATM   16  C4  UNL     1      19.861  39.903  -4.616  1.00  0.00     0.019 A 
HETATM   17  C5  UNL     1      19.360  38.647  -4.373  1.00  0.00     0.088 A 
HETATM   18  N1  UNL     1      20.134  37.776  -5.035  1.00  0.00    -0.363 N 
ATOM     19  H1  UNL     1      20.002  36.765  -5.042  1.00  0.00     0.165 HD
ENDBRANCH  12  14
ENDBRANCH   1  12
TORSDOF 2
ENDMDL
