MODEL 3
REMARK VINA RESULT: -7.690553612      3.590      4.698
REMARK  2 active torsions:
REMARK  status: ('A' for Active; 'I' for Inactive)
REMARK    1  A    between atoms: C1_2  and  C2_3 
REMARK    2  A    between atoms: C1_2  and  C6_9 
ROOT
HETATM    1  C6  UNL     1      24.243  34.074  -8.023  1.00  0.00     0.160 A 
HETATM    2  N2  UNL     1      23.906  35.081  -7.207  1.00  0.00    -0.337 N 
ATOM      3  H2  UNL     1      23.369  35.901  -7.487  1.00  0.00     0.167 HD
HETATM    4  C7  UNL     1      24.375  34.858  -5.964  1.00  0.00     0.060 A 
HETATM    5  C8  UNL     1      24.326  35.544  -4.770  1.00  0.00     0.032 A 
HETATM    6  C9  UNL     1      24.933  35.022  -3.655  1.00  0.00     0.002 A 
HETATM    7  C10 UNL     1      25.609  33.822  -3.644  1.00  0.00     0.002 A 
HETATM    8  C11 UNL     1      25.659  33.135  -4.834  1.00  0.00     0.032 A 
HETATM    9  C12 UNL     1      25.046  33.650  -5.985  1.00  0.00     0.060 A 
HETATM   10  N3  UNL     1      24.945  33.205  -7.246  1.00  0.00    -0.337 N 
ATOM     11  H3  UNL     1      25.343  32.328  -7.581  1.00  0.00     0.167 HD
ENDROOT
BRANCH   1  12
HETATM   12  C1  UNL     1      23.959  33.888  -9.455  1.00  0.00     0.242 C 
HETATM   13  O1  UNL     1      24.797  33.203 -10.099  1.00  0.00    -0.282 OA
BRANCH  12  14
HETATM   14  C2  UNL     1      22.769  34.487 -10.023  1.00  0.00     0.086 A 
HETATM   15  C3  UNL     1      22.073  35.544  -9.486  1.00  0.00     0.035 A 
HETATM   16  C4  UNL     1      21.014  35.794 -10.358  1.00  0.00     0.019 A 
HETATM   17  C5  UNL     1      21.082  34.896 -11.395  1.00  0.00     0.088 A 
HETATM   18  N1  UNL     1      22.149  34.115 -11.176  1.00  0.00    -0.363 N 
ATOM     19  H1  UNL     1      22.452  33.355 -11.785  1.00  0.00     0.165 HD
ENDBRANCH  12  14
ENDBRANCH   1  12
TORSDOF 2
ENDMDL
