MODEL 12
REMARK VINA RESULT: -5.946624699      3.402      4.610
REMARK  10 active torsions:
REMARK  status: ('A' for Active; 'I' for Inactive)
REMARK    1  A    between atoms: O1_1  and  C1_3 
REMARK    2  A    between atoms: C1_3  and  C2_4 
REMARK    3  A    between atoms: C3_5  and  C4_6 
REMARK    4  A    between atoms: C7_9  and  O2_10 
REMARK    5  A    between atoms: O2_10  and  C8_11 
REMARK    6  A    between atoms: C9_13  and  C10_14 
REMARK    7  A    between atoms: C10_14  and  O4_15 
REMARK    8  A    between atoms: C11_17  and  O5_18 
REMARK    9  A    between atoms: C12_20  and  O6_21 
REMARK   10  A    between atoms: C13_23  and  O7_24 
ROOT
HETATM    1  C8  UNL     1      15.666  -0.954  12.547  1.00  0.00     0.298 C 
HETATM    2  O3  UNL     1      15.817   0.417  12.492  1.00  0.00    -0.348 OA
HETATM    3  C9  UNL     1      16.856   0.864  11.737  1.00  0.00     0.179 C 
HETATM    4  C11 UNL     1      17.054   0.151  10.434  1.00  0.00     0.180 C 
HETATM    5  C12 UNL     1      17.017  -1.362  10.598  1.00  0.00     0.183 C 
HETATM    6  C13 UNL     1      16.959  -1.610  12.092  1.00  0.00     0.205 C 
ENDROOT
BRANCH   1   7
HETATM    7  O2  UNL     1      15.265  -1.362  13.809  1.00  0.00    -0.318 OA
BRANCH   7   8
HETATM    8  C7  UNL     1      14.142  -2.058  14.156  1.00  0.00     0.072 A 
HETATM    9  C6  UNL     1      13.958  -3.406  14.065  1.00  0.00     0.038 A 
HETATM   10  C5  UNL     1      12.782  -3.993  14.446  1.00  0.00     0.023 A 
HETATM   11  C4  UNL     1      11.757  -3.227  14.931  1.00  0.00     0.018 A 
HETATM   12  C15 UNL     1      11.917  -1.861  15.033  1.00  0.00     0.023 A 
HETATM   13  C14 UNL     1      13.086  -1.287  14.654  1.00  0.00     0.038 A 
BRANCH  11  14
HETATM   14  C3  UNL     1      10.522  -3.836  15.332  1.00  0.00    -0.065 C 
HETATM   15  C2  UNL     1       9.481  -4.359  15.655  1.00  0.00    -0.075 C 
BRANCH  15  16
HETATM   16  C1  UNL     1       8.213  -5.018  16.034  1.00  0.00     0.258 C 
BRANCH  16  17
HETATM   17  O1  UNL     1       8.540  -6.227  16.626  1.00  0.00    -0.389 OA
ATOM     18  H1  UNL     1       8.856  -6.036  17.501  1.00  0.00     0.210 HD
ENDBRANCH  16  17
ENDBRANCH  15  16
ENDBRANCH  11  14
ENDBRANCH   7   8
ENDBRANCH   1   7
BRANCH   6  19
HETATM   19  O7  UNL     1      16.983  -2.962  12.398  1.00  0.00    -0.388 OA
ATOM     20  H7  UNL     1      17.869  -3.273  12.546  1.00  0.00     0.210 HD
ENDBRANCH   6  19
BRANCH   3  21
HETATM   21  C10 UNL     1      16.544   2.328  11.393  1.00  0.00     0.198 C 
BRANCH  21  22
HETATM   22  O4  UNL     1      15.826   2.424  10.208  1.00  0.00    -0.398 OA
ATOM     23  H4  UNL     1      15.518   3.311  10.064  1.00  0.00     0.209 HD
ENDBRANCH  21  22
ENDBRANCH   3  21
BRANCH   5  24
HETATM   24  O6  UNL     1      15.776  -1.780  10.079  1.00  0.00    -0.390 OA
ATOM     25  H6  UNL     1      15.514  -2.532  10.598  1.00  0.00     0.210 HD
ENDBRANCH   5  24
BRANCH   4  26
HETATM   26  O5  UNL     1      18.347   0.446   9.948  1.00  0.00    -0.390 OA
ATOM     27  H5  UNL     1      18.668  -0.302   9.460  1.00  0.00     0.210 HD
ENDBRANCH   4  26
TORSDOF 10
ENDMDL
