MODEL 3
REMARK VINA RESULT: -6.964849307      2.080      2.422
REMARK  10 active torsions:
REMARK  status: ('A' for Active; 'I' for Inactive)
REMARK    1  A    between atoms: O1_1  and  C1_3 
REMARK    2  A    between atoms: C1_3  and  C2_4 
REMARK    3  A    between atoms: C3_5  and  C4_6 
REMARK    4  A    between atoms: C7_9  and  O2_10 
REMARK    5  A    between atoms: O2_10  and  C8_11 
REMARK    6  A    between atoms: C9_13  and  C10_14 
REMARK    7  A    between atoms: C10_14  and  O4_15 
REMARK    8  A    between atoms: C11_17  and  O5_18 
REMARK    9  A    between atoms: C12_20  and  O6_21 
REMARK   10  A    between atoms: C13_23  and  O7_24 
ROOT
HETATM    1  C8  UNL     1      15.616  -0.839  12.471  1.00  0.00     0.298 C 
HETATM    2  O3  UNL     1      15.836   0.522  12.397  1.00  0.00    -0.348 OA
HETATM    3  C9  UNL     1      16.905   0.905  11.650  1.00  0.00     0.179 C 
HETATM    4  C11 UNL     1      17.085   0.164  10.361  1.00  0.00     0.180 C 
HETATM    5  C12 UNL     1      16.970  -1.343  10.546  1.00  0.00     0.183 C 
HETATM    6  C13 UNL     1      16.881  -1.565  12.043  1.00  0.00     0.205 C 
ENDROOT
BRANCH   1   7
HETATM    7  O2  UNL     1      15.179  -1.208  13.733  1.00  0.00    -0.318 OA
BRANCH   7   8
HETATM    8  C7  UNL     1      15.592  -0.731  14.944  1.00  0.00     0.072 A 
HETATM    9  C6  UNL     1      16.784  -0.987  15.557  1.00  0.00     0.038 A 
HETATM   10  C5  UNL     1      17.088  -0.449  16.778  1.00  0.00     0.023 A 
HETATM   11  C4  UNL     1      16.189   0.365  17.413  1.00  0.00     0.018 A 
HETATM   12  C15 UNL     1      14.978   0.639  16.815  1.00  0.00     0.023 A 
HETATM   13  C14 UNL     1      14.684   0.102  15.605  1.00  0.00     0.038 A 
BRANCH  11  14
HETATM   14  C3  UNL     1      16.501   0.931  18.694  1.00  0.00    -0.065 C 
HETATM   15  C2  UNL     1      16.751   1.402  19.779  1.00  0.00    -0.075 C 
BRANCH  15  16
HETATM   16  C1  UNL     1      17.038   1.961  21.117  1.00  0.00     0.258 C 
BRANCH  16  17
HETATM   17  O1  UNL     1      16.301   3.127  21.242  1.00  0.00    -0.389 OA
ATOM     18  H1  UNL     1      16.254   3.333  22.168  1.00  0.00     0.210 HD
ENDBRANCH  16  17
ENDBRANCH  15  16
ENDBRANCH  11  14
ENDBRANCH   7   8
ENDBRANCH   1   7
BRANCH   6  19
HETATM   19  O7  UNL     1      16.833  -2.912  12.368  1.00  0.00    -0.388 OA
ATOM     20  H7  UNL     1      17.491  -3.410  11.896  1.00  0.00     0.210 HD
ENDBRANCH   6  19
BRANCH   3  21
HETATM   21  C10 UNL     1      16.672   2.378  11.282  1.00  0.00     0.198 C 
BRANCH  21  22
HETATM   22  O4  UNL     1      15.871   2.492  10.152  1.00  0.00    -0.398 OA
ATOM     23  H4  UNL     1      16.325   2.950   9.455  1.00  0.00     0.209 HD
ENDBRANCH  21  22
ENDBRANCH   3  21
BRANCH   5  24
HETATM   24  O6  UNL     1      15.717  -1.706  10.016  1.00  0.00    -0.390 OA
ATOM     25  H6  UNL     1      15.880  -2.437   9.430  1.00  0.00     0.210 HD
ENDBRANCH   5  24
BRANCH   4  26
HETATM   26  O5  UNL     1      18.396   0.388   9.888  1.00  0.00    -0.390 OA
ATOM     27  H5  UNL     1      18.984  -0.222  10.318  1.00  0.00     0.210 HD
ENDBRANCH   4  26
TORSDOF 10
ENDMDL
