MODEL 2
REMARK VINA RESULT: -7.241242013      0.133      1.019
REMARK  10 active torsions:
REMARK  status: ('A' for Active; 'I' for Inactive)
REMARK    1  A    between atoms: O1_1  and  C1_3 
REMARK    2  A    between atoms: C1_3  and  C2_4 
REMARK    3  A    between atoms: C3_5  and  C4_6 
REMARK    4  A    between atoms: C7_9  and  O2_10 
REMARK    5  A    between atoms: O2_10  and  C8_11 
REMARK    6  A    between atoms: C9_13  and  C10_14 
REMARK    7  A    between atoms: C10_14  and  O4_15 
REMARK    8  A    between atoms: C11_17  and  O5_18 
REMARK    9  A    between atoms: C12_20  and  O6_21 
REMARK   10  A    between atoms: C13_23  and  O7_24 
ROOT
HETATM    1  C8  UNL     1      15.423  -0.775  12.216  1.00  0.00     0.298 C 
HETATM    2  O3  UNL     1      15.699   0.575  12.133  1.00  0.00    -0.348 OA
HETATM    3  C9  UNL     1      16.884   0.898  11.548  1.00  0.00     0.179 C 
HETATM    4  C11 UNL     1      17.233   0.104  10.327  1.00  0.00     0.180 C 
HETATM    5  C12 UNL     1      17.039  -1.391  10.542  1.00  0.00     0.183 C 
HETATM    6  C13 UNL     1      16.713  -1.554  12.013  1.00  0.00     0.205 C 
ENDROOT
BRANCH   1   7
HETATM    7  O2  UNL     1      14.784  -1.083  13.406  1.00  0.00    -0.318 OA
BRANCH   7   8
HETATM    8  C7  UNL     1      14.304  -0.226  14.355  1.00  0.00     0.072 A 
HETATM    9  C6  UNL     1      13.100   0.415  14.339  1.00  0.00     0.038 A 
HETATM   10  C5  UNL     1      12.726   1.256  15.353  1.00  0.00     0.023 A 
HETATM   11  C4  UNL     1      13.565   1.469  16.413  1.00  0.00     0.018 A 
HETATM   12  C15 UNL     1      14.788   0.833  16.453  1.00  0.00     0.023 A 
HETATM   13  C14 UNL     1      15.151   0.002  15.444  1.00  0.00     0.038 A 
BRANCH  11  14
HETATM   14  C3  UNL     1      13.179   2.348  17.478  1.00  0.00    -0.065 C 
HETATM   15  C2  UNL     1      12.869   3.096  18.377  1.00  0.00    -0.075 C 
BRANCH  15  16
HETATM   16  C1  UNL     1      12.512   4.026  19.469  1.00  0.00     0.258 C 
BRANCH  16  17
HETATM   17  O1  UNL     1      11.856   5.102  18.895  1.00  0.00    -0.389 OA
ATOM     18  H1  UNL     1      11.937   5.834  19.495  1.00  0.00     0.210 HD
ENDBRANCH  16  17
ENDBRANCH  15  16
ENDBRANCH  11  14
ENDBRANCH   7   8
ENDBRANCH   1   7
BRANCH   6  19
HETATM   19  O7  UNL     1      16.569  -2.885  12.371  1.00  0.00    -0.388 OA
ATOM     20  H7  UNL     1      17.019  -3.463  11.765  1.00  0.00     0.210 HD
ENDBRANCH   6  19
BRANCH   3  21
HETATM   21  C10 UNL     1      16.761   2.362  11.100  1.00  0.00     0.198 C 
BRANCH  21  22
HETATM   22  O4  UNL     1      15.672   2.539  10.255  1.00  0.00    -0.398 OA
ATOM     23  H4  UNL     1      15.439   3.457  10.183  1.00  0.00     0.209 HD
ENDBRANCH  21  22
ENDBRANCH   3  21
BRANCH   5  24
HETATM   24  O6  UNL     1      15.870  -1.738   9.836  1.00  0.00    -0.390 OA
ATOM     25  H6  UNL     1      15.711  -2.655  10.026  1.00  0.00     0.210 HD
ENDBRANCH   5  24
BRANCH   4  26
HETATM   26  O5  UNL     1      18.609   0.270  10.057  1.00  0.00    -0.390 OA
ATOM     27  H5  UNL     1      18.787  -0.041   9.177  1.00  0.00     0.210 HD
ENDBRANCH   4  26
TORSDOF 10
ENDMDL
