MODEL 1
REMARK VINA RESULT: -7.246374120      0.000      0.000
REMARK  10 active torsions:
REMARK  status: ('A' for Active; 'I' for Inactive)
REMARK    1  A    between atoms: O1_1  and  C1_3 
REMARK    2  A    between atoms: C1_3  and  C2_4 
REMARK    3  A    between atoms: C3_5  and  C4_6 
REMARK    4  A    between atoms: C7_9  and  O2_10 
REMARK    5  A    between atoms: O2_10  and  C8_11 
REMARK    6  A    between atoms: C9_13  and  C10_14 
REMARK    7  A    between atoms: C10_14  and  O4_15 
REMARK    8  A    between atoms: C11_17  and  O5_18 
REMARK    9  A    between atoms: C12_20  and  O6_21 
REMARK   10  A    between atoms: C13_23  and  O7_24 
ROOT
HETATM    1  C8  UNL     1      15.440  -0.831  12.160  1.00  0.00     0.298 C 
HETATM    2  O3  UNL     1      15.722   0.519  12.087  1.00  0.00    -0.348 OA
HETATM    3  C9  UNL     1      16.908   0.841  11.504  1.00  0.00     0.179 C 
HETATM    4  C11 UNL     1      17.253   0.054  10.277  1.00  0.00     0.180 C 
HETATM    5  C12 UNL     1      17.052  -1.442  10.480  1.00  0.00     0.183 C 
HETATM    6  C13 UNL     1      16.726  -1.614  11.951  1.00  0.00     0.205 C 
ENDROOT
BRANCH   1   7
HETATM    7  O2  UNL     1      14.801  -1.144  13.348  1.00  0.00    -0.318 OA
BRANCH   7   8
HETATM    8  C7  UNL     1      14.490  -0.313  14.387  1.00  0.00     0.072 A 
HETATM    9  C6  UNL     1      15.247  -0.076  15.496  1.00  0.00     0.038 A 
HETATM   10  C5  UNL     1      14.829   0.782  16.476  1.00  0.00     0.023 A 
HETATM   11  C4  UNL     1      13.626   1.426  16.358  1.00  0.00     0.018 A 
HETATM   12  C15 UNL     1      12.841   1.203  15.246  1.00  0.00     0.023 A 
HETATM   13  C14 UNL     1      13.263   0.350  14.280  1.00  0.00     0.038 A 
BRANCH  11  14
HETATM   14  C3  UNL     1      13.182   2.327  17.381  1.00  0.00    -0.065 C 
HETATM   15  C2  UNL     1      12.815   3.099  18.236  1.00  0.00    -0.075 C 
BRANCH  15  16
HETATM   16  C1  UNL     1      12.373   4.063  19.266  1.00  0.00     0.258 C 
BRANCH  16  17
HETATM   17  O1  UNL     1      11.791   5.132  18.605  1.00  0.00    -0.389 OA
ATOM     18  H1  UNL     1      10.857   5.092  18.771  1.00  0.00     0.210 HD
ENDBRANCH  16  17
ENDBRANCH  15  16
ENDBRANCH  11  14
ENDBRANCH   7   8
ENDBRANCH   1   7
BRANCH   6  19
HETATM   19  O7  UNL     1      16.576  -2.947  12.299  1.00  0.00    -0.388 OA
ATOM     20  H7  UNL     1      17.373  -3.303  12.676  1.00  0.00     0.210 HD
ENDBRANCH   6  19
BRANCH   3  21
HETATM   21  C10 UNL     1      16.792   2.308  11.067  1.00  0.00     0.198 C 
BRANCH  21  22
HETATM   22  O4  UNL     1      15.667   2.509  10.275  1.00  0.00    -0.398 OA
ATOM     23  H4  UNL     1      15.773   3.268   9.714  1.00  0.00     0.209 HD
ENDBRANCH  21  22
ENDBRANCH   3  21
BRANCH   5  24
HETATM   24  O6  UNL     1      15.881  -1.778   9.773  1.00  0.00    -0.390 OA
ATOM     25  H6  UNL     1      15.847  -2.727   9.757  1.00  0.00     0.210 HD
ENDBRANCH   5  24
BRANCH   4  26
HETATM   26  O5  UNL     1      18.630   0.216  10.007  1.00  0.00    -0.390 OA
ATOM     27  H5  UNL     1      19.127  -0.288  10.639  1.00  0.00     0.210 HD
ENDBRANCH   4  26
TORSDOF 10
ENDMDL
