MODEL 4
REMARK VINA RESULT: -6.958185767      2.083      2.590
REMARK  10 active torsions:
REMARK  status: ('A' for Active; 'I' for Inactive)
REMARK    1  A    between atoms: O1_1  and  C1_3 
REMARK    2  A    between atoms: C1_3  and  C2_4 
REMARK    3  A    between atoms: C3_5  and  C4_6 
REMARK    4  A    between atoms: C7_9  and  O2_10 
REMARK    5  A    between atoms: O2_10  and  C8_11 
REMARK    6  A    between atoms: C9_13  and  C10_14 
REMARK    7  A    between atoms: C10_14  and  O4_15 
REMARK    8  A    between atoms: C11_17  and  O5_18 
REMARK    9  A    between atoms: C12_20  and  O6_21 
REMARK   10  A    between atoms: C13_23  and  O7_24 
ROOT
HETATM    1  C8  UNL     1      15.609  -0.879  12.454  1.00  0.00     0.298 C 
HETATM    2  O3  UNL     1      15.820   0.485  12.413  1.00  0.00    -0.348 OA
HETATM    3  C9  UNL     1      16.894   0.891  11.685  1.00  0.00     0.179 C 
HETATM    4  C11 UNL     1      17.091   0.180  10.381  1.00  0.00     0.180 C 
HETATM    5  C12 UNL     1      16.984  -1.331  10.532  1.00  0.00     0.183 C 
HETATM    6  C13 UNL     1      16.883  -1.587  12.023  1.00  0.00     0.205 C 
ENDROOT
BRANCH   1   7
HETATM    7  O2  UNL     1      15.163  -1.278  13.704  1.00  0.00    -0.318 OA
BRANCH   7   8
HETATM    8  C7  UNL     1      15.396  -0.689  14.914  1.00  0.00     0.072 A 
HETATM    9  C6  UNL     1      14.576   0.185  15.565  1.00  0.00     0.038 A 
HETATM   10  C5  UNL     1      14.919   0.713  16.781  1.00  0.00     0.023 A 
HETATM   11  C4  UNL     1      16.105   0.367  17.371  1.00  0.00     0.018 A 
HETATM   12  C15 UNL     1      16.950  -0.515  16.732  1.00  0.00     0.023 A 
HETATM   13  C14 UNL     1      16.604  -1.033  15.528  1.00  0.00     0.038 A 
BRANCH  11  14
HETATM   14  C3  UNL     1      16.469   0.917  18.644  1.00  0.00    -0.065 C 
HETATM   15  C2  UNL     1      16.792   1.374  19.716  1.00  0.00    -0.075 C 
BRANCH  15  16
HETATM   16  C1  UNL     1      17.213   1.930  21.019  1.00  0.00     0.258 C 
BRANCH  16  17
HETATM   17  O1  UNL     1      16.552   3.136  21.185  1.00  0.00    -0.389 OA
ATOM     18  H1  UNL     1      17.154   3.730  21.617  1.00  0.00     0.210 HD
ENDBRANCH  16  17
ENDBRANCH  15  16
ENDBRANCH  11  14
ENDBRANCH   7   8
ENDBRANCH   1   7
BRANCH   6  19
HETATM   19  O7  UNL     1      16.842  -2.941  12.318  1.00  0.00    -0.388 OA
ATOM     20  H7  UNL     1      16.614  -3.460  11.555  1.00  0.00     0.210 HD
ENDBRANCH   6  19
BRANCH   3  21
HETATM   21  C10 UNL     1      16.653   2.370  11.347  1.00  0.00     0.198 C 
BRANCH  21  22
HETATM   22  O4  UNL     1      15.879   2.504  10.201  1.00  0.00    -0.398 OA
ATOM     23  H4  UNL     1      16.016   3.349   9.790  1.00  0.00     0.209 HD
ENDBRANCH  21  22
ENDBRANCH   3  21
BRANCH   5  24
HETATM   24  O6  UNL     1      15.739  -1.692   9.982  1.00  0.00    -0.390 OA
ATOM     25  H6  UNL     1      15.289  -2.190  10.655  1.00  0.00     0.210 HD
ENDBRANCH   5  24
BRANCH   4  26
HETATM   26  O5  UNL     1      18.405   0.423   9.926  1.00  0.00    -0.390 OA
ATOM     27  H5  UNL     1      18.494   0.072   9.048  1.00  0.00     0.210 HD
ENDBRANCH   4  26
TORSDOF 10
ENDMDL
