MODEL 6
REMARK VINA RESULT: -6.241339054      2.167      2.336
REMARK  10 active torsions:
REMARK  status: ('A' for Active; 'I' for Inactive)
REMARK    1  A    between atoms: O1_1  and  C1_3 
REMARK    2  A    between atoms: C1_3  and  C2_4 
REMARK    3  A    between atoms: C3_5  and  C4_6 
REMARK    4  A    between atoms: C7_9  and  O2_10 
REMARK    5  A    between atoms: O2_10  and  C8_11 
REMARK    6  A    between atoms: C9_13  and  C10_14 
REMARK    7  A    between atoms: C10_14  and  O4_15 
REMARK    8  A    between atoms: C11_17  and  O5_18 
REMARK    9  A    between atoms: C12_20  and  O6_21 
REMARK   10  A    between atoms: C13_23  and  O7_24 
ROOT
HETATM    1  C8  UNL     1      16.240  -1.034  13.217  1.00  0.00     0.298 C 
HETATM    2  O3  UNL     1      15.787   0.249  12.986  1.00  0.00    -0.348 OA
HETATM    3  C9  UNL     1      16.623   1.047  12.270  1.00  0.00     0.179 C 
HETATM    4  C11 UNL     1      17.291   0.390  11.100  1.00  0.00     0.180 C 
HETATM    5  C12 UNL     1      17.892  -0.960  11.468  1.00  0.00     0.183 C 
HETATM    6  C13 UNL     1      17.740  -1.078  12.972  1.00  0.00     0.205 C 
ENDROOT
BRANCH   1   7
HETATM    7  O2  UNL     1      15.884  -1.469  14.484  1.00  0.00    -0.318 OA
BRANCH   7   8
HETATM    8  C7  UNL     1      15.901  -0.767  15.656  1.00  0.00     0.072 A 
HETATM    9  C6  UNL     1      16.943  -0.044  16.157  1.00  0.00     0.038 A 
HETATM   10  C5  UNL     1      16.842   0.622  17.348  1.00  0.00     0.023 A 
HETATM   11  C4  UNL     1      15.678   0.572  18.066  1.00  0.00     0.018 A 
HETATM   12  C15 UNL     1      14.610  -0.153  17.582  1.00  0.00     0.023 A 
HETATM   13  C14 UNL     1      14.718  -0.810  16.400  1.00  0.00     0.038 A 
BRANCH  11  14
HETATM   14  C3  UNL     1      15.565   1.267  19.316  1.00  0.00    -0.065 C 
HETATM   15  C2  UNL     1      15.481   1.841  20.376  1.00  0.00    -0.075 C 
BRANCH  15  16
HETATM   16  C1  UNL     1      15.399   2.530  21.681  1.00  0.00     0.258 C 
BRANCH  16  17
HETATM   17  O1  UNL     1      14.794   3.757  21.462  1.00  0.00    -0.389 OA
ATOM     18  H1  UNL     1      15.076   4.061  20.607  1.00  0.00     0.210 HD
ENDBRANCH  16  17
ENDBRANCH  15  16
ENDBRANCH  11  14
ENDBRANCH   7   8
ENDBRANCH   1   7
BRANCH   6  19
HETATM   19  O7  UNL     1      18.305  -2.245  13.462  1.00  0.00    -0.388 OA
ATOM     20  H7  UNL     1      19.169  -2.091  13.827  1.00  0.00     0.210 HD
ENDBRANCH   6  19
BRANCH   3  21
HETATM   21  C10 UNL     1      15.758   2.182  11.701  1.00  0.00     0.198 C 
BRANCH  21  22
HETATM   22  O4  UNL     1      15.936   2.310  10.329  1.00  0.00    -0.398 OA
ATOM     23  H4  UNL     1      15.969   3.223  10.071  1.00  0.00     0.209 HD
ENDBRANCH  21  22
ENDBRANCH   3  21
BRANCH   5  24
HETATM   24  O6  UNL     1      17.041  -1.931  10.906  1.00  0.00    -0.390 OA
ATOM     25  H6  UNL     1      16.615  -1.513  10.167  1.00  0.00     0.210 HD
ENDBRANCH   5  24
BRANCH   4  26
HETATM   26  O5  UNL     1      18.381   1.190  10.692  1.00  0.00    -0.390 OA
ATOM     27  H5  UNL     1      18.624   0.946   9.807  1.00  0.00     0.210 HD
ENDBRANCH   4  26
TORSDOF 10
ENDMDL
