MODEL 13
REMARK VINA RESULT: -5.880632666      3.563      4.987
REMARK  10 active torsions:
REMARK  status: ('A' for Active; 'I' for Inactive)
REMARK    1  A    between atoms: O1_1  and  C1_3 
REMARK    2  A    between atoms: C1_3  and  C2_4 
REMARK    3  A    between atoms: C3_5  and  C4_6 
REMARK    4  A    between atoms: C7_9  and  O2_10 
REMARK    5  A    between atoms: O2_10  and  C8_11 
REMARK    6  A    between atoms: C9_13  and  C10_14 
REMARK    7  A    between atoms: C10_14  and  O4_15 
REMARK    8  A    between atoms: C11_17  and  O5_18 
REMARK    9  A    between atoms: C12_20  and  O6_21 
REMARK   10  A    between atoms: C13_23  and  O7_24 
ROOT
HETATM    1  C8  UNL     1      15.662  -1.014  12.570  1.00  0.00     0.298 C 
HETATM    2  O3  UNL     1      15.785   0.361  12.533  1.00  0.00    -0.348 OA
HETATM    3  C9  UNL     1      16.816   0.839  11.787  1.00  0.00     0.179 C 
HETATM    4  C11 UNL     1      17.033   0.148  10.476  1.00  0.00     0.180 C 
HETATM    5  C12 UNL     1      17.027  -1.368  10.619  1.00  0.00     0.183 C 
HETATM    6  C13 UNL     1      16.970  -1.637  12.110  1.00  0.00     0.205 C 
ENDROOT
BRANCH   1   7
HETATM    7  O2  UNL     1      15.266  -1.448  13.824  1.00  0.00    -0.318 OA
BRANCH   7   8
HETATM    8  C7  UNL     1      14.131  -2.127  14.166  1.00  0.00     0.072 A 
HETATM    9  C6  UNL     1      12.974  -1.590  14.648  1.00  0.00     0.038 A 
HETATM   10  C5  UNL     1      11.897  -2.376  14.957  1.00  0.00     0.023 A 
HETATM   11  C4  UNL     1      11.964  -3.732  14.785  1.00  0.00     0.018 A 
HETATM   12  C15 UNL     1      13.123  -4.300  14.299  1.00  0.00     0.023 A 
HETATM   13  C14 UNL     1      14.186  -3.514  13.996  1.00  0.00     0.038 A 
BRANCH  11  14
HETATM   14  C3  UNL     1      10.839  -4.561  15.106  1.00  0.00    -0.065 C 
HETATM   15  C2  UNL     1       9.891  -5.255  15.394  1.00  0.00    -0.075 C 
BRANCH  15  16
HETATM   16  C1  UNL     1       8.729  -6.088  15.767  1.00  0.00     0.258 C 
BRANCH  16  17
HETATM   17  O1  UNL     1       7.968  -6.267  14.625  1.00  0.00    -0.389 OA
ATOM     18  H1  UNL     1       7.060  -6.333  14.898  1.00  0.00     0.210 HD
ENDBRANCH  16  17
ENDBRANCH  15  16
ENDBRANCH  11  14
ENDBRANCH   7   8
ENDBRANCH   1   7
BRANCH   6  19
HETATM   19  O7  UNL     1      17.021  -2.992  12.397  1.00  0.00    -0.388 OA
ATOM     20  H7  UNL     1      16.263  -3.452  12.056  1.00  0.00     0.210 HD
ENDBRANCH   6  19
BRANCH   3  21
HETATM   21  C10 UNL     1      16.476   2.301  11.463  1.00  0.00     0.198 C 
BRANCH  21  22
HETATM   22  O4  UNL     1      15.858   2.409  10.223  1.00  0.00    -0.398 OA
ATOM     23  H4  UNL     1      15.919   3.294   9.885  1.00  0.00     0.209 HD
ENDBRANCH  21  22
ENDBRANCH   3  21
BRANCH   5  24
HETATM   24  O6  UNL     1      15.797  -1.805  10.090  1.00  0.00    -0.390 OA
ATOM     25  H6  UNL     1      15.530  -2.545  10.623  1.00  0.00     0.210 HD
ENDBRANCH   5  24
BRANCH   4  26
HETATM   26  O5  UNL     1      18.321   0.476   9.998  1.00  0.00    -0.390 OA
ATOM     27  H5  UNL     1      18.829  -0.322   9.915  1.00  0.00     0.210 HD
ENDBRANCH   4  26
TORSDOF 10
ENDMDL
