MODEL 4
REMARK VINA RESULT: -6.427886359      2.629      2.973
REMARK  9 active torsions:
REMARK  status: ('A' for Active; 'I' for Inactive)
REMARK    1  A    between atoms: O1_1  and  C1_3 
REMARK    2  A    between atoms: C1_3  and  C2_4 
REMARK    3  A    between atoms: C3_6  and  O3_7 
REMARK    4  A    between atoms: O3_7  and  C4_8 
REMARK    5  A    between atoms: C4_8  and  C5_9 
REMARK    6  A    between atoms: C6_10  and  C7_11 
REMARK    7  A    between atoms: C12_18  and  O4_19 
REMARK    8  A    between atoms: C13_21  and  O5_22 
REMARK    9  A    between atoms: C14_24  and  O6_25 
ROOT
HETATM    1  C2  UNL     1     -15.313   2.376 -11.724  1.00  0.00     0.179 C 
HETATM    2  O2  UNL     1     -13.932   2.138 -11.853  1.00  0.00    -0.348 OA
HETATM    3  C3  UNL     1     -13.864   0.960 -12.617  1.00  0.00     0.292 C 
HETATM    4  C12 UNL     1     -14.384  -0.232 -11.895  1.00  0.00     0.204 C 
HETATM    5  C13 UNL     1     -15.370   0.030 -10.827  1.00  0.00     0.183 C 
HETATM    6  C14 UNL     1     -15.813   1.438 -10.668  1.00  0.00     0.180 C 
ENDROOT
BRANCH   3   7
HETATM    7  O3  UNL     1     -14.545   1.238 -13.795  1.00  0.00    -0.347 OA
BRANCH   7   8
HETATM    8  C4  UNL     1     -14.259   0.345 -14.812  1.00  0.00     0.265 C 
BRANCH   8   9
HETATM    9  C5  UNL     1     -14.428   1.076 -16.076  1.00  0.00    -0.075 C 
HETATM   10  C6  UNL     1     -14.557   1.695 -17.117  1.00  0.00    -0.063 C 
BRANCH  10  11
HETATM   11  C7  UNL     1     -14.699   2.443 -18.337  1.00  0.00     0.033 A 
HETATM   12  C8  UNL     1     -13.662   3.157 -18.909  1.00  0.00     0.023 A 
HETATM   13  C9  UNL     1     -13.820   3.869 -20.080  1.00  0.00     0.019 A 
HETATM   14  C10 UNL     1     -15.039   3.888 -20.725  1.00  0.00     0.087 A 
HETATM   15  N1  UNL     1     -16.040   3.191 -20.162  1.00  0.00    -0.374 N 
HETATM   16  C11 UNL     1     -15.903   2.493 -19.021  1.00  0.00     0.108 A 
ATOM     17  H1  UNL     1     -16.950   3.191 -20.624  1.00  0.00     0.164 HD
ENDBRANCH  10  11
ENDBRANCH   8   9
ENDBRANCH   7   8
ENDBRANCH   3   7
BRANCH   4  18
HETATM   18  O4  UNL     1     -13.269  -0.899 -11.335  1.00  0.00    -0.388 OA
ATOM     19  H4  UNL     1     -13.044  -1.610 -11.924  1.00  0.00     0.210 HD
ENDBRANCH   4  18
BRANCH   1  20
HETATM   20  C1  UNL     1     -15.584   3.791 -11.274  1.00  0.00     0.198 C 
BRANCH  20  21
HETATM   21  O1  UNL     1     -14.747   4.041 -10.187  1.00  0.00    -0.398 OA
ATOM     22  H1  UNL     1     -14.493   4.955 -10.237  1.00  0.00     0.209 HD
ENDBRANCH  20  21
ENDBRANCH   1  20
BRANCH   5  23
HETATM   23  O5  UNL     1     -14.883  -0.401  -9.569  1.00  0.00    -0.390 OA
ATOM     24  H5  UNL     1     -15.332  -1.187  -9.280  1.00  0.00     0.210 HD
ENDBRANCH   5  23
BRANCH   6  25
HETATM   25  O6  UNL     1     -17.223   1.557 -10.659  1.00  0.00    -0.390 OA
ATOM     26  H6  UNL     1     -17.426   2.332 -10.148  1.00  0.00     0.210 HD
ENDBRANCH   6  25
TORSDOF 9
ENDMDL
