MODEL 9
REMARK VINA RESULT: -6.145788783      3.515      4.303
REMARK  9 active torsions:
REMARK  status: ('A' for Active; 'I' for Inactive)
REMARK    1  A    between atoms: O1_1  and  C1_3 
REMARK    2  A    between atoms: C1_3  and  C2_4 
REMARK    3  A    between atoms: C3_6  and  O3_7 
REMARK    4  A    between atoms: O3_7  and  C4_8 
REMARK    5  A    between atoms: C4_8  and  C5_9 
REMARK    6  A    between atoms: C6_10  and  C7_11 
REMARK    7  A    between atoms: C12_18  and  O4_19 
REMARK    8  A    between atoms: C13_21  and  O5_22 
REMARK    9  A    between atoms: C14_24  and  O6_25 
ROOT
HETATM    1  C2  UNL     1     -15.344   2.629 -11.742  1.00  0.00     0.179 C 
HETATM    2  O2  UNL     1     -13.968   2.539 -12.025  1.00  0.00    -0.348 OA
HETATM    3  C3  UNL     1     -13.886   1.495 -12.963  1.00  0.00     0.292 C 
HETATM    4  C12 UNL     1     -14.238   0.168 -12.388  1.00  0.00     0.204 C 
HETATM    5  C13 UNL     1     -15.130   0.183 -11.212  1.00  0.00     0.183 C 
HETATM    6  C14 UNL     1     -15.663   1.507 -10.802  1.00  0.00     0.180 C 
ENDROOT
BRANCH   3   7
HETATM    7  O3  UNL     1     -14.700   1.877 -14.021  1.00  0.00    -0.347 OA
BRANCH   7   8
HETATM    8  C4  UNL     1     -13.996   2.429 -15.076  1.00  0.00     0.265 C 
BRANCH   8   9
HETATM    9  C5  UNL     1     -14.643   1.958 -16.309  1.00  0.00    -0.075 C 
HETATM   10  C6  UNL     1     -15.163   1.565 -17.338  1.00  0.00    -0.063 C 
BRANCH  10  11
HETATM   11  C7  UNL     1     -15.757   1.104 -18.563  1.00  0.00     0.033 A 
HETATM   12  C8  UNL     1     -15.633   1.780 -19.762  1.00  0.00     0.023 A 
HETATM   13  C9  UNL     1     -16.211   1.321 -20.928  1.00  0.00     0.019 A 
HETATM   14  C10 UNL     1     -16.942   0.151 -20.928  1.00  0.00     0.087 A 
HETATM   15  N1  UNL     1     -17.057  -0.500 -19.759  1.00  0.00    -0.374 N 
HETATM   16  C11 UNL     1     -16.500  -0.064 -18.614  1.00  0.00     0.108 A 
ATOM     17  H1  UNL     1     -17.592  -1.367 -19.738  1.00  0.00     0.164 HD
ENDBRANCH  10  11
ENDBRANCH   8   9
ENDBRANCH   7   8
ENDBRANCH   3   7
BRANCH   4  18
HETATM   18  O4  UNL     1     -13.025  -0.468 -12.036  1.00  0.00    -0.388 OA
ATOM     19  H4  UNL     1     -12.329   0.167 -12.159  1.00  0.00     0.210 HD
ENDBRANCH   4  18
BRANCH   1  20
HETATM   20  C1  UNL     1     -15.677   3.934 -11.060  1.00  0.00     0.198 C 
BRANCH  20  21
HETATM   21  O1  UNL     1     -14.791   4.073  -9.992  1.00  0.00    -0.398 OA
ATOM     22  H1  UNL     1     -14.523   4.984  -9.971  1.00  0.00     0.209 HD
ENDBRANCH  20  21
ENDBRANCH   1  20
BRANCH   5  23
HETATM   23  O5  UNL     1     -14.489  -0.380 -10.081  1.00  0.00    -0.390 OA
ATOM     24  H5  UNL     1     -15.057  -0.356  -9.320  1.00  0.00     0.210 HD
ENDBRANCH   5  23
BRANCH   6  25
HETATM   25  O6  UNL     1     -17.070   1.494 -10.653  1.00  0.00    -0.390 OA
ATOM     26  H6  UNL     1     -17.357   0.615 -10.870  1.00  0.00     0.210 HD
ENDBRANCH   6  25
TORSDOF 9
ENDMDL
