MODEL 7
REMARK VINA RESULT: -6.256095745      4.089      6.339
REMARK  9 active torsions:
REMARK  status: ('A' for Active; 'I' for Inactive)
REMARK    1  A    between atoms: O1_1  and  C1_3 
REMARK    2  A    between atoms: C1_3  and  C2_4 
REMARK    3  A    between atoms: C3_6  and  O3_7 
REMARK    4  A    between atoms: O3_7  and  C4_8 
REMARK    5  A    between atoms: C4_8  and  C5_9 
REMARK    6  A    between atoms: C6_10  and  C7_11 
REMARK    7  A    between atoms: C12_18  and  O4_19 
REMARK    8  A    between atoms: C13_21  and  O5_22 
REMARK    9  A    between atoms: C14_24  and  O6_25 
ROOT
HETATM    1  C2  UNL     1     -15.049   2.385 -11.893  1.00  0.00     0.179 C 
HETATM    2  O2  UNL     1     -13.706   1.966 -11.923  1.00  0.00    -0.348 OA
HETATM    3  C3  UNL     1     -13.757   0.721 -12.574  1.00  0.00     0.292 C 
HETATM    4  C12 UNL     1     -14.457  -0.323 -11.778  1.00  0.00     0.204 C 
HETATM    5  C13 UNL     1     -15.447   0.160 -10.796  1.00  0.00     0.183 C 
HETATM    6  C14 UNL     1     -15.713   1.621 -10.788  1.00  0.00     0.180 C 
ENDROOT
BRANCH   3   7
HETATM    7  O3  UNL     1     -14.343   0.968 -13.809  1.00  0.00    -0.347 OA
BRANCH   7   8
HETATM    8  C4  UNL     1     -13.679   0.357 -14.857  1.00  0.00     0.265 C 
BRANCH   8   9
HETATM    9  C5  UNL     1     -14.166  -1.029 -14.916  1.00  0.00    -0.075 C 
HETATM   10  C6  UNL     1     -14.564  -2.179 -14.948  1.00  0.00    -0.063 C 
BRANCH  10  11
HETATM   11  C7  UNL     1     -15.022  -3.542 -14.966  1.00  0.00     0.033 A 
HETATM   12  C8  UNL     1     -14.494  -4.526 -14.151  1.00  0.00     0.023 A 
HETATM   13  C9  UNL     1     -14.948  -5.829 -14.184  1.00  0.00     0.019 A 
HETATM   14  C10 UNL     1     -15.961  -6.191 -15.046  1.00  0.00     0.087 A 
HETATM   15  N1  UNL     1     -16.469  -5.228 -15.834  1.00  0.00    -0.374 N 
HETATM   16  C11 UNL     1     -16.037  -3.955 -15.814  1.00  0.00     0.108 A 
ATOM     17  H1  UNL     1     -17.220  -5.475 -16.479  1.00  0.00     0.164 HD
ENDBRANCH  10  11
ENDBRANCH   8   9
ENDBRANCH   7   8
ENDBRANCH   3   7
BRANCH   4  18
HETATM   18  O4  UNL     1     -13.463  -1.067 -11.100  1.00  0.00    -0.388 OA
ATOM     19  H4  UNL     1     -13.556  -1.972 -11.372  1.00  0.00     0.210 HD
ENDBRANCH   4  18
BRANCH   1  20
HETATM   20  C1  UNL     1     -15.156   3.859 -11.587  1.00  0.00     0.198 C 
BRANCH  20  21
HETATM   21  O1  UNL     1     -14.904   4.011 -10.224  1.00  0.00    -0.398 OA
ATOM     22  H1  UNL     1     -15.329   3.286  -9.781  1.00  0.00     0.209 HD
ENDBRANCH  20  21
ENDBRANCH   1  20
BRANCH   5  23
HETATM   23  O5  UNL     1     -15.077  -0.206  -9.478  1.00  0.00    -0.390 OA
ATOM     24  H5  UNL     1     -15.626   0.228  -8.836  1.00  0.00     0.210 HD
ENDBRANCH   5  23
BRANCH   6  25
HETATM   25  O6  UNL     1     -17.095   1.914 -10.869  1.00  0.00    -0.390 OA
ATOM     26  H6  UNL     1     -17.499   1.189 -11.330  1.00  0.00     0.210 HD
ENDBRANCH   6  25
TORSDOF 9
ENDMDL
