MODEL 6
REMARK VINA RESULT: -6.275721771      2.342      2.784
REMARK  9 active torsions:
REMARK  status: ('A' for Active; 'I' for Inactive)
REMARK    1  A    between atoms: O1_1  and  C1_3 
REMARK    2  A    between atoms: C1_3  and  C2_4 
REMARK    3  A    between atoms: C3_6  and  O3_7 
REMARK    4  A    between atoms: O3_7  and  C4_8 
REMARK    5  A    between atoms: C4_8  and  C5_9 
REMARK    6  A    between atoms: C6_10  and  C7_11 
REMARK    7  A    between atoms: C12_18  and  O4_19 
REMARK    8  A    between atoms: C13_21  and  O5_22 
REMARK    9  A    between atoms: C14_24  and  O6_25 
ROOT
HETATM    1  C2  UNL     1     -15.248   2.537 -11.756  1.00  0.00     0.179 C 
HETATM    2  O2  UNL     1     -13.881   2.209 -11.811  1.00  0.00    -0.348 OA
HETATM    3  C3  UNL     1     -13.840   1.073 -12.639  1.00  0.00     0.292 C 
HETATM    4  C12 UNL     1     -14.486  -0.117 -12.025  1.00  0.00     0.204 C 
HETATM    5  C13 UNL     1     -15.523   0.154 -11.009  1.00  0.00     0.183 C 
HETATM    6  C14 UNL     1     -15.881   1.579 -10.794  1.00  0.00     0.180 C 
ENDROOT
BRANCH   3   7
HETATM    7  O3  UNL     1     -14.419   1.465 -13.840  1.00  0.00    -0.347 OA
BRANCH   7   8
HETATM    8  C4  UNL     1     -14.254   0.535 -14.851  1.00  0.00     0.265 C 
BRANCH   8   9
HETATM    9  C5  UNL     1     -14.318   1.275 -16.119  1.00  0.00    -0.075 C 
HETATM   10  C6  UNL     1     -14.388   1.881 -17.173  1.00  0.00    -0.063 C 
BRANCH  10  11
HETATM   11  C7  UNL     1     -14.489   2.585 -18.423  1.00  0.00     0.033 A 
HETATM   12  C8  UNL     1     -15.620   2.553 -19.216  1.00  0.00     0.023 A 
HETATM   13  C9  UNL     1     -15.697   3.237 -20.413  1.00  0.00     0.019 A 
HETATM   14  C10 UNL     1     -14.627   3.984 -20.857  1.00  0.00     0.087 A 
HETATM   15  N1  UNL     1     -13.532   4.010 -20.079  1.00  0.00    -0.374 N 
HETATM   16  C11 UNL     1     -13.441   3.349 -18.911  1.00  0.00     0.108 A 
ATOM     17  H1  UNL     1     -12.729   4.558 -20.390  1.00  0.00     0.164 HD
ENDBRANCH  10  11
ENDBRANCH   8   9
ENDBRANCH   7   8
ENDBRANCH   3   7
BRANCH   4  18
HETATM   18  O4  UNL     1     -13.459  -0.892 -11.437  1.00  0.00    -0.388 OA
ATOM     19  H4  UNL     1     -13.290  -0.525 -10.577  1.00  0.00     0.210 HD
ENDBRANCH   4  18
BRANCH   1  20
HETATM   20  C1  UNL     1     -15.454   3.940 -11.240  1.00  0.00     0.198 C 
BRANCH  20  21
HETATM   21  O1  UNL     1     -14.783   4.028 -10.021  1.00  0.00    -0.398 OA
ATOM     22  H1  UNL     1     -15.094   4.815  -9.590  1.00  0.00     0.209 HD
ENDBRANCH  20  21
ENDBRANCH   1  20
BRANCH   5  23
HETATM   23  O5  UNL     1     -15.154  -0.380  -9.750  1.00  0.00    -0.390 OA
ATOM     24  H5  UNL     1     -14.359   0.027  -9.426  1.00  0.00     0.210 HD
ENDBRANCH   5  23
BRANCH   6  25
HETATM   25  O6  UNL     1     -17.277   1.796 -10.868  1.00  0.00    -0.390 OA
ATOM     26  H6  UNL     1     -17.692   1.020 -10.510  1.00  0.00     0.210 HD
ENDBRANCH   6  25
TORSDOF 9
ENDMDL
