MODEL 11
REMARK VINA RESULT: -6.135676319      4.055      6.186
REMARK  9 active torsions:
REMARK  status: ('A' for Active; 'I' for Inactive)
REMARK    1  A    between atoms: O1_1  and  C1_3 
REMARK    2  A    between atoms: C1_3  and  C2_4 
REMARK    3  A    between atoms: C3_6  and  O3_7 
REMARK    4  A    between atoms: O3_7  and  C4_8 
REMARK    5  A    between atoms: C4_8  and  C5_9 
REMARK    6  A    between atoms: C6_10  and  C7_11 
REMARK    7  A    between atoms: C12_18  and  O4_19 
REMARK    8  A    between atoms: C13_21  and  O5_22 
REMARK    9  A    between atoms: C14_24  and  O6_25 
ROOT
HETATM    1  C2  UNL     1     -15.076   2.413 -11.899  1.00  0.00     0.179 C 
HETATM    2  O2  UNL     1     -13.730   2.006 -11.949  1.00  0.00    -0.348 OA
HETATM    3  C3  UNL     1     -13.775   0.774 -12.623  1.00  0.00     0.292 C 
HETATM    4  C12 UNL     1     -14.460  -0.291 -11.843  1.00  0.00     0.204 C 
HETATM    5  C13 UNL     1     -15.446   0.164 -10.842  1.00  0.00     0.183 C 
HETATM    6  C14 UNL     1     -15.724   1.622 -10.804  1.00  0.00     0.180 C 
ENDROOT
BRANCH   3   7
HETATM    7  O3  UNL     1     -14.374   1.040 -13.848  1.00  0.00    -0.347 OA
BRANCH   7   8
HETATM    8  C4  UNL     1     -13.726   0.439 -14.912  1.00  0.00     0.265 C 
BRANCH   8   9
HETATM    9  C5  UNL     1     -14.302  -0.905 -15.055  1.00  0.00    -0.075 C 
HETATM   10  C6  UNL     1     -14.765  -2.024 -15.181  1.00  0.00    -0.063 C 
BRANCH  10  11
HETATM   11  C7  UNL     1     -15.295  -3.351 -15.344  1.00  0.00     0.033 A 
HETATM   12  C8  UNL     1     -16.151  -3.699 -16.373  1.00  0.00     0.023 A 
HETATM   13  C9  UNL     1     -16.649  -4.979 -16.512  1.00  0.00     0.019 A 
HETATM   14  C10 UNL     1     -16.298  -5.963 -15.613  1.00  0.00     0.087 A 
HETATM   15  N1  UNL     1     -15.465  -5.616 -14.618  1.00  0.00    -0.374 N 
HETATM   16  C11 UNL     1     -14.972  -4.374 -14.468  1.00  0.00     0.108 A 
ATOM     17  H1  UNL     1     -15.192  -6.330 -13.942  1.00  0.00     0.164 HD
ENDBRANCH  10  11
ENDBRANCH   8   9
ENDBRANCH   7   8
ENDBRANCH   3   7
BRANCH   4  18
HETATM   18  O4  UNL     1     -13.454  -1.039 -11.187  1.00  0.00    -0.388 OA
ATOM     19  H4  UNL     1     -13.564  -0.899 -10.254  1.00  0.00     0.210 HD
ENDBRANCH   4  18
BRANCH   1  20
HETATM   20  C1  UNL     1     -15.193   3.880 -11.564  1.00  0.00     0.198 C 
BRANCH  20  21
HETATM   21  O1  UNL     1     -14.910   4.011 -10.204  1.00  0.00    -0.398 OA
ATOM     22  H1  UNL     1     -15.611   4.526  -9.823  1.00  0.00     0.209 HD
ENDBRANCH  20  21
ENDBRANCH   1  20
BRANCH   5  23
HETATM   23  O5  UNL     1     -15.061  -0.225  -9.536  1.00  0.00    -0.390 OA
ATOM     24  H5  UNL     1     -14.880   0.534  -8.994  1.00  0.00     0.210 HD
ENDBRANCH   5  23
BRANCH   6  25
HETATM   25  O6  UNL     1     -17.109   1.905 -10.867  1.00  0.00    -0.390 OA
ATOM     26  H6  UNL     1     -17.384   2.112  -9.981  1.00  0.00     0.210 HD
ENDBRANCH   6  25
TORSDOF 9
ENDMDL
