MODEL 14
REMARK VINA RESULT: -6.032218934      3.648      5.058
REMARK  9 active torsions:
REMARK  status: ('A' for Active; 'I' for Inactive)
REMARK    1  A    between atoms: O1_1  and  C1_3 
REMARK    2  A    between atoms: C1_3  and  C2_4 
REMARK    3  A    between atoms: C3_6  and  O3_7 
REMARK    4  A    between atoms: O3_7  and  C4_8 
REMARK    5  A    between atoms: C4_8  and  C5_9 
REMARK    6  A    between atoms: C6_10  and  C7_11 
REMARK    7  A    between atoms: C12_18  and  O4_19 
REMARK    8  A    between atoms: C13_21  and  O5_22 
REMARK    9  A    between atoms: C14_24  and  O6_25 
ROOT
HETATM    1  C2  UNL     1     -15.089   2.469 -11.863  1.00  0.00     0.179 C 
HETATM    2  O2  UNL     1     -13.732   2.095 -11.864  1.00  0.00    -0.348 OA
HETATM    3  C3  UNL     1     -13.719   0.880 -12.572  1.00  0.00     0.292 C 
HETATM    4  C12 UNL     1     -14.410  -0.221 -11.851  1.00  0.00     0.204 C 
HETATM    5  C13 UNL     1     -15.450   0.183 -10.883  1.00  0.00     0.183 C 
HETATM    6  C14 UNL     1     -15.764   1.633 -10.819  1.00  0.00     0.180 C 
ENDROOT
BRANCH   3   7
HETATM    7  O3  UNL     1     -14.270   1.166 -13.815  1.00  0.00    -0.347 OA
BRANCH   7   8
HETATM    8  C4  UNL     1     -13.320   1.324 -14.808  1.00  0.00     0.265 C 
BRANCH   8   9
HETATM    9  C5  UNL     1     -12.470   0.126 -14.774  1.00  0.00    -0.075 C 
HETATM   10  C6  UNL     1     -11.765  -0.866 -14.728  1.00  0.00    -0.063 C 
BRANCH  10  11
HETATM   11  C7  UNL     1     -10.929  -2.034 -14.653  1.00  0.00     0.033 A 
HETATM   12  C8  UNL     1      -9.567  -1.971 -14.428  1.00  0.00     0.023 A 
HETATM   13  C9  UNL     1      -8.781  -3.104 -14.358  1.00  0.00     0.019 A 
HETATM   14  C10 UNL     1      -9.346  -4.352 -14.513  1.00  0.00     0.087 A 
HETATM   15  N1  UNL     1     -10.671  -4.403 -14.730  1.00  0.00    -0.374 N 
HETATM   16  C11 UNL     1     -11.449  -3.309 -14.802  1.00  0.00     0.108 A 
ATOM     17  H1  UNL     1     -11.108  -5.318 -14.847  1.00  0.00     0.164 HD
ENDBRANCH  10  11
ENDBRANCH   8   9
ENDBRANCH   7   8
ENDBRANCH   3   7
BRANCH   4  18
HETATM   18  O4  UNL     1     -13.416  -0.964 -11.172  1.00  0.00    -0.388 OA
ATOM     19  H4  UNL     1     -13.514  -0.781 -10.245  1.00  0.00     0.210 HD
ENDBRANCH   4  18
BRANCH   1  20
HETATM   20  C1  UNL     1     -15.255   3.923 -11.494  1.00  0.00     0.198 C 
BRANCH  20  21
HETATM   21  O1  UNL     1     -14.902   4.045 -10.151  1.00  0.00    -0.398 OA
ATOM     22  H1  UNL     1     -13.953   4.079 -10.115  1.00  0.00     0.209 HD
ENDBRANCH  20  21
ENDBRANCH   1  20
BRANCH   5  23
HETATM   23  O5  UNL     1     -15.113  -0.232  -9.572  1.00  0.00    -0.390 OA
ATOM     24  H5  UNL     1     -15.802  -0.766  -9.195  1.00  0.00     0.210 HD
ENDBRANCH   5  23
BRANCH   6  25
HETATM   25  O6  UNL     1     -17.151   1.886 -10.935  1.00  0.00    -0.390 OA
ATOM     26  H6  UNL     1     -17.238   2.760 -11.296  1.00  0.00     0.210 HD
ENDBRANCH   6  25
TORSDOF 9
ENDMDL
