MODEL 12
REMARK VINA RESULT: -7.082402965      1.466      1.697
REMARK  10 active torsions:
REMARK  status: ('A' for Active; 'I' for Inactive)
REMARK    1  A    between atoms: O1_1  and  C1_3 
REMARK    2  A    between atoms: C1_3  and  C2_4 
REMARK    3  A    between atoms: C3_6  and  O3_7 
REMARK    4  A    between atoms: O3_7  and  C4_8 
REMARK    5  A    between atoms: C4_8  and  C5_9 
REMARK    6  A    between atoms: C6_10  and  C7_11 
REMARK    7  A    between atoms: C10_14  and  C11_15 
REMARK    8  A    between atoms: C19_23  and  O4_24 
REMARK    9  A    between atoms: C20_26  and  O5_27 
REMARK   10  A    between atoms: C21_29  and  O6_30 
ROOT
HETATM    1  O3  UNL     1       3.890 -12.022 -13.471  1.00  0.00    -0.347 OA
ENDROOT
BRANCH   1   2
HETATM    2  C3  UNL     1       3.113 -13.091 -13.053  1.00  0.00     0.292 C 
HETATM    3  O2  UNL     1       2.670 -13.783 -14.190  1.00  0.00    -0.348 OA
HETATM    4  C2  UNL     1       1.663 -14.675 -13.897  1.00  0.00     0.179 C 
HETATM    5  C21 UNL     1       1.784 -15.199 -12.501  1.00  0.00     0.180 C 
HETATM    6  C20 UNL     1       3.280 -15.393 -12.228  1.00  0.00     0.183 C 
HETATM    7  C19 UNL     1       3.866 -13.984 -12.116  1.00  0.00     0.204 C 
BRANCH   4   8
HETATM    8  C1  UNL     1       0.306 -14.075 -14.197  1.00  0.00     0.198 C 
BRANCH   8   9
HETATM    9  O1  UNL     1      -0.180 -13.380 -13.107  1.00  0.00    -0.398 OA
ATOM     10  H1  UNL     1       0.105 -13.779 -12.294  1.00  0.00     0.209 HD
ENDBRANCH   8   9
ENDBRANCH   4   8
BRANCH   5  11
HETATM   11  O6  UNL     1       1.195 -16.451 -12.357  1.00  0.00    -0.390 OA
ATOM     12  H6  UNL     1       1.478 -16.891 -11.564  1.00  0.00     0.210 HD
ENDBRANCH   5  11
BRANCH   6  13
HETATM   13  O5  UNL     1       3.456 -16.067 -11.019  1.00  0.00    -0.390 OA
ATOM     14  H5  UNL     1       2.667 -16.553 -10.811  1.00  0.00     0.210 HD
ENDBRANCH   6  13
BRANCH   7  15
HETATM   15  O4  UNL     1       3.642 -13.564 -10.813  1.00  0.00    -0.388 OA
ATOM     16  H4  UNL     1       2.733 -13.723 -10.588  1.00  0.00     0.210 HD
ENDBRANCH   7  15
ENDBRANCH   1   2
BRANCH   1  17
HETATM   17  C4  UNL     1       5.142 -12.336 -13.909  1.00  0.00     0.265 C 
BRANCH  17  18
HETATM   18  C5  UNL     1       5.157 -12.491 -15.358  1.00  0.00    -0.075 C 
HETATM   19  C6  UNL     1       5.197 -12.618 -16.578  1.00  0.00    -0.065 C 
BRANCH  19  20
HETATM   20  C7  UNL     1       5.267 -12.753 -18.003  1.00  0.00     0.017 A 
HETATM   21  C8  UNL     1       4.357 -12.133 -18.830  1.00  0.00     0.021 A 
HETATM   22  C9  UNL     1       4.458 -12.287 -20.217  1.00  0.00     0.013 A 
HETATM   23  C10 UNL     1       5.451 -13.049 -20.795  1.00  0.00    -0.026 A 
HETATM   24  C17 UNL     1       6.350 -13.660 -19.938  1.00  0.00     0.013 A 
HETATM   25  C18 UNL     1       6.265 -13.518 -18.570  1.00  0.00     0.021 A 
BRANCH  23  26
HETATM   26  C11 UNL     1       5.539 -13.196 -22.244  1.00  0.00    -0.026 A 
HETATM   27  C12 UNL     1       6.313 -14.209 -22.789  1.00  0.00     0.012 A 
HETATM   28  C13 UNL     1       6.419 -14.375 -24.154  1.00  0.00     0.001 A 
HETATM   29  C14 UNL     1       5.760 -13.542 -25.034  1.00  0.00     0.000 A 
HETATM   30  C15 UNL     1       4.988 -12.533 -24.513  1.00  0.00     0.001 A 
HETATM   31  C16 UNL     1       4.886 -12.371 -23.136  1.00  0.00     0.012 A 
ENDBRANCH  23  26
ENDBRANCH  19  20
ENDBRANCH  17  18
ENDBRANCH   1  17
TORSDOF 10
ENDMDL
