MODEL 9
REMARK VINA RESULT: -7.396566062      1.128      2.072
REMARK  10 active torsions:
REMARK  status: ('A' for Active; 'I' for Inactive)
REMARK    1  A    between atoms: O1_1  and  C1_3 
REMARK    2  A    between atoms: C1_3  and  C2_4 
REMARK    3  A    between atoms: C3_6  and  O3_7 
REMARK    4  A    between atoms: O3_7  and  C4_8 
REMARK    5  A    between atoms: C4_8  and  C5_9 
REMARK    6  A    between atoms: C6_10  and  C7_11 
REMARK    7  A    between atoms: C10_14  and  C11_15 
REMARK    8  A    between atoms: C19_23  and  O4_24 
REMARK    9  A    between atoms: C20_26  and  O5_27 
REMARK   10  A    between atoms: C21_29  and  O6_30 
ROOT
HETATM    1  O3  UNL     1       4.854 -14.094 -14.870  1.00  0.00    -0.347 OA
ENDROOT
BRANCH   1   2
HETATM    2  C3  UNL     1       3.865 -14.234 -13.910  1.00  0.00     0.292 C 
HETATM    3  O2  UNL     1       2.709 -14.719 -14.540  1.00  0.00    -0.348 OA
HETATM    4  C2  UNL     1       1.596 -14.615 -13.735  1.00  0.00     0.179 C 
HETATM    5  C21 UNL     1       1.954 -14.714 -12.287  1.00  0.00     0.180 C 
HETATM    6  C20 UNL     1       3.062 -15.768 -12.175  1.00  0.00     0.183 C 
HETATM    7  C19 UNL     1       4.306 -15.127 -12.792  1.00  0.00     0.204 C 
BRANCH   4   8
HETATM    8  C1  UNL     1       0.800 -13.371 -14.073  1.00  0.00     0.198 C 
BRANCH   8   9
HETATM    9  O1  UNL     1      -0.206 -13.161 -13.151  1.00  0.00    -0.398 OA
ATOM     10  H1  UNL     1       0.151 -13.043 -12.279  1.00  0.00     0.209 HD
ENDBRANCH   8   9
ENDBRANCH   4   8
BRANCH   5  11
HETATM   11  O6  UNL     1       0.895 -15.176 -11.514  1.00  0.00    -0.390 OA
ATOM     12  H6  UNL     1       0.073 -15.169 -11.990  1.00  0.00     0.210 HD
ENDBRANCH   5  11
BRANCH   6  13
HETATM   13  O5  UNL     1       3.305 -16.056 -10.832  1.00  0.00    -0.390 OA
ATOM     14  H5  UNL     1       2.654 -16.672 -10.518  1.00  0.00     0.210 HD
ENDBRANCH   6  13
BRANCH   7  15
HETATM   15  O4  UNL     1       4.888 -14.352 -11.799  1.00  0.00    -0.388 OA
ATOM     16  H4  UNL     1       5.665 -13.933 -12.148  1.00  0.00     0.210 HD
ENDBRANCH   7  15
ENDBRANCH   1   2
BRANCH   1  17
HETATM   17  C4  UNL     1       4.868 -12.903 -15.536  1.00  0.00     0.265 C 
BRANCH  17  18
HETATM   18  C5  UNL     1       4.561 -13.099 -16.947  1.00  0.00    -0.075 C 
HETATM   19  C6  UNL     1       4.276 -13.256 -18.129  1.00  0.00    -0.065 C 
BRANCH  19  20
HETATM   20  C7  UNL     1       3.916 -13.445 -19.505  1.00  0.00     0.017 A 
HETATM   21  C8  UNL     1       3.179 -12.504 -20.190  1.00  0.00     0.021 A 
HETATM   22  C9  UNL     1       2.847 -12.722 -21.532  1.00  0.00     0.013 A 
HETATM   23  C10 UNL     1       3.236 -13.862 -22.203  1.00  0.00    -0.026 A 
HETATM   24  C17 UNL     1       3.974 -14.789 -21.487  1.00  0.00     0.013 A 
HETATM   25  C18 UNL     1       4.311 -14.589 -20.165  1.00  0.00     0.021 A 
BRANCH  23  26
HETATM   26  C11 UNL     1       2.880 -14.069 -23.602  1.00  0.00    -0.026 A 
HETATM   27  C12 UNL     1       2.332 -13.029 -24.336  1.00  0.00     0.012 A 
HETATM   28  C13 UNL     1       1.982 -13.190 -25.660  1.00  0.00     0.001 A 
HETATM   29  C14 UNL     1       2.162 -14.393 -26.310  1.00  0.00     0.000 A 
HETATM   30  C15 UNL     1       2.703 -15.437 -25.600  1.00  0.00     0.001 A 
HETATM   31  C16 UNL     1       3.054 -15.266 -24.265  1.00  0.00     0.012 A 
ENDBRANCH  23  26
ENDBRANCH  19  20
ENDBRANCH  17  18
ENDBRANCH   1  17
TORSDOF 10
ENDMDL
