MODEL 1
REMARK VINA RESULT: -8.189914409      0.000      0.000
REMARK  10 active torsions:
REMARK  status: ('A' for Active; 'I' for Inactive)
REMARK    1  A    between atoms: O1_1  and  C1_3 
REMARK    2  A    between atoms: C1_3  and  C2_4 
REMARK    3  A    between atoms: C3_6  and  O3_7 
REMARK    4  A    between atoms: O3_7  and  C4_8 
REMARK    5  A    between atoms: C4_8  and  C5_9 
REMARK    6  A    between atoms: C6_10  and  C7_11 
REMARK    7  A    between atoms: C10_14  and  C11_15 
REMARK    8  A    between atoms: C19_23  and  O4_24 
REMARK    9  A    between atoms: C20_26  and  O5_27 
REMARK   10  A    between atoms: C21_29  and  O6_30 
ROOT
HETATM    1  O3  UNL     1       4.036 -12.064 -13.411  1.00  0.00    -0.347 OA
ENDROOT
BRANCH   1   2
HETATM    2  C3  UNL     1       3.213 -13.106 -13.015  1.00  0.00     0.292 C 
HETATM    3  O2  UNL     1       2.744 -13.757 -14.166  1.00  0.00    -0.348 OA
HETATM    4  C2  UNL     1       1.699 -14.611 -13.892  1.00  0.00     0.179 C 
HETATM    5  C21 UNL     1       1.792 -15.165 -12.506  1.00  0.00     0.180 C 
HETATM    6  C20 UNL     1       3.277 -15.428 -12.233  1.00  0.00     0.183 C 
HETATM    7  C19 UNL     1       3.922 -14.048 -12.093  1.00  0.00     0.204 C 
BRANCH   4   8
HETATM    8  C1  UNL     1       0.369 -13.947 -14.185  1.00  0.00     0.198 C 
BRANCH   8   9
HETATM    9  O1  UNL     1      -0.202 -13.451 -13.030  1.00  0.00    -0.398 OA
ATOM     10  H1  UNL     1      -0.781 -12.723 -13.222  1.00  0.00     0.209 HD
ENDBRANCH   8   9
ENDBRANCH   4   8
BRANCH   5  11
HETATM   11  O6  UNL     1       1.148 -16.392 -12.387  1.00  0.00    -0.390 OA
ATOM     12  H6  UNL     1       0.978 -16.621 -11.481  1.00  0.00     0.210 HD
ENDBRANCH   5  11
BRANCH   6  13
HETATM   13  O5  UNL     1       3.419 -16.131 -11.036  1.00  0.00    -0.390 OA
ATOM     14  H5  UNL     1       3.060 -15.616 -10.323  1.00  0.00     0.210 HD
ENDBRANCH   6  13
BRANCH   7  15
HETATM   15  O4  UNL     1       3.712 -13.642 -10.783  1.00  0.00    -0.388 OA
ATOM     16  H4  UNL     1       2.943 -13.086 -10.751  1.00  0.00     0.210 HD
ENDBRANCH   7  15
ENDBRANCH   1   2
BRANCH   1  17
HETATM   17  C4  UNL     1       5.216 -12.429 -13.990  1.00  0.00     0.265 C 
BRANCH  17  18
HETATM   18  C5  UNL     1       5.013 -12.796 -15.385  1.00  0.00    -0.075 C 
HETATM   19  C6  UNL     1       4.816 -13.109 -16.555  1.00  0.00    -0.065 C 
BRANCH  19  20
HETATM   20  C7  UNL     1       4.563 -13.489 -17.914  1.00  0.00     0.017 A 
HETATM   21  C8  UNL     1       4.946 -14.720 -18.399  1.00  0.00     0.021 A 
HETATM   22  C9  UNL     1       4.681 -15.057 -19.731  1.00  0.00     0.013 A 
HETATM   23  C10 UNL     1       4.041 -14.187 -20.590  1.00  0.00    -0.026 A 
HETATM   24  C17 UNL     1       3.670 -12.958 -20.073  1.00  0.00     0.013 A 
HETATM   25  C18 UNL     1       3.922 -12.611 -18.763  1.00  0.00     0.021 A 
BRANCH  23  26
HETATM   26  C11 UNL     1       3.775 -14.558 -21.974  1.00  0.00    -0.026 A 
HETATM   27  C12 UNL     1       4.116 -15.823 -22.428  1.00  0.00     0.012 A 
HETATM   28  C13 UNL     1       3.880 -16.207 -23.731  1.00  0.00     0.001 A 
HETATM   29  C14 UNL     1       3.295 -15.349 -24.639  1.00  0.00     0.000 A 
HETATM   30  C15 UNL     1       2.950 -14.091 -24.210  1.00  0.00     0.001 A 
HETATM   31  C16 UNL     1       3.191 -13.711 -22.894  1.00  0.00     0.012 A 
ENDBRANCH  23  26
ENDBRANCH  19  20
ENDBRANCH  17  18
ENDBRANCH   1  17
TORSDOF 10
ENDMDL
