MODEL 7
REMARK VINA RESULT: -7.619327322      0.915      1.420
REMARK  10 active torsions:
REMARK  status: ('A' for Active; 'I' for Inactive)
REMARK    1  A    between atoms: O1_1  and  C1_3 
REMARK    2  A    between atoms: C1_3  and  C2_4 
REMARK    3  A    between atoms: C3_6  and  O3_7 
REMARK    4  A    between atoms: O3_7  and  C4_8 
REMARK    5  A    between atoms: C4_8  and  C5_9 
REMARK    6  A    between atoms: C6_10  and  C7_11 
REMARK    7  A    between atoms: C10_14  and  C11_15 
REMARK    8  A    between atoms: C19_23  and  O4_24 
REMARK    9  A    between atoms: C20_26  and  O5_27 
REMARK   10  A    between atoms: C21_29  and  O6_30 
ROOT
HETATM    1  O3  UNL     1       3.779 -11.926 -13.424  1.00  0.00    -0.347 OA
ENDROOT
BRANCH   1   2
HETATM    2  C3  UNL     1       3.040 -13.029 -13.027  1.00  0.00     0.292 C 
HETATM    3  O2  UNL     1       2.592 -13.695 -14.177  1.00  0.00    -0.348 OA
HETATM    4  C2  UNL     1       1.616 -14.624 -13.894  1.00  0.00     0.179 C 
HETATM    5  C21 UNL     1       1.780 -15.191 -12.520  1.00  0.00     0.180 C 
HETATM    6  C20 UNL     1       3.286 -15.352 -12.284  1.00  0.00     0.183 C 
HETATM    7  C19 UNL     1       3.836 -13.932 -12.136  1.00  0.00     0.204 C 
BRANCH   4   8
HETATM    8  C1  UNL     1       0.236 -14.052 -14.147  1.00  0.00     0.198 C 
BRANCH   8   9
HETATM    9  O1  UNL     1      -0.240 -13.396 -13.028  1.00  0.00    -0.398 OA
ATOM     10  H1  UNL     1       0.275 -13.615 -12.260  1.00  0.00     0.209 HD
ENDBRANCH   8   9
ENDBRANCH   4   8
BRANCH   5  11
HETATM   11  O6  UNL     1       1.227 -16.462 -12.406  1.00  0.00    -0.390 OA
ATOM     12  H6  UNL     1       0.792 -16.590 -11.571  1.00  0.00     0.210 HD
ENDBRANCH   5  11
BRANCH   6  13
HETATM   13  O5  UNL     1       3.505 -16.060 -11.102  1.00  0.00    -0.390 OA
ATOM     14  H5  UNL     1       3.410 -16.991 -11.269  1.00  0.00     0.210 HD
ENDBRANCH   6  13
BRANCH   7  15
HETATM   15  O4  UNL     1       3.628 -13.562 -10.815  1.00  0.00    -0.388 OA
ATOM     16  H4  UNL     1       3.764 -14.318 -10.257  1.00  0.00     0.210 HD
ENDBRANCH   7  15
ENDBRANCH   1   2
BRANCH   1  17
HETATM   17  C4  UNL     1       5.033 -12.190 -13.890  1.00  0.00     0.265 C 
BRANCH  17  18
HETATM   18  C5  UNL     1       4.978 -12.721 -15.245  1.00  0.00    -0.075 C 
HETATM   19  C6  UNL     1       4.960 -13.170 -16.387  1.00  0.00    -0.065 C 
BRANCH  19  20
HETATM   20  C7  UNL     1       4.964 -13.688 -17.724  1.00  0.00     0.017 A 
HETATM   21  C8  UNL     1       3.911 -13.468 -18.584  1.00  0.00     0.021 A 
HETATM   22  C9  UNL     1       3.951 -13.989 -19.882  1.00  0.00     0.013 A 
HETATM   23  C10 UNL     1       5.023 -14.726 -20.339  1.00  0.00    -0.026 A 
HETATM   24  C17 UNL     1       6.065 -14.931 -19.451  1.00  0.00     0.013 A 
HETATM   25  C18 UNL     1       6.042 -14.424 -18.169  1.00  0.00     0.021 A 
BRANCH  23  26
HETATM   26  C11 UNL     1       5.045 -15.259 -21.696  1.00  0.00    -0.026 A 
HETATM   27  C12 UNL     1       6.187 -15.129 -22.470  1.00  0.00     0.012 A 
HETATM   28  C13 UNL     1       6.242 -15.620 -23.758  1.00  0.00     0.001 A 
HETATM   29  C14 UNL     1       5.163 -16.261 -24.330  1.00  0.00     0.000 A 
HETATM   30  C15 UNL     1       4.021 -16.400 -23.579  1.00  0.00     0.001 A 
HETATM   31  C16 UNL     1       3.974 -15.902 -22.281  1.00  0.00     0.012 A 
ENDBRANCH  23  26
ENDBRANCH  19  20
ENDBRANCH  17  18
ENDBRANCH   1  17
TORSDOF 10
ENDMDL
