MODEL 2
REMARK VINA RESULT: -8.061567850      0.470      1.024
REMARK  10 active torsions:
REMARK  status: ('A' for Active; 'I' for Inactive)
REMARK    1  A    between atoms: O1_1  and  C1_3 
REMARK    2  A    between atoms: C1_3  and  C2_4 
REMARK    3  A    between atoms: C3_6  and  O3_7 
REMARK    4  A    between atoms: O3_7  and  C4_8 
REMARK    5  A    between atoms: C4_8  and  C5_9 
REMARK    6  A    between atoms: C6_10  and  C7_11 
REMARK    7  A    between atoms: C10_14  and  C11_15 
REMARK    8  A    between atoms: C19_23  and  O4_24 
REMARK    9  A    between atoms: C20_26  and  O5_27 
REMARK   10  A    between atoms: C21_29  and  O6_30 
ROOT
HETATM    1  O3  UNL     1       4.015 -12.152 -13.877  1.00  0.00    -0.347 OA
ENDROOT
BRANCH   1   2
HETATM    2  C3  UNL     1       3.210 -13.136 -13.326  1.00  0.00     0.292 C 
HETATM    3  O2  UNL     1       2.644 -13.878 -14.374  1.00  0.00    -0.348 OA
HETATM    4  C2  UNL     1       1.611 -14.681 -13.945  1.00  0.00     0.179 C 
HETATM    5  C21 UNL     1       1.803 -15.110 -12.526  1.00  0.00     0.180 C 
HETATM    6  C20 UNL     1       3.301 -15.379 -12.342  1.00  0.00     0.183 C 
HETATM    7  C19 UNL     1       3.975 -14.007 -12.378  1.00  0.00     0.204 C 
BRANCH   4   8
HETATM    8  C1  UNL     1       0.272 -14.018 -14.196  1.00  0.00     0.198 C 
BRANCH   8   9
HETATM    9  O1  UNL     1      -0.231 -13.465 -13.035  1.00  0.00    -0.398 OA
ATOM     10  H1  UNL     1      -0.916 -12.835 -13.227  1.00  0.00     0.209 HD
ENDBRANCH   8   9
ENDBRANCH   4   8
BRANCH   5  11
HETATM   11  O6  UNL     1       1.153 -16.308 -12.246  1.00  0.00    -0.390 OA
ATOM     12  H6  UNL     1       1.490 -16.724 -11.462  1.00  0.00     0.210 HD
ENDBRANCH   5  11
BRANCH   6  13
HETATM   13  O5  UNL     1       3.524 -15.974 -11.101  1.00  0.00    -0.390 OA
ATOM     14  H5  UNL     1       3.112 -16.830 -11.081  1.00  0.00     0.210 HD
ENDBRANCH   6  13
BRANCH   7  15
HETATM   15  O4  UNL     1       3.872 -13.480 -11.098  1.00  0.00    -0.388 OA
ATOM     16  H4  UNL     1       3.025 -13.710 -10.736  1.00  0.00     0.210 HD
ENDBRANCH   7  15
ENDBRANCH   1   2
BRANCH   1  17
HETATM   17  C4  UNL     1       5.127 -12.595 -14.531  1.00  0.00     0.265 C 
BRANCH  17  18
HETATM   18  C5  UNL     1       4.818 -12.904 -15.920  1.00  0.00    -0.075 C 
HETATM   19  C6  UNL     1       4.572 -13.188 -17.088  1.00  0.00    -0.065 C 
BRANCH  19  20
HETATM   20  C7  UNL     1       4.306 -13.538 -18.453  1.00  0.00     0.017 A 
HETATM   21  C8  UNL     1       3.716 -12.646 -19.322  1.00  0.00     0.021 A 
HETATM   22  C9  UNL     1       3.473 -13.021 -20.648  1.00  0.00     0.013 A 
HETATM   23  C10 UNL     1       3.807 -14.272 -21.123  1.00  0.00    -0.026 A 
HETATM   24  C17 UNL     1       4.397 -15.146 -20.227  1.00  0.00     0.013 A 
HETATM   25  C18 UNL     1       4.645 -14.791 -18.918  1.00  0.00     0.021 A 
BRANCH  23  26
HETATM   26  C11 UNL     1       3.545 -14.643 -22.509  1.00  0.00    -0.026 A 
HETATM   27  C12 UNL     1       3.949 -15.883 -22.980  1.00  0.00     0.012 A 
HETATM   28  C13 UNL     1       3.718 -16.266 -24.285  1.00  0.00     0.001 A 
HETATM   29  C14 UNL     1       3.077 -15.432 -25.177  1.00  0.00     0.000 A 
HETATM   30  C15 UNL     1       2.670 -14.199 -24.730  1.00  0.00     0.001 A 
HETATM   31  C16 UNL     1       2.905 -13.820 -23.413  1.00  0.00     0.012 A 
ENDBRANCH  23  26
ENDBRANCH  19  20
ENDBRANCH  17  18
ENDBRANCH   1  17
TORSDOF 10
ENDMDL
