MODEL 13
REMARK VINA RESULT: -5.641746311      2.484      4.468
REMARK  12 active torsions:
REMARK  status: ('A' for Active; 'I' for Inactive)
REMARK    1  A    between atoms: C2_2  and  C3_3 
REMARK    2  A    between atoms: C3_3  and  S1_4 
REMARK    3  A    between atoms: S1_4  and  C4_5 
REMARK    4  A    between atoms: C4_5  and  C5_6 
REMARK    5  A    between atoms: C5_6  and  C6_7 
REMARK    6  A    between atoms: C6_7  and  O1_8 
REMARK    7  A    between atoms: O1_8  and  C7_9 
REMARK    8  A    between atoms: C8_11  and  C9_12 
REMARK    9  A    between atoms: C9_12  and  O3_13 
REMARK   10  A    between atoms: C10_15  and  O4_16 
REMARK   11  A    between atoms: C11_18  and  O5_19 
REMARK   12  A    between atoms: C12_21  and  O6_22 
ROOT
HETATM    1  C7  UNL     1     -62.794 -19.709 -21.652  1.00  0.00     0.291 C 
HETATM    2  O2  UNL     1     -62.154 -18.506 -21.639  1.00  0.00    -0.348 OA
HETATM    3  C8  UNL     1     -61.584 -18.183 -20.413  1.00  0.00     0.179 C 
HETATM    4  C10 UNL     1     -60.397 -19.083 -20.125  1.00  0.00     0.180 C 
HETATM    5  C11 UNL     1     -60.527 -20.370 -20.919  1.00  0.00     0.183 C 
HETATM    6  C12 UNL     1     -61.955 -20.785 -21.080  1.00  0.00     0.204 C 
ENDROOT
BRANCH   1   7
HETATM    7  O1  UNL     1     -64.075 -19.657 -21.111  1.00  0.00    -0.358 OA
BRANCH   7   8
HETATM    8  C6  UNL     1     -65.100 -19.905 -21.969  1.00  0.00     0.172 C 
BRANCH   8   9
HETATM    9  C5  UNL     1     -65.758 -21.225 -21.645  1.00  0.00     0.036 C 
BRANCH   9  10
HETATM   10  C4  UNL     1     -65.435 -22.251 -22.744  1.00  0.00     0.076 C 
BRANCH  10  11
HETATM   11  S1  UNL     1     -64.986 -23.841 -22.044  1.00  0.00    -0.169 SA
BRANCH  11  12
HETATM   12  C3  UNL     1     -63.946 -24.801 -23.192  1.00  0.00     0.073 C 
BRANCH  12  13
HETATM   13  C2  UNL     1     -62.687 -25.261 -22.446  1.00  0.00     0.006 C 
HETATM   14  C1  UNL     1     -61.512 -25.277 -23.428  1.00  0.00     0.006 C 
ENDBRANCH  12  13
ENDBRANCH  11  12
ENDBRANCH  10  11
ENDBRANCH   9  10
ENDBRANCH   8   9
ENDBRANCH   7   8
ENDBRANCH   1   7
BRANCH   6  15
HETATM   15  O6  UNL     1     -61.972 -21.900 -21.929  1.00  0.00    -0.388 OA
ATOM     16  H6  UNL     1     -61.571 -22.642 -21.491  1.00  0.00     0.210 HD
ENDBRANCH   6  15
BRANCH   3  17
HETATM   17  C9  UNL     1     -61.203 -16.725 -20.337  1.00  0.00     0.198 C 
BRANCH  17  18
HETATM   18  O3  UNL     1     -59.945 -16.453 -20.852  1.00  0.00    -0.398 OA
ATOM     19  H3  UNL     1     -59.260 -16.437 -20.195  1.00  0.00     0.209 HD
ENDBRANCH  17  18
ENDBRANCH   3  17
BRANCH   5  20
HETATM   20  O5  UNL     1     -59.924 -20.301 -22.170  1.00  0.00    -0.390 OA
ATOM     21  H5  UNL     1     -59.764 -19.409 -22.457  1.00  0.00     0.210 HD
ENDBRANCH   5  20
BRANCH   4  22
HETATM   22  O4  UNL     1     -60.253 -19.332 -18.771  1.00  0.00    -0.390 OA
ATOM     23  H4  UNL     1     -59.934 -20.210 -18.603  1.00  0.00     0.210 HD
ENDBRANCH   4  22
TORSDOF 12
ENDMDL
