MODEL 3
REMARK VINA RESULT: -5.976800096      1.342      1.658
REMARK  12 active torsions:
REMARK  status: ('A' for Active; 'I' for Inactive)
REMARK    1  A    between atoms: C2_2  and  C3_3 
REMARK    2  A    between atoms: C3_3  and  S1_4 
REMARK    3  A    between atoms: S1_4  and  C4_5 
REMARK    4  A    between atoms: C4_5  and  C5_6 
REMARK    5  A    between atoms: C5_6  and  C6_7 
REMARK    6  A    between atoms: C6_7  and  O1_8 
REMARK    7  A    between atoms: O1_8  and  C7_9 
REMARK    8  A    between atoms: C8_11  and  C9_12 
REMARK    9  A    between atoms: C9_12  and  O3_13 
REMARK   10  A    between atoms: C10_15  and  O4_16 
REMARK   11  A    between atoms: C11_18  and  O5_19 
REMARK   12  A    between atoms: C12_21  and  O6_22 
ROOT
HETATM    1  C7  UNL     1     -62.837 -19.619 -21.771  1.00  0.00     0.291 C 
HETATM    2  O2  UNL     1     -62.163 -18.435 -21.741  1.00  0.00    -0.348 OA
HETATM    3  C8  UNL     1     -61.626 -18.122 -20.498  1.00  0.00     0.179 C 
HETATM    4  C10 UNL     1     -60.476 -19.055 -20.165  1.00  0.00     0.180 C 
HETATM    5  C11 UNL     1     -60.616 -20.342 -20.957  1.00  0.00     0.183 C 
HETATM    6  C12 UNL     1     -62.051 -20.716 -21.165  1.00  0.00     0.204 C 
ENDROOT
BRANCH   1   7
HETATM    7  O1  UNL     1     -64.134 -19.526 -21.274  1.00  0.00    -0.358 OA
BRANCH   7   8
HETATM    8  C6  UNL     1     -65.089 -19.135 -22.159  1.00  0.00     0.172 C 
BRANCH   8   9
HETATM    9  C5  UNL     1     -66.387 -18.840 -21.447  1.00  0.00     0.036 C 
BRANCH   9  10
HETATM   10  C4  UNL     1     -66.808 -17.385 -21.714  1.00  0.00     0.076 C 
BRANCH  10  11
HETATM   11  S1  UNL     1     -67.895 -17.268 -23.137  1.00  0.00    -0.169 SA
BRANCH  11  12
HETATM   12  C3  UNL     1     -68.932 -15.771 -23.058  1.00  0.00     0.073 C 
BRANCH  12  13
HETATM   13  C2  UNL     1     -68.574 -14.993 -21.786  1.00  0.00     0.006 C 
HETATM   14  C1  UNL     1     -68.882 -13.510 -22.014  1.00  0.00     0.006 C 
ENDBRANCH  12  13
ENDBRANCH  11  12
ENDBRANCH  10  11
ENDBRANCH   9  10
ENDBRANCH   8   9
ENDBRANCH   7   8
ENDBRANCH   1   7
BRANCH   6  15
HETATM   15  O6  UNL     1     -62.071 -21.835 -22.008  1.00  0.00    -0.388 OA
ATOM     16  H6  UNL     1     -61.240 -22.293 -21.953  1.00  0.00     0.210 HD
ENDBRANCH   6  15
BRANCH   3  17
HETATM   17  C9  UNL     1     -61.205 -16.675 -20.416  1.00  0.00     0.198 C 
BRANCH  17  18
HETATM   18  O3  UNL     1     -59.902 -16.452 -20.834  1.00  0.00    -0.398 OA
ATOM     19  H3  UNL     1     -59.441 -15.804 -20.315  1.00  0.00     0.209 HD
ENDBRANCH  17  18
ENDBRANCH   3  17
BRANCH   5  20
HETATM   20  O5  UNL     1     -59.970 -20.298 -22.186  1.00  0.00    -0.390 OA
ATOM     21  H5  UNL     1     -59.046 -20.089 -22.114  1.00  0.00     0.210 HD
ENDBRANCH   5  20
BRANCH   4  22
HETATM   22  O4  UNL     1     -60.387 -19.299 -18.806  1.00  0.00    -0.390 OA
ATOM     23  H4  UNL     1     -59.660 -18.834 -18.409  1.00  0.00     0.210 HD
ENDBRANCH   4  22
TORSDOF 12
ENDMDL
