MODEL 1
REMARK VINA RESULT: -6.244261676      0.000      0.000
REMARK  12 active torsions:
REMARK  status: ('A' for Active; 'I' for Inactive)
REMARK    1  A    between atoms: C2_2  and  C3_3 
REMARK    2  A    between atoms: C3_3  and  S1_4 
REMARK    3  A    between atoms: S1_4  and  C4_5 
REMARK    4  A    between atoms: C4_5  and  C5_6 
REMARK    5  A    between atoms: C5_6  and  C6_7 
REMARK    6  A    between atoms: C6_7  and  O1_8 
REMARK    7  A    between atoms: O1_8  and  C7_9 
REMARK    8  A    between atoms: C8_11  and  C9_12 
REMARK    9  A    between atoms: C9_12  and  O3_13 
REMARK   10  A    between atoms: C10_15  and  O4_16 
REMARK   11  A    between atoms: C11_18  and  O5_19 
REMARK   12  A    between atoms: C12_21  and  O6_22 
ROOT
HETATM    1  C7  UNL     1     -61.593 -20.074 -22.390  1.00  0.00     0.291 C 
HETATM    2  O2  UNL     1     -61.118 -18.807 -22.222  1.00  0.00    -0.348 OA
HETATM    3  C8  UNL     1     -61.403 -18.258 -20.978  1.00  0.00     0.179 C 
HETATM    4  C10 UNL     1     -60.603 -18.955 -19.893  1.00  0.00     0.180 C 
HETATM    5  C11 UNL     1     -60.200 -20.340 -20.364  1.00  0.00     0.183 C 
HETATM    6  C12 UNL     1     -61.238 -20.951 -21.253  1.00  0.00     0.204 C 
ENDROOT
BRANCH   1   7
HETATM    7  O1  UNL     1     -62.944 -20.115 -22.721  1.00  0.00    -0.358 OA
BRANCH   7   8
HETATM    8  C6  UNL     1     -63.735 -20.882 -21.924  1.00  0.00     0.172 C 
BRANCH   8   9
HETATM    9  C5  UNL     1     -64.706 -20.023 -21.152  1.00  0.00     0.036 C 
BRANCH   9  10
HETATM   10  C4  UNL     1     -65.218 -18.881 -22.047  1.00  0.00     0.076 C 
BRANCH  10  11
HETATM   11  S1  UNL     1     -66.942 -18.511 -21.715  1.00  0.00    -0.169 SA
BRANCH  11  12
HETATM   12  C3  UNL     1     -67.488 -17.027 -22.621  1.00  0.00     0.073 C 
BRANCH  12  13
HETATM   13  C2  UNL     1     -67.880 -15.948 -21.605  1.00  0.00     0.006 C 
HETATM   14  C1  UNL     1     -67.904 -16.574 -20.208  1.00  0.00     0.006 C 
ENDBRANCH  12  13
ENDBRANCH  11  12
ENDBRANCH  10  11
ENDBRANCH   9  10
ENDBRANCH   8   9
ENDBRANCH   7   8
ENDBRANCH   1   7
BRANCH   6  15
HETATM   15  O6  UNL     1     -60.715 -22.160 -21.732  1.00  0.00    -0.388 OA
ATOM     16  H6  UNL     1     -60.092 -22.510 -21.107  1.00  0.00     0.210 HD
ENDBRANCH   6  15
BRANCH   3  17
HETATM   17  C9  UNL     1     -61.179 -16.766 -20.958  1.00  0.00     0.198 C 
BRANCH  17  18
HETATM   18  O3  UNL     1     -59.843 -16.407 -20.869  1.00  0.00    -0.398 OA
ATOM     19  H3  UNL     1     -59.613 -15.659 -21.408  1.00  0.00     0.209 HD
ENDBRANCH  17  18
ENDBRANCH   3  17
BRANCH   5  20
HETATM   20  O5  UNL     1     -58.971 -20.358 -21.013  1.00  0.00    -0.390 OA
ATOM     21  H5  UNL     1     -59.044 -20.237 -21.953  1.00  0.00     0.210 HD
ENDBRANCH   5  20
BRANCH   4  22
HETATM   22  O4  UNL     1     -61.292 -19.004 -18.694  1.00  0.00    -0.390 OA
ATOM     23  H4  UNL     1     -60.762 -18.700 -17.967  1.00  0.00     0.210 HD
ENDBRANCH   4  22
TORSDOF 12
ENDMDL
