MODEL 12
REMARK VINA RESULT: -6.006467809      2.540      3.533
REMARK  16 active torsions:
REMARK  status: ('A' for Active; 'I' for Inactive)
REMARK    1  A    between atoms: O1_2  and  C2_3 
REMARK    2  A    between atoms: C2_3  and  C3_5 
REMARK    3  A    between atoms: C3_5  and  C4_6 
REMARK    4  A    between atoms: C4_6  and  C5_7 
REMARK    5  A    between atoms: C5_7  and  C6_8 
REMARK    6  A    between atoms: C6_8  and  C7_9 
REMARK    7  A    between atoms: C7_9  and  C8_10 
REMARK    8  A    between atoms: C8_10  and  C9_11 
REMARK    9  A    between atoms: C9_11  and  C10_12 
REMARK   10  A    between atoms: C10_12  and  O3_13 
REMARK   11  A    between atoms: O3_13  and  C11_14 
REMARK   12  A    between atoms: C12_16  and  C13_17 
REMARK   13  A    between atoms: C13_17  and  O5_18 
REMARK   14  A    between atoms: C14_20  and  O6_21 
REMARK   15  A    between atoms: C15_23  and  O7_24 
REMARK   16  A    between atoms: C16_26  and  O8_27 
ROOT
HETATM    1  C11 UNL     1      13.382 -62.119  22.921  1.00  0.00     0.291 C 
HETATM    2  O4  UNL     1      14.427 -61.411  22.373  1.00  0.00    -0.348 OA
HETATM    3  C12 UNL     1      14.632 -61.750  21.046  1.00  0.00     0.179 C 
HETATM    4  C14 UNL     1      13.433 -61.198  20.286  1.00  0.00     0.180 C 
HETATM    5  C15 UNL     1      12.292 -62.158  20.648  1.00  0.00     0.183 C 
HETATM    6  C16 UNL     1      12.116 -62.084  22.123  1.00  0.00     0.204 C 
ENDROOT
BRANCH   1   7
HETATM    7  O3  UNL     1      13.826 -63.408  23.195  1.00  0.00    -0.359 OA
BRANCH   7   8
HETATM    8  C10 UNL     1      12.846 -64.361  23.248  1.00  0.00     0.171 C 
BRANCH   8   9
HETATM    9  C9  UNL     1      13.189 -65.670  22.571  1.00  0.00     0.026 C 
BRANCH   9  10
HETATM   10  C8  UNL     1      13.968 -65.348  21.317  1.00  0.00     0.002 C 
BRANCH  10  11
HETATM   11  C7  UNL     1      15.227 -66.204  21.289  1.00  0.00     0.000 C 
BRANCH  11  12
HETATM   12  C6  UNL     1      16.379 -65.553  21.976  1.00  0.00     0.000 C 
BRANCH  12  13
HETATM   13  C5  UNL     1      17.371 -66.603  22.432  1.00  0.00     0.000 C 
BRANCH  13  14
HETATM   14  C4  UNL     1      17.461 -66.726  23.911  1.00  0.00     0.010 C 
BRANCH  14  15
HETATM   15  C3  UNL     1      16.345 -67.557  24.465  1.00  0.00     0.111 C 
BRANCH  15  16
HETATM   16  C2  UNL     1      15.437 -66.758  25.290  1.00  0.00     0.258 C 
HETATM   17  O2  UNL     1      14.315 -67.176  25.614  1.00  0.00    -0.265 OA
BRANCH  16  18
HETATM   18  O1  UNL     1      15.823 -65.508  25.729  1.00  0.00    -0.326 OA
HETATM   19  C1  UNL     1      14.899 -64.688  26.401  1.00  0.00     0.213 C 
ENDBRANCH  16  18
ENDBRANCH  15  16
ENDBRANCH  14  15
ENDBRANCH  13  14
ENDBRANCH  12  13
ENDBRANCH  11  12
ENDBRANCH  10  11
ENDBRANCH   9  10
ENDBRANCH   8   9
ENDBRANCH   7   8
ENDBRANCH   1   7
BRANCH   6  20
HETATM   20  O8  UNL     1      11.347 -60.944  22.406  1.00  0.00    -0.388 OA
ATOM     21  H8  UNL     1      11.840 -60.294  22.893  1.00  0.00     0.210 HD
ENDBRANCH   6  20
BRANCH   3  22
HETATM   22  C13 UNL     1      15.889 -61.196  20.468  1.00  0.00     0.198 C 
BRANCH  22  23
HETATM   23  O5  UNL     1      15.965 -59.844  20.693  1.00  0.00    -0.398 OA
ATOM     24  H5  UNL     1      16.726 -59.638  21.223  1.00  0.00     0.209 HD
ENDBRANCH  22  23
ENDBRANCH   3  22
BRANCH   5  25
HETATM   25  O7  UNL     1      11.117 -61.831  20.008  1.00  0.00    -0.390 OA
ATOM     26  H7  UNL     1      10.892 -60.915  20.122  1.00  0.00     0.210 HD
ENDBRANCH   5  25
BRANCH   4  27
HETATM   27  O6  UNL     1      13.652 -61.161  18.924  1.00  0.00    -0.390 OA
ATOM     28  H6  UNL     1      13.199 -61.861  18.469  1.00  0.00     0.210 HD
ENDBRANCH   4  27
TORSDOF 16
ENDMDL
