MODEL 14
REMARK VINA RESULT: -5.963226358      2.895      4.640
REMARK  16 active torsions:
REMARK  status: ('A' for Active; 'I' for Inactive)
REMARK    1  A    between atoms: O1_2  and  C2_3 
REMARK    2  A    between atoms: C2_3  and  C3_5 
REMARK    3  A    between atoms: C3_5  and  C4_6 
REMARK    4  A    between atoms: C4_6  and  C5_7 
REMARK    5  A    between atoms: C5_7  and  C6_8 
REMARK    6  A    between atoms: C6_8  and  C7_9 
REMARK    7  A    between atoms: C7_9  and  C8_10 
REMARK    8  A    between atoms: C8_10  and  C9_11 
REMARK    9  A    between atoms: C9_11  and  C10_12 
REMARK   10  A    between atoms: C10_12  and  O3_13 
REMARK   11  A    between atoms: O3_13  and  C11_14 
REMARK   12  A    between atoms: C12_16  and  C13_17 
REMARK   13  A    between atoms: C13_17  and  O5_18 
REMARK   14  A    between atoms: C14_20  and  O6_21 
REMARK   15  A    between atoms: C15_23  and  O7_24 
REMARK   16  A    between atoms: C16_26  and  O8_27 
ROOT
HETATM    1  C11 UNL     1      12.937 -62.149  22.872  1.00  0.00     0.291 C 
HETATM    2  O4  UNL     1      14.079 -61.536  22.411  1.00  0.00    -0.348 OA
HETATM    3  C12 UNL     1      14.340 -61.869  21.092  1.00  0.00     0.179 C 
HETATM    4  C14 UNL     1      13.252 -61.191  20.269  1.00  0.00     0.180 C 
HETATM    5  C15 UNL     1      12.004 -62.043  20.533  1.00  0.00     0.183 C 
HETATM    6  C16 UNL     1      11.736 -61.978  21.995  1.00  0.00     0.204 C 
ENDROOT
BRANCH   1   7
HETATM    7  O3  UNL     1      13.237 -63.479  23.144  1.00  0.00    -0.359 OA
BRANCH   7   8
HETATM    8  C10 UNL     1      13.928 -63.694  24.306  1.00  0.00     0.171 C 
BRANCH   8   9
HETATM    9  C9  UNL     1      14.918 -64.836  24.259  1.00  0.00     0.026 C 
BRANCH   9  10
HETATM   10  C8  UNL     1      15.279 -65.073  22.810  1.00  0.00     0.002 C 
BRANCH  10  11
HETATM   11  C7  UNL     1      16.391 -66.111  22.745  1.00  0.00     0.000 C 
BRANCH  11  12
HETATM   12  C6  UNL     1      16.045 -67.270  21.873  1.00  0.00     0.000 C 
BRANCH  12  13
HETATM   13  C5  UNL     1      14.625 -67.130  21.364  1.00  0.00     0.000 C 
BRANCH  13  14
HETATM   14  C4  UNL     1      13.731 -68.236  21.799  1.00  0.00     0.010 C 
BRANCH  14  15
HETATM   15  C3  UNL     1      12.560 -67.725  22.579  1.00  0.00     0.111 C 
BRANCH  15  16
HETATM   16  C2  UNL     1      11.402 -67.483  21.716  1.00  0.00     0.258 C 
HETATM   17  O2  UNL     1      11.239 -68.109  20.657  1.00  0.00    -0.265 OA
BRANCH  16  18
HETATM   18  O1  UNL     1      10.459 -66.543  22.075  1.00  0.00    -0.326 OA
HETATM   19  C1  UNL     1      10.641 -65.781  23.242  1.00  0.00     0.213 C 
ENDBRANCH  16  18
ENDBRANCH  15  16
ENDBRANCH  14  15
ENDBRANCH  13  14
ENDBRANCH  12  13
ENDBRANCH  11  12
ENDBRANCH  10  11
ENDBRANCH   9  10
ENDBRANCH   8   9
ENDBRANCH   7   8
ENDBRANCH   1   7
BRANCH   6  20
HETATM   20  O8  UNL     1      11.062 -60.775  22.254  1.00  0.00    -0.388 OA
ATOM     21  H8  UNL     1      10.336 -60.896  22.854  1.00  0.00     0.210 HD
ENDBRANCH   6  20
BRANCH   3  22
HETATM   22  C13 UNL     1      15.680 -61.428  20.612  1.00  0.00     0.198 C 
BRANCH  22  23
HETATM   23  O5  UNL     1      15.828 -60.074  20.780  1.00  0.00    -0.398 OA
ATOM     24  H5  UNL     1      16.530 -59.747  20.231  1.00  0.00     0.209 HD
ENDBRANCH  22  23
ENDBRANCH   3  22
BRANCH   5  25
HETATM   25  O7  UNL     1      10.911 -61.592  19.825  1.00  0.00    -0.390 OA
ATOM     26  H7  UNL     1      10.324 -62.300  19.586  1.00  0.00     0.210 HD
ENDBRANCH   5  25
BRANCH   4  27
HETATM   27  O6  UNL     1      13.565 -61.151  18.926  1.00  0.00    -0.390 OA
ATOM     28  H6  UNL     1      13.446 -61.994  18.505  1.00  0.00     0.210 HD
ENDBRANCH   4  27
TORSDOF 16
ENDMDL
