MODEL 5
REMARK VINA RESULT: -6.252063750      1.879      2.442
REMARK  12 active torsions:
REMARK  status: ('A' for Active; 'I' for Inactive)
REMARK    1  A    between atoms: O1_1  and  C1_3 
REMARK    2  A    between atoms: C1_3  and  C2_4 
REMARK    3  A    between atoms: N1_6  and  C4_7 
REMARK    4  A    between atoms: C4_7  and  C5_8 
REMARK    5  A    between atoms: C5_8  and  C6_9 
REMARK    6  A    between atoms: C9_12  and  O2_13 
REMARK    7  A    between atoms: O2_13  and  C10_14 
REMARK    8  A    between atoms: C11_16  and  C12_17 
REMARK    9  A    between atoms: C12_17  and  O4_18 
REMARK   10  A    between atoms: C13_20  and  O5_21 
REMARK   11  A    between atoms: C14_23  and  O6_24 
REMARK   12  A    between atoms: C15_26  and  O7_27 
ROOT
HETATM    1  C6  UNL     1     -66.836 -17.899 -23.218  1.00  0.00    -0.056 A 
HETATM    2  C7  UNL     1     -66.267 -17.827 -21.964  1.00  0.00     0.010 A 
HETATM    3  C8  UNL     1     -65.124 -18.564 -21.733  1.00  0.00     0.037 A 
HETATM    4  C9  UNL     1     -64.533 -19.360 -22.691  1.00  0.00     0.072 A 
HETATM    5  C16 UNL     1     -65.112 -19.421 -23.937  1.00  0.00     0.037 A 
HETATM    6  C17 UNL     1     -66.274 -18.686 -24.206  1.00  0.00     0.010 A 
ENDROOT
BRANCH   4   7
HETATM    7  O2  UNL     1     -63.410 -20.048 -22.372  1.00  0.00    -0.318 OA
BRANCH   7   8
HETATM    8  C10 UNL     1     -62.268 -19.662 -21.702  1.00  0.00     0.298 C 
HETATM    9  O3  UNL     1     -62.547 -18.891 -20.550  1.00  0.00    -0.348 OA
HETATM   10  C11 UNL     1     -61.440 -18.071 -20.354  1.00  0.00     0.179 C 
HETATM   11  C13 UNL     1     -60.138 -18.715 -20.768  1.00  0.00     0.180 C 
HETATM   12  C14 UNL     1     -60.181 -20.223 -20.588  1.00  0.00     0.183 C 
HETATM   13  C15 UNL     1     -61.422 -20.822 -21.216  1.00  0.00     0.205 C 
BRANCH  10  14
HETATM   14  C12 UNL     1     -61.658 -16.807 -21.198  1.00  0.00     0.198 C 
BRANCH  14  15
HETATM   15  O4  UNL     1     -60.662 -15.866 -20.932  1.00  0.00    -0.398 OA
ATOM     16  H4  UNL     1     -61.045 -15.063 -20.600  1.00  0.00     0.209 HD
ENDBRANCH  14  15
ENDBRANCH  10  14
BRANCH  11  17
HETATM   17  O5  UNL     1     -59.135 -18.262 -19.890  1.00  0.00    -0.390 OA
ATOM     18  H5  UNL     1     -58.604 -19.010 -19.645  1.00  0.00     0.210 HD
ENDBRANCH  11  17
BRANCH  12  19
HETATM   19  O6  UNL     1     -59.008 -20.736 -21.141  1.00  0.00    -0.390 OA
ATOM     20  H6  UNL     1     -59.239 -21.542 -21.589  1.00  0.00     0.210 HD
ENDBRANCH  12  19
BRANCH  13  21
HETATM   21  O7  UNL     1     -61.075 -21.675 -22.265  1.00  0.00    -0.388 OA
ATOM     22  H7  UNL     1     -61.700 -21.620 -22.979  1.00  0.00     0.210 HD
ENDBRANCH  13  21
ENDBRANCH   7   8
ENDBRANCH   4   7
BRANCH   1  23
HETATM   23  C5  UNL     1     -68.063 -17.123 -23.506  1.00  0.00     0.060 C 
BRANCH  23  24
HETATM   24  C4  UNL     1     -69.054 -17.197 -22.354  1.00  0.00     0.150 C 
BRANCH  24  25
HETATM   25  N1  UNL     1     -69.143 -15.902 -21.699  1.00  0.00    -0.285 N 
HETATM   26  C3  UNL     1     -68.984 -14.704 -22.300  1.00  0.00     0.136 A 
HETATM   27  C2  UNL     1     -69.138 -13.696 -21.370  1.00  0.00     0.064 A 
HETATM   28  N3  UNL     1     -69.393 -14.336 -20.200  1.00  0.00    -0.285 N 
HETATM   29  N2  UNL     1     -69.391 -15.646 -20.424  1.00  0.00    -0.020 NA
ATOM     30  H3  UNL     1     -69.559 -13.887 -19.299  1.00  0.00     0.184 HD
BRANCH  27  31
HETATM   31  C1  UNL     1     -69.049 -12.220 -21.576  1.00  0.00     0.223 C 
BRANCH  31  32
HETATM   32  O1  UNL     1     -67.740 -11.810 -21.299  1.00  0.00    -0.395 OA
ATOM     33  H1  UNL     1     -67.498 -11.131 -21.918  1.00  0.00     0.209 HD
ENDBRANCH  31  32
ENDBRANCH  27  31
ENDBRANCH  24  25
ENDBRANCH  23  24
ENDBRANCH   1  23
TORSDOF 12
ENDMDL
