MODEL 8
REMARK VINA RESULT: -6.145578155      2.610      3.104
REMARK  12 active torsions:
REMARK  status: ('A' for Active; 'I' for Inactive)
REMARK    1  A    between atoms: O1_1  and  C1_3 
REMARK    2  A    between atoms: C1_3  and  C2_4 
REMARK    3  A    between atoms: N1_6  and  C4_7 
REMARK    4  A    between atoms: C4_7  and  C5_8 
REMARK    5  A    between atoms: C5_8  and  C6_9 
REMARK    6  A    between atoms: C9_12  and  O2_13 
REMARK    7  A    between atoms: O2_13  and  C10_14 
REMARK    8  A    between atoms: C11_16  and  C12_17 
REMARK    9  A    between atoms: C12_17  and  O4_18 
REMARK   10  A    between atoms: C13_20  and  O5_21 
REMARK   11  A    between atoms: C14_23  and  O6_24 
REMARK   12  A    between atoms: C15_26  and  O7_27 
ROOT
HETATM    1  C6  UNL     1     -67.230 -17.808 -22.913  1.00  0.00    -0.056 A 
HETATM    2  C7  UNL     1     -66.735 -18.420 -24.044  1.00  0.00     0.010 A 
HETATM    3  C8  UNL     1     -65.480 -18.986 -23.972  1.00  0.00     0.037 A 
HETATM    4  C9  UNL     1     -64.707 -18.968 -22.830  1.00  0.00     0.072 A 
HETATM    5  C16 UNL     1     -65.216 -18.354 -21.709  1.00  0.00     0.037 A 
HETATM    6  C17 UNL     1     -66.488 -17.768 -21.747  1.00  0.00     0.010 A 
ENDROOT
BRANCH   4   7
HETATM    7  O2  UNL     1     -63.485 -19.551 -22.853  1.00  0.00    -0.318 OA
BRANCH   7   8
HETATM    8  C10 UNL     1     -62.371 -19.355 -22.064  1.00  0.00     0.298 C 
HETATM    9  O3  UNL     1     -62.683 -18.766 -20.818  1.00  0.00    -0.348 OA
HETATM   10  C11 UNL     1     -61.547 -18.062 -20.426  1.00  0.00     0.179 C 
HETATM   11  C13 UNL     1     -60.258 -18.715 -20.867  1.00  0.00     0.180 C 
HETATM   12  C14 UNL     1     -60.397 -20.226 -20.943  1.00  0.00     0.183 C 
HETATM   13  C15 UNL     1     -61.625 -20.632 -21.731  1.00  0.00     0.205 C 
BRANCH  10  14
HETATM   14  C12 UNL     1     -61.638 -16.667 -21.058  1.00  0.00     0.198 C 
BRANCH  14  15
HETATM   15  O4  UNL     1     -60.500 -15.919 -20.752  1.00  0.00    -0.398 OA
ATOM     16  H4  UNL     1     -59.722 -16.345 -21.092  1.00  0.00     0.209 HD
ENDBRANCH  14  15
ENDBRANCH  10  14
BRANCH  11  17
HETATM   17  O5  UNL     1     -59.293 -18.477 -19.869  1.00  0.00    -0.390 OA
ATOM     18  H5  UNL     1     -58.470 -18.282 -20.303  1.00  0.00     0.210 HD
ENDBRANCH  11  17
BRANCH  12  19
HETATM   19  O6  UNL     1     -59.220 -20.718 -21.506  1.00  0.00    -0.390 OA
ATOM     20  H6  UNL     1     -58.986 -20.136 -22.219  1.00  0.00     0.210 HD
ENDBRANCH  12  19
BRANCH  13  21
HETATM   21  O7  UNL     1     -61.257 -21.324 -22.885  1.00  0.00    -0.388 OA
ATOM     22  H7  UNL     1     -60.349 -21.603 -22.849  1.00  0.00     0.210 HD
ENDBRANCH  13  21
ENDBRANCH   7   8
ENDBRANCH   4   7
BRANCH   1  23
HETATM   23  C5  UNL     1     -68.575 -17.188 -22.949  1.00  0.00     0.060 C 
BRANCH  23  24
HETATM   24  C4  UNL     1     -68.501 -15.684 -22.736  1.00  0.00     0.150 C 
BRANCH  24  25
HETATM   25  N1  UNL     1     -69.156 -15.332 -21.487  1.00  0.00    -0.285 N 
HETATM   26  C3  UNL     1     -69.911 -16.160 -20.734  1.00  0.00     0.136 A 
HETATM   27  C2  UNL     1     -70.370 -15.484 -19.622  1.00  0.00     0.064 A 
HETATM   28  N3  UNL     1     -69.862 -14.230 -19.741  1.00  0.00    -0.285 N 
HETATM   29  N2  UNL     1     -69.144 -14.167 -20.858  1.00  0.00    -0.020 NA
ATOM     30  H3  UNL     1     -70.007 -13.464 -19.082  1.00  0.00     0.184 HD
BRANCH  27  31
HETATM   31  C1  UNL     1     -71.234 -15.994 -18.516  1.00  0.00     0.223 C 
BRANCH  31  32
HETATM   32  O1  UNL     1     -71.684 -17.274 -18.857  1.00  0.00    -0.395 OA
ATOM     33  H1  UNL     1     -72.614 -17.228 -19.045  1.00  0.00     0.209 HD
ENDBRANCH  31  32
ENDBRANCH  27  31
ENDBRANCH  24  25
ENDBRANCH  23  24
ENDBRANCH   1  23
TORSDOF 12
ENDMDL
