MODEL 6
REMARK VINA RESULT: -6.208964230      4.667      6.284
REMARK  12 active torsions:
REMARK  status: ('A' for Active; 'I' for Inactive)
REMARK    1  A    between atoms: O1_1  and  C1_3 
REMARK    2  A    between atoms: C1_3  and  C2_4 
REMARK    3  A    between atoms: N1_6  and  C4_7 
REMARK    4  A    between atoms: C4_7  and  C5_8 
REMARK    5  A    between atoms: C5_8  and  C6_9 
REMARK    6  A    between atoms: C9_12  and  O2_13 
REMARK    7  A    between atoms: O2_13  and  C10_14 
REMARK    8  A    between atoms: C11_16  and  C12_17 
REMARK    9  A    between atoms: C12_17  and  O4_18 
REMARK   10  A    between atoms: C13_20  and  O5_21 
REMARK   11  A    between atoms: C14_23  and  O6_24 
REMARK   12  A    between atoms: C15_26  and  O7_27 
ROOT
HETATM    1  C6  UNL     1     -67.261 -20.209 -22.226  1.00  0.00    -0.056 A 
HETATM    2  C7  UNL     1     -66.954 -18.938 -21.788  1.00  0.00     0.010 A 
HETATM    3  C8  UNL     1     -65.670 -18.480 -21.991  1.00  0.00     0.037 A 
HETATM    4  C9  UNL     1     -64.690 -19.228 -22.608  1.00  0.00     0.072 A 
HETATM    5  C16 UNL     1     -65.011 -20.494 -23.041  1.00  0.00     0.037 A 
HETATM    6  C17 UNL     1     -66.306 -20.991 -22.849  1.00  0.00     0.010 A 
ENDROOT
BRANCH   4   7
HETATM    7  O2  UNL     1     -63.455 -18.693 -22.765  1.00  0.00    -0.318 OA
BRANCH   7   8
HETATM    8  C10 UNL     1     -62.306 -18.825 -22.013  1.00  0.00     0.298 C 
HETATM    9  O3  UNL     1     -62.508 -18.514 -20.650  1.00  0.00    -0.348 OA
HETATM   10  C11 UNL     1     -61.282 -18.064 -20.168  1.00  0.00     0.179 C 
HETATM   11  C13 UNL     1     -60.100 -18.745 -20.816  1.00  0.00     0.180 C 
HETATM   12  C14 UNL     1     -60.435 -20.168 -21.233  1.00  0.00     0.183 C 
HETATM   13  C15 UNL     1     -61.724 -20.225 -22.026  1.00  0.00     0.205 C 
BRANCH  10  14
HETATM   14  C12 UNL     1     -61.207 -16.559 -20.455  1.00  0.00     0.198 C 
BRANCH  14  15
HETATM   15  O4  UNL     1     -59.911 -16.200 -20.830  1.00  0.00    -0.398 OA
ATOM     16  H4  UNL     1     -59.858 -16.089 -21.772  1.00  0.00     0.209 HD
ENDBRANCH  14  15
ENDBRANCH  10  14
BRANCH  11  17
HETATM   17  O5  UNL     1     -59.088 -18.868 -19.845  1.00  0.00    -0.390 OA
ATOM     18  H5  UNL     1     -59.103 -19.761 -19.522  1.00  0.00     0.210 HD
ENDBRANCH  11  17
BRANCH  12  19
HETATM   19  O6  UNL     1     -59.347 -20.651 -21.957  1.00  0.00    -0.390 OA
ATOM     20  H6  UNL     1     -59.654 -20.829 -22.838  1.00  0.00     0.210 HD
ENDBRANCH  12  19
BRANCH  13  21
HETATM   21  O7  UNL     1     -61.477 -20.664 -23.327  1.00  0.00    -0.388 OA
ATOM     22  H7  UNL     1     -62.135 -21.287 -23.615  1.00  0.00     0.210 HD
ENDBRANCH  13  21
ENDBRANCH   7   8
ENDBRANCH   4   7
BRANCH   1  23
HETATM   23  C5  UNL     1     -68.629 -20.738 -22.026  1.00  0.00     0.060 C 
BRANCH  23  24
HETATM   24  C4  UNL     1     -68.603 -22.170 -21.514  1.00  0.00     0.150 C 
BRANCH  24  25
HETATM   25  N1  UNL     1     -69.220 -22.234 -20.199  1.00  0.00    -0.285 N 
HETATM   26  C3  UNL     1     -68.743 -22.921 -19.139  1.00  0.00     0.136 A 
HETATM   27  C2  UNL     1     -69.588 -22.751 -18.061  1.00  0.00     0.064 A 
HETATM   28  N3  UNL     1     -70.578 -21.943 -18.517  1.00  0.00    -0.285 N 
HETATM   29  N2  UNL     1     -70.335 -21.650 -19.791  1.00  0.00    -0.020 NA
ATOM     30  H3  UNL     1     -71.377 -21.614 -17.973  1.00  0.00     0.184 HD
BRANCH  27  31
HETATM   31  C1  UNL     1     -69.464 -23.320 -16.686  1.00  0.00     0.223 C 
BRANCH  31  32
HETATM   32  O1  UNL     1     -69.071 -22.297 -15.816  1.00  0.00    -0.395 OA
ATOM     33  H1  UNL     1     -68.876 -22.679 -14.968  1.00  0.00     0.209 HD
ENDBRANCH  31  32
ENDBRANCH  27  31
ENDBRANCH  24  25
ENDBRANCH  23  24
ENDBRANCH   1  23
TORSDOF 12
ENDMDL
