MODEL 4
REMARK VINA RESULT: -6.273870466      6.027      8.002
REMARK  12 active torsions:
REMARK  status: ('A' for Active; 'I' for Inactive)
REMARK    1  A    between atoms: O1_1  and  C1_3 
REMARK    2  A    between atoms: C1_3  and  C2_4 
REMARK    3  A    between atoms: N1_6  and  C4_7 
REMARK    4  A    between atoms: C4_7  and  C5_8 
REMARK    5  A    between atoms: C5_8  and  C6_9 
REMARK    6  A    between atoms: C9_12  and  O2_13 
REMARK    7  A    between atoms: O2_13  and  C10_14 
REMARK    8  A    between atoms: C11_16  and  C12_17 
REMARK    9  A    between atoms: C12_17  and  O4_18 
REMARK   10  A    between atoms: C13_20  and  O5_21 
REMARK   11  A    between atoms: C14_23  and  O6_24 
REMARK   12  A    between atoms: C15_26  and  O7_27 
ROOT
HETATM    1  C6  UNL     1     -66.410 -22.265 -22.368  1.00  0.00    -0.056 A 
HETATM    2  C7  UNL     1     -65.615 -22.158 -23.489  1.00  0.00     0.010 A 
HETATM    3  C8  UNL     1     -64.626 -21.197 -23.488  1.00  0.00     0.037 A 
HETATM    4  C9  UNL     1     -64.400 -20.348 -22.425  1.00  0.00     0.072 A 
HETATM    5  C16 UNL     1     -65.201 -20.468 -21.313  1.00  0.00     0.037 A 
HETATM    6  C17 UNL     1     -66.215 -21.433 -21.281  1.00  0.00     0.010 A 
ENDROOT
BRANCH   4   7
HETATM    7  O2  UNL     1     -63.404 -19.434 -22.514  1.00  0.00    -0.318 OA
BRANCH   7   8
HETATM    8  C10 UNL     1     -62.226 -19.303 -21.809  1.00  0.00     0.298 C 
HETATM    9  O3  UNL     1     -62.425 -18.791 -20.506  1.00  0.00    -0.348 OA
HETATM   10  C11 UNL     1     -61.250 -18.128 -20.166  1.00  0.00     0.179 C 
HETATM   11  C13 UNL     1     -60.012 -18.766 -20.751  1.00  0.00     0.180 C 
HETATM   12  C14 UNL     1     -60.182 -20.268 -20.911  1.00  0.00     0.183 C 
HETATM   13  C15 UNL     1     -61.477 -20.607 -21.620  1.00  0.00     0.205 C 
BRANCH  10  14
HETATM   14  C12 UNL     1     -61.368 -16.694 -20.699  1.00  0.00     0.198 C 
BRANCH  14  15
HETATM   15  O4  UNL     1     -60.102 -16.158 -20.939  1.00  0.00    -0.398 OA
ATOM     16  H4  UNL     1     -59.617 -16.710 -21.541  1.00  0.00     0.209 HD
ENDBRANCH  14  15
ENDBRANCH  10  14
BRANCH  11  17
HETATM   17  O5  UNL     1     -58.965 -18.605 -19.824  1.00  0.00    -0.390 OA
ATOM     18  H5  UNL     1     -58.158 -18.873 -20.248  1.00  0.00     0.210 HD
ENDBRANCH  11  17
BRANCH  12  19
HETATM   19  O6  UNL     1     -59.064 -20.737 -21.599  1.00  0.00    -0.390 OA
ATOM     20  H6  UNL     1     -58.968 -21.657 -21.382  1.00  0.00     0.210 HD
ENDBRANCH  12  19
BRANCH  13  21
HETATM   21  O7  UNL     1     -61.216 -21.228 -22.841  1.00  0.00    -0.388 OA
ATOM     22  H7  UNL     1     -60.313 -21.517 -22.899  1.00  0.00     0.210 HD
ENDBRANCH  13  21
ENDBRANCH   7   8
ENDBRANCH   4   7
BRANCH   1  23
HETATM   23  C5  UNL     1     -67.482 -23.285 -22.330  1.00  0.00     0.060 C 
BRANCH  23  24
HETATM   24  C4  UNL     1     -66.959 -24.659 -22.720  1.00  0.00     0.150 C 
BRANCH  24  25
HETATM   25  N1  UNL     1     -66.166 -25.210 -21.633  1.00  0.00    -0.285 N 
HETATM   26  C3  UNL     1     -66.622 -25.499 -20.395  1.00  0.00     0.136 A 
HETATM   27  C2  UNL     1     -65.591 -26.005 -19.629  1.00  0.00     0.064 A 
HETATM   28  N3  UNL     1     -64.512 -26.006 -20.453  1.00  0.00    -0.285 N 
HETATM   29  N2  UNL     1     -64.882 -25.529 -21.638  1.00  0.00    -0.020 NA
ATOM     30  H3  UNL     1     -63.574 -26.321 -20.205  1.00  0.00     0.184 HD
BRANCH  27  31
HETATM   31  C1  UNL     1     -65.627 -26.459 -18.207  1.00  0.00     0.223 C 
BRANCH  31  32
HETATM   32  O1  UNL     1     -64.419 -26.102 -17.596  1.00  0.00    -0.395 OA
ATOM     33  H1  UNL     1     -64.090 -26.854 -17.116  1.00  0.00     0.209 HD
ENDBRANCH  31  32
ENDBRANCH  27  31
ENDBRANCH  24  25
ENDBRANCH  23  24
ENDBRANCH   1  23
TORSDOF 12
ENDMDL
