MODEL 14
REMARK VINA RESULT: -6.056086584      2.533      3.079
REMARK  12 active torsions:
REMARK  status: ('A' for Active; 'I' for Inactive)
REMARK    1  A    between atoms: O1_1  and  C1_3 
REMARK    2  A    between atoms: C1_3  and  C2_4 
REMARK    3  A    between atoms: N1_6  and  C4_7 
REMARK    4  A    between atoms: C4_7  and  C5_8 
REMARK    5  A    between atoms: C5_8  and  C6_9 
REMARK    6  A    between atoms: C9_12  and  O2_13 
REMARK    7  A    between atoms: O2_13  and  C10_14 
REMARK    8  A    between atoms: C11_16  and  C12_17 
REMARK    9  A    between atoms: C12_17  and  O4_18 
REMARK   10  A    between atoms: C13_20  and  O5_21 
REMARK   11  A    between atoms: C14_23  and  O6_24 
REMARK   12  A    between atoms: C15_26  and  O7_27 
ROOT
HETATM    1  C6  UNL     1     -66.774 -18.035 -23.398  1.00  0.00    -0.056 A 
HETATM    2  C7  UNL     1     -66.248 -17.921 -22.129  1.00  0.00     0.010 A 
HETATM    3  C8  UNL     1     -65.117 -18.652 -21.834  1.00  0.00     0.037 A 
HETATM    4  C9  UNL     1     -64.495 -19.482 -22.743  1.00  0.00     0.072 A 
HETATM    5  C16 UNL     1     -65.032 -19.584 -24.006  1.00  0.00     0.037 A 
HETATM    6  C17 UNL     1     -66.181 -18.856 -24.339  1.00  0.00     0.010 A 
ENDROOT
BRANCH   4   7
HETATM    7  O2  UNL     1     -63.387 -20.161 -22.363  1.00  0.00    -0.318 OA
BRANCH   7   8
HETATM    8  C10 UNL     1     -62.250 -19.747 -21.701  1.00  0.00     0.298 C 
HETATM    9  O3  UNL     1     -62.539 -18.989 -20.544  1.00  0.00    -0.348 OA
HETATM   10  C11 UNL     1     -61.454 -18.138 -20.355  1.00  0.00     0.179 C 
HETATM   11  C13 UNL     1     -60.138 -18.744 -20.784  1.00  0.00     0.180 C 
HETATM   12  C14 UNL     1     -60.137 -20.254 -20.610  1.00  0.00     0.183 C 
HETATM   13  C15 UNL     1     -61.367 -20.885 -21.229  1.00  0.00     0.205 C 
BRANCH  10  14
HETATM   14  C12 UNL     1     -61.715 -16.878 -21.190  1.00  0.00     0.198 C 
BRANCH  14  15
HETATM   15  O4  UNL     1     -60.696 -15.944 -20.994  1.00  0.00    -0.398 OA
ATOM     16  H4  UNL     1     -60.130 -15.907 -21.757  1.00  0.00     0.209 HD
ENDBRANCH  14  15
ENDBRANCH  10  14
BRANCH  11  17
HETATM   17  O5  UNL     1     -59.140 -18.267 -19.913  1.00  0.00    -0.390 OA
ATOM     18  H5  UNL     1     -58.305 -18.335 -20.362  1.00  0.00     0.210 HD
ENDBRANCH  11  17
BRANCH  12  19
HETATM   19  O6  UNL     1     -58.956 -20.732 -21.176  1.00  0.00    -0.390 OA
ATOM     20  H6  UNL     1     -58.272 -20.107 -20.965  1.00  0.00     0.210 HD
ENDBRANCH  12  19
BRANCH  13  21
HETATM   21  O7  UNL     1     -61.007 -21.723 -22.284  1.00  0.00    -0.388 OA
ATOM     22  H7  UNL     1     -60.124 -22.058 -22.177  1.00  0.00     0.210 HD
ENDBRANCH  13  21
ENDBRANCH   7   8
ENDBRANCH   4   7
BRANCH   1  23
HETATM   23  C5  UNL     1     -67.988 -17.266 -23.754  1.00  0.00     0.060 C 
BRANCH  23  24
HETATM   24  C4  UNL     1     -69.253 -17.977 -23.296  1.00  0.00     0.150 C 
BRANCH  24  25
HETATM   25  N1  UNL     1     -69.828 -17.274 -22.162  1.00  0.00    -0.285 N 
HETATM   26  C3  UNL     1     -69.532 -16.012 -21.785  1.00  0.00     0.136 A 
HETATM   27  C2  UNL     1     -70.268 -15.678 -20.667  1.00  0.00     0.064 A 
HETATM   28  N3  UNL     1     -71.009 -16.782 -20.394  1.00  0.00    -0.285 N 
HETATM   29  N2  UNL     1     -70.729 -17.715 -21.298  1.00  0.00    -0.020 NA
ATOM     30  H3  UNL     1     -71.671 -16.879 -19.624  1.00  0.00     0.184 HD
BRANCH  27  31
HETATM   31  C1  UNL     1     -70.269 -14.393 -19.905  1.00  0.00     0.223 C 
BRANCH  31  32
HETATM   32  O1  UNL     1     -69.473 -13.469 -20.591  1.00  0.00    -0.395 OA
ATOM     33  H1  UNL     1     -69.977 -13.113 -21.313  1.00  0.00     0.209 HD
ENDBRANCH  31  32
ENDBRANCH  27  31
ENDBRANCH  24  25
ENDBRANCH  23  24
ENDBRANCH   1  23
TORSDOF 12
ENDMDL
