MODEL 3
REMARK VINA RESULT: -6.295802522      7.127      9.464
REMARK  12 active torsions:
REMARK  status: ('A' for Active; 'I' for Inactive)
REMARK    1  A    between atoms: O1_1  and  C1_3 
REMARK    2  A    between atoms: C1_3  and  C2_4 
REMARK    3  A    between atoms: N1_6  and  C4_7 
REMARK    4  A    between atoms: C4_7  and  C5_8 
REMARK    5  A    between atoms: C5_8  and  C6_9 
REMARK    6  A    between atoms: C9_12  and  O2_13 
REMARK    7  A    between atoms: O2_13  and  C10_14 
REMARK    8  A    between atoms: C11_16  and  C12_17 
REMARK    9  A    between atoms: C12_17  and  O4_18 
REMARK   10  A    between atoms: C13_20  and  O5_21 
REMARK   11  A    between atoms: C14_23  and  O6_24 
REMARK   12  A    between atoms: C15_26  and  O7_27 
ROOT
HETATM    1  C6  UNL     1     -63.354 -25.357 -23.780  1.00  0.00    -0.056 A 
HETATM    2  C7  UNL     1     -62.220 -25.052 -23.058  1.00  0.00     0.010 A 
HETATM    3  C8  UNL     1     -61.903 -23.721 -22.889  1.00  0.00     0.037 A 
HETATM    4  C9  UNL     1     -62.662 -22.692 -23.403  1.00  0.00     0.072 A 
HETATM    5  C16 UNL     1     -63.791 -23.012 -24.122  1.00  0.00     0.037 A 
HETATM    6  C17 UNL     1     -64.143 -24.354 -24.314  1.00  0.00     0.010 A 
ENDROOT
BRANCH   4   7
HETATM    7  O2  UNL     1     -62.272 -21.414 -23.185  1.00  0.00    -0.318 OA
BRANCH   7   8
HETATM    8  C10 UNL     1     -61.757 -20.800 -22.062  1.00  0.00     0.298 C 
HETATM    9  O3  UNL     1     -60.646 -19.976 -22.354  1.00  0.00    -0.348 OA
HETATM   10  C11 UNL     1     -59.868 -19.950 -21.200  1.00  0.00     0.179 C 
HETATM   11  C13 UNL     1     -60.680 -20.028 -19.929  1.00  0.00     0.180 C 
HETATM   12  C14 UNL     1     -62.049 -19.390 -20.103  1.00  0.00     0.183 C 
HETATM   13  C15 UNL     1     -62.747 -19.906 -21.345  1.00  0.00     0.205 C 
BRANCH  10  14
HETATM   14  C12 UNL     1     -58.927 -21.162 -21.262  1.00  0.00     0.198 C 
BRANCH  14  15
HETATM   15  O4  UNL     1     -58.053 -21.044 -22.344  1.00  0.00    -0.398 OA
ATOM     16  H4  UNL     1     -57.151 -21.070 -22.045  1.00  0.00     0.209 HD
ENDBRANCH  14  15
ENDBRANCH  10  14
BRANCH  11  17
HETATM   17  O5  UNL     1     -60.027 -19.251 -18.953  1.00  0.00    -0.390 OA
ATOM     18  H5  UNL     1     -60.652 -19.070 -18.260  1.00  0.00     0.210 HD
ENDBRANCH  11  17
BRANCH  12  19
HETATM   19  O6  UNL     1     -62.774 -19.651 -18.942  1.00  0.00    -0.390 OA
ATOM     20  H6  UNL     1     -63.139 -18.824 -18.648  1.00  0.00     0.210 HD
ENDBRANCH  12  19
BRANCH  13  21
HETATM   21  O7  UNL     1     -63.906 -20.601 -20.999  1.00  0.00    -0.388 OA
ATOM     22  H7  UNL     1     -63.767 -21.541 -21.019  1.00  0.00     0.210 HD
ENDBRANCH  13  21
ENDBRANCH   7   8
ENDBRANCH   4   7
BRANCH   1  23
HETATM   23  C5  UNL     1     -63.730 -26.774 -23.984  1.00  0.00     0.060 C 
BRANCH  23  24
HETATM   24  C4  UNL     1     -65.025 -27.116 -23.263  1.00  0.00     0.150 C 
BRANCH  24  25
HETATM   25  N1  UNL     1     -64.783 -27.202 -21.832  1.00  0.00    -0.285 N 
HETATM   26  C3  UNL     1     -65.540 -26.632 -20.871  1.00  0.00     0.136 A 
HETATM   27  C2  UNL     1     -65.010 -26.924 -19.631  1.00  0.00     0.064 A 
HETATM   28  N3  UNL     1     -63.916 -27.685 -19.890  1.00  0.00    -0.285 N 
HETATM   29  N2  UNL     1     -63.804 -27.835 -21.206  1.00  0.00    -0.020 NA
ATOM     30  H3  UNL     1     -63.284 -28.076 -19.190  1.00  0.00     0.184 HD
BRANCH  27  31
HETATM   31  C1  UNL     1     -65.509 -26.510 -18.286  1.00  0.00     0.223 C 
BRANCH  31  32
HETATM   32  O1  UNL     1     -64.412 -26.368 -17.429  1.00  0.00    -0.395 OA
ATOM     33  H1  UNL     1     -64.714 -26.464 -16.533  1.00  0.00     0.209 HD
ENDBRANCH  31  32
ENDBRANCH  27  31
ENDBRANCH  24  25
ENDBRANCH  23  24
ENDBRANCH   1  23
TORSDOF 12
ENDMDL
