MODEL 1
REMARK VINA RESULT: -4.502504813      0.000      0.000
REMARK  1 active torsions:
REMARK  status: ('A' for Active; 'I' for Inactive)
REMARK       I    between atoms: C2_2  and  N1_4 
REMARK    1  A    between atoms: C6_8  and  C7_9 
ROOT
HETATM    1  C1  UNL     1      19.548  17.271  58.209  1.00  0.00     0.117 C 
HETATM    2  C2  UNL     1      19.674  16.449  57.007  1.00  0.00     0.216 C 
HETATM    3  O1  UNL     1      20.886  16.310  56.562  1.00  0.00    -0.274 OA
HETATM    4  N1  UNL     1      18.670  15.805  56.285  1.00  0.00    -0.338 N 
HETATM    5  C3  UNL     1      19.069  15.032  55.043  1.00  0.00     0.127 C 
HETATM    6  C4  UNL     1      18.016  13.972  54.875  1.00  0.00     0.022 C 
HETATM    7  C5  UNL     1      17.257  14.050  56.180  1.00  0.00     0.038 C 
HETATM    8  C6  UNL     1      17.275  15.610  56.305  1.00  0.00     0.188 C 
ENDROOT
BRANCH   8   9
HETATM    9  C7  UNL     1      16.438  16.032  57.385  1.00  0.00     0.196 C 
HETATM   10  O2  UNL     1      16.501  15.647  58.544  1.00  0.00    -0.646 OA
HETATM   11  O3  UNL     1      15.431  16.985  57.111  1.00  0.00    -0.646 OA
ENDBRANCH   8   9
TORSDOF 1
ENDMDL
