MODEL 3
REMARK VINA RESULT: -8.698330414      3.343      8.348
REMARK  11 active torsions:
REMARK  status: ('A' for Active; 'I' for Inactive)
REMARK    1  A    between atoms: C5_8  and  C6_9 
REMARK    2  A    between atoms: C6_9  and  N4_10 
REMARK       I    between atoms: N4_10  and  C7_12 
REMARK    3  A    between atoms: C7_12  and  C8_14 
REMARK    4  A    between atoms: C8_14  and  C9_15 
REMARK    5  A    between atoms: C9_15  and  N5_16 
REMARK    6  A    between atoms: C9_15  and  C20_31 
REMARK    7  A    between atoms: N5_16  and  S1_18 
REMARK    8  A    between atoms: S1_18  and  C10_21 
REMARK       I    between atoms: C20_31  and  N6_33 
REMARK    9  A    between atoms: N6_33  and  C21_34 
REMARK   10  A    between atoms: N6_33  and  C23_38 
REMARK   11  A    between atoms: C21_34  and  C22_35 
ROOT
HETATM    1  C9  UNL     1      14.644 -14.377  21.124  1.00  0.00     0.194 C 
ENDROOT
BRANCH   1   2
HETATM    2  C8  UNL     1      13.797 -15.519  20.609  1.00  0.00     0.138 C 
BRANCH   2   3
HETATM    3  C7  UNL     1      14.273 -15.910  19.253  1.00  0.00     0.223 C 
HETATM    4  N4  UNL     1      14.746 -14.974  18.303  1.00  0.00    -0.340 N 
ATOM      5  H4  UNL     1      14.719 -13.998  18.600  1.00  0.00     0.167 HD
HETATM    6  O1  UNL     1      14.254 -17.115  18.939  1.00  0.00    -0.273 OA
BRANCH   4   7
HETATM    7  C6  UNL     1      15.250 -15.195  17.007  1.00  0.00     0.070 C 
BRANCH   7   8
HETATM    8  C5  UNL     1      15.321 -14.079  16.029  1.00  0.00     0.042 C 
HETATM    9  C4  UNL     1      15.981 -14.708  14.781  1.00  0.00     0.013 C 
HETATM   10  C3  UNL     1      15.989 -13.821  13.597  1.00  0.00     0.021 C 
HETATM   11  C2  UNL     1      15.530 -12.445  13.987  1.00  0.00     0.125 C 
HETATM   12  N3  UNL     1      16.232 -12.038  15.175  1.00  0.00    -0.357 N 
HETATM   13  C1  UNL     1      16.948 -10.983  15.168  1.00  0.00     0.199 C 
HETATM   14  C26 UNL     1      16.106 -12.870  16.396  1.00  0.00     0.135 C 
HETATM   15  N1  UNL     1      17.625 -10.612  16.365  1.00  0.00    -0.067 NA
HETATM   16  N2  UNL     1      17.099 -10.179  14.032  1.00  0.00    -0.067 NA
ENDBRANCH   7   8
ENDBRANCH   4   7
ENDBRANCH   2   3
ENDBRANCH   1   2
BRANCH   1  17
HETATM   17  N5  UNL     1      15.513 -14.829  22.207  1.00  0.00    -0.301 N 
ATOM     18  H5  UNL     1      15.170 -15.020  23.148  1.00  0.00     0.173 HD
BRANCH  17  19
HETATM   19  S1  UNL     1      17.142 -15.010  21.766  1.00  0.00     0.259 S 
HETATM   20  O2  UNL     1      17.562 -14.157  20.597  1.00  0.00    -0.201 OA
HETATM   21  O3  UNL     1      17.407 -16.452  21.446  1.00  0.00    -0.201 OA
BRANCH  19  22
HETATM   22  C10 UNL     1      18.225 -14.575  23.098  1.00  0.00     0.080 A 
HETATM   23  C11 UNL     1      17.788 -14.418  24.394  1.00  0.00     0.026 A 
HETATM   24  C12 UNL     1      18.646 -14.094  25.420  1.00  0.00     0.014 A 
HETATM   25  C13 UNL     1      20.000 -13.914  25.166  1.00  0.00    -0.026 A 
HETATM   26  C14 UNL     1      20.902 -13.584  26.179  1.00  0.00     0.012 A 
HETATM   27  C18 UNL     1      20.456 -14.066  23.883  1.00  0.00    -0.025 A 
HETATM   28  C15 UNL     1      22.247 -13.406  25.929  1.00  0.00     0.001 A 
HETATM   29  C16 UNL     1      22.676 -13.567  24.627  1.00  0.00     0.001 A 
HETATM   30  C17 UNL     1      21.790 -13.890  23.638  1.00  0.00     0.012 A 
HETATM   31  C19 UNL     1      19.575 -14.389  22.882  1.00  0.00     0.037 A 
ENDBRANCH  19  22
ENDBRANCH  17  19
ENDBRANCH   1  17
BRANCH   1  32
HETATM   32  C20 UNL     1      13.703 -13.335  21.637  1.00  0.00     0.244 C 
HETATM   33  O4  UNL     1      12.558 -13.759  21.933  1.00  0.00    -0.271 OA
HETATM   34  N6  UNL     1      13.994 -11.971  21.811  1.00  0.00    -0.336 N 
BRANCH  34  35
HETATM   35  C21 UNL     1      15.285 -11.425  21.492  1.00  0.00     0.239 C 
BRANCH  35  36
HETATM   36  C22 UNL     1      15.520 -11.325  20.026  1.00  0.00     0.191 C 
HETATM   37  O5  UNL     1      16.648 -11.123  19.530  1.00  0.00    -0.647 OA
HETATM   38  O6  UNL     1      14.467 -11.454  19.111  1.00  0.00    -0.647 OA
ENDBRANCH  35  36
ENDBRANCH  34  35
BRANCH  34  39
HETATM   39  C23 UNL     1      12.960 -11.089  22.313  1.00  0.00     0.088 A 
HETATM   40  C24 UNL     1      12.127 -10.242  21.461  1.00  0.00     0.027 A 
HETATM   41  C25 UNL     1      13.275  -9.628  22.281  1.00  0.00     0.027 A 
ENDBRANCH  34  39
ENDBRANCH   1  32
TORSDOF 11
ENDMDL
