MODEL 1
REMARK VINA RESULT: -8.970894598      0.000      0.000
REMARK  11 active torsions:
REMARK  status: ('A' for Active; 'I' for Inactive)
REMARK    1  A    between atoms: C5_8  and  C6_9 
REMARK    2  A    between atoms: C6_9  and  N4_10 
REMARK       I    between atoms: N4_10  and  C7_12 
REMARK    3  A    between atoms: C7_12  and  C8_14 
REMARK    4  A    between atoms: C8_14  and  C9_15 
REMARK    5  A    between atoms: C9_15  and  N5_16 
REMARK    6  A    between atoms: C9_15  and  C20_31 
REMARK    7  A    between atoms: N5_16  and  S1_18 
REMARK    8  A    between atoms: S1_18  and  C10_21 
REMARK       I    between atoms: C20_31  and  N6_33 
REMARK    9  A    between atoms: N6_33  and  C21_34 
REMARK   10  A    between atoms: N6_33  and  C23_38 
REMARK   11  A    between atoms: C21_34  and  C22_35 
ROOT
HETATM    1  C9  UNL     1      16.999 -15.451  21.683  1.00  0.00     0.194 C 
ENDROOT
BRANCH   1   2
HETATM    2  C8  UNL     1      17.180 -16.813  22.318  1.00  0.00     0.138 C 
BRANCH   2   3
HETATM    3  C7  UNL     1      17.538 -16.641  23.753  1.00  0.00     0.223 C 
HETATM    4  N4  UNL     1      18.876 -16.605  24.214  1.00  0.00    -0.340 N 
ATOM      5  H4  UNL     1      19.588 -16.728  23.495  1.00  0.00     0.167 HD
HETATM    6  O1  UNL     1      16.620 -16.525  24.587  1.00  0.00    -0.273 OA
BRANCH   4   7
HETATM    7  C6  UNL     1      19.364 -16.423  25.522  1.00  0.00     0.070 C 
BRANCH   7   8
HETATM    8  C5  UNL     1      20.429 -15.423  25.792  1.00  0.00     0.042 C 
HETATM    9  C4  UNL     1      19.770 -14.065  25.459  1.00  0.00     0.013 C 
HETATM   10  C3  UNL     1      20.592 -12.893  25.831  1.00  0.00     0.021 C 
HETATM   11  C2  UNL     1      21.961 -13.344  26.255  1.00  0.00     0.125 C 
HETATM   12  N3  UNL     1      22.466 -14.276  25.284  1.00  0.00    -0.357 N 
HETATM   13  C1  UNL     1      23.556 -14.034  24.667  1.00  0.00     0.199 C 
HETATM   14  C26 UNL     1      21.695 -15.514  25.018  1.00  0.00     0.135 C 
HETATM   15  N1  UNL     1      24.025 -14.984  23.715  1.00  0.00    -0.067 NA
HETATM   16  N2  UNL     1      24.306 -12.871  24.885  1.00  0.00    -0.067 NA
ENDBRANCH   7   8
ENDBRANCH   4   7
ENDBRANCH   2   3
ENDBRANCH   1   2
BRANCH   1  17
HETATM   17  N5  UNL     1      16.147 -15.543  20.502  1.00  0.00    -0.301 N 
ATOM     18  H5  UNL     1      16.519 -15.607  19.554  1.00  0.00     0.173 HD
BRANCH  17  19
HETATM   19  S1  UNL     1      14.483 -15.533  20.838  1.00  0.00     0.259 S 
HETATM   20  O2  UNL     1      14.121 -16.137  22.170  1.00  0.00    -0.201 OA
HETATM   21  O3  UNL     1      13.759 -16.269  19.749  1.00  0.00    -0.201 OA
BRANCH  19  22
HETATM   22  C10 UNL     1      13.837 -13.885  20.860  1.00  0.00     0.080 A 
HETATM   23  C11 UNL     1      13.834 -13.070  19.750  1.00  0.00     0.026 A 
HETATM   24  C12 UNL     1      13.314 -11.796  19.781  1.00  0.00     0.014 A 
HETATM   25  C13 UNL     1      12.770 -11.294  20.957  1.00  0.00    -0.026 A 
HETATM   26  C14 UNL     1      12.234 -10.007  21.029  1.00  0.00     0.012 A 
HETATM   27  C18 UNL     1      12.763 -12.089  22.072  1.00  0.00    -0.025 A 
HETATM   28  C15 UNL     1      11.692  -9.506  22.195  1.00  0.00     0.001 A 
HETATM   29  C16 UNL     1      11.698 -10.331  23.302  1.00  0.00     0.001 A 
HETATM   30  C17 UNL     1      12.224 -11.590  23.227  1.00  0.00     0.012 A 
HETATM   31  C19 UNL     1      13.288 -13.354  22.009  1.00  0.00     0.037 A 
ENDBRANCH  19  22
ENDBRANCH  17  19
ENDBRANCH   1  17
BRANCH   1  32
HETATM   32  C20 UNL     1      18.360 -14.974  21.286  1.00  0.00     0.244 C 
HETATM   33  O4  UNL     1      19.182 -15.887  21.025  1.00  0.00    -0.271 OA
HETATM   34  N6  UNL     1      18.768 -13.634  21.182  1.00  0.00    -0.336 N 
BRANCH  34  35
HETATM   35  C21 UNL     1      17.874 -12.545  21.466  1.00  0.00     0.239 C 
BRANCH  35  36
HETATM   36  C22 UNL     1      17.170 -12.047  20.253  1.00  0.00     0.191 C 
HETATM   37  O5  UNL     1      16.661 -10.910  20.180  1.00  0.00    -0.647 OA
HETATM   38  O6  UNL     1      17.040 -12.847  19.110  1.00  0.00    -0.647 OA
ENDBRANCH  35  36
ENDBRANCH  34  35
BRANCH  34  39
HETATM   39  C23 UNL     1      20.132 -13.342  20.791  1.00  0.00     0.088 A 
HETATM   40  C24 UNL     1      20.607 -12.010  20.424  1.00  0.00     0.027 A 
HETATM   41  C25 UNL     1      20.352 -13.068  19.338  1.00  0.00     0.027 A 
ENDBRANCH  34  39
ENDBRANCH   1  32
TORSDOF 11
ENDMDL
