MODEL 6
REMARK VINA RESULT: -8.494363782      2.383      6.015
REMARK  11 active torsions:
REMARK  status: ('A' for Active; 'I' for Inactive)
REMARK    1  A    between atoms: C5_8  and  C6_9 
REMARK    2  A    between atoms: C6_9  and  N4_10 
REMARK       I    between atoms: N4_10  and  C7_12 
REMARK    3  A    between atoms: C7_12  and  C8_14 
REMARK    4  A    between atoms: C8_14  and  C9_15 
REMARK    5  A    between atoms: C9_15  and  N5_16 
REMARK    6  A    between atoms: C9_15  and  C20_31 
REMARK    7  A    between atoms: N5_16  and  S1_18 
REMARK    8  A    between atoms: S1_18  and  C10_21 
REMARK       I    between atoms: C20_31  and  N6_33 
REMARK    9  A    between atoms: N6_33  and  C21_34 
REMARK   10  A    between atoms: N6_33  and  C23_38 
REMARK   11  A    between atoms: C21_34  and  C22_35 
ROOT
HETATM    1  C9  UNL     1      15.885 -15.891  21.786  1.00  0.00     0.194 C 
ENDROOT
BRANCH   1   2
HETATM    2  C8  UNL     1      16.486 -17.004  22.617  1.00  0.00     0.138 C 
BRANCH   2   3
HETATM    3  C7  UNL     1      17.823 -17.361  22.066  1.00  0.00     0.223 C 
HETATM    4  N4  UNL     1      19.011 -17.308  22.834  1.00  0.00    -0.340 N 
ATOM      5  H4  UNL     1      18.896 -16.982  23.793  1.00  0.00     0.167 HD
HETATM    6  O1  UNL     1      17.900 -17.723  20.877  1.00  0.00    -0.273 OA
BRANCH   4   7
HETATM    7  C6  UNL     1      20.327 -17.639  22.462  1.00  0.00     0.070 C 
BRANCH   7   8
HETATM    8  C5  UNL     1      21.378 -17.814  23.498  1.00  0.00     0.042 C 
HETATM    9  C4  UNL     1      20.779 -17.156  24.762  1.00  0.00     0.013 C 
HETATM   10  C3  UNL     1      21.581 -17.372  25.986  1.00  0.00     0.021 C 
HETATM   11  C2  UNL     1      22.893 -18.013  25.631  1.00  0.00     0.125 C 
HETATM   12  N3  UNL     1      23.476 -17.299  24.527  1.00  0.00    -0.357 N 
HETATM   13  C1  UNL     1      24.625 -16.761  24.645  1.00  0.00     0.199 C 
HETATM   14  C26 UNL     1      22.713 -17.205  23.259  1.00  0.00     0.135 C 
HETATM   15  N1  UNL     1      25.170 -16.066  23.527  1.00  0.00    -0.067 NA
HETATM   16  N2  UNL     1      25.370 -16.820  25.830  1.00  0.00    -0.067 NA
ENDBRANCH   7   8
ENDBRANCH   4   7
ENDBRANCH   2   3
ENDBRANCH   1   2
BRANCH   1  17
HETATM   17  N5  UNL     1      16.076 -14.600  22.439  1.00  0.00    -0.301 N 
ATOM     18  H5  UNL     1      15.567 -14.324  23.279  1.00  0.00     0.173 HD
BRANCH  17  19
HETATM   19  S1  UNL     1      17.217 -13.596  21.683  1.00  0.00     0.259 S 
HETATM   20  O2  UNL     1      16.834 -12.139  21.656  1.00  0.00    -0.201 OA
HETATM   21  O3  UNL     1      17.437 -14.075  20.278  1.00  0.00    -0.201 OA
BRANCH  19  22
HETATM   22  C10 UNL     1      18.786 -13.671  22.500  1.00  0.00     0.080 A 
HETATM   23  C11 UNL     1      19.972 -13.846  21.824  1.00  0.00     0.026 A 
HETATM   24  C12 UNL     1      21.184 -13.887  22.473  1.00  0.00     0.014 A 
HETATM   25  C13 UNL     1      21.240 -13.750  23.855  1.00  0.00    -0.026 A 
HETATM   26  C14 UNL     1      22.449 -13.787  24.551  1.00  0.00     0.012 A 
HETATM   27  C18 UNL     1      20.071 -13.575  24.548  1.00  0.00    -0.025 A 
HETATM   28  C15 UNL     1      22.507 -13.650  25.923  1.00  0.00     0.001 A 
HETATM   29  C16 UNL     1      21.313 -13.474  26.592  1.00  0.00     0.001 A 
HETATM   30  C17 UNL     1      20.131 -13.439  25.908  1.00  0.00     0.012 A 
HETATM   31  C19 UNL     1      18.878 -13.538  23.871  1.00  0.00     0.037 A 
ENDBRANCH  19  22
ENDBRANCH  17  19
ENDBRANCH   1  17
BRANCH   1  32
HETATM   32  C20 UNL     1      14.424 -16.182  21.663  1.00  0.00     0.244 C 
HETATM   33  O4  UNL     1      13.991 -17.050  22.462  1.00  0.00    -0.271 OA
HETATM   34  N6  UNL     1      13.533 -15.576  20.762  1.00  0.00    -0.336 N 
BRANCH  34  35
HETATM   35  C21 UNL     1      13.966 -14.575  19.825  1.00  0.00     0.239 C 
BRANCH  35  36
HETATM   36  C22 UNL     1      13.595 -13.196  20.244  1.00  0.00     0.191 C 
HETATM   37  O5  UNL     1      13.671 -12.800  21.425  1.00  0.00    -0.647 OA
HETATM   38  O6  UNL     1      13.130 -12.256  19.315  1.00  0.00    -0.647 OA
ENDBRANCH  35  36
ENDBRANCH  34  35
BRANCH  34  39
HETATM   39  C23 UNL     1      12.142 -15.980  20.767  1.00  0.00     0.088 A 
HETATM   40  C24 UNL     1      11.666 -17.270  20.272  1.00  0.00     0.027 A 
HETATM   41  C25 UNL     1      11.460 -15.996  19.437  1.00  0.00     0.027 A 
ENDBRANCH  34  39
ENDBRANCH   1  32
TORSDOF 11
ENDMDL
