MODEL 6
REMARK VINA RESULT: -8.672234792      4.504      7.037
REMARK  10 active torsions:
REMARK  status: ('A' for Active; 'I' for Inactive)
REMARK    1  A    between atoms: N5_13  and  C6_14 
REMARK    2  A    between atoms: C7_16  and  C8_17 
REMARK    3  A    between atoms: C8_17  and  O2_18 
REMARK    4  A    between atoms: O2_18  and  P1_19 
REMARK    5  A    between atoms: P1_19  and  O5_22 
REMARK    6  A    between atoms: O5_22  and  P2_23 
REMARK    7  A    between atoms: P2_23  and  N6_26 
REMARK    8  A    between atoms: N6_26  and  P3_28 
REMARK    9  A    between atoms: C9_32  and  O11_33 
REMARK   10  A    between atoms: C10_35  and  O12_36 
ROOT
HETATM    1  C6  UNL     1     -22.350   3.292 -15.766  1.00  0.00     0.262 C 
HETATM    2  O1  UNL     1     -23.143   2.205 -16.164  1.00  0.00    -0.353 OA
HETATM    3  C7  UNL     1     -23.895   1.956 -15.019  1.00  0.00     0.180 C 
HETATM    4  C9  UNL     1     -24.323   3.308 -14.494  1.00  0.00     0.182 C 
HETATM    5  C10 UNL     1     -23.365   4.240 -15.208  1.00  0.00     0.198 C 
ENDROOT
BRANCH   3   6
HETATM    6  C8  UNL     1     -25.061   1.042 -15.258  1.00  0.00     0.216 C 
BRANCH   6   7
HETATM    7  O2  UNL     1     -24.889   0.230 -16.349  1.00  0.00    -0.287 OA
BRANCH   7   8
HETATM    8  P1  UNL     1     -26.218  -0.348 -17.089  1.00  0.00     0.417 P 
HETATM    9  O3  UNL     1     -26.142  -1.729 -18.023  1.00  0.00    -0.624 OA
HETATM   10  O4  UNL     1     -27.709   0.321 -16.842  1.00  0.00    -0.624 OA
BRANCH   8  11
HETATM   11  O5  UNL     1     -25.994   0.483 -18.348  1.00  0.00    -0.186 OA
BRANCH  11  12
HETATM   12  P2  UNL     1     -24.539   0.656 -19.108  1.00  0.00     0.379 P 
HETATM   13  O6  UNL     1     -24.393   1.875 -20.280  1.00  0.00    -0.629 OA
HETATM   14  O7  UNL     1     -23.200  -0.122 -18.663  1.00  0.00    -0.629 OA
BRANCH  12  15
HETATM   15  N6  UNL     1     -25.064  -0.354 -20.235  1.00  0.00    -0.218 N 
ATOM     16  H6  UNL     1     -24.812  -1.337 -20.131  1.00  0.00     0.179 HD
BRANCH  15  17
HETATM   17  P3  UNL     1     -25.988   0.058 -21.564  1.00  0.00     0.381 P 
HETATM   18  O8  UNL     1     -27.354   0.985 -21.389  1.00  0.00    -0.622 OA
HETATM   19  O9  UNL     1     -25.425  -0.274 -23.123  1.00  0.00    -0.622 OA
HETATM   20  O10 UNL     1     -26.861  -1.202 -21.695  1.00  0.00    -0.622 OA
ENDBRANCH  15  17
ENDBRANCH  12  15
ENDBRANCH  11  12
ENDBRANCH   8  11
ENDBRANCH   7   8
ENDBRANCH   6   7
ENDBRANCH   3   6
BRANCH   4  21
HETATM   21  O11 UNL     1     -24.051   3.417 -13.120  1.00  0.00    -0.390 OA
ATOM     22  H11 UNL     1     -24.801   3.769 -12.656  1.00  0.00     0.210 HD
ENDBRANCH   4  21
BRANCH   1  23
HETATM   23  N5  UNL     1     -21.626   3.866 -16.860  1.00  0.00    -0.297 N 
HETATM   24  C3  UNL     1     -20.869   4.976 -16.896  1.00  0.00     0.142 A 
HETATM   25  N3  UNL     1     -20.553   5.879 -15.963  1.00  0.00    -0.336 N 
HETATM   26  C4  UNL     1     -20.348   5.163 -18.169  1.00  0.00     0.119 A 
HETATM   27  C2  UNL     1     -19.758   6.924 -16.262  1.00  0.00     0.183 A 
ATOM     28  H3  UNL     1     -20.917   5.775 -15.016  1.00  0.00     0.168 HD
HETATM   29  N2  UNL     1     -19.246   7.108 -17.516  1.00  0.00    -0.339 N 
HETATM   30  C1  UNL     1     -19.536   6.228 -18.482  1.00  0.00     0.148 A 
ATOM     31  H2  UNL     1     -18.647   7.910 -17.714  1.00  0.00     0.167 HD
HETATM   32  N1  UNL     1     -19.001   6.429 -19.772  1.00  0.00    -0.080 NA
HETATM   33  N4  UNL     1     -20.819   4.126 -18.896  1.00  0.00    -0.346 N 
HETATM   34  C5  UNL     1     -21.590   3.347 -18.099  1.00  0.00     0.188 A 
ATOM     35  H4  UNL     1     -20.626   3.957 -19.884  1.00  0.00     0.167 HD
ENDBRANCH   1  23
BRANCH   5  36
HETATM   36  O12 UNL     1     -22.802   5.153 -14.309  1.00  0.00    -0.388 OA
ATOM     37  H12 UNL     1     -23.392   5.367 -13.595  1.00  0.00     0.210 HD
ENDBRANCH   5  36
TORSDOF 10
ENDMDL
