MODEL 4
REMARK VINA RESULT: -8.685796290      3.358      5.174
REMARK  10 active torsions:
REMARK  status: ('A' for Active; 'I' for Inactive)
REMARK    1  A    between atoms: N5_13  and  C6_14 
REMARK    2  A    between atoms: C7_16  and  C8_17 
REMARK    3  A    between atoms: C8_17  and  O2_18 
REMARK    4  A    between atoms: O2_18  and  P1_19 
REMARK    5  A    between atoms: P1_19  and  O5_22 
REMARK    6  A    between atoms: O5_22  and  P2_23 
REMARK    7  A    between atoms: P2_23  and  N6_26 
REMARK    8  A    between atoms: N6_26  and  P3_28 
REMARK    9  A    between atoms: C9_32  and  O11_33 
REMARK   10  A    between atoms: C10_35  and  O12_36 
ROOT
HETATM    1  C6  UNL     1     -24.790   0.674 -16.896  1.00  0.00     0.262 C 
HETATM    2  O1  UNL     1     -23.798   0.964 -17.844  1.00  0.00    -0.353 OA
HETATM    3  C7  UNL     1     -24.101   0.070 -18.869  1.00  0.00     0.180 C 
HETATM    4  C9  UNL     1     -25.605   0.100 -19.021  1.00  0.00     0.182 C 
HETATM    5  C10 UNL     1     -26.041   0.733 -17.715  1.00  0.00     0.198 C 
ENDROOT
BRANCH   3   6
HETATM    6  C8  UNL     1     -23.390   0.374 -20.155  1.00  0.00     0.216 C 
BRANCH   6   7
HETATM    7  O2  UNL     1     -24.065   1.274 -20.939  1.00  0.00    -0.287 OA
BRANCH   7   8
HETATM    8  P1  UNL     1     -24.048   1.046 -22.551  1.00  0.00     0.417 P 
HETATM    9  O3  UNL     1     -25.266   1.661 -23.512  1.00  0.00    -0.624 OA
HETATM   10  O4  UNL     1     -22.772   0.324 -23.312  1.00  0.00    -0.624 OA
BRANCH   8  11
HETATM   11  O5  UNL     1     -24.814  -0.270 -22.467  1.00  0.00    -0.186 OA
BRANCH  11  12
HETATM   12  P2  UNL     1     -26.379  -0.474 -22.950  1.00  0.00     0.379 P 
HETATM   13  O6  UNL     1     -27.602   0.234 -22.009  1.00  0.00    -0.629 OA
HETATM   14  O7  UNL     1     -26.801  -1.126 -24.362  1.00  0.00    -0.629 OA
BRANCH  12  15
HETATM   15  N6  UNL     1     -26.440  -1.784 -22.030  1.00  0.00    -0.218 N 
ATOM     16  H6  UNL     1     -25.709  -1.891 -21.326  1.00  0.00     0.179 HD
BRANCH  15  17
HETATM   17  P3  UNL     1     -27.591  -2.990 -22.120  1.00  0.00     0.381 P 
HETATM   18  O8  UNL     1     -29.208  -2.619 -22.066  1.00  0.00    -0.622 OA
HETATM   19  O9  UNL     1     -27.133  -4.574 -22.490  1.00  0.00    -0.622 OA
HETATM   20  O10 UNL     1     -27.645  -3.432 -20.648  1.00  0.00    -0.622 OA
ENDBRANCH  15  17
ENDBRANCH  12  15
ENDBRANCH  11  12
ENDBRANCH   8  11
ENDBRANCH   7   8
ENDBRANCH   6   7
ENDBRANCH   3   6
BRANCH   4  21
HETATM   21  O11 UNL     1     -26.130  -1.203 -19.039  1.00  0.00    -0.390 OA
ATOM     22  H11 UNL     1     -26.924  -1.252 -18.520  1.00  0.00     0.210 HD
ENDBRANCH   4  21
BRANCH   1  23
HETATM   23  N5  UNL     1     -24.808   1.621 -15.822  1.00  0.00    -0.297 N 
HETATM   24  C3  UNL     1     -23.914   2.573 -15.506  1.00  0.00     0.142 A 
HETATM   25  N3  UNL     1     -22.756   2.939 -16.064  1.00  0.00    -0.336 N 
HETATM   26  C4  UNL     1     -24.330   3.270 -14.379  1.00  0.00     0.119 A 
HETATM   27  C2  UNL     1     -22.032   3.948 -15.541  1.00  0.00     0.183 A 
ATOM     28  H3  UNL     1     -22.418   2.450 -16.893  1.00  0.00     0.168 HD
HETATM   29  N2  UNL     1     -22.441   4.633 -14.432  1.00  0.00    -0.339 N 
HETATM   30  C1  UNL     1     -23.596   4.301 -13.841  1.00  0.00     0.148 A 
ATOM     31  H2  UNL     1     -21.872   5.392 -14.058  1.00  0.00     0.167 HD
HETATM   32  N1  UNL     1     -24.007   5.016 -12.696  1.00  0.00    -0.080 NA
HETATM   33  N4  UNL     1     -25.505   2.703 -14.030  1.00  0.00    -0.346 N 
HETATM   34  C5  UNL     1     -25.788   1.708 -14.906  1.00  0.00     0.188 A 
ATOM     35  H4  UNL     1     -26.085   2.978 -13.237  1.00  0.00     0.167 HD
ENDBRANCH   1  23
BRANCH   5  36
HETATM   36  O12 UNL     1     -27.089   0.005 -17.140  1.00  0.00    -0.388 OA
ATOM     37  H12 UNL     1     -27.649  -0.400 -17.792  1.00  0.00     0.210 HD
ENDBRANCH   5  36
TORSDOF 10
ENDMDL
