MODEL 5
REMARK VINA RESULT: -8.680623129      5.219      6.816
REMARK  10 active torsions:
REMARK  status: ('A' for Active; 'I' for Inactive)
REMARK    1  A    between atoms: N5_13  and  C6_14 
REMARK    2  A    between atoms: C7_16  and  C8_17 
REMARK    3  A    between atoms: C8_17  and  O2_18 
REMARK    4  A    between atoms: O2_18  and  P1_19 
REMARK    5  A    between atoms: P1_19  and  O5_22 
REMARK    6  A    between atoms: O5_22  and  P2_23 
REMARK    7  A    between atoms: P2_23  and  N6_26 
REMARK    8  A    between atoms: N6_26  and  P3_28 
REMARK    9  A    between atoms: C9_32  and  O11_33 
REMARK   10  A    between atoms: C10_35  and  O12_36 
ROOT
HETATM    1  C6  UNL     1     -19.511   5.864 -17.951  1.00  0.00     0.262 C 
HETATM    2  O1  UNL     1     -20.227   5.111 -18.893  1.00  0.00    -0.353 OA
HETATM    3  C7  UNL     1     -20.684   4.041 -18.127  1.00  0.00     0.180 C 
HETATM    4  C9  UNL     1     -21.157   4.632 -16.818  1.00  0.00     0.182 C 
HETATM    5  C10 UNL     1     -20.495   5.996 -16.831  1.00  0.00     0.198 C 
ENDROOT
BRANCH   3   6
HETATM    6  C8  UNL     1     -21.751   3.233 -18.807  1.00  0.00     0.216 C 
BRANCH   6   7
HETATM    7  O2  UNL     1     -21.421   2.884 -20.091  1.00  0.00    -0.287 OA
BRANCH   7   8
HETATM    8  P1  UNL     1     -21.095   1.319 -20.397  1.00  0.00     0.417 P 
HETATM    9  O3  UNL     1     -19.535   0.736 -20.293  1.00  0.00    -0.624 OA
HETATM   10  O4  UNL     1     -22.298   0.224 -20.688  1.00  0.00    -0.624 OA
BRANCH   8  11
HETATM   11  O5  UNL     1     -20.878   1.558 -21.888  1.00  0.00    -0.186 OA
BRANCH  11  12
HETATM   12  P2  UNL     1     -20.112   0.507 -22.902  1.00  0.00     0.379 P 
HETATM   13  O6  UNL     1     -19.065   1.150 -24.074  1.00  0.00    -0.629 OA
HETATM   14  O7  UNL     1     -20.138  -1.094 -22.718  1.00  0.00    -0.629 OA
BRANCH  12  15
HETATM   15  N6  UNL     1     -21.339   0.672 -23.919  1.00  0.00    -0.218 N 
ATOM     16  H6  UNL     1     -22.195   1.085 -23.549  1.00  0.00     0.179 HD
BRANCH  15  17
HETATM   17  P3  UNL     1     -21.342   0.228 -25.529  1.00  0.00     0.381 P 
HETATM   18  O8  UNL     1     -22.198   1.109 -26.646  1.00  0.00    -0.622 OA
HETATM   19  O9  UNL     1     -20.300  -0.985 -26.076  1.00  0.00    -0.622 OA
HETATM   20  O10 UNL     1     -22.452  -0.837 -25.520  1.00  0.00    -0.622 OA
ENDBRANCH  15  17
ENDBRANCH  12  15
ENDBRANCH  11  12
ENDBRANCH   8  11
ENDBRANCH   7   8
ENDBRANCH   6   7
ENDBRANCH   3   6
BRANCH   4  21
HETATM   21  O11 UNL     1     -20.616   3.927 -15.729  1.00  0.00    -0.390 OA
ATOM     22  H11 UNL     1     -20.991   4.233 -14.912  1.00  0.00     0.210 HD
ENDBRANCH   4  21
BRANCH   1  23
HETATM   23  N5  UNL     1     -19.111   7.139 -18.465  1.00  0.00    -0.297 N 
HETATM   24  C3  UNL     1     -18.455   7.437 -19.600  1.00  0.00     0.142 A 
HETATM   25  N3  UNL     1     -17.977   6.674 -20.587  1.00  0.00    -0.336 N 
HETATM   26  C4  UNL     1     -18.274   8.809 -19.706  1.00  0.00     0.119 A 
HETATM   27  C2  UNL     1     -17.344   7.230 -21.638  1.00  0.00     0.183 A 
ATOM     28  H3  UNL     1     -18.092   5.661 -20.544  1.00  0.00     0.168 HD
HETATM   29  N2  UNL     1     -17.165   8.581 -21.743  1.00  0.00    -0.339 N 
HETATM   30  C1  UNL     1     -17.629   9.384 -20.776  1.00  0.00     0.148 A 
ATOM     31  H2  UNL     1     -16.681   8.974 -22.549  1.00  0.00     0.167 HD
HETATM   32  N1  UNL     1     -17.437  10.777 -20.895  1.00  0.00    -0.080 NA
HETATM   33  N4  UNL     1     -18.842   9.325 -18.595  1.00  0.00    -0.346 N 
HETATM   34  C5  UNL     1     -19.346   8.311 -17.850  1.00  0.00     0.188 A 
ATOM     35  H4  UNL     1     -18.886  10.315 -18.356  1.00  0.00     0.167 HD
ENDBRANCH   1  23
BRANCH   5  36
HETATM   36  O12 UNL     1     -19.874   6.254 -15.604  1.00  0.00    -0.388 OA
ATOM     37  H12 UNL     1     -20.126   5.631 -14.933  1.00  0.00     0.210 HD
ENDBRANCH   5  36
TORSDOF 10
ENDMDL
