MODEL 12
REMARK VINA RESULT: -6.644934703      1.803      5.923
REMARK  12 active torsions:
REMARK  status: ('A' for Active; 'I' for Inactive)
REMARK    1  A    between atoms: O1_2  and  C2_3 
REMARK    2  A    between atoms: C3_5  and  C4_6 
REMARK    3  A    between atoms: C4_6  and  O3_7 
REMARK    4  A    between atoms: C5_9  and  O4_10 
REMARK    5  A    between atoms: C6_12  and  O5_13 
REMARK    6  A    between atoms: C7_15  and  S1_16 
REMARK    7  A    between atoms: S1_16  and  C8_17 
REMARK    8  A    between atoms: C9_19  and  C10_20 
REMARK    9  A    between atoms: C10_20  and  O7_21 
REMARK   10  A    between atoms: C11_23  and  O8_24 
REMARK   11  A    between atoms: C12_26  and  O9_27 
REMARK   12  A    between atoms: C13_29  and  O10_30 
ROOT
HETATM    1  S1  UNL     1     -30.837 -14.401 -10.148  1.00  0.00    -0.122 SA
ENDROOT
BRANCH   1   2
HETATM    2  C7  UNL     1     -29.342 -13.782 -10.966  1.00  0.00     0.136 C 
HETATM    3  C2  UNL     1     -29.616 -12.480 -11.635  1.00  0.00     0.276 C 
HETATM    4  O2  UNL     1     -29.433 -12.400 -12.970  1.00  0.00    -0.350 OA
HETATM    5  C3  UNL     1     -28.489 -13.196 -13.545  1.00  0.00     0.179 C 
HETATM    6  C5  UNL     1     -28.860 -14.644 -13.238  1.00  0.00     0.179 C 
HETATM    7  C6  UNL     1     -28.603 -14.794 -11.759  1.00  0.00     0.168 C 
BRANCH   3   8
HETATM    8  O1  UNL     1     -28.853 -11.452 -11.052  1.00  0.00    -0.365 OA
HETATM    9  C1  UNL     1     -29.298 -10.195 -11.369  1.00  0.00     0.204 C 
ENDBRANCH   3   8
BRANCH   5  10
HETATM   10  C4  UNL     1     -28.524 -12.934 -15.058  1.00  0.00     0.198 C 
BRANCH  10  11
HETATM   11  O3  UNL     1     -27.245 -12.912 -15.573  1.00  0.00    -0.398 OA
ATOM     12  H3  UNL     1     -26.642 -12.529 -14.948  1.00  0.00     0.209 HD
ENDBRANCH  10  11
ENDBRANCH   5  10
BRANCH   6  13
HETATM   13  O4  UNL     1     -27.947 -15.454 -13.951  1.00  0.00    -0.390 OA
ATOM     14  H4  UNL     1     -27.892 -15.093 -14.828  1.00  0.00     0.210 HD
ENDBRANCH   6  13
BRANCH   7  15
HETATM   15  O5  UNL     1     -28.787 -16.096 -11.312  1.00  0.00    -0.392 OA
ATOM     16  H5  UNL     1     -28.677 -16.739 -12.003  1.00  0.00     0.210 HD
ENDBRANCH   7  15
ENDBRANCH   1   2
BRANCH   1  17
HETATM   17  C8  UNL     1     -31.296 -13.534  -8.665  1.00  0.00     0.215 C 
HETATM   18  O6  UNL     1     -30.221 -13.519  -7.791  1.00  0.00    -0.363 OA
HETATM   19  C9  UNL     1     -29.614 -12.285  -7.642  1.00  0.00     0.178 C 
HETATM   20  C11 UNL     1     -30.554 -11.270  -7.068  1.00  0.00     0.180 C 
HETATM   21  C12 UNL     1     -31.951 -11.445  -7.655  1.00  0.00     0.181 C 
HETATM   22  C13 UNL     1     -31.742 -12.128  -9.008  1.00  0.00     0.188 C 
BRANCH  19  23
HETATM   23  C10 UNL     1     -28.518 -12.479  -6.584  1.00  0.00     0.198 C 
BRANCH  23  24
HETATM   24  O7  UNL     1     -27.707 -11.357  -6.589  1.00  0.00    -0.398 OA
ATOM     25  H7  UNL     1     -26.853 -11.606  -6.256  1.00  0.00     0.209 HD
ENDBRANCH  23  24
ENDBRANCH  19  23
BRANCH  20  26
HETATM   26  O8  UNL     1     -30.126  -9.961  -7.272  1.00  0.00    -0.390 OA
ATOM     27  H8  UNL     1     -30.818  -9.323  -7.143  1.00  0.00     0.210 HD
ENDBRANCH  20  26
BRANCH  21  28
HETATM   28  O9  UNL     1     -32.585 -12.402  -6.839  1.00  0.00    -0.390 OA
ATOM     29  H9  UNL     1     -33.401 -11.999  -6.562  1.00  0.00     0.210 HD
ENDBRANCH  21  28
BRANCH  22  30
HETATM   30  O10 UNL     1     -32.946 -12.193  -9.708  1.00  0.00    -0.389 OA
ATOM     31  H10 UNL     1     -33.591 -11.657  -9.263  1.00  0.00     0.210 HD
ENDBRANCH  22  30
ENDBRANCH   1  17
TORSDOF 12
ENDMDL
