MODEL 3
REMARK VINA RESULT: -7.136594311      1.661      6.315
REMARK  12 active torsions:
REMARK  status: ('A' for Active; 'I' for Inactive)
REMARK    1  A    between atoms: O1_2  and  C2_3 
REMARK    2  A    between atoms: C3_5  and  C4_6 
REMARK    3  A    between atoms: C4_6  and  O3_7 
REMARK    4  A    between atoms: C5_9  and  O4_10 
REMARK    5  A    between atoms: C6_12  and  O5_13 
REMARK    6  A    between atoms: C7_15  and  S1_16 
REMARK    7  A    between atoms: S1_16  and  C8_17 
REMARK    8  A    between atoms: C9_19  and  C10_20 
REMARK    9  A    between atoms: C10_20  and  O7_21 
REMARK   10  A    between atoms: C11_23  and  O8_24 
REMARK   11  A    between atoms: C12_26  and  O9_27 
REMARK   12  A    between atoms: C13_29  and  O10_30 
ROOT
HETATM    1  S1  UNL     1     -29.158 -14.634 -11.518  1.00  0.00    -0.122 SA
ENDROOT
BRANCH   1   2
HETATM    2  C7  UNL     1     -28.393 -13.336 -12.527  1.00  0.00     0.136 C 
HETATM    3  C2  UNL     1     -29.143 -12.058 -12.385  1.00  0.00     0.276 C 
HETATM    4  O2  UNL     1     -29.683 -11.511 -13.495  1.00  0.00    -0.350 OA
HETATM    5  C3  UNL     1     -29.071 -11.731 -14.690  1.00  0.00     0.179 C 
HETATM    6  C5  UNL     1     -29.034 -13.240 -14.917  1.00  0.00     0.179 C 
HETATM    7  C6  UNL     1     -28.037 -13.749 -13.906  1.00  0.00     0.168 C 
BRANCH   3   8
HETATM    8  O1  UNL     1     -28.335 -11.071 -11.791  1.00  0.00    -0.365 OA
HETATM    9  C1  UNL     1     -28.913  -9.829 -11.771  1.00  0.00     0.204 C 
ENDBRANCH   3   8
BRANCH   5  10
HETATM   10  C4  UNL     1     -29.912 -11.038 -15.773  1.00  0.00     0.198 C 
BRANCH  10  11
HETATM   11  O3  UNL     1     -31.191 -10.802 -15.314  1.00  0.00    -0.398 OA
ATOM     12  H3  UNL     1     -31.715 -10.390 -15.990  1.00  0.00     0.209 HD
ENDBRANCH  10  11
ENDBRANCH   5  10
BRANCH   6  13
HETATM   13  O4  UNL     1     -28.518 -13.440 -16.218  1.00  0.00    -0.390 OA
ATOM     14  H4  UNL     1     -28.597 -14.369 -16.401  1.00  0.00     0.210 HD
ENDBRANCH   6  13
BRANCH   7  15
HETATM   15  O5  UNL     1     -27.791 -15.109 -14.035  1.00  0.00    -0.392 OA
ATOM     16  H5  UNL     1     -26.898 -15.296 -14.301  1.00  0.00     0.210 HD
ENDBRANCH   7  15
ENDBRANCH   1   2
BRANCH   1  17
HETATM   17  C8  UNL     1     -29.311 -14.251  -9.789  1.00  0.00     0.215 C 
HETATM   18  O6  UNL     1     -29.567 -12.897  -9.640  1.00  0.00    -0.363 OA
HETATM   19  C9  UNL     1     -30.854 -12.592  -9.237  1.00  0.00     0.178 C 
HETATM   20  C11 UNL     1     -31.163 -13.164  -7.887  1.00  0.00     0.180 C 
HETATM   21  C12 UNL     1     -30.553 -14.555  -7.745  1.00  0.00     0.181 C 
HETATM   22  C13 UNL     1     -30.413 -15.087  -9.173  1.00  0.00     0.188 C 
BRANCH  19  23
HETATM   23  C10 UNL     1     -30.891 -11.068  -9.059  1.00  0.00     0.198 C 
BRANCH  23  24
HETATM   24  O7  UNL     1     -29.725 -10.677  -8.423  1.00  0.00    -0.398 OA
ATOM     25  H7  UNL     1     -29.859  -9.808  -8.063  1.00  0.00     0.209 HD
ENDBRANCH  23  24
ENDBRANCH  19  23
BRANCH  20  26
HETATM   26  O8  UNL     1     -32.529 -13.227  -7.627  1.00  0.00    -0.390 OA
ATOM     27  H8  UNL     1     -32.750 -13.882  -6.975  1.00  0.00     0.210 HD
ENDBRANCH  20  26
BRANCH  21  28
HETATM   28  O9  UNL     1     -29.238 -14.344  -7.286  1.00  0.00    -0.390 OA
ATOM     29  H9  UNL     1     -29.252 -14.572  -6.364  1.00  0.00     0.210 HD
ENDBRANCH  21  28
BRANCH  22  30
HETATM   30  O10 UNL     1     -30.012 -16.422  -9.154  1.00  0.00    -0.389 OA
ATOM     31  H10 UNL     1     -30.338 -16.831  -8.361  1.00  0.00     0.210 HD
ENDBRANCH  22  30
ENDBRANCH   1  17
TORSDOF 12
ENDMDL
