MODEL 14
REMARK VINA RESULT: -6.630287139      2.035      6.322
REMARK  12 active torsions:
REMARK  status: ('A' for Active; 'I' for Inactive)
REMARK    1  A    between atoms: O1_2  and  C2_3 
REMARK    2  A    between atoms: C3_5  and  C4_6 
REMARK    3  A    between atoms: C4_6  and  O3_7 
REMARK    4  A    between atoms: C5_9  and  O4_10 
REMARK    5  A    between atoms: C6_12  and  O5_13 
REMARK    6  A    between atoms: C7_15  and  S1_16 
REMARK    7  A    between atoms: S1_16  and  C8_17 
REMARK    8  A    between atoms: C9_19  and  C10_20 
REMARK    9  A    between atoms: C10_20  and  O7_21 
REMARK   10  A    between atoms: C11_23  and  O8_24 
REMARK   11  A    between atoms: C12_26  and  O9_27 
REMARK   12  A    between atoms: C13_29  and  O10_30 
ROOT
HETATM    1  S1  UNL     1     -28.185 -13.180 -11.732  1.00  0.00    -0.122 SA
ENDROOT
BRANCH   1   2
HETATM    2  C7  UNL     1     -28.240 -13.888 -13.400  1.00  0.00     0.136 C 
HETATM    3  C2  UNL     1     -29.512 -13.521 -14.080  1.00  0.00     0.276 C 
HETATM    4  O2  UNL     1     -30.332 -14.517 -14.478  1.00  0.00    -0.350 OA
HETATM    5  C3  UNL     1     -29.780 -15.713 -14.820  1.00  0.00     0.179 C 
HETATM    6  C5  UNL     1     -29.016 -16.231 -13.605  1.00  0.00     0.179 C 
HETATM    7  C6  UNL     1     -27.828 -15.310 -13.485  1.00  0.00     0.168 C 
BRANCH   3   8
HETATM    8  O1  UNL     1     -29.259 -12.719 -15.208  1.00  0.00    -0.365 OA
HETATM    9  C1  UNL     1     -29.614 -11.406 -15.036  1.00  0.00     0.204 C 
ENDBRANCH   3   8
BRANCH   5  10
HETATM   10  C4  UNL     1     -30.929 -16.663 -15.187  1.00  0.00     0.198 C 
BRANCH  10  11
HETATM   11  O3  UNL     1     -31.675 -16.973 -14.069  1.00  0.00    -0.398 OA
ATOM     12  H3  UNL     1     -32.598 -17.009 -14.285  1.00  0.00     0.209 HD
ENDBRANCH  10  11
ENDBRANCH   5  10
BRANCH   6  13
HETATM   13  O4  UNL     1     -28.564 -17.530 -13.936  1.00  0.00    -0.390 OA
ATOM     14  H4  UNL     1     -28.080 -17.848 -13.183  1.00  0.00     0.210 HD
ENDBRANCH   6  13
BRANCH   7  15
HETATM   15  O5  UNL     1     -26.949 -15.698 -12.481  1.00  0.00    -0.392 OA
ATOM     16  H5  UNL     1     -26.053 -15.770 -12.787  1.00  0.00     0.210 HD
ENDBRANCH   7  15
ENDBRANCH   1   2
BRANCH   1  17
HETATM   17  C8  UNL     1     -29.615 -13.511 -10.726  1.00  0.00     0.215 C 
HETATM   18  O6  UNL     1     -29.250 -14.322  -9.664  1.00  0.00    -0.363 OA
HETATM   19  C9  UNL     1     -29.238 -13.692  -8.433  1.00  0.00     0.178 C 
HETATM   20  C11 UNL     1     -30.599 -13.194  -8.051  1.00  0.00     0.180 C 
HETATM   21  C12 UNL     1     -31.320 -12.626  -9.270  1.00  0.00     0.181 C 
HETATM   22  C13 UNL     1     -30.214 -12.208 -10.240  1.00  0.00     0.188 C 
BRANCH  19  23
HETATM   23  C10 UNL     1     -28.892 -14.779  -7.405  1.00  0.00     0.198 C 
BRANCH  23  24
HETATM   24  O7  UNL     1     -28.527 -14.158  -6.223  1.00  0.00    -0.398 OA
ATOM     25  H7  UNL     1     -28.411 -13.231  -6.397  1.00  0.00     0.209 HD
ENDBRANCH  23  24
ENDBRANCH  19  23
BRANCH  20  26
HETATM   26  O8  UNL     1     -30.559 -12.231  -7.046  1.00  0.00    -0.390 OA
ATOM     27  H8  UNL     1     -31.405 -11.829  -6.888  1.00  0.00     0.210 HD
ENDBRANCH  20  26
BRANCH  21  28
HETATM   28  O9  UNL     1     -31.960 -13.726  -9.874  1.00  0.00    -0.390 OA
ATOM     29  H9  UNL     1     -31.261 -14.310 -10.144  1.00  0.00     0.210 HD
ENDBRANCH  21  28
BRANCH  22  30
HETATM   30  O10 UNL     1     -30.758 -11.525 -11.328  1.00  0.00    -0.389 OA
ATOM     31  H10 UNL     1     -31.393 -12.086 -11.757  1.00  0.00     0.210 HD
ENDBRANCH  22  30
ENDBRANCH   1  17
TORSDOF 12
ENDMDL
