MODEL 5
REMARK VINA RESULT: -3.742577521      1.731      1.956
REMARK  1 active torsions:
REMARK  status: ('A' for Active; 'I' for Inactive)
REMARK       I    between atoms: C2_2  and  N1_4 
REMARK    1  A    between atoms: C6_8  and  C7_9 
ROOT
HETATM    1  C1  UNL     1     -93.755   9.743 -16.862  1.00  0.00     0.117 C 
HETATM    2  C2  UNL     1     -93.098   8.741 -17.729  1.00  0.00     0.216 C 
HETATM    3  O1  UNL     1     -91.856   8.521 -17.629  1.00  0.00    -0.274 OA
HETATM    4  N1  UNL     1     -93.853   8.023 -18.676  1.00  0.00    -0.338 N 
HETATM    5  C3  UNL     1     -93.363   7.006 -19.603  1.00  0.00     0.127 C 
HETATM    6  C4  UNL     1     -94.544   6.172 -19.996  1.00  0.00     0.022 C 
HETATM    7  C5  UNL     1     -95.647   6.670 -19.093  1.00  0.00     0.038 C 
HETATM    8  C6  UNL     1     -95.272   8.128 -18.943  1.00  0.00     0.188 C 
ENDROOT
BRANCH   8   9
HETATM    9  C7  UNL     1     -95.462   8.901 -20.170  1.00  0.00     0.196 C 
HETATM   10  O2  UNL     1     -94.811   9.963 -20.342  1.00  0.00    -0.646 OA
HETATM   11  O3  UNL     1     -96.333   8.542 -21.189  1.00  0.00    -0.646 OA
ENDBRANCH   8   9
TORSDOF 1
ENDMDL
