MODEL 4
REMARK VINA RESULT: -3.924496185      1.809      2.499
REMARK  1 active torsions:
REMARK  status: ('A' for Active; 'I' for Inactive)
REMARK       I    between atoms: C2_2  and  N1_4 
REMARK    1  A    between atoms: C6_8  and  C7_9 
ROOT
HETATM    1  C1  UNL     1     -95.242   9.673 -16.755  1.00  0.00     0.117 C 
HETATM    2  C2  UNL     1     -94.256   8.754 -17.362  1.00  0.00     0.216 C 
HETATM    3  O1  UNL     1     -93.129   8.569 -16.818  1.00  0.00    -0.274 OA
HETATM    4  N1  UNL     1     -94.565   8.074 -18.556  1.00  0.00    -0.338 N 
HETATM    5  C3  UNL     1     -93.711   7.138 -19.281  1.00  0.00     0.127 C 
HETATM    6  C4  UNL     1     -94.614   6.291 -20.126  1.00  0.00     0.022 C 
HETATM    7  C5  UNL     1     -95.999   6.691 -19.677  1.00  0.00     0.038 C 
HETATM    8  C6  UNL     1     -95.788   8.148 -19.327  1.00  0.00     0.188 C 
ENDROOT
BRANCH   8   9
HETATM    9  C7  UNL     1     -95.554   8.993 -20.498  1.00  0.00     0.196 C 
HETATM   10  O2  UNL     1     -96.386   8.990 -21.442  1.00  0.00    -0.646 OA
HETATM   11  O3  UNL     1     -94.452   9.822 -20.652  1.00  0.00    -0.646 OA
ENDBRANCH   8   9
TORSDOF 1
ENDMDL
