MODEL 19
REMARK VINA RESULT: -3.382467161      1.909      2.364
REMARK  1 active torsions:
REMARK  status: ('A' for Active; 'I' for Inactive)
REMARK       I    between atoms: C2_2  and  N1_4 
REMARK    1  A    between atoms: C6_8  and  C7_9 
ROOT
HETATM    1  C1  UNL     1     -95.268  12.421 -19.334  1.00  0.00     0.117 C 
HETATM    2  C2  UNL     1     -94.238  11.423 -19.692  1.00  0.00     0.216 C 
HETATM    3  O1  UNL     1     -93.118  11.792 -20.148  1.00  0.00    -0.274 OA
HETATM    4  N1  UNL     1     -94.499  10.049 -19.528  1.00  0.00    -0.338 N 
HETATM    5  C3  UNL     1     -93.597   8.941 -19.831  1.00  0.00     0.127 C 
HETATM    6  C4  UNL     1     -94.061   7.770 -19.019  1.00  0.00     0.022 C 
HETATM    7  C5  UNL     1     -95.131   8.355 -18.130  1.00  0.00     0.038 C 
HETATM    8  C6  UNL     1     -95.707   9.430 -19.027  1.00  0.00     0.188 C 
ENDROOT
BRANCH   8   9
HETATM    9  C7  UNL     1     -96.463   8.891 -20.158  1.00  0.00     0.196 C 
HETATM   10  O2  UNL     1     -97.373   8.048 -19.951  1.00  0.00    -0.646 OA
HETATM   11  O3  UNL     1     -96.246   9.249 -21.481  1.00  0.00    -0.646 OA
ENDBRANCH   8   9
TORSDOF 1
ENDMDL
