MODEL 7
REMARK VINA RESULT: -3.612051936      1.106      1.300
REMARK  1 active torsions:
REMARK  status: ('A' for Active; 'I' for Inactive)
REMARK       I    between atoms: C2_2  and  N1_4 
REMARK    1  A    between atoms: C6_8  and  C7_9 
ROOT
HETATM    1  C1  UNL     1     -93.526  11.313 -21.236  1.00  0.00     0.117 C 
HETATM    2  C2  UNL     1     -93.230   9.975 -20.681  1.00  0.00     0.216 C 
HETATM    3  O1  UNL     1     -92.129   9.405 -20.930  1.00  0.00    -0.274 OA
HETATM    4  N1  UNL     1     -94.175   9.324 -19.866  1.00  0.00    -0.338 N 
HETATM    5  C3  UNL     1     -94.042   8.010 -19.242  1.00  0.00     0.127 C 
HETATM    6  C4  UNL     1     -94.996   7.980 -18.086  1.00  0.00     0.022 C 
HETATM    7  C5  UNL     1     -95.505   9.399 -18.007  1.00  0.00     0.038 C 
HETATM    8  C6  UNL     1     -95.481   9.803 -19.466  1.00  0.00     0.188 C 
ENDROOT
BRANCH   8   9
HETATM    9  C7  UNL     1     -96.497   9.122 -20.268  1.00  0.00     0.196 C 
HETATM   10  O2  UNL     1     -96.365   9.064 -21.518  1.00  0.00    -0.646 OA
HETATM   11  O3  UNL     1     -97.630   8.518 -19.741  1.00  0.00    -0.646 OA
ENDBRANCH   8   9
TORSDOF 1
ENDMDL
