MODEL 1
REMARK VINA RESULT: -4.033606926      0.000      0.000
REMARK  1 active torsions:
REMARK  status: ('A' for Active; 'I' for Inactive)
REMARK       I    between atoms: C2_2  and  N1_4 
REMARK    1  A    between atoms: C6_8  and  C7_9 
ROOT
HETATM    1  C1  UNL     1     -92.712  10.245 -20.134  1.00  0.00     0.117 C 
HETATM    2  C2  UNL     1     -92.822   8.778 -20.287  1.00  0.00     0.216 C 
HETATM    3  O1  UNL     1     -91.882   8.115 -20.814  1.00  0.00    -0.274 OA
HETATM    4  N1  UNL     1     -93.977   8.106 -19.844  1.00  0.00    -0.338 N 
HETATM    5  C3  UNL     1     -94.243   6.672 -19.920  1.00  0.00     0.127 C 
HETATM    6  C4  UNL     1     -95.282   6.369 -18.883  1.00  0.00     0.022 C 
HETATM    7  C5  UNL     1     -95.420   7.667 -18.126  1.00  0.00     0.038 C 
HETATM    8  C6  UNL     1     -95.151   8.678 -19.221  1.00  0.00     0.188 C 
ENDROOT
BRANCH   8   9
HETATM    9  C7  UNL     1     -96.223   8.749 -20.214  1.00  0.00     0.196 C 
HETATM   10  O2  UNL     1     -95.972   9.186 -21.367  1.00  0.00    -0.646 OA
HETATM   11  O3  UNL     1     -97.533   8.360 -19.976  1.00  0.00    -0.646 OA
ENDBRANCH   8   9
TORSDOF 1
ENDMDL
