MODEL 6
REMARK VINA RESULT: -4.885060673      2.769      4.260
REMARK  4 active torsions:
REMARK  status: ('A' for Active; 'I' for Inactive)
REMARK    1  A    between atoms: C5_9  and  C6_10 
REMARK    2  A    between atoms: C6_10  and  O2_11 
REMARK    3  A    between atoms: C7_13  and  O3_14 
REMARK    4  A    between atoms: C8_16  and  O4_17 
ROOT
HETATM    1  C1  UNL     1      19.363  25.060  28.607  1.00  0.00     0.052 C 
HETATM    2  C2  UNL     1      18.295  25.642  27.700  1.00  0.00     0.246 C 
HETATM    3  N1  UNL     1      17.168  25.970  28.514  1.00  0.00    -0.052 N 
ATOM      4  H11 UNL     1      17.398  25.963  29.508  1.00  0.00     0.279 HD
ATOM      5  H12 UNL     1      16.470  25.226  28.518  1.00  0.00     0.279 HD
HETATM    6  C3  UNL     1      16.613  27.228  28.097  1.00  0.00     0.257 C 
HETATM    7  C4  UNL     1      17.728  28.235  28.042  1.00  0.00     0.218 C 
HETATM    8  O1  UNL     1      17.375  29.386  27.456  1.00  0.00    -0.363 OA
HETATM    9  C5  UNL     1      16.848  29.349  26.209  1.00  0.00     0.178 C 
HETATM   10  C7  UNL     1      16.174  28.113  25.779  1.00  0.00     0.180 C 
HETATM   11  C8  UNL     1      15.833  27.120  26.841  1.00  0.00     0.183 C 
HETATM   12  S1  UNL     1      18.963  27.259  27.129  1.00  0.00    -0.102 SA
ENDROOT
BRANCH   9  13
HETATM   13  C6  UNL     1      15.925  30.570  26.073  1.00  0.00     0.198 C 
BRANCH  13  14
HETATM   14  O2  UNL     1      14.591  30.183  26.014  1.00  0.00    -0.398 OA
ATOM     15  H2  UNL     1      14.399  29.748  25.192  1.00  0.00     0.209 HD
ENDBRANCH  13  14
ENDBRANCH   9  13
BRANCH  10  16
HETATM   16  O3  UNL     1      16.891  27.475  24.736  1.00  0.00    -0.390 OA
ATOM     17  H3  UNL     1      16.745  26.537  24.743  1.00  0.00     0.210 HD
ENDBRANCH  10  16
BRANCH  11  18
HETATM   18  O4  UNL     1      14.447  27.134  27.133  1.00  0.00    -0.391 OA
ATOM     19  H4  UNL     1      14.110  28.018  27.052  1.00  0.00     0.210 HD
ENDBRANCH  11  18
TORSDOF 4
ENDMDL
