MODEL 9
REMARK VINA RESULT: -4.684366945      2.612      4.366
REMARK  4 active torsions:
REMARK  status: ('A' for Active; 'I' for Inactive)
REMARK    1  A    between atoms: C5_9  and  C6_10 
REMARK    2  A    between atoms: C6_10  and  O2_11 
REMARK    3  A    between atoms: C7_13  and  O3_14 
REMARK    4  A    between atoms: C8_16  and  O4_17 
ROOT
HETATM    1  C1  UNL     1      18.947  26.781  29.212  1.00  0.00     0.052 C 
HETATM    2  C2  UNL     1      18.512  27.861  28.240  1.00  0.00     0.246 C 
HETATM    3  N1  UNL     1      18.846  27.419  26.924  1.00  0.00    -0.052 N 
ATOM      4  H11 UNL     1      19.076  26.425  26.901  1.00  0.00     0.279 HD
ATOM      5  H12 UNL     1      19.745  27.787  26.614  1.00  0.00     0.279 HD
HETATM    6  C3  UNL     1      17.784  27.749  26.014  1.00  0.00     0.257 C 
HETATM    7  C4  UNL     1      16.495  27.240  26.596  1.00  0.00     0.218 C 
HETATM    8  O1  UNL     1      15.409  27.680  25.946  1.00  0.00    -0.363 OA
HETATM    9  C5  UNL     1      15.241  29.014  25.785  1.00  0.00     0.178 C 
HETATM   10  C7  UNL     1      16.440  29.868  25.797  1.00  0.00     0.180 C 
HETATM   11  C8  UNL     1      17.761  29.189  25.660  1.00  0.00     0.183 C 
HETATM   12  S1  UNL     1      16.673  27.861  28.297  1.00  0.00    -0.102 SA
ENDROOT
BRANCH   9  13
HETATM   13  C6  UNL     1      14.421  29.213  24.500  1.00  0.00     0.198 C 
BRANCH  13  14
HETATM   14  O2  UNL     1      14.301  28.020  23.796  1.00  0.00    -0.398 OA
ATOM     15  H2  UNL     1      13.422  27.914  23.454  1.00  0.00     0.209 HD
ENDBRANCH  13  14
ENDBRANCH   9  13
BRANCH  10  16
HETATM   16  O3  UNL     1      16.451  30.717  26.933  1.00  0.00    -0.390 OA
ATOM     17  H3  UNL     1      16.055  30.291  27.683  1.00  0.00     0.210 HD
ENDBRANCH  10  16
BRANCH  11  18
HETATM   18  O4  UNL     1      18.304  29.373  24.364  1.00  0.00    -0.391 OA
ATOM     19  H4  UNL     1      18.759  30.205  24.322  1.00  0.00     0.210 HD
ENDBRANCH  11  18
TORSDOF 4
ENDMDL
