MODEL 2
REMARK VINA RESULT: -5.478338045      2.268      4.381
REMARK  4 active torsions:
REMARK  status: ('A' for Active; 'I' for Inactive)
REMARK    1  A    between atoms: C5_9  and  C6_10 
REMARK    2  A    between atoms: C6_10  and  O2_11 
REMARK    3  A    between atoms: C7_13  and  O3_14 
REMARK    4  A    between atoms: C8_16  and  O4_17 
ROOT
HETATM    1  C1  UNL     1      18.499  27.905  28.975  1.00  0.00     0.052 C 
HETATM    2  C2  UNL     1      17.294  28.157  28.089  1.00  0.00     0.246 C 
HETATM    3  N1  UNL     1      17.247  29.557  27.810  1.00  0.00    -0.052 N 
ATOM      4  H11 UNL     1      18.119  30.026  28.057  1.00  0.00     0.279 HD
ATOM      5  H12 UNL     1      16.625  30.053  28.449  1.00  0.00     0.279 HD
HETATM    6  C3  UNL     1      16.890  29.770  26.435  1.00  0.00     0.257 C 
HETATM    7  C4  UNL     1      17.804  28.937  25.580  1.00  0.00     0.218 C 
HETATM    8  O1  UNL     1      17.426  28.882  24.296  1.00  0.00    -0.363 OA
HETATM    9  C5  UNL     1      16.170  28.472  24.003  1.00  0.00     0.178 C 
HETATM   10  C7  UNL     1      15.128  28.645  25.028  1.00  0.00     0.180 C 
HETATM   11  C8  UNL     1      15.447  29.543  26.177  1.00  0.00     0.183 C 
HETATM   12  S1  UNL     1      17.692  27.359  26.480  1.00  0.00    -0.102 SA
ENDROOT
BRANCH   9  13
HETATM   13  C6  UNL     1      15.774  29.145  22.679  1.00  0.00     0.198 C 
BRANCH  13  14
HETATM   14  O2  UNL     1      16.316  28.466  21.593  1.00  0.00    -0.398 OA
ATOM     15  H2  UNL     1      16.464  27.552  21.803  1.00  0.00     0.209 HD
ENDBRANCH  13  14
ENDBRANCH   9  13
BRANCH  10  16
HETATM   16  O3  UNL     1      14.671  27.392  25.509  1.00  0.00    -0.390 OA
ATOM     17  H3  UNL     1      14.700  27.358  26.458  1.00  0.00     0.210 HD
ENDBRANCH  10  16
BRANCH  11  18
HETATM   18  O4  UNL     1      14.779  30.786  26.060  1.00  0.00    -0.391 OA
ATOM     19  H4  UNL     1      13.963  30.669  25.588  1.00  0.00     0.210 HD
ENDBRANCH  11  18
TORSDOF 4
ENDMDL
