MODEL 1
REMARK VINA RESULT: -5.813051641      0.000      0.000
REMARK  4 active torsions:
REMARK  status: ('A' for Active; 'I' for Inactive)
REMARK    1  A    between atoms: C5_9  and  C6_10 
REMARK    2  A    between atoms: C6_10  and  O2_11 
REMARK    3  A    between atoms: C7_13  and  O3_14 
REMARK    4  A    between atoms: C8_16  and  O4_17 
ROOT
HETATM    1  C1  UNL     1      16.675  29.144  21.244  1.00  0.00     0.052 C 
HETATM    2  C2  UNL     1      16.107  29.251  22.647  1.00  0.00     0.246 C 
HETATM    3  N1  UNL     1      15.833  27.926  23.104  1.00  0.00    -0.052 N 
ATOM      4  H11 UNL     1      16.274  27.219  22.516  1.00  0.00     0.279 HD
ATOM      5  H12 UNL     1      14.860  27.661  22.950  1.00  0.00     0.279 HD
HETATM    6  C3  UNL     1      16.215  27.795  24.483  1.00  0.00     0.257 C 
HETATM    7  C4  UNL     1      17.630  28.285  24.624  1.00  0.00     0.218 C 
HETATM    8  O1  UNL     1      18.021  28.419  25.898  1.00  0.00    -0.363 OA
HETATM    9  C5  UNL     1      17.279  29.187  26.731  1.00  0.00     0.178 C 
HETATM   10  C7  UNL     1      15.853  29.369  26.417  1.00  0.00     0.180 C 
HETATM   11  C8  UNL     1      15.255  28.447  25.406  1.00  0.00     0.183 C 
HETATM   12  S1  UNL     1      17.497  29.845  23.696  1.00  0.00    -0.102 SA
ENDROOT
BRANCH   9  13
HETATM   13  C6  UNL     1      17.477  28.633  28.151  1.00  0.00     0.198 C 
BRANCH  13  14
HETATM   14  O2  UNL     1      16.466  27.737  28.482  1.00  0.00    -0.398 OA
ATOM     15  H2  UNL     1      16.485  27.530  29.408  1.00  0.00     0.209 HD
ENDBRANCH  13  14
ENDBRANCH   9  13
BRANCH  10  16
HETATM   16  O3  UNL     1      15.574  30.714  26.066  1.00  0.00    -0.390 OA
ATOM     17  H3  UNL     1      14.869  31.068  26.596  1.00  0.00     0.210 HD
ENDBRANCH  10  16
BRANCH  11  18
HETATM   18  O4  UNL     1      14.439  27.467  26.022  1.00  0.00    -0.391 OA
ATOM     19  H4  UNL     1      13.580  27.829  26.199  1.00  0.00     0.210 HD
ENDBRANCH  11  18
TORSDOF 4
ENDMDL
