MODEL 6
REMARK VINA RESULT: -7.334153664      3.054      3.986
REMARK  8 active torsions:
REMARK  status: ('A' for Active; 'I' for Inactive)
REMARK       I    between atoms: C2_2  and  N1_4 
REMARK    1  A    between atoms: N1_4  and  C3_6 
REMARK    2  A    between atoms: N2_8  and  O2_10 
REMARK    3  A    between atoms: O2_10  and  C5_11 
REMARK       I    between atoms: C5_11  and  N3_13 
REMARK    4  A    between atoms: N3_13  and  C6_15 
REMARK    5  A    between atoms: C12_22  and  C13_23 
REMARK    6  A    between atoms: C13_23  and  O5_24 
REMARK    7  A    between atoms: C14_26  and  O6_27 
REMARK    8  A    between atoms: C15_29  and  O7_30 
ROOT
HETATM    1  C3  UNL     1      16.213  26.544  27.851  1.00  0.00     0.192 C 
HETATM    2  C4  UNL     1      16.826  27.632  28.651  1.00  0.00     0.165 C 
HETATM    3  N2  UNL     1      16.826  27.530  29.931  1.00  0.00    -0.236 N 
ATOM      4  H2  UNL     1      16.403  26.699  30.344  1.00  0.00     0.197 HD
HETATM    5  O4  UNL     1      17.359  28.692  27.982  1.00  0.00    -0.326 OA
HETATM    6  C12 UNL     1      17.234  28.946  26.609  1.00  0.00     0.185 C 
HETATM    7  C14 UNL     1      16.208  28.141  25.909  1.00  0.00     0.180 C 
HETATM    8  C15 UNL     1      15.419  27.210  26.748  1.00  0.00     0.180 C 
ENDROOT
BRANCH   1   9
HETATM    9  N1  UNL     1      17.238  25.739  27.185  1.00  0.00    -0.347 N 
HETATM   10  C2  UNL     1      18.162  24.936  27.892  1.00  0.00     0.214 C 
HETATM   11  C1  UNL     1      19.208  24.111  27.251  1.00  0.00     0.117 C 
HETATM   12  O1  UNL     1      18.058  24.947  29.165  1.00  0.00    -0.274 OA
ATOM     13  H1  UNL     1      17.287  25.758  26.167  1.00  0.00     0.163 HD
ENDBRANCH   1   9
BRANCH   3  14
HETATM   14  O2  UNL     1      17.356  28.459  30.771  1.00  0.00    -0.179 OA
BRANCH  14  15
HETATM   15  C5  UNL     1      18.728  28.306  31.109  1.00  0.00     0.387 C 
HETATM   16  O3  UNL     1      19.389  29.345  31.333  1.00  0.00    -0.236 OA
HETATM   17  N3  UNL     1      19.284  27.037  31.182  1.00  0.00    -0.301 N 
ATOM     18  H3  UNL     1      18.670  26.247  30.980  1.00  0.00     0.171 HD
BRANCH  17  19
HETATM   19  C6  UNL     1      20.609  26.748  31.506  1.00  0.00     0.036 A 
HETATM   20  C7  UNL     1      21.460  26.406  30.451  1.00  0.00     0.029 A 
HETATM   21  C8  UNL     1      22.770  26.096  30.699  1.00  0.00     0.002 A 
HETATM   22  C9  UNL     1      23.245  26.121  31.990  1.00  0.00     0.000 A 
HETATM   23  C10 UNL     1      22.419  26.455  33.033  1.00  0.00     0.002 A 
HETATM   24  C11 UNL     1      21.079  26.773  32.782  1.00  0.00     0.029 A 
ENDBRANCH  17  19
ENDBRANCH  14  15
ENDBRANCH   3  14
BRANCH   8  25
HETATM   25  O7  UNL     1      14.305  27.795  27.329  1.00  0.00    -0.390 OA
ATOM     26  H7  UNL     1      13.747  28.110  26.628  1.00  0.00     0.210 HD
ENDBRANCH   8  25
BRANCH   6  27
HETATM   27  C13 UNL     1      16.926  30.443  26.472  1.00  0.00     0.199 C 
BRANCH  27  28
HETATM   28  O5  UNL     1      15.590  30.705  26.694  1.00  0.00    -0.398 OA
ATOM     29  H5  UNL     1      15.466  31.235  27.472  1.00  0.00     0.209 HD
ENDBRANCH  27  28
ENDBRANCH   6  27
BRANCH   7  30
HETATM   30  O6  UNL     1      16.847  27.444  24.857  1.00  0.00    -0.390 OA
ATOM     31  H6  UNL     1      16.826  26.518  25.067  1.00  0.00     0.210 HD
ENDBRANCH   7  30
TORSDOF 8
ENDMDL
