MODEL 3
REMARK VINA RESULT: -7.507754437      3.837      6.980
REMARK  8 active torsions:
REMARK  status: ('A' for Active; 'I' for Inactive)
REMARK       I    between atoms: C2_2  and  N1_4 
REMARK    1  A    between atoms: N1_4  and  C3_6 
REMARK    2  A    between atoms: N2_8  and  O2_10 
REMARK    3  A    between atoms: O2_10  and  C5_11 
REMARK       I    between atoms: C5_11  and  N3_13 
REMARK    4  A    between atoms: N3_13  and  C6_15 
REMARK    5  A    between atoms: C12_22  and  C13_23 
REMARK    6  A    between atoms: C13_23  and  O5_24 
REMARK    7  A    between atoms: C14_26  and  O6_27 
REMARK    8  A    between atoms: C15_29  and  O7_30 
ROOT
HETATM    1  C3  UNL     1      17.203  27.650  26.940  1.00  0.00     0.192 C 
HETATM    2  C4  UNL     1      15.829  27.092  26.899  1.00  0.00     0.165 C 
HETATM    3  N2  UNL     1      15.633  25.902  27.341  1.00  0.00    -0.236 N 
ATOM      4  H2  UNL     1      16.437  25.389  27.704  1.00  0.00     0.197 HD
HETATM    5  O4  UNL     1      14.838  27.877  26.390  1.00  0.00    -0.326 OA
HETATM    6  C12 UNL     1      15.015  29.103  25.734  1.00  0.00     0.185 C 
HETATM    7  C14 UNL     1      16.405  29.409  25.331  1.00  0.00     0.180 C 
HETATM    8  C15 UNL     1      17.419  28.370  25.626  1.00  0.00     0.180 C 
ENDROOT
BRANCH   1   9
HETATM    9  N1  UNL     1      17.329  28.664  27.987  1.00  0.00    -0.347 N 
HETATM   10  C2  UNL     1      17.710  28.356  29.313  1.00  0.00     0.214 C 
HETATM   11  C1  UNL     1      17.846  29.356  30.393  1.00  0.00     0.117 C 
HETATM   12  O1  UNL     1      17.944  27.125  29.558  1.00  0.00    -0.274 OA
ATOM     13  H1  UNL     1      17.132  29.636  27.749  1.00  0.00     0.163 HD
ENDBRANCH   1   9
BRANCH   3  14
HETATM   14  O2  UNL     1      14.423  25.283  27.357  1.00  0.00    -0.179 OA
BRANCH  14  15
HETATM   15  C5  UNL     1      13.659  25.404  28.549  1.00  0.00     0.387 C 
HETATM   16  O3  UNL     1      13.531  24.383  29.262  1.00  0.00    -0.236 OA
HETATM   17  N3  UNL     1      13.089  26.625  28.882  1.00  0.00    -0.301 N 
ATOM     18  H3  UNL     1      13.243  27.402  28.240  1.00  0.00     0.171 HD
BRANCH  17  19
HETATM   19  C6  UNL     1      12.324  26.879  30.020  1.00  0.00     0.036 A 
HETATM   20  C7  UNL     1      10.941  26.986  29.844  1.00  0.00     0.029 A 
HETATM   21  C8  UNL     1      10.132  27.251  30.915  1.00  0.00     0.002 A 
HETATM   22  C9  UNL     1      10.683  27.412  32.165  1.00  0.00     0.000 A 
HETATM   23  C10 UNL     1      12.039  27.309  32.350  1.00  0.00     0.002 A 
HETATM   24  C11 UNL     1      12.869  27.038  31.256  1.00  0.00     0.029 A 
ENDBRANCH  17  19
ENDBRANCH  14  15
ENDBRANCH   3  14
BRANCH   8  25
HETATM   25  O7  UNL     1      17.533  27.408  24.635  1.00  0.00    -0.390 OA
ATOM     26  H7  UNL     1      16.997  27.686  23.903  1.00  0.00     0.210 HD
ENDBRANCH   8  25
BRANCH   6  27
HETATM   27  C13 UNL     1      14.094  29.074  24.507  1.00  0.00     0.199 C 
BRANCH  27  28
HETATM   28  O5  UNL     1      14.129  27.846  23.881  1.00  0.00    -0.398 OA
ATOM     29  H5  UNL     1      13.260  27.565  23.620  1.00  0.00     0.209 HD
ENDBRANCH  27  28
ENDBRANCH   6  27
BRANCH   7  30
HETATM   30  O6  UNL     1      16.768  30.641  25.923  1.00  0.00    -0.390 OA
ATOM     31  H6  UNL     1      17.599  30.910  25.552  1.00  0.00     0.210 HD
ENDBRANCH   7  30
TORSDOF 8
ENDMDL
