MODEL 5
REMARK VINA RESULT: -7.424461819      3.655      7.358
REMARK  8 active torsions:
REMARK  status: ('A' for Active; 'I' for Inactive)
REMARK       I    between atoms: C2_2  and  N1_4 
REMARK    1  A    between atoms: N1_4  and  C3_6 
REMARK    2  A    between atoms: N2_8  and  O2_10 
REMARK    3  A    between atoms: O2_10  and  C5_11 
REMARK       I    between atoms: C5_11  and  N3_13 
REMARK    4  A    between atoms: N3_13  and  C6_15 
REMARK    5  A    between atoms: C12_22  and  C13_23 
REMARK    6  A    between atoms: C13_23  and  O5_24 
REMARK    7  A    between atoms: C14_26  and  O6_27 
REMARK    8  A    between atoms: C15_29  and  O7_30 
ROOT
HETATM    1  C3  UNL     1      15.632  26.203  29.170  1.00  0.00     0.192 C 
HETATM    2  C4  UNL     1      14.746  27.074  28.359  1.00  0.00     0.165 C 
HETATM    3  N2  UNL     1      15.275  28.022  27.672  1.00  0.00    -0.236 N 
ATOM      4  H2  UNL     1      16.288  28.134  27.714  1.00  0.00     0.197 HD
HETATM    5  O4  UNL     1      13.407  26.823  28.386  1.00  0.00    -0.326 OA
HETATM    6  C12 UNL     1      12.755  25.927  29.244  1.00  0.00     0.185 C 
HETATM    7  C14 UNL     1      13.566  25.440  30.383  1.00  0.00     0.180 C 
HETATM    8  C15 UNL     1      14.936  25.992  30.497  1.00  0.00     0.180 C 
ENDROOT
BRANCH   1   9
HETATM    9  N1  UNL     1      15.765  24.878  28.564  1.00  0.00    -0.347 N 
HETATM   10  C2  UNL     1      17.016  24.303  28.241  1.00  0.00     0.214 C 
HETATM   11  C1  UNL     1      17.185  22.968  27.630  1.00  0.00     0.117 C 
HETATM   12  O1  UNL     1      18.045  25.011  28.510  1.00  0.00    -0.274 OA
ATOM     13  H1  UNL     1      14.918  24.345  28.365  1.00  0.00     0.163 HD
ENDBRANCH   1   9
BRANCH   3  14
HETATM   14  O2  UNL     1      14.571  28.884  26.891  1.00  0.00    -0.179 OA
BRANCH  14  15
HETATM   15  C5  UNL     1      15.118  29.181  25.613  1.00  0.00     0.387 C 
HETATM   16  O3  UNL     1      15.686  30.286  25.467  1.00  0.00    -0.236 OA
HETATM   17  N3  UNL     1      15.008  28.255  24.585  1.00  0.00    -0.301 N 
ATOM     18  H3  UNL     1      14.525  27.382  24.793  1.00  0.00     0.171 HD
BRANCH  17  19
HETATM   19  C6  UNL     1      15.502  28.418  23.291  1.00  0.00     0.036 A 
HETATM   20  C7  UNL     1      14.592  28.823  22.310  1.00  0.00     0.029 A 
HETATM   21  C8  UNL     1      15.005  28.987  21.016  1.00  0.00     0.002 A 
HETATM   22  C9  UNL     1      16.319  28.751  20.683  1.00  0.00     0.000 A 
HETATM   23  C10 UNL     1      17.221  28.353  21.637  1.00  0.00     0.002 A 
HETATM   24  C11 UNL     1      16.801  28.185  22.962  1.00  0.00     0.029 A 
ENDBRANCH  17  19
ENDBRANCH  14  15
ENDBRANCH   3  14
BRANCH   8  25
HETATM   25  O7  UNL     1      14.997  27.187  31.197  1.00  0.00    -0.390 OA
ATOM     26  H7  UNL     1      14.484  27.826  30.717  1.00  0.00     0.210 HD
ENDBRANCH   8  25
BRANCH   6  27
HETATM   27  C13 UNL     1      11.499  26.648  29.749  1.00  0.00     0.199 C 
BRANCH  27  28
HETATM   28  O5  UNL     1      10.550  26.761  28.755  1.00  0.00    -0.398 OA
ATOM     29  H5  UNL     1      10.107  25.935  28.603  1.00  0.00     0.209 HD
ENDBRANCH  27  28
ENDBRANCH   6  27
BRANCH   7  30
HETATM   30  O6  UNL     1      13.601  24.028  30.318  1.00  0.00    -0.390 OA
ATOM     31  H6  UNL     1      12.735  23.725  30.071  1.00  0.00     0.210 HD
ENDBRANCH   7  30
TORSDOF 8
ENDMDL
