MODEL 2
REMARK VINA RESULT: -7.429002360      1.318      1.690
REMARK  8 active torsions:
REMARK  status: ('A' for Active; 'I' for Inactive)
REMARK       I    between atoms: C2_2  and  N1_4 
REMARK    1  A    between atoms: N1_4  and  C3_6 
REMARK    2  A    between atoms: N2_8  and  O2_10 
REMARK    3  A    between atoms: O2_10  and  C5_11 
REMARK       I    between atoms: C5_11  and  N3_13 
REMARK    4  A    between atoms: N3_13  and  C6_15 
REMARK    5  A    between atoms: C12_22  and  C13_23 
REMARK    6  A    between atoms: C13_23  and  O5_24 
REMARK    7  A    between atoms: C14_26  and  O6_27 
REMARK    8  A    between atoms: C15_29  and  O7_30 
ROOT
HETATM    1  C3  UNL     1      36.571  16.742 -23.156  1.00  0.00     0.192 C 
HETATM    2  C4  UNL     1      36.942  15.477 -22.478  1.00  0.00     0.165 C 
HETATM    3  N2  UNL     1      37.145  14.430 -23.194  1.00  0.00    -0.236 N 
ATOM      4  H2  UNL     1      37.041  14.515 -24.205  1.00  0.00     0.197 HD
HETATM    5  O4  UNL     1      37.050  15.490 -21.119  1.00  0.00    -0.326 OA
HETATM    6  C12 UNL     1      36.672  16.542 -20.274  1.00  0.00     0.185 C 
HETATM    7  C14 UNL     1      35.841  17.591 -20.905  1.00  0.00     0.180 C 
HETATM    8  C15 UNL     1      35.476  17.375 -22.325  1.00  0.00     0.180 C 
ENDROOT
BRANCH   1   9
HETATM    9  N1  UNL     1      37.686  17.689 -23.151  1.00  0.00    -0.347 N 
HETATM   10  C2  UNL     1      38.767  17.608 -24.059  1.00  0.00     0.214 C 
HETATM   11  C1  UNL     1      39.907  18.548 -24.081  1.00  0.00     0.117 C 
HETATM   12  O1  UNL     1      38.722  16.648 -24.901  1.00  0.00    -0.274 OA
ATOM     13  H1  UNL     1      37.684  18.441 -22.462  1.00  0.00     0.163 HD
ENDBRANCH   1   9
BRANCH   3  14
HETATM   14  O2  UNL     1      37.490  13.215 -22.690  1.00  0.00    -0.179 OA
BRANCH  14  15
HETATM   15  C5  UNL     1      37.849  12.211 -23.631  1.00  0.00     0.387 C 
HETATM   16  O3  UNL     1      37.343  12.281 -24.774  1.00  0.00    -0.236 OA
HETATM   17  N3  UNL     1      38.732  11.206 -23.264  1.00  0.00    -0.301 N 
ATOM     18  H3  UNL     1      39.092  11.227 -22.310  1.00  0.00     0.171 HD
BRANCH  17  19
HETATM   19  C6  UNL     1      39.168  10.169 -24.088  1.00  0.00     0.036 A 
HETATM   20  C7  UNL     1      38.347   9.042 -24.180  1.00  0.00     0.029 A 
HETATM   21  C8  UNL     1      38.721   7.981 -24.959  1.00  0.00     0.002 A 
HETATM   22  C9  UNL     1      39.910   8.026 -25.650  1.00  0.00     0.000 A 
HETATM   23  C10 UNL     1      40.725   9.127 -25.567  1.00  0.00     0.002 A 
HETATM   24  C11 UNL     1      40.343  10.214 -24.772  1.00  0.00     0.029 A 
ENDBRANCH  17  19
ENDBRANCH  14  15
ENDBRANCH   3  14
BRANCH   8  25
HETATM   25  O7  UNL     1      34.329  16.616 -22.494  1.00  0.00    -0.390 OA
ATOM     26  H7  UNL     1      34.438  16.104 -23.286  1.00  0.00     0.210 HD
ENDBRANCH   8  25
BRANCH   6  27
HETATM   27  C13 UNL     1      35.927  15.904 -19.095  1.00  0.00     0.199 C 
BRANCH  27  28
HETATM   28  O5  UNL     1      36.802  15.485 -18.114  1.00  0.00    -0.398 OA
ATOM     29  H5  UNL     1      36.549  15.815 -17.260  1.00  0.00     0.209 HD
ENDBRANCH  27  28
ENDBRANCH   6  27
BRANCH   7  30
HETATM   30  O6  UNL     1      36.507  18.828 -20.744  1.00  0.00    -0.390 OA
ATOM     31  H6  UNL     1      35.994  19.360 -20.147  1.00  0.00     0.210 HD
ENDBRANCH   7  30
TORSDOF 8
ENDMDL
