MODEL 4
REMARK VINA RESULT: -7.365653920      2.649      7.253
REMARK  8 active torsions:
REMARK  status: ('A' for Active; 'I' for Inactive)
REMARK       I    between atoms: C2_2  and  N1_4 
REMARK    1  A    between atoms: N1_4  and  C3_6 
REMARK    2  A    between atoms: N2_8  and  O2_10 
REMARK    3  A    between atoms: O2_10  and  C5_11 
REMARK       I    between atoms: C5_11  and  N3_13 
REMARK    4  A    between atoms: N3_13  and  C6_15 
REMARK    5  A    between atoms: C12_22  and  C13_23 
REMARK    6  A    between atoms: C13_23  and  O5_24 
REMARK    7  A    between atoms: C14_26  and  O6_27 
REMARK    8  A    between atoms: C15_29  and  O7_30 
ROOT
HETATM    1  C3  UNL     1      35.833  10.736 -24.681  1.00  0.00     0.192 C 
HETATM    2  C4  UNL     1      36.255  12.135 -24.932  1.00  0.00     0.165 C 
HETATM    3  N2  UNL     1      37.456  12.479 -24.636  1.00  0.00    -0.236 N 
ATOM      4  H2  UNL     1      38.072  11.770 -24.237  1.00  0.00     0.197 HD
HETATM    5  O4  UNL     1      35.340  12.990 -25.469  1.00  0.00    -0.326 OA
HETATM    6  C12 UNL     1      33.974  12.728 -25.648  1.00  0.00     0.185 C 
HETATM    7  C14 UNL     1      33.462  11.535 -24.938  1.00  0.00     0.180 C 
HETATM    8  C15 UNL     1      34.438  10.802 -24.097  1.00  0.00     0.180 C 
ENDROOT
BRANCH   1   9
HETATM    9  N1  UNL     1      35.716   9.988 -25.933  1.00  0.00    -0.347 N 
HETATM   10  C2  UNL     1      36.245   8.688 -26.102  1.00  0.00     0.214 C 
HETATM   11  C1  UNL     1      36.144   7.905 -27.352  1.00  0.00     0.117 C 
HETATM   12  O1  UNL     1      36.842   8.187 -25.090  1.00  0.00    -0.274 OA
ATOM     13  H1  UNL     1      35.231  10.423 -26.717  1.00  0.00     0.163 HD
ENDBRANCH   1   9
BRANCH   3  14
HETATM   14  O2  UNL     1      37.961  13.728 -24.819  1.00  0.00    -0.179 OA
BRANCH  14  15
HETATM   15  C5  UNL     1      37.876  14.620 -23.715  1.00  0.00     0.387 C 
HETATM   16  O3  UNL     1      38.924  15.206 -23.362  1.00  0.00    -0.236 OA
HETATM   17  N3  UNL     1      36.660  14.812 -23.075  1.00  0.00    -0.301 N 
ATOM     18  H3  UNL     1      35.859  14.289 -23.429  1.00  0.00     0.171 HD
BRANCH  17  19
HETATM   19  C6  UNL     1      36.440  15.658 -21.988  1.00  0.00     0.036 A 
HETATM   20  C7  UNL     1      36.590  15.105 -20.713  1.00  0.00     0.029 A 
HETATM   21  C8  UNL     1      36.374  15.874 -19.602  1.00  0.00     0.002 A 
HETATM   22  C9  UNL     1      36.007  17.193 -19.745  1.00  0.00     0.000 A 
HETATM   23  C10 UNL     1      35.857  17.746 -20.991  1.00  0.00     0.002 A 
HETATM   24  C11 UNL     1      36.078  16.961 -22.129  1.00  0.00     0.029 A 
ENDBRANCH  17  19
ENDBRANCH  14  15
ENDBRANCH   3  14
BRANCH   8  25
HETATM   25  O7  UNL     1      34.546  11.301 -22.809  1.00  0.00    -0.390 OA
ATOM     26  H7  UNL     1      34.784  10.579 -22.240  1.00  0.00     0.210 HD
ENDBRANCH   8  25
BRANCH   6  27
HETATM   27  C13 UNL     1      33.228  13.987 -25.190  1.00  0.00     0.199 C 
BRANCH  27  28
HETATM   28  O5  UNL     1      34.044  14.814 -24.448  1.00  0.00    -0.398 OA
ATOM     29  H5  UNL     1      33.917  15.726 -24.680  1.00  0.00     0.209 HD
ENDBRANCH  27  28
ENDBRANCH   6  27
BRANCH   7  30
HETATM   30  O6  UNL     1      32.886  10.672 -25.898  1.00  0.00    -0.390 OA
ATOM     31  H6  UNL     1      32.693   9.846 -25.471  1.00  0.00     0.210 HD
ENDBRANCH   7  30
TORSDOF 8
ENDMDL
