MODEL 3
REMARK VINA RESULT: -7.422547269      3.667      7.329
REMARK  8 active torsions:
REMARK  status: ('A' for Active; 'I' for Inactive)
REMARK       I    between atoms: C2_2  and  N1_4 
REMARK    1  A    between atoms: N1_4  and  C3_6 
REMARK    2  A    between atoms: N2_8  and  O2_10 
REMARK    3  A    between atoms: O2_10  and  C5_11 
REMARK       I    between atoms: C5_11  and  N3_13 
REMARK    4  A    between atoms: N3_13  and  C6_15 
REMARK    5  A    between atoms: C12_22  and  C13_23 
REMARK    6  A    between atoms: C13_23  and  O5_24 
REMARK    7  A    between atoms: C14_26  and  O6_27 
REMARK    8  A    between atoms: C15_29  and  O7_30 
ROOT
HETATM    1  C3  UNL     1      37.144  15.368 -23.041  1.00  0.00     0.192 C 
HETATM    2  C4  UNL     1      38.026  16.549 -22.871  1.00  0.00     0.165 C 
HETATM    3  N2  UNL     1      39.238  16.478 -23.289  1.00  0.00    -0.236 N 
ATOM      4  H2  UNL     1      39.544  15.606 -23.722  1.00  0.00     0.197 HD
HETATM    5  O4  UNL     1      37.500  17.656 -22.276  1.00  0.00    -0.326 OA
HETATM    6  C12 UNL     1      36.252  17.736 -21.644  1.00  0.00     0.185 C 
HETATM    7  C14 UNL     1      35.597  16.437 -21.372  1.00  0.00     0.180 C 
HETATM    8  C15 UNL     1      36.358  15.225 -21.756  1.00  0.00     0.180 C 
ENDROOT
BRANCH   1   9
HETATM    9  N1  UNL     1      36.159  15.594 -24.098  1.00  0.00    -0.347 N 
HETATM   10  C2  UNL     1      35.666  14.557 -24.924  1.00  0.00     0.214 C 
HETATM   11  C1  UNL     1      34.671  14.751 -25.999  1.00  0.00     0.117 C 
HETATM   12  O1  UNL     1      36.132  13.389 -24.697  1.00  0.00    -0.274 OA
ATOM     13  H1  UNL     1      35.812  16.542 -24.247  1.00  0.00     0.163 HD
ENDBRANCH   1   9
BRANCH   3  14
HETATM   14  O2  UNL     1      40.141  17.490 -23.191  1.00  0.00    -0.179 OA
BRANCH  14  15
HETATM   15  C5  UNL     1      40.305  18.313 -24.338  1.00  0.00     0.387 C 
HETATM   16  O3  UNL     1      41.420  18.300 -24.906  1.00  0.00    -0.236 OA
HETATM   17  N3  UNL     1      39.247  19.091 -24.786  1.00  0.00    -0.301 N 
ATOM     18  H3  UNL     1      38.376  19.042 -24.259  1.00  0.00     0.171 HD
BRANCH  17  19
HETATM   19  C6  UNL     1      39.273  19.935 -25.897  1.00  0.00     0.036 A 
HETATM   20  C7  UNL     1      39.508  21.292 -25.657  1.00  0.00     0.029 A 
HETATM   21  C8  UNL     1      39.531  22.178 -26.699  1.00  0.00     0.002 A 
HETATM   22  C9  UNL     1      39.323  21.730 -27.983  1.00  0.00     0.000 A 
HETATM   23  C10 UNL     1      39.092  20.400 -28.230  1.00  0.00     0.002 A 
HETATM   24  C11 UNL     1      39.068  19.491 -27.166  1.00  0.00     0.029 A 
ENDBRANCH  17  19
ENDBRANCH  14  15
ENDBRANCH   3  14
BRANCH   8  25
HETATM   25  O7  UNL     1      37.234  14.786 -20.776  1.00  0.00    -0.390 OA
ATOM     26  H7  UNL     1      37.230  13.836 -20.792  1.00  0.00     0.210 HD
ENDBRANCH   8  25
BRANCH   6  27
HETATM   27  C13 UNL     1      36.477  18.507 -20.337  1.00  0.00     0.199 C 
BRANCH  27  28
HETATM   28  O5  UNL     1      37.613  18.075 -19.686  1.00  0.00    -0.398 OA
ATOM     29  H5  UNL     1      37.825  18.636 -18.950  1.00  0.00     0.209 HD
ENDBRANCH  27  28
ENDBRANCH   6  27
BRANCH   7  30
HETATM   30  O6  UNL     1      34.330  16.449 -22.000  1.00  0.00    -0.390 OA
ATOM     31  H6  UNL     1      34.027  15.551 -22.062  1.00  0.00     0.210 HD
ENDBRANCH   7  30
TORSDOF 8
ENDMDL
