MODEL 2
REMARK VINA RESULT: -5.211942965      2.023      2.669
REMARK  4 active torsions:
REMARK  status: ('A' for Active; 'I' for Inactive)
REMARK    1  A    between atoms: C5_9  and  C6_10 
REMARK    2  A    between atoms: C6_10  and  O2_11 
REMARK    3  A    between atoms: C7_13  and  O3_14 
REMARK    4  A    between atoms: C8_16  and  O4_17 
ROOT
HETATM    1  C1  UNL     1     -35.321 -23.384 -52.691  1.00  0.00     0.052 C 
HETATM    2  C2  UNL     1     -34.320 -22.951 -53.745  1.00  0.00     0.246 C 
HETATM    3  N1  UNL     1     -33.067 -22.743 -53.092  1.00  0.00    -0.052 N 
ATOM      4  H11 UNL     1     -33.056 -23.138 -52.151  1.00  0.00     0.279 HD
ATOM      5  H12 UNL     1     -32.922 -21.764 -52.845  1.00  0.00     0.279 HD
HETATM    6  C3  UNL     1     -32.000 -23.258 -53.906  1.00  0.00     0.257 C 
HETATM    7  C4  UNL     1     -32.343 -24.672 -54.286  1.00  0.00     0.218 C 
HETATM    8  O1  UNL     1     -31.533 -25.181 -55.223  1.00  0.00    -0.363 OA
HETATM    9  C5  UNL     1     -31.381 -24.510 -56.390  1.00  0.00     0.178 C 
HETATM   10  C7  UNL     1     -31.618 -23.058 -56.388  1.00  0.00     0.180 C 
HETATM   11  C8  UNL     1     -31.686 -22.381 -55.059  1.00  0.00     0.183 C 
HETATM   12  S1  UNL     1     -34.067 -24.425 -54.817  1.00  0.00    -0.102 SA
ENDROOT
BRANCH   9  13
HETATM   13  C6  UNL     1     -29.983 -24.852 -56.928  1.00  0.00     0.198 C 
BRANCH  13  14
HETATM   14  O2  UNL     1     -29.720 -24.163 -58.107  1.00  0.00    -0.398 OA
ATOM     15  H2  UNL     1     -30.267 -23.389 -58.177  1.00  0.00     0.209 HD
ENDBRANCH  13  14
ENDBRANCH   9  13
BRANCH  10  16
HETATM   16  O3  UNL     1     -32.762 -22.725 -57.157  1.00  0.00    -0.390 OA
ATOM     17  H3  UNL     1     -32.781 -21.797 -57.359  1.00  0.00     0.210 HD
ENDBRANCH  10  16
BRANCH  11  18
HETATM   18  O4  UNL     1     -30.506 -21.644 -54.795  1.00  0.00    -0.391 OA
ATOM     19  H4  UNL     1     -30.443 -20.912 -55.397  1.00  0.00     0.210 HD
ENDBRANCH  11  18
TORSDOF 4
ENDMDL
