MODEL 3
REMARK VINA RESULT: -5.152295410      2.284      4.079
REMARK  4 active torsions:
REMARK  status: ('A' for Active; 'I' for Inactive)
REMARK    1  A    between atoms: C5_9  and  C6_10 
REMARK    2  A    between atoms: C6_10  and  O2_11 
REMARK    3  A    between atoms: C7_13  and  O3_14 
REMARK    4  A    between atoms: C8_16  and  O4_17 
ROOT
HETATM    1  C1  UNL     1     -30.220 -23.885 -56.674  1.00  0.00     0.052 C 
HETATM    2  C2  UNL     1     -30.977 -23.739 -55.367  1.00  0.00     0.246 C 
HETATM    3  N1  UNL     1     -31.431 -22.388 -55.278  1.00  0.00    -0.052 N 
ATOM      4  H11 UNL     1     -31.357 -21.900 -56.172  1.00  0.00     0.279 HD
ATOM      5  H12 UNL     1     -30.792 -21.804 -54.737  1.00  0.00     0.279 HD
HETATM    6  C3  UNL     1     -32.768 -22.354 -54.754  1.00  0.00     0.257 C 
HETATM    7  C4  UNL     1     -33.610 -23.303 -55.560  1.00  0.00     0.218 C 
HETATM    8  O1  UNL     1     -34.819 -23.523 -55.028  1.00  0.00    -0.363 OA
HETATM    9  C5  UNL     1     -34.900 -23.955 -53.747  1.00  0.00     0.178 C 
HETATM   10  C7  UNL     1     -33.786 -23.636 -52.839  1.00  0.00     0.180 C 
HETATM   11  C8  UNL     1     -32.814 -22.597 -53.292  1.00  0.00     0.183 C 
HETATM   12  S1  UNL     1     -32.503 -24.747 -55.569  1.00  0.00    -0.102 SA
ENDROOT
BRANCH   9  13
HETATM   13  C6  UNL     1     -36.242 -23.459 -53.187  1.00  0.00     0.198 C 
BRANCH  13  14
HETATM   14  O2  UNL     1     -36.214 -22.085 -52.969  1.00  0.00    -0.398 OA
ATOM     15  H2  UNL     1     -35.657 -21.870 -52.231  1.00  0.00     0.209 HD
ENDBRANCH  13  14
ENDBRANCH   9  13
BRANCH  10  16
HETATM   16  O3  UNL     1     -33.091 -24.810 -52.451  1.00  0.00    -0.390 OA
ATOM     17  H3  UNL     1     -33.444 -25.577 -52.886  1.00  0.00     0.210 HD
ENDBRANCH  10  16
BRANCH  11  18
HETATM   18  O4  UNL     1     -33.012 -21.374 -52.607  1.00  0.00    -0.391 OA
ATOM     19  H4  UNL     1     -32.296 -21.225 -52.001  1.00  0.00     0.210 HD
ENDBRANCH  11  18
TORSDOF 4
ENDMDL
