MODEL 9
REMARK VINA RESULT: -4.764950006      1.565      1.850
REMARK  4 active torsions:
REMARK  status: ('A' for Active; 'I' for Inactive)
REMARK    1  A    between atoms: C5_9  and  C6_10 
REMARK    2  A    between atoms: C6_10  and  O2_11 
REMARK    3  A    between atoms: C7_13  and  O3_14 
REMARK    4  A    between atoms: C8_16  and  O4_17 
ROOT
HETATM    1  C1  UNL     1     -38.212 -23.844 -52.883  1.00  0.00     0.052 C 
HETATM    2  C2  UNL     1     -36.839 -23.213 -53.020  1.00  0.00     0.246 C 
HETATM    3  N1  UNL     1     -35.932 -23.975 -52.222  1.00  0.00    -0.052 N 
ATOM      4  H11 UNL     1     -36.332 -24.869 -51.936  1.00  0.00     0.279 HD
ATOM      5  H12 UNL     1     -35.803 -23.567 -51.295  1.00  0.00     0.279 HD
HETATM    6  C3  UNL     1     -34.687 -24.139 -52.918  1.00  0.00     0.257 C 
HETATM    7  C4  UNL     1     -34.986 -24.663 -54.295  1.00  0.00     0.218 C 
HETATM    8  O1  UNL     1     -33.925 -24.648 -55.112  1.00  0.00    -0.363 OA
HETATM    9  C5  UNL     1     -33.261 -23.482 -55.297  1.00  0.00     0.178 C 
HETATM   10  C7  UNL     1     -33.338 -22.467 -54.235  1.00  0.00     0.180 C 
HETATM   11  C8  UNL     1     -33.859 -22.908 -52.907  1.00  0.00     0.183 C 
HETATM   12  S1  UNL     1     -36.327 -23.524 -54.760  1.00  0.00    -0.102 SA
ENDROOT
BRANCH   9  13
HETATM   13  C6  UNL     1     -31.804 -23.841 -55.629  1.00  0.00     0.198 C 
BRANCH  13  14
HETATM   14  O2  UNL     1     -31.679 -25.195 -55.921  1.00  0.00    -0.398 OA
ATOM     15  H2  UNL     1     -31.381 -25.680 -55.161  1.00  0.00     0.209 HD
ENDBRANCH  13  14
ENDBRANCH   9  13
BRANCH  10  16
HETATM   16  O3  UNL     1     -34.047 -21.320 -54.673  1.00  0.00    -0.390 OA
ATOM     17  H3  UNL     1     -33.470 -20.568 -54.747  1.00  0.00     0.210 HD
ENDBRANCH  10  16
BRANCH  11  18
HETATM   18  O4  UNL     1     -32.814 -23.040 -51.961  1.00  0.00    -0.391 OA
ATOM     19  H4  UNL     1     -32.177 -23.672 -52.271  1.00  0.00     0.210 HD
ENDBRANCH  11  18
TORSDOF 4
ENDMDL
