MODEL 7
REMARK VINA RESULT: -4.790265538      7.547      9.092
REMARK  4 active torsions:
REMARK  status: ('A' for Active; 'I' for Inactive)
REMARK    1  A    between atoms: C5_9  and  C6_10 
REMARK    2  A    between atoms: C6_10  and  O2_11 
REMARK    3  A    between atoms: C7_13  and  O3_14 
REMARK    4  A    between atoms: C8_16  and  O4_17 
ROOT
HETATM    1  C1  UNL     1     -34.052 -15.046 -55.084  1.00  0.00     0.052 C 
HETATM    2  C2  UNL     1     -34.006 -15.772 -53.753  1.00  0.00     0.246 C 
HETATM    3  N1  UNL     1     -33.710 -14.807 -52.743  1.00  0.00    -0.052 N 
ATOM      4  H11 UNL     1     -33.822 -13.851 -53.083  1.00  0.00     0.279 HD
ATOM      5  H12 UNL     1     -32.713 -14.773 -52.527  1.00  0.00     0.279 HD
HETATM    6  C3  UNL     1     -34.507 -15.061 -51.575  1.00  0.00     0.257 C 
HETATM    7  C4  UNL     1     -35.943 -15.176 -52.005  1.00  0.00     0.218 C 
HETATM    8  O1  UNL     1     -36.752 -15.630 -51.039  1.00  0.00    -0.363 OA
HETATM    9  C5  UNL     1     -36.451 -16.804 -50.434  1.00  0.00     0.178 C 
HETATM   10  C7  UNL     1     -35.045 -17.238 -50.426  1.00  0.00     0.180 C 
HETATM   11  C8  UNL     1     -34.016 -16.218 -50.789  1.00  0.00     0.183 C 
HETATM   12  S1  UNL     1     -35.737 -16.300 -53.422  1.00  0.00    -0.102 SA
ENDROOT
BRANCH   9  13
HETATM   13  C6  UNL     1     -37.028 -16.739 -49.011  1.00  0.00     0.198 C 
BRANCH  13  14
HETATM   14  O2  UNL     1     -36.223 -15.965 -48.182  1.00  0.00    -0.398 OA
ATOM     15  H2  UNL     1     -35.793 -16.503 -47.528  1.00  0.00     0.209 HD
ENDBRANCH  13  14
ENDBRANCH   9  13
BRANCH  10  16
HETATM   16  O3  UNL     1     -34.865 -18.404 -51.212  1.00  0.00    -0.390 OA
ATOM     17  H3  UNL     1     -34.621 -19.147 -50.673  1.00  0.00     0.210 HD
ENDBRANCH  10  16
BRANCH  11  18
HETATM   18  O4  UNL     1     -33.318 -15.761 -49.644  1.00  0.00    -0.391 OA
ATOM     19  H4  UNL     1     -33.927 -15.629 -48.928  1.00  0.00     0.210 HD
ENDBRANCH  11  18
TORSDOF 4
ENDMDL
