MODEL 4
REMARK VINA RESULT: -6.933351645      2.679      8.088
REMARK  8 active torsions:
REMARK  status: ('A' for Active; 'I' for Inactive)
REMARK       I    between atoms: C2_2  and  N1_4 
REMARK    1  A    between atoms: N1_4  and  C3_6 
REMARK    2  A    between atoms: N2_8  and  O2_10 
REMARK    3  A    between atoms: O2_10  and  C5_11 
REMARK       I    between atoms: C5_11  and  N3_13 
REMARK    4  A    between atoms: N3_13  and  C6_15 
REMARK    5  A    between atoms: C12_22  and  C13_23 
REMARK    6  A    between atoms: C13_23  and  O5_24 
REMARK    7  A    between atoms: C14_26  and  O6_27 
REMARK    8  A    between atoms: C15_29  and  O7_30 
ROOT
HETATM    1  C3  UNL     1      25.053  29.962  54.264  1.00  0.00     0.192 C 
HETATM    2  C4  UNL     1      25.514  31.350  54.506  1.00  0.00     0.165 C 
HETATM    3  N2  UNL     1      24.726  32.165  55.110  1.00  0.00    -0.236 N 
ATOM      4  H2  UNL     1      23.810  31.819  55.398  1.00  0.00     0.197 HD
HETATM    5  O4  UNL     1      26.760  31.693  54.073  1.00  0.00    -0.326 OA
HETATM    6  C12 UNL     1      27.591  30.911  53.259  1.00  0.00     0.185 C 
HETATM    7  C14 UNL     1      26.934  29.757  52.607  1.00  0.00     0.180 C 
HETATM    8  C15 UNL     1      25.482  29.602  52.857  1.00  0.00     0.180 C 
ENDROOT
BRANCH   1   9
HETATM    9  N1  UNL     1      25.733  29.018  55.151  1.00  0.00    -0.347 N 
HETATM   10  C2  UNL     1      25.328  28.793  56.487  1.00  0.00     0.214 C 
HETATM   11  C1  UNL     1      25.992  27.847  57.409  1.00  0.00     0.117 C 
HETATM   12  O1  UNL     1      24.320  29.466  56.890  1.00  0.00    -0.274 OA
ATOM     13  H1  UNL     1      26.533  28.500  54.791  1.00  0.00     0.163 HD
ENDBRANCH   1   9
BRANCH   3  14
HETATM   14  O2  UNL     1      25.033  33.459  55.390  1.00  0.00    -0.179 OA
BRANCH  14  15
HETATM   15  C5  UNL     1      24.029  34.428  55.117  1.00  0.00     0.387 C 
HETATM   16  O3  UNL     1      24.286  35.622  55.390  1.00  0.00    -0.236 OA
HETATM   17  N3  UNL     1      22.819  34.031  54.566  1.00  0.00    -0.301 N 
ATOM     18  H3  UNL     1      22.696  33.036  54.380  1.00  0.00     0.171 HD
BRANCH  17  19
HETATM   19  C6  UNL     1      21.757  34.876  54.246  1.00  0.00     0.036 A 
HETATM   20  C7  UNL     1      20.834  35.147  55.260  1.00  0.00     0.029 A 
HETATM   21  C8  UNL     1      19.759  35.955  55.011  1.00  0.00     0.002 A 
HETATM   22  C9  UNL     1      19.589  36.500  53.759  1.00  0.00     0.000 A 
HETATM   23  C10 UNL     1      20.488  36.242  52.756  1.00  0.00     0.002 A 
HETATM   24  C11 UNL     1      21.589  35.415  53.009  1.00  0.00     0.029 A 
ENDBRANCH  17  19
ENDBRANCH  14  15
ENDBRANCH   3  14
BRANCH   8  25
HETATM   25  O7  UNL     1      24.687  30.322  51.980  1.00  0.00    -0.390 OA
ATOM     26  H7  UNL     1      24.716  29.881  51.139  1.00  0.00     0.210 HD
ENDBRANCH   8  25
BRANCH   6  27
HETATM   27  C13 UNL     1      28.180  31.859  52.206  1.00  0.00     0.199 C 
BRANCH  27  28
HETATM   28  O5  UNL     1      27.245  32.188  51.247  1.00  0.00    -0.398 OA
ATOM     29  H5  UNL     1      27.586  32.054  50.370  1.00  0.00     0.209 HD
ENDBRANCH  27  28
ENDBRANCH   6  27
BRANCH   7  30
HETATM   30  O6  UNL     1      27.632  28.588  52.987  1.00  0.00    -0.390 OA
ATOM     31  H6  UNL     1      28.249  28.825  53.669  1.00  0.00     0.210 HD
ENDBRANCH   7  30
TORSDOF 8
ENDMDL
