MODEL 3
REMARK VINA RESULT: -6.963659794      2.148      3.241
REMARK  8 active torsions:
REMARK  status: ('A' for Active; 'I' for Inactive)
REMARK       I    between atoms: C2_2  and  N1_4 
REMARK    1  A    between atoms: N1_4  and  C3_6 
REMARK    2  A    between atoms: N2_8  and  O2_10 
REMARK    3  A    between atoms: O2_10  and  C5_11 
REMARK       I    between atoms: C5_11  and  N3_13 
REMARK    4  A    between atoms: N3_13  and  C6_15 
REMARK    5  A    between atoms: C12_22  and  C13_23 
REMARK    6  A    between atoms: C13_23  and  O5_24 
REMARK    7  A    between atoms: C14_26  and  O6_27 
REMARK    8  A    between atoms: C15_29  and  O7_30 
ROOT
HETATM    1  C3  UNL     1      24.333  37.148  53.979  1.00  0.00     0.192 C 
HETATM    2  C4  UNL     1      24.434  36.050  52.987  1.00  0.00     0.165 C 
HETATM    3  N2  UNL     1      25.521  35.926  52.314  1.00  0.00    -0.236 N 
ATOM      4  H2  UNL     1      26.272  36.592  52.493  1.00  0.00     0.197 HD
HETATM    5  O4  UNL     1      23.360  35.224  52.839  1.00  0.00    -0.326 OA
HETATM    6  C12 UNL     1      22.093  35.412  53.408  1.00  0.00     0.185 C 
HETATM    7  C14 UNL     1      21.849  36.756  53.977  1.00  0.00     0.180 C 
HETATM    8  C15 UNL     1      22.947  37.740  53.832  1.00  0.00     0.180 C 
ENDROOT
BRANCH   1   9
HETATM    9  N1  UNL     1      24.412  36.632  55.346  1.00  0.00    -0.347 N 
HETATM   10  C2  UNL     1      25.632  36.263  55.958  1.00  0.00     0.214 C 
HETATM   11  C1  UNL     1      25.748  35.739  57.335  1.00  0.00     0.117 C 
HETATM   12  O1  UNL     1      26.684  36.405  55.245  1.00  0.00    -0.274 OA
ATOM     13  H1  UNL     1      23.550  36.534  55.881  1.00  0.00     0.163 HD
ENDBRANCH   1   9
BRANCH   3  14
HETATM   14  O2  UNL     1      25.735  34.962  51.379  1.00  0.00    -0.179 OA
BRANCH  14  15
HETATM   15  C5  UNL     1      26.029  33.658  51.861  1.00  0.00     0.387 C 
HETATM   16  O3  UNL     1      27.224  33.287  51.836  1.00  0.00    -0.236 OA
HETATM   17  N3  UNL     1      25.005  32.851  52.336  1.00  0.00    -0.301 N 
ATOM     18  H3  UNL     1      24.061  33.235  52.315  1.00  0.00     0.171 HD
BRANCH  17  19
HETATM   19  C6  UNL     1      25.157  31.559  52.839  1.00  0.00     0.036 A 
HETATM   20  C7  UNL     1      25.215  31.422  54.229  1.00  0.00     0.029 A 
HETATM   21  C8  UNL     1      25.379  30.185  54.790  1.00  0.00     0.002 A 
HETATM   22  C9  UNL     1      25.489  29.077  53.982  1.00  0.00     0.000 A 
HETATM   23  C10 UNL     1      25.434  29.199  52.617  1.00  0.00     0.002 A 
HETATM   24  C11 UNL     1      25.265  30.464  52.040  1.00  0.00     0.029 A 
ENDBRANCH  17  19
ENDBRANCH  14  15
ENDBRANCH   3  14
BRANCH   8  25
HETATM   25  O7  UNL     1      22.915  38.437  52.634  1.00  0.00    -0.390 OA
ATOM     26  H7  UNL     1      23.588  39.105  52.673  1.00  0.00     0.210 HD
ENDBRANCH   8  25
BRANCH   6  27
HETATM   27  C13 UNL     1      21.073  35.102  52.305  1.00  0.00     0.199 C 
BRANCH  27  28
HETATM   28  O5  UNL     1      20.414  36.242  51.895  1.00  0.00    -0.398 OA
ATOM     29  H5  UNL     1      20.557  36.412  50.972  1.00  0.00     0.209 HD
ENDBRANCH  27  28
ENDBRANCH   6  27
BRANCH   7  30
HETATM   30  O6  UNL     1      21.501  36.596  55.338  1.00  0.00    -0.390 OA
ATOM     31  H6  UNL     1      20.566  36.433  55.382  1.00  0.00     0.210 HD
ENDBRANCH   7  30
TORSDOF 8
ENDMDL
