MODEL 1
REMARK VINA RESULT: -7.407788772      0.000      0.000
REMARK  8 active torsions:
REMARK  status: ('A' for Active; 'I' for Inactive)
REMARK       I    between atoms: C2_2  and  N1_4 
REMARK    1  A    between atoms: N1_4  and  C3_6 
REMARK    2  A    between atoms: N2_8  and  O2_10 
REMARK    3  A    between atoms: O2_10  and  C5_11 
REMARK       I    between atoms: C5_11  and  N3_13 
REMARK    4  A    between atoms: N3_13  and  C6_15 
REMARK    5  A    between atoms: C12_22  and  C13_23 
REMARK    6  A    between atoms: C13_23  and  O5_24 
REMARK    7  A    between atoms: C14_26  and  O6_27 
REMARK    8  A    between atoms: C15_29  and  O7_30 
ROOT
HETATM    1  C3  UNL     1      22.112  36.486  53.486  1.00  0.00     0.192 C 
HETATM    2  C4  UNL     1      22.667  35.674  54.596  1.00  0.00     0.165 C 
HETATM    3  N2  UNL     1      23.858  35.206  54.481  1.00  0.00    -0.236 N 
ATOM      4  H2  UNL     1      24.373  35.415  53.625  1.00  0.00     0.197 HD
HETATM    5  O4  UNL     1      21.880  35.463  55.688  1.00  0.00    -0.326 OA
HETATM    6  C12 UNL     1      20.522  35.792  55.799  1.00  0.00     0.185 C 
HETATM    7  C14 UNL     1      19.849  36.135  54.527  1.00  0.00     0.180 C 
HETATM    8  C15 UNL     1      20.676  36.043  53.301  1.00  0.00     0.180 C 
ENDROOT
BRANCH   1   9
HETATM    9  N1  UNL     1      22.057  37.903  53.847  1.00  0.00    -0.347 N 
HETATM   10  C2  UNL     1      23.136  38.791  53.634  1.00  0.00     0.214 C 
HETATM   11  C1  UNL     1      23.114  40.226  53.986  1.00  0.00     0.117 C 
HETATM   12  O1  UNL     1      24.183  38.287  53.101  1.00  0.00    -0.274 OA
ATOM     13  H1  UNL     1      21.203  38.265  54.270  1.00  0.00     0.163 HD
ENDBRANCH   1   9
BRANCH   3  14
HETATM   14  O2  UNL     1      24.477  34.449  55.426  1.00  0.00    -0.179 OA
BRANCH  14  15
HETATM   15  C5  UNL     1      25.150  33.283  54.972  1.00  0.00     0.387 C 
HETATM   16  O3  UNL     1      26.393  33.345  54.840  1.00  0.00    -0.236 OA
HETATM   17  N3  UNL     1      24.425  32.132  54.695  1.00  0.00    -0.301 N 
ATOM     18  H3  UNL     1      23.415  32.174  54.828  1.00  0.00     0.171 HD
BRANCH  17  19
HETATM   19  C6  UNL     1      24.960  30.924  54.249  1.00  0.00     0.036 A 
HETATM   20  C7  UNL     1      25.265  29.968  55.222  1.00  0.00     0.029 A 
HETATM   21  C8  UNL     1      25.808  28.766  54.857  1.00  0.00     0.002 A 
HETATM   22  C9  UNL     1      26.052  28.502  53.529  1.00  0.00     0.000 A 
HETATM   23  C10 UNL     1      25.756  29.433  52.565  1.00  0.00     0.002 A 
HETATM   24  C11 UNL     1      25.201  30.663  52.936  1.00  0.00     0.029 A 
ENDBRANCH  17  19
ENDBRANCH  14  15
ENDBRANCH   3  14
BRANCH   8  25
HETATM   25  O7  UNL     1      20.698  34.775  52.740  1.00  0.00    -0.390 OA
ATOM     26  H7  UNL     1      20.158  34.797  51.960  1.00  0.00     0.210 HD
ENDBRANCH   8  25
BRANCH   6  27
HETATM   27  C13 UNL     1      19.838  34.590  56.461  1.00  0.00     0.199 C 
BRANCH  27  28
HETATM   28  O5  UNL     1      18.831  34.990  57.314  1.00  0.00    -0.398 OA
ATOM     29  H5  UNL     1      18.642  34.323  57.964  1.00  0.00     0.209 HD
ENDBRANCH  27  28
ENDBRANCH   6  27
BRANCH   7  30
HETATM   30  O6  UNL     1      19.301  37.432  54.661  1.00  0.00    -0.390 OA
ATOM     31  H6  UNL     1      19.342  37.855  53.812  1.00  0.00     0.210 HD
ENDBRANCH   7  30
TORSDOF 8
ENDMDL
