MODEL 8
REMARK VINA RESULT: -7.170499354      3.217      6.944
REMARK  8 active torsions:
REMARK  status: ('A' for Active; 'I' for Inactive)
REMARK       I    between atoms: C2_2  and  N1_4 
REMARK    1  A    between atoms: N1_4  and  C3_6 
REMARK    2  A    between atoms: N2_8  and  O2_10 
REMARK    3  A    between atoms: O2_10  and  C5_11 
REMARK       I    between atoms: C5_11  and  N3_13 
REMARK    4  A    between atoms: N3_13  and  C6_15 
REMARK    5  A    between atoms: C12_22  and  C13_23 
REMARK    6  A    between atoms: C13_23  and  O5_24 
REMARK    7  A    between atoms: C14_26  and  O6_27 
REMARK    8  A    between atoms: C15_29  and  O7_30 
ROOT
HETATM    1  C3  UNL     1     -19.622  39.569 -11.441  1.00  0.00     0.192 C 
HETATM    2  C4  UNL     1     -21.073  39.481 -11.731  1.00  0.00     0.165 C 
HETATM    3  N2  UNL     1     -21.572  38.338 -12.042  1.00  0.00    -0.236 N 
ATOM      4  H2  UNL     1     -20.942  37.536 -12.076  1.00  0.00     0.197 HD
HETATM    5  O4  UNL     1     -21.809  40.625 -11.652  1.00  0.00    -0.326 OA
HETATM    6  C12 UNL     1     -21.301  41.921 -11.494  1.00  0.00     0.185 C 
HETATM    7  C14 UNL     1     -19.843  42.059 -11.712  1.00  0.00     0.180 C 
HETATM    8  C15 UNL     1     -19.120  40.829 -12.113  1.00  0.00     0.180 C 
ENDROOT
BRANCH   1   9
HETATM    9  N1  UNL     1     -19.380  39.747 -10.009  1.00  0.00    -0.347 N 
HETATM   10  C2  UNL     1     -18.197  39.311  -9.370  1.00  0.00     0.214 C 
HETATM   11  C1  UNL     1     -17.922  39.475  -7.927  1.00  0.00     0.117 C 
HETATM   12  O1  UNL     1     -17.331  38.742 -10.118  1.00  0.00    -0.274 OA
ATOM     13  H1  UNL     1     -20.097  40.206  -9.447  1.00  0.00     0.163 HD
ENDBRANCH   1   9
BRANCH   3  14
HETATM   14  O2  UNL     1     -22.884  38.130 -12.328  1.00  0.00    -0.179 OA
BRANCH  14  15
HETATM   15  C5  UNL     1     -23.537  37.089 -11.613  1.00  0.00     0.387 C 
HETATM   16  O3  UNL     1     -23.722  36.004 -12.208  1.00  0.00    -0.236 OA
HETATM   17  N3  UNL     1     -23.941  37.302 -10.303  1.00  0.00    -0.301 N 
ATOM     18  H3  UNL     1     -23.752  38.219  -9.899  1.00  0.00     0.171 HD
BRANCH  17  19
HETATM   19  C6  UNL     1     -24.584  36.368  -9.490  1.00  0.00     0.036 A 
HETATM   20  C7  UNL     1     -25.982  36.391  -9.480  1.00  0.00     0.029 A 
HETATM   21  C8  UNL     1     -26.677  35.513  -8.694  1.00  0.00     0.002 A 
HETATM   22  C9  UNL     1     -25.995  34.608  -7.913  1.00  0.00     0.000 A 
HETATM   23  C10 UNL     1     -24.624  34.576  -7.915  1.00  0.00     0.002 A 
HETATM   24  C11 UNL     1     -23.911  35.473  -8.719  1.00  0.00     0.029 A 
ENDBRANCH  17  19
ENDBRANCH  14  15
ENDBRANCH   3  14
BRANCH   8  25
HETATM   25  O7  UNL     1     -19.123  40.604 -13.480  1.00  0.00    -0.390 OA
ATOM     26  H7  UNL     1     -19.420  39.714 -13.624  1.00  0.00     0.210 HD
ENDBRANCH   8  25
BRANCH   6  27
HETATM   27  C13 UNL     1     -22.076  42.813 -12.472  1.00  0.00     0.199 C 
BRANCH  27  28
HETATM   28  O5  UNL     1     -23.358  43.055 -12.024  1.00  0.00    -0.398 OA
ATOM     29  H5  UNL     1     -23.833  43.620 -12.622  1.00  0.00     0.209 HD
ENDBRANCH  27  28
ENDBRANCH   6  27
BRANCH   7  30
HETATM   30  O6  UNL     1     -19.279  42.609 -10.539  1.00  0.00    -0.390 OA
ATOM     31  H6  UNL     1     -18.374  42.828 -10.725  1.00  0.00     0.210 HD
ENDBRANCH   7  30
TORSDOF 8
ENDMDL
