MODEL 5
REMARK VINA RESULT: -7.341070125      1.629      3.518
REMARK  8 active torsions:
REMARK  status: ('A' for Active; 'I' for Inactive)
REMARK       I    between atoms: C2_2  and  N1_4 
REMARK    1  A    between atoms: N1_4  and  C3_6 
REMARK    2  A    between atoms: N2_8  and  O2_10 
REMARK    3  A    between atoms: O2_10  and  C5_11 
REMARK       I    between atoms: C5_11  and  N3_13 
REMARK    4  A    between atoms: N3_13  and  C6_15 
REMARK    5  A    between atoms: C12_22  and  C13_23 
REMARK    6  A    between atoms: C13_23  and  O5_24 
REMARK    7  A    between atoms: C14_26  and  O6_27 
REMARK    8  A    between atoms: C15_29  and  O7_30 
ROOT
HETATM    1  C3  UNL     1     -22.820  36.277  -9.630  1.00  0.00     0.192 C 
HETATM    2  C4  UNL     1     -21.682  35.366  -9.903  1.00  0.00     0.165 C 
HETATM    3  N2  UNL     1     -20.827  35.151  -8.969  1.00  0.00    -0.236 N 
ATOM      4  H2  UNL     1     -20.969  35.619  -8.074  1.00  0.00     0.197 HD
HETATM    5  O4  UNL     1     -21.601  34.800 -11.140  1.00  0.00    -0.326 OA
HETATM    6  C12 UNL     1     -22.394  35.129 -12.248  1.00  0.00     0.185 C 
HETATM    7  C14 UNL     1     -23.177  36.378 -12.117  1.00  0.00     0.180 C 
HETATM    8  C15 UNL     1     -22.990  37.141 -10.860  1.00  0.00     0.180 C 
ENDROOT
BRANCH   1   9
HETATM    9  N1  UNL     1     -24.069  35.529  -9.482  1.00  0.00    -0.347 N 
HETATM   10  C2  UNL     1     -24.729  35.374  -8.241  1.00  0.00     0.214 C 
HETATM   11  C1  UNL     1     -25.991  34.627  -8.057  1.00  0.00     0.117 C 
HETATM   12  O1  UNL     1     -24.171  35.930  -7.235  1.00  0.00    -0.274 OA
ATOM     13  H1  UNL     1     -24.482  35.101 -10.310  1.00  0.00     0.163 HD
ENDBRANCH   1   9
BRANCH   3  14
HETATM   14  O2  UNL     1     -19.744  34.338  -9.097  1.00  0.00    -0.179 OA
BRANCH  14  15
HETATM   15  C5  UNL     1     -18.606  34.661  -8.309  1.00  0.00     0.387 C 
HETATM   16  O3  UNL     1     -17.695  33.807  -8.228  1.00  0.00    -0.236 OA
HETATM   17  N3  UNL     1     -18.538  35.890  -7.666  1.00  0.00    -0.301 N 
ATOM     18  H3  UNL     1     -19.329  36.523  -7.786  1.00  0.00     0.171 HD
BRANCH  17  19
HETATM   19  C6  UNL     1     -17.482  36.332  -6.871  1.00  0.00     0.036 A 
HETATM   20  C7  UNL     1     -17.652  36.250  -5.486  1.00  0.00     0.029 A 
HETATM   21  C8  UNL     1     -16.662  36.680  -4.646  1.00  0.00     0.002 A 
HETATM   22  C9  UNL     1     -15.498  37.195  -5.168  1.00  0.00     0.000 A 
HETATM   23  C10 UNL     1     -15.320  37.281  -6.526  1.00  0.00     0.002 A 
HETATM   24  C11 UNL     1     -16.331  36.840  -7.388  1.00  0.00     0.029 A 
ENDBRANCH  17  19
ENDBRANCH  14  15
ENDBRANCH   3  14
BRANCH   8  25
HETATM   25  O7  UNL     1     -21.923  38.025 -10.901  1.00  0.00    -0.390 OA
ATOM     26  H7  UNL     1     -21.813  38.301 -11.803  1.00  0.00     0.210 HD
ENDBRANCH   8  25
BRANCH   6  27
HETATM   27  C13 UNL     1     -21.444  35.216 -13.450  1.00  0.00     0.199 C 
BRANCH  27  28
HETATM   28  O5  UNL     1     -20.297  35.913 -13.135  1.00  0.00    -0.398 OA
ATOM     29  H5  UNL     1     -19.974  36.404 -13.882  1.00  0.00     0.209 HD
ENDBRANCH  27  28
ENDBRANCH   6  27
BRANCH   7  30
HETATM   30  O6  UNL     1     -24.541  36.058 -12.306  1.00  0.00    -0.390 OA
ATOM     31  H6  UNL     1     -24.973  36.822 -12.669  1.00  0.00     0.210 HD
ENDBRANCH   7  30
TORSDOF 8
ENDMDL
