MODEL 6
REMARK VINA RESULT: -7.301733987      2.631      7.300
REMARK  8 active torsions:
REMARK  status: ('A' for Active; 'I' for Inactive)
REMARK       I    between atoms: C2_2  and  N1_4 
REMARK    1  A    between atoms: N1_4  and  C3_6 
REMARK    2  A    between atoms: N2_8  and  O2_10 
REMARK    3  A    between atoms: O2_10  and  C5_11 
REMARK       I    between atoms: C5_11  and  N3_13 
REMARK    4  A    between atoms: N3_13  and  C6_15 
REMARK    5  A    between atoms: C12_22  and  C13_23 
REMARK    6  A    between atoms: C13_23  and  O5_24 
REMARK    7  A    between atoms: C14_26  and  O6_27 
REMARK    8  A    between atoms: C15_29  and  O7_30 
ROOT
HETATM    1  C3  UNL     1     -16.446  35.304  -8.258  1.00  0.00     0.192 C 
HETATM    2  C4  UNL     1     -17.625  35.917  -8.918  1.00  0.00     0.165 C 
HETATM    3  N2  UNL     1     -18.161  35.306  -9.912  1.00  0.00    -0.236 N 
ATOM      4  H2  UNL     1     -17.750  34.420 -10.207  1.00  0.00     0.197 HD
HETATM    5  O4  UNL     1     -18.081  37.105  -8.431  1.00  0.00    -0.326 OA
HETATM    6  C12 UNL     1     -17.440  37.902  -7.473  1.00  0.00     0.185 C 
HETATM    7  C14 UNL     1     -16.032  37.544  -7.193  1.00  0.00     0.180 C 
HETATM    8  C15 UNL     1     -15.468  36.428  -7.987  1.00  0.00     0.180 C 
ENDROOT
BRANCH   1   9
HETATM    9  N1  UNL     1     -16.802  34.749  -6.952  1.00  0.00    -0.347 N 
HETATM   10  C2  UNL     1     -17.397  33.477  -6.795  1.00  0.00     0.214 C 
HETATM   11  C1  UNL     1     -17.769  32.887  -5.492  1.00  0.00     0.117 C 
HETATM   12  O1  UNL     1     -17.614  32.821  -7.870  1.00  0.00    -0.274 OA
ATOM     13  H1  UNL     1     -16.612  35.305  -6.118  1.00  0.00     0.163 HD
ENDBRANCH   1   9
BRANCH   3  14
HETATM   14  O2  UNL     1     -19.243  35.764 -10.597  1.00  0.00    -0.179 OA
BRANCH  14  15
HETATM   15  C5  UNL     1     -20.518  35.330 -10.144  1.00  0.00     0.387 C 
HETATM   16  O3  UNL     1     -20.619  34.148  -9.744  1.00  0.00    -0.236 OA
HETATM   17  N3  UNL     1     -21.591  36.210 -10.156  1.00  0.00    -0.301 N 
ATOM     18  H3  UNL     1     -21.417  37.153 -10.502  1.00  0.00     0.171 HD
BRANCH  17  19
HETATM   19  C6  UNL     1     -22.887  35.914  -9.736  1.00  0.00     0.036 A 
HETATM   20  C7  UNL     1     -23.936  36.435 -10.498  1.00  0.00     0.029 A 
HETATM   21  C8  UNL     1     -25.234  36.197 -10.134  1.00  0.00     0.002 A 
HETATM   22  C9  UNL     1     -25.502  35.444  -9.014  1.00  0.00     0.000 A 
HETATM   23  C10 UNL     1     -24.481  34.927  -8.258  1.00  0.00     0.002 A 
HETATM   24  C11 UNL     1     -23.153  35.169  -8.629  1.00  0.00     0.029 A 
ENDBRANCH  17  19
ENDBRANCH  14  15
ENDBRANCH   3  14
BRANCH   8  25
HETATM   25  O7  UNL     1     -14.938  36.824  -9.204  1.00  0.00    -0.390 OA
ATOM     26  H7  UNL     1     -15.150  37.742  -9.325  1.00  0.00     0.210 HD
ENDBRANCH   8  25
BRANCH   6  27
HETATM   27  C13 UNL     1     -17.536  39.347  -7.979  1.00  0.00     0.199 C 
BRANCH  27  28
HETATM   28  O5  UNL     1     -18.720  39.939  -7.592  1.00  0.00    -0.398 OA
ATOM     29  H5  UNL     1     -19.055  40.519  -8.266  1.00  0.00     0.209 HD
ENDBRANCH  27  28
ENDBRANCH   6  27
BRANCH   7  30
HETATM   30  O6  UNL     1     -15.919  37.278  -5.809  1.00  0.00    -0.390 OA
ATOM     31  H6  UNL     1     -15.410  36.483  -5.705  1.00  0.00     0.210 HD
ENDBRANCH   7  30
TORSDOF 8
ENDMDL
