MODEL 7
REMARK VINA RESULT: -7.219447786      2.604      6.919
REMARK  8 active torsions:
REMARK  status: ('A' for Active; 'I' for Inactive)
REMARK       I    between atoms: C2_2  and  N1_4 
REMARK    1  A    between atoms: N1_4  and  C3_6 
REMARK    2  A    between atoms: N2_8  and  O2_10 
REMARK    3  A    between atoms: O2_10  and  C5_11 
REMARK       I    between atoms: C5_11  and  N3_13 
REMARK    4  A    between atoms: N3_13  and  C6_15 
REMARK    5  A    between atoms: C12_22  and  C13_23 
REMARK    6  A    between atoms: C13_23  and  O5_24 
REMARK    7  A    between atoms: C14_26  and  O6_27 
REMARK    8  A    between atoms: C15_29  and  O7_30 
ROOT
HETATM    1  C3  UNL     1     -17.881  37.542  -7.086  1.00  0.00     0.192 C 
HETATM    2  C4  UNL     1     -18.242  36.215  -7.640  1.00  0.00     0.165 C 
HETATM    3  N2  UNL     1     -18.902  36.165  -8.742  1.00  0.00    -0.236 N 
ATOM      4  H2  UNL     1     -19.149  37.048  -9.190  1.00  0.00     0.197 HD
HETATM    5  O4  UNL     1     -17.854  35.108  -6.947  1.00  0.00    -0.326 OA
HETATM    6  C12 UNL     1     -17.294  35.096  -5.662  1.00  0.00     0.185 C 
HETATM    7  C14 UNL     1     -17.402  36.368  -4.915  1.00  0.00     0.180 C 
HETATM    8  C15 UNL     1     -18.123  37.470  -5.594  1.00  0.00     0.180 C 
ENDROOT
BRANCH   1   9
HETATM    9  N1  UNL     1     -16.452  37.812  -7.255  1.00  0.00    -0.347 N 
HETATM   10  C2  UNL     1     -15.954  38.765  -8.173  1.00  0.00     0.214 C 
HETATM   11  C1  UNL     1     -14.519  39.061  -8.367  1.00  0.00     0.117 C 
HETATM   12  O1  UNL     1     -16.829  39.392  -8.862  1.00  0.00    -0.274 OA
ATOM     13  H1  UNL     1     -15.787  37.289  -6.685  1.00  0.00     0.163 HD
ENDBRANCH   1   9
BRANCH   3  14
HETATM   14  O2  UNL     1     -19.290  35.012  -9.348  1.00  0.00    -0.179 OA
BRANCH  14  15
HETATM   15  C5  UNL     1     -20.689  34.815  -9.510  1.00  0.00     0.387 C 
HETATM   16  O3  UNL     1     -21.068  33.736 -10.017  1.00  0.00    -0.236 OA
HETATM   17  N3  UNL     1     -21.575  35.805  -9.109  1.00  0.00    -0.301 N 
ATOM     18  H3  UNL     1     -21.177  36.654  -8.710  1.00  0.00     0.171 HD
BRANCH  17  19
HETATM   19  C6  UNL     1     -22.965  35.737  -9.207  1.00  0.00     0.036 A 
HETATM   20  C7  UNL     1     -23.559  36.397 -10.286  1.00  0.00     0.029 A 
HETATM   21  C8  UNL     1     -24.919  36.385 -10.434  1.00  0.00     0.002 A 
HETATM   22  C9  UNL     1     -25.700  35.721  -9.517  1.00  0.00     0.000 A 
HETATM   23  C10 UNL     1     -25.129  35.070  -8.453  1.00  0.00     0.002 A 
HETATM   24  C11 UNL     1     -23.737  35.081  -8.300  1.00  0.00     0.029 A 
ENDBRANCH  17  19
ENDBRANCH  14  15
ENDBRANCH   3  14
BRANCH   8  25
HETATM   25  O7  UNL     1     -19.494  37.443  -5.393  1.00  0.00    -0.390 OA
ATOM     26  H7  UNL     1     -19.798  36.570  -5.606  1.00  0.00     0.210 HD
ENDBRANCH   8  25
BRANCH   6  27
HETATM   27  C13 UNL     1     -17.990  33.963  -4.897  1.00  0.00     0.199 C 
BRANCH  27  28
HETATM   28  O5  UNL     1     -17.603  32.726  -5.367  1.00  0.00    -0.398 OA
ATOM     29  H5  UNL     1     -18.112  32.029  -4.970  1.00  0.00     0.209 HD
ENDBRANCH  27  28
ENDBRANCH   6  27
BRANCH   7  30
HETATM   30  O6  UNL     1     -16.095  36.774  -4.558  1.00  0.00    -0.390 OA
ATOM     31  H6  UNL     1     -16.132  37.139  -3.682  1.00  0.00     0.210 HD
ENDBRANCH   7  30
TORSDOF 8
ENDMDL
