MODEL 1
REMARK VINA RESULT: -7.920386626      0.000      0.000
REMARK  2 active torsions:
REMARK  status: ('A' for Active; 'I' for Inactive)
REMARK    1  A    between atoms: C5_6  and  O1_7 
REMARK    2  A    between atoms: O1_7  and  C6_8 
ROOT
HETATM    1  O1  UNL     1      22.765  16.024  13.865  1.00  0.00    -0.294 OA
ENDROOT
BRANCH   1   2
HETATM    2  C5  UNL     1      22.518  16.510  12.587  1.00  0.00     0.079 A 
HETATM    3  C4  UNL     1      21.243  16.873  12.179  1.00  0.00     0.037 A 
HETATM    4  C3  UNL     1      21.032  17.350  10.907  1.00  0.00     0.005 A 
HETATM    5  C2  UNL     1      22.063  17.480  10.013  1.00  0.00     0.027 A 
HETATM    6  C1  UNL     1      23.338  17.119  10.413  1.00  0.00     0.049 A 
HETATM    7  N1  UNL     1      24.420  17.255   9.477  1.00  0.00    -0.102 NA
HETATM    8  C11 UNL     1      23.568  16.637  11.692  1.00  0.00     0.063 A 
ENDBRANCH   1   2
BRANCH   1   9
HETATM    9  C6  UNL     1      22.422  16.855  14.945  1.00  0.00     0.147 A 
HETATM   10  C7  UNL     1      22.730  18.207  14.846  1.00  0.00     0.056 A 
HETATM   11  C8  UNL     1      22.416  19.061  15.875  1.00  0.00     0.006 A 
HETATM   12  C9  UNL     1      21.800  18.530  16.975  1.00  0.00     0.017 A 
HETATM   13  C10 UNL     1      21.489  17.184  17.079  1.00  0.00     0.090 A 
HETATM   14  N2  UNL     1      21.814  16.380  16.048  1.00  0.00    -0.347 N 
ATOM     15  H2  UNL     1      21.593  15.386  16.105  1.00  0.00     0.167 HD
ENDBRANCH   1   9
TORSDOF 2
ENDMDL
