MODEL 3
REMARK VINA RESULT: -7.739206898      1.382      5.378
REMARK  2 active torsions:
REMARK  status: ('A' for Active; 'I' for Inactive)
REMARK    1  A    between atoms: C5_6  and  O1_7 
REMARK    2  A    between atoms: O1_7  and  C6_8 
ROOT
HETATM    1  O1  UNL     1      22.124  15.960  13.309  1.00  0.00    -0.294 OA
ENDROOT
BRANCH   1   2
HETATM    2  C5  UNL     1      21.856  16.817  14.368  1.00  0.00     0.079 A 
HETATM    3  C4  UNL     1      21.483  18.137  14.163  1.00  0.00     0.037 A 
HETATM    4  C3  UNL     1      21.225  18.959  15.234  1.00  0.00     0.005 A 
HETATM    5  C2  UNL     1      21.328  18.505  16.523  1.00  0.00     0.027 A 
HETATM    6  C1  UNL     1      21.700  17.189  16.736  1.00  0.00     0.049 A 
HETATM    7  N1  UNL     1      21.807  16.713  18.087  1.00  0.00    -0.102 NA
HETATM    8  C11 UNL     1      21.963  16.347  15.667  1.00  0.00     0.063 A 
ENDBRANCH   1   2
BRANCH   1   9
HETATM    9  C6  UNL     1      22.290  16.540  12.040  1.00  0.00     0.147 A 
HETATM   10  C7  UNL     1      23.578  16.601  11.520  1.00  0.00     0.056 A 
HETATM   11  C8  UNL     1      23.794  17.159  10.283  1.00  0.00     0.006 A 
HETATM   12  C9  UNL     1      22.708  17.639   9.605  1.00  0.00     0.017 A 
HETATM   13  C10 UNL     1      21.422  17.581  10.117  1.00  0.00     0.090 A 
HETATM   14  N2  UNL     1      21.253  17.026  11.333  1.00  0.00    -0.347 N 
ATOM     15  H2  UNL     1      20.314  16.972  11.727  1.00  0.00     0.167 HD
ENDBRANCH   1   9
TORSDOF 2
ENDMDL
