MODEL 8
REMARK VINA RESULT: -7.111317276      1.423      2.057
REMARK  2 active torsions:
REMARK  status: ('A' for Active; 'I' for Inactive)
REMARK    1  A    between atoms: C5_6  and  O1_7 
REMARK    2  A    between atoms: O1_7  and  C6_8 
ROOT
HETATM    1  O1  UNL     1      21.444  16.192  14.073  1.00  0.00    -0.294 OA
ENDROOT
BRANCH   1   2
HETATM    2  C5  UNL     1      21.961  16.485  12.817  1.00  0.00     0.079 A 
HETATM    3  C4  UNL     1      23.314  16.362  12.538  1.00  0.00     0.037 A 
HETATM    4  C3  UNL     1      23.794  16.659  11.284  1.00  0.00     0.005 A 
HETATM    5  C2  UNL     1      22.959  17.083  10.283  1.00  0.00     0.027 A 
HETATM    6  C1  UNL     1      21.607  17.209  10.554  1.00  0.00     0.049 A 
HETATM    7  N1  UNL     1      20.732  17.653   9.505  1.00  0.00    -0.102 NA
HETATM    8  C11 UNL     1      21.108  16.912  11.812  1.00  0.00     0.063 A 
ENDBRANCH   1   2
BRANCH   1   9
HETATM    9  C6  UNL     1      21.793  17.052  15.127  1.00  0.00     0.147 A 
HETATM   10  C7  UNL     1      22.571  16.533  16.156  1.00  0.00     0.056 A 
HETATM   11  C8  UNL     1      22.939  17.332  17.211  1.00  0.00     0.006 A 
HETATM   12  C9  UNL     1      22.514  18.632  17.200  1.00  0.00     0.017 A 
HETATM   13  C10 UNL     1      21.739  19.156  16.178  1.00  0.00     0.090 A 
HETATM   14  N2  UNL     1      21.400  18.339  15.162  1.00  0.00    -0.347 N 
ATOM     15  H2  UNL     1      20.831  18.706  14.399  1.00  0.00     0.167 HD
ENDBRANCH   1   9
TORSDOF 2
ENDMDL
