MODEL 2
REMARK VINA RESULT: -7.819257769      1.066      5.411
REMARK  2 active torsions:
REMARK  status: ('A' for Active; 'I' for Inactive)
REMARK    1  A    between atoms: C5_6  and  O1_7 
REMARK    2  A    between atoms: O1_7  and  C6_8 
ROOT
HETATM    1  O1  UNL     1      22.659  16.021  13.439  1.00  0.00    -0.294 OA
ENDROOT
BRANCH   1   2
HETATM    2  C5  UNL     1      22.215  16.852  14.459  1.00  0.00     0.079 A 
HETATM    3  C4  UNL     1      21.793  18.150  14.212  1.00  0.00     0.037 A 
HETATM    4  C3  UNL     1      21.359  18.947  15.245  1.00  0.00     0.005 A 
HETATM    5  C2  UNL     1      21.331  18.489  16.536  1.00  0.00     0.027 A 
HETATM    6  C1  UNL     1      21.751  17.195  16.791  1.00  0.00     0.049 A 
HETATM    7  N1  UNL     1      21.721  16.714  18.145  1.00  0.00    -0.102 NA
HETATM    8  C11 UNL     1      22.191  16.378  15.761  1.00  0.00     0.063 A 
ENDBRANCH   1   2
BRANCH   1   9
HETATM    9  C6  UNL     1      22.691  16.558  12.141  1.00  0.00     0.147 A 
HETATM   10  C7  UNL     1      21.482  16.931  11.565  1.00  0.00     0.056 A 
HETATM   11  C8  UNL     1      21.459  17.460  10.298  1.00  0.00     0.006 A 
HETATM   12  C9  UNL     1      22.654  17.600   9.646  1.00  0.00     0.017 A 
HETATM   13  C10 UNL     1      23.862  17.231  10.215  1.00  0.00     0.090 A 
HETATM   14  N2  UNL     1      23.841  16.716  11.459  1.00  0.00    -0.347 N 
ATOM     15  H2  UNL     1      24.720  16.439  11.896  1.00  0.00     0.167 HD
ENDBRANCH   1   9
TORSDOF 2
ENDMDL
