MODEL 6
REMARK VINA RESULT: -7.402160289      1.597      5.317
REMARK  2 active torsions:
REMARK  status: ('A' for Active; 'I' for Inactive)
REMARK    1  A    between atoms: C5_6  and  O1_7 
REMARK    2  A    between atoms: O1_7  and  C6_8 
ROOT
HETATM    1  O1  UNL     1      22.383  16.046  11.691  1.00  0.00    -0.294 OA
ENDROOT
BRANCH   1   2
HETATM    2  C5  UNL     1      21.912  16.865  12.710  1.00  0.00     0.079 A 
HETATM    3  C4  UNL     1      20.615  17.356  12.711  1.00  0.00     0.037 A 
HETATM    4  C3  UNL     1      20.179  18.164  13.734  1.00  0.00     0.005 A 
HETATM    5  C2  UNL     1      21.004  18.505  14.774  1.00  0.00     0.027 A 
HETATM    6  C1  UNL     1      22.300  18.019  14.780  1.00  0.00     0.049 A 
HETATM    7  N1  UNL     1      23.166  18.376  15.870  1.00  0.00    -0.102 NA
HETATM    8  C11 UNL     1      22.755  17.203  13.756  1.00  0.00     0.063 A 
ENDBRANCH   1   2
BRANCH   1   9
HETATM    9  C6  UNL     1      23.020  16.673  10.607  1.00  0.00     0.147 A 
HETATM   10  C7  UNL     1      22.315  17.654   9.920  1.00  0.00     0.056 A 
HETATM   11  C8  UNL     1      22.894  18.296   8.852  1.00  0.00     0.006 A 
HETATM   12  C9  UNL     1      24.166  17.932   8.507  1.00  0.00     0.017 A 
HETATM   13  C10 UNL     1      24.875  16.956   9.187  1.00  0.00     0.090 A 
HETATM   14  N2  UNL     1      24.272  16.351  10.229  1.00  0.00    -0.347 N 
ATOM     15  H2  UNL     1      24.776  15.630  10.744  1.00  0.00     0.167 HD
ENDBRANCH   1   9
TORSDOF 2
ENDMDL
