MODEL 5
REMARK VINA RESULT: -7.558034224      1.049      1.373
REMARK  2 active torsions:
REMARK  status: ('A' for Active; 'I' for Inactive)
REMARK    1  A    between atoms: C5_6  and  O1_7 
REMARK    2  A    between atoms: O1_7  and  C6_8 
ROOT
HETATM    1  O1  UNL     1      21.737  16.025  13.229  1.00  0.00    -0.294 OA
ENDROOT
BRANCH   1   2
HETATM    2  C5  UNL     1      21.908  16.599  11.975  1.00  0.00     0.079 A 
HETATM    3  C4  UNL     1      20.845  17.148  11.273  1.00  0.00     0.037 A 
HETATM    4  C3  UNL     1      21.048  17.708  10.034  1.00  0.00     0.005 A 
HETATM    5  C2  UNL     1      22.293  17.742   9.461  1.00  0.00     0.027 A 
HETATM    6  C1  UNL     1      23.359  17.196  10.156  1.00  0.00     0.049 A 
HETATM    7  N1  UNL     1      24.664  17.232   9.557  1.00  0.00    -0.102 NA
HETATM    8  C11 UNL     1      23.171  16.628  11.406  1.00  0.00     0.063 A 
ENDBRANCH   1   2
BRANCH   1   9
HETATM    9  C6  UNL     1      21.902  16.861  14.345  1.00  0.00     0.147 A 
HETATM   10  C7  UNL     1      22.511  16.323  15.473  1.00  0.00     0.056 A 
HETATM   11  C8  UNL     1      22.695  17.098  16.592  1.00  0.00     0.006 A 
HETATM   12  C9  UNL     1      22.261  18.395  16.543  1.00  0.00     0.017 A 
HETATM   13  C10 UNL     1      21.655  18.938  15.423  1.00  0.00     0.090 A 
HETATM   14  N2  UNL     1      21.493  18.144  14.347  1.00  0.00    -0.347 N 
ATOM     15  H2  UNL     1      21.050  18.525  13.511  1.00  0.00     0.167 HD
ENDBRANCH   1   9
TORSDOF 2
ENDMDL
