MODEL 9
REMARK VINA RESULT: -7.058387262      0.855      1.340
REMARK  2 active torsions:
REMARK  status: ('A' for Active; 'I' for Inactive)
REMARK    1  A    between atoms: C5_6  and  O1_7 
REMARK    2  A    between atoms: O1_7  and  C6_8 
ROOT
HETATM    1  O1  UNL     1      23.112  16.443  13.758  1.00  0.00    -0.294 OA
ENDROOT
BRANCH   1   2
HETATM    2  C5  UNL     1      22.580  16.767  12.517  1.00  0.00     0.079 A 
HETATM    3  C4  UNL     1      21.211  16.833  12.304  1.00  0.00     0.037 A 
HETATM    4  C3  UNL     1      20.716  17.156  11.063  1.00  0.00     0.005 A 
HETATM    5  C2  UNL     1      21.552  17.421  10.009  1.00  0.00     0.027 A 
HETATM    6  C1  UNL     1      22.919  17.358  10.213  1.00  0.00     0.049 A 
HETATM    7  N1  UNL     1      23.795  17.636   9.109  1.00  0.00    -0.102 NA
HETATM    8  C11 UNL     1      23.434  17.033  11.459  1.00  0.00     0.063 A 
ENDBRANCH   1   2
BRANCH   1   9
HETATM    9  C6  UNL     1      22.663  17.185  14.863  1.00  0.00     0.147 A 
HETATM   10  C7  UNL     1      22.000  16.502  15.876  1.00  0.00     0.056 A 
HETATM   11  C8  UNL     1      21.540  17.182  16.977  1.00  0.00     0.006 A 
HETATM   12  C9  UNL     1      21.762  18.531  17.028  1.00  0.00     0.017 A 
HETATM   13  C10 UNL     1      22.423  19.217  16.024  1.00  0.00     0.090 A 
HETATM   14  N2  UNL     1      22.858  18.514  14.960  1.00  0.00    -0.347 N 
ATOM     15  H2  UNL     1      23.348  19.001  14.210  1.00  0.00     0.167 HD
ENDBRANCH   1   9
TORSDOF 2
ENDMDL
