MODEL 10
REMARK VINA RESULT: -6.905538061      1.478      1.998
REMARK  2 active torsions:
REMARK  status: ('A' for Active; 'I' for Inactive)
REMARK    1  A    between atoms: C5_6  and  O1_7 
REMARK    2  A    between atoms: O1_7  and  C6_8 
ROOT
HETATM    1  O1  UNL     1      21.957  16.238  12.109  1.00  0.00    -0.294 OA
ENDROOT
BRANCH   1   2
HETATM    2  C5  UNL     1      22.515  16.787  10.962  1.00  0.00     0.079 A 
HETATM    3  C4  UNL     1      21.866  17.773  10.234  1.00  0.00     0.037 A 
HETATM    4  C3  UNL     1      22.446  18.296   9.103  1.00  0.00     0.005 A 
HETATM    5  C2  UNL     1      23.671  17.864   8.665  1.00  0.00     0.027 A 
HETATM    6  C1  UNL     1      24.325  16.881   9.386  1.00  0.00     0.049 A 
HETATM    7  N1  UNL     1      25.610  16.428   8.927  1.00  0.00    -0.102 NA
HETATM    8  C11 UNL     1      23.754  16.343  10.529  1.00  0.00     0.063 A 
ENDBRANCH   1   2
BRANCH   1   9
HETATM    9  C6  UNL     1      21.941  17.039  13.263  1.00  0.00     0.147 A 
HETATM   10  C7  UNL     1      20.784  17.760  13.535  1.00  0.00     0.056 A 
HETATM   11  C8  UNL     1      20.718  18.559  14.650  1.00  0.00     0.006 A 
HETATM   12  C9  UNL     1      21.818  18.609  15.461  1.00  0.00     0.017 A 
HETATM   13  C10 UNL     1      22.974  17.892  15.197  1.00  0.00     0.090 A 
HETATM   14  N2  UNL     1      22.998  17.121  14.093  1.00  0.00    -0.347 N 
ATOM     15  H2  UNL     1      23.839  16.584  13.881  1.00  0.00     0.167 HD
ENDBRANCH   1   9
TORSDOF 2
ENDMDL
