MODEL 1
REMARK VINA RESULT: -9.485345797      0.000      0.000
REMARK  14 active torsions:
REMARK  status: ('A' for Active; 'I' for Inactive)
REMARK    1  A    between atoms: N1_1  and  C1_4 
REMARK    2  A    between atoms: N5_15  and  C6_16 
REMARK    3  A    between atoms: C7_18  and  C8_19 
REMARK    4  A    between atoms: C8_19  and  O2_20 
REMARK    5  A    between atoms: O2_20  and  P1_21 
REMARK    6  A    between atoms: P1_21  and  O5_24 
REMARK    7  A    between atoms: O5_24  and  P2_25 
REMARK    8  A    between atoms: P2_25  and  O8_28 
REMARK    9  A    between atoms: O8_28  and  C9_29 
REMARK   10  A    between atoms: C9_29  and  C10_30 
REMARK   11  A    between atoms: C12_35  and  O9_36 
REMARK   12  A    between atoms: C13_38  and  O10_39 
REMARK   13  A    between atoms: C14_41  and  O11_42 
REMARK   14  A    between atoms: C15_44  and  O12_45 
ROOT
HETATM    1  C6  UNL     1      28.464   3.479   8.510  1.00  0.00     0.262 C 
HETATM    2  O1  UNL     1      29.338   2.802   7.731  1.00  0.00    -0.353 OA
HETATM    3  C7  UNL     1      28.594   1.863   7.150  1.00  0.00     0.180 C 
HETATM    4  C14 UNL     1      27.444   2.592   6.514  1.00  0.00     0.182 C 
HETATM    5  C15 UNL     1      27.132   3.556   7.693  1.00  0.00     0.198 C 
ENDROOT
BRANCH   3   6
HETATM    6  C8  UNL     1      29.162   0.877   6.182  1.00  0.00     0.216 C 
BRANCH   6   7
HETATM    7  O2  UNL     1      28.365  -0.191   5.904  1.00  0.00    -0.287 OA
BRANCH   7   8
HETATM    8  P1  UNL     1      29.296  -1.532   6.208  1.00  0.00     0.417 P 
HETATM    9  O3  UNL     1      30.809  -1.284   6.910  1.00  0.00    -0.624 OA
HETATM   10  O4  UNL     1      28.648  -3.049   6.210  1.00  0.00    -0.624 OA
BRANCH   8  11
HETATM   11  O5  UNL     1      29.881  -1.664   4.871  1.00  0.00    -0.180 OA
BRANCH  11  12
HETATM   12  P2  UNL     1      29.262  -1.942   3.473  1.00  0.00     0.417 P 
HETATM   13  O6  UNL     1      30.181  -0.822   2.721  1.00  0.00    -0.624 OA
HETATM   14  O7  UNL     1      30.016  -3.524   3.624  1.00  0.00    -0.624 OA
BRANCH  12  15
HETATM   15  O8  UNL     1      28.829  -2.630   2.160  1.00  0.00    -0.287 OA
BRANCH  15  16
HETATM   16  C9  UNL     1      28.807  -4.010   2.055  1.00  0.00     0.217 C 
BRANCH  16  17
HETATM   17  C10 UNL     1      27.977  -4.135   0.734  1.00  0.00     0.241 C 
HETATM   18  N6  UNL     1      27.227  -5.331   0.688  1.00  0.00    -0.064 N 
HETATM   19  C11 UNL     1      26.081  -4.910  -0.137  1.00  0.00     0.267 C 
ATOM     20  H62 UNL     1      27.730  -6.153   0.354  1.00  0.00     0.277 HD
ATOM     21  H61 UNL     1      26.990  -5.735   1.595  1.00  0.00     0.277 HD
HETATM   22  C12 UNL     1      25.787  -3.513   0.346  1.00  0.00     0.174 C 
HETATM   23  C13 UNL     1      27.184  -2.933   0.509  1.00  0.00     0.181 C 
BRANCH  22  24
HETATM   24  O9  UNL     1      25.122  -2.736  -0.580  1.00  0.00    -0.391 OA
ATOM     25  H9  UNL     1      24.280  -2.420  -0.276  1.00  0.00     0.210 HD
ENDBRANCH  22  24
BRANCH  23  26
HETATM   26  O10 UNL     1      27.578  -2.167  -0.578  1.00  0.00    -0.391 OA
ATOM     27  H10 UNL     1      27.328  -2.516  -1.426  1.00  0.00     0.210 HD
ENDBRANCH  23  26
ENDBRANCH  16  17
ENDBRANCH  15  16
ENDBRANCH  12  15
ENDBRANCH  11  12
ENDBRANCH   8  11
ENDBRANCH   7   8
ENDBRANCH   6   7
ENDBRANCH   3   6
BRANCH   4  28
HETATM   28  O11 UNL     1      26.412   1.723   6.217  1.00  0.00    -0.390 OA
ATOM     29  H11 UNL     1      26.090   1.296   7.002  1.00  0.00     0.210 HD
ENDBRANCH   4  28
BRANCH   1  30
HETATM   30  N5  UNL     1      28.855   4.866   8.846  1.00  0.00    -0.297 N 
HETATM   31  C3  UNL     1      29.753   5.525   8.120  1.00  0.00     0.142 A 
HETATM   32  N3  UNL     1      30.690   5.109   7.266  1.00  0.00    -0.336 N 
HETATM   33  C4  UNL     1      29.531   6.873   8.308  1.00  0.00     0.122 A 
HETATM   34  C2  UNL     1      31.404   6.055   6.634  1.00  0.00     0.183 A 
ATOM     35  H3  UNL     1      30.855   4.116   7.099  1.00  0.00     0.168 HD
HETATM   36  N2  UNL     1      31.157   7.326   6.802  1.00  0.00    -0.337 N 
HETATM   37  C1  UNL     1      30.251   7.840   7.591  1.00  0.00     0.131 A 
ATOM     38  H2  UNL     1      31.725   7.981   6.266  1.00  0.00     0.168 HD
HETATM   39  N4  UNL     1      28.479   6.985   9.199  1.00  0.00    -0.346 N 
HETATM   40  C5  UNL     1      28.136   5.676   9.529  1.00  0.00     0.188 A 
ATOM     41  H4  UNL     1      28.047   7.843   9.541  1.00  0.00     0.167 HD
BRANCH  37  42
HETATM   42  N1  UNL     1      29.846   9.131   7.839  1.00  0.00    -0.383 N 
ATOM     43  H12 UNL     1      29.268   9.531   7.100  1.00  0.00     0.157 HD
ATOM     44  H11 UNL     1      30.023   9.780   8.605  1.00  0.00     0.157 HD
ENDBRANCH  37  42
ENDBRANCH   1  30
BRANCH   5  45
HETATM   45  O12 UNL     1      26.041   2.951   8.369  1.00  0.00    -0.388 OA
ATOM     46  H12 UNL     1      25.250   3.475   8.329  1.00  0.00     0.210 HD
ENDBRANCH   5  45
TORSDOF 14
ENDMDL
