MODEL 3
REMARK VINA RESULT: -9.356328120      1.711      2.248
REMARK  14 active torsions:
REMARK  status: ('A' for Active; 'I' for Inactive)
REMARK    1  A    between atoms: N1_1  and  C1_4 
REMARK    2  A    between atoms: N5_15  and  C6_16 
REMARK    3  A    between atoms: C7_18  and  C8_19 
REMARK    4  A    between atoms: C8_19  and  O2_20 
REMARK    5  A    between atoms: O2_20  and  P1_21 
REMARK    6  A    between atoms: P1_21  and  O5_24 
REMARK    7  A    between atoms: O5_24  and  P2_25 
REMARK    8  A    between atoms: P2_25  and  O8_28 
REMARK    9  A    between atoms: O8_28  and  C9_29 
REMARK   10  A    between atoms: C9_29  and  C10_30 
REMARK   11  A    between atoms: C12_35  and  O9_36 
REMARK   12  A    between atoms: C13_38  and  O10_39 
REMARK   13  A    between atoms: C14_41  and  O11_42 
REMARK   14  A    between atoms: C15_44  and  O12_45 
ROOT
HETATM    1  C6  UNL     1      28.321   3.768   8.895  1.00  0.00     0.262 C 
HETATM    2  O1  UNL     1      29.266   2.813   8.741  1.00  0.00    -0.353 OA
HETATM    3  C7  UNL     1      28.623   1.816   8.138  1.00  0.00     0.180 C 
HETATM    4  C14 UNL     1      27.977   2.424   6.925  1.00  0.00     0.182 C 
HETATM    5  C15 UNL     1      27.447   3.719   7.600  1.00  0.00     0.198 C 
ENDROOT
BRANCH   3   6
HETATM    6  C8  UNL     1      29.300   0.539   7.761  1.00  0.00     0.216 C 
BRANCH   6   7
HETATM    7  O2  UNL     1      28.480  -0.542   7.644  1.00  0.00    -0.287 OA
BRANCH   7   8
HETATM    8  P1  UNL     1      29.338  -1.656   6.760  1.00  0.00     0.417 P 
HETATM    9  O3  UNL     1      31.015  -1.660   6.932  1.00  0.00    -0.624 OA
HETATM   10  O4  UNL     1      28.599  -2.955   6.061  1.00  0.00    -0.624 OA
BRANCH   8  11
HETATM   11  O5  UNL     1      29.416  -0.891   5.513  1.00  0.00    -0.180 OA
BRANCH  11  12
HETATM   12  P2  UNL     1      28.870  -1.150   4.081  1.00  0.00     0.417 P 
HETATM   13  O6  UNL     1      28.222   0.341   3.939  1.00  0.00    -0.624 OA
HETATM   14  O7  UNL     1      30.565  -1.257   3.622  1.00  0.00    -0.624 OA
BRANCH  12  15
HETATM   15  O8  UNL     1      28.774  -1.458   2.572  1.00  0.00    -0.287 OA
BRANCH  15  16
HETATM   16  C9  UNL     1      28.113  -2.586   2.118  1.00  0.00     0.217 C 
BRANCH  16  17
HETATM   17  C10 UNL     1      29.064  -2.957   0.930  1.00  0.00     0.241 C 
HETATM   18  N6  UNL     1      30.140  -2.049   0.807  1.00  0.00    -0.064 N 
HETATM   19  C11 UNL     1      31.179  -2.925   0.238  1.00  0.00     0.267 C 
ATOM     20  H62 UNL     1      29.941  -1.202   0.276  1.00  0.00     0.277 HD
ATOM     21  H61 UNL     1      30.400  -1.559   1.663  1.00  0.00     0.277 HD
HETATM   22  C12 UNL     1      30.993  -4.226   0.974  1.00  0.00     0.174 C 
HETATM   23  C13 UNL     1      29.478  -4.351   1.018  1.00  0.00     0.181 C 
BRANCH  22  24
HETATM   24  O9  UNL     1      31.479  -5.322   0.291  1.00  0.00    -0.391 OA
ATOM     25  H9  UNL     1      32.224  -5.733   0.713  1.00  0.00     0.210 HD
ENDBRANCH  22  24
BRANCH  23  26
HETATM   26  O10 UNL     1      28.977  -5.175   0.020  1.00  0.00    -0.391 OA
ATOM     27  H10 UNL     1      29.201  -6.094   0.109  1.00  0.00     0.210 HD
ENDBRANCH  23  26
ENDBRANCH  16  17
ENDBRANCH  15  16
ENDBRANCH  12  15
ENDBRANCH  11  12
ENDBRANCH   8  11
ENDBRANCH   7   8
ENDBRANCH   6   7
ENDBRANCH   3   6
BRANCH   4  28
HETATM   28  O11 UNL     1      26.981   1.604   6.431  1.00  0.00    -0.390 OA
ATOM     29  H11 UNL     1      26.651   1.025   7.108  1.00  0.00     0.210 HD
ENDBRANCH   4  28
BRANCH   1  30
HETATM   30  N5  UNL     1      28.831   5.151   9.031  1.00  0.00    -0.297 N 
HETATM   31  C3  UNL     1      29.818   5.601   8.261  1.00  0.00     0.142 A 
HETATM   32  N3  UNL     1      30.743   4.970   7.536  1.00  0.00    -0.336 N 
HETATM   33  C4  UNL     1      29.721   6.975   8.222  1.00  0.00     0.122 A 
HETATM   34  C2  UNL     1      31.571   5.733   6.804  1.00  0.00     0.183 A 
ATOM     35  H3  UNL     1      30.818   3.952   7.537  1.00  0.00     0.168 HD
HETATM   36  N2  UNL     1      31.442   7.032   6.756  1.00  0.00    -0.337 N 
HETATM   37  C1  UNL     1      30.560   7.745   7.403  1.00  0.00     0.131 A 
ATOM     38  H2  UNL     1      32.093   7.538   6.156  1.00  0.00     0.168 HD
HETATM   39  N4  UNL     1      28.650   7.323   9.025  1.00  0.00    -0.346 N 
HETATM   40  C5  UNL     1      28.168   6.121   9.537  1.00  0.00     0.188 A 
ATOM     41  H4  UNL     1      28.290   8.261   9.203  1.00  0.00     0.167 HD
BRANCH  37  42
HETATM   42  N1  UNL     1      30.272   9.091   7.423  1.00  0.00    -0.383 N 
ATOM     43  H12 UNL     1      29.477   9.334   8.012  1.00  0.00     0.157 HD
ATOM     44  H11 UNL     1      30.682   9.896   6.950  1.00  0.00     0.157 HD
ENDBRANCH  37  42
ENDBRANCH   1  30
BRANCH   5  45
HETATM   45  O12 UNL     1      26.081   3.445   7.872  1.00  0.00    -0.388 OA
ATOM     46  H12 UNL     1      25.605   4.214   8.163  1.00  0.00     0.210 HD
ENDBRANCH   5  45
TORSDOF 14
ENDMDL
