MODEL 2
REMARK VINA RESULT: -9.459161723      2.513      4.348
REMARK  14 active torsions:
REMARK  status: ('A' for Active; 'I' for Inactive)
REMARK    1  A    between atoms: N1_1  and  C1_4 
REMARK    2  A    between atoms: N5_15  and  C6_16 
REMARK    3  A    between atoms: C7_18  and  C8_19 
REMARK    4  A    between atoms: C8_19  and  O2_20 
REMARK    5  A    between atoms: O2_20  and  P1_21 
REMARK    6  A    between atoms: P1_21  and  O5_24 
REMARK    7  A    between atoms: O5_24  and  P2_25 
REMARK    8  A    between atoms: P2_25  and  O8_28 
REMARK    9  A    between atoms: O8_28  and  C9_29 
REMARK   10  A    between atoms: C9_29  and  C10_30 
REMARK   11  A    between atoms: C12_35  and  O9_36 
REMARK   12  A    between atoms: C13_38  and  O10_39 
REMARK   13  A    between atoms: C14_41  and  O11_42 
REMARK   14  A    between atoms: C15_44  and  O12_45 
ROOT
HETATM    1  C6  UNL     1      29.859   0.250   6.834  1.00  0.00     0.262 C 
HETATM    2  O1  UNL     1      29.364   0.398   5.584  1.00  0.00    -0.353 OA
HETATM    3  C7  UNL     1      29.698  -0.733   4.967  1.00  0.00     0.180 C 
HETATM    4  C14 UNL     1      29.183  -1.840   5.843  1.00  0.00     0.182 C 
HETATM    5  C15 UNL     1      29.634  -1.252   7.209  1.00  0.00     0.198 C 
ENDROOT
BRANCH   3   6
HETATM    6  C8  UNL     1      29.336  -1.006   3.545  1.00  0.00     0.216 C 
BRANCH   6   7
HETATM    7  O2  UNL     1      30.368  -0.947   2.659  1.00  0.00    -0.287 OA
BRANCH   7   8
HETATM    8  P1  UNL     1      30.386  -2.422   1.897  1.00  0.00     0.417 P 
HETATM    9  O3  UNL     1      30.595  -2.430   0.224  1.00  0.00    -0.624 OA
HETATM   10  O4  UNL     1      30.594  -3.824   2.739  1.00  0.00    -0.624 OA
BRANCH   8  11
HETATM   11  O5  UNL     1      28.935  -2.587   1.768  1.00  0.00    -0.180 OA
BRANCH  11  12
HETATM   12  P2  UNL     1      28.038  -3.182   0.647  1.00  0.00     0.417 P 
HETATM   13  O6  UNL     1      27.593  -4.476   1.537  1.00  0.00    -0.624 OA
HETATM   14  O7  UNL     1      27.047  -1.749   0.894  1.00  0.00    -0.624 OA
BRANCH  12  15
HETATM   15  O8  UNL     1      26.923  -3.380  -0.402  1.00  0.00    -0.287 OA
BRANCH  15  16
HETATM   16  C9  UNL     1      25.980  -2.392  -0.632  1.00  0.00     0.217 C 
BRANCH  16  17
HETATM   17  C10 UNL     1      24.690  -3.211  -0.290  1.00  0.00     0.241 C 
HETATM   18  N6  UNL     1      23.522  -2.596  -0.794  1.00  0.00    -0.064 N 
HETATM   19  C11 UNL     1      22.665  -3.772  -1.025  1.00  0.00     0.267 C 
ATOM     20  H62 UNL     1      23.119  -1.869  -0.203  1.00  0.00     0.277 HD
ATOM     21  H61 UNL     1      23.659  -1.987  -1.601  1.00  0.00     0.277 HD
HETATM   22  C12 UNL     1      23.617  -4.805  -1.571  1.00  0.00     0.174 C 
HETATM   23  C13 UNL     1      24.842  -4.603  -0.693  1.00  0.00     0.181 C 
BRANCH  22  24
HETATM   24  O9  UNL     1      23.188  -6.103  -1.389  1.00  0.00    -0.391 OA
ATOM     25  H9  UNL     1      22.451  -6.180  -0.794  1.00  0.00     0.210 HD
ENDBRANCH  22  24
BRANCH  23  26
HETATM   26  O10 UNL     1      24.909  -5.511   0.354  1.00  0.00    -0.391 OA
ATOM     27  H10 UNL     1      25.308  -6.345   0.136  1.00  0.00     0.210 HD
ENDBRANCH  23  26
ENDBRANCH  16  17
ENDBRANCH  15  16
ENDBRANCH  12  15
ENDBRANCH  11  12
ENDBRANCH   8  11
ENDBRANCH   7   8
ENDBRANCH   6   7
ENDBRANCH   3   6
BRANCH   4  28
HETATM   28  O11 UNL     1      29.787  -3.042   5.527  1.00  0.00    -0.390 OA
ATOM     29  H11 UNL     1      30.603  -3.148   6.002  1.00  0.00     0.210 HD
ENDBRANCH   4  28
BRANCH   1  30
HETATM   30  N5  UNL     1      29.202   1.067   7.879  1.00  0.00    -0.297 N 
HETATM   31  C3  UNL     1      29.108   2.388   7.764  1.00  0.00     0.142 A 
HETATM   32  N3  UNL     1      29.777   3.270   7.018  1.00  0.00    -0.336 N 
HETATM   33  C4  UNL     1      28.047   2.799   8.542  1.00  0.00     0.122 A 
HETATM   34  C2  UNL     1      29.385   4.552   7.087  1.00  0.00     0.183 A 
ATOM     35  H3  UNL     1      30.552   2.981   6.421  1.00  0.00     0.168 HD
HETATM   36  N2  UNL     1      28.357   4.916   7.807  1.00  0.00    -0.337 N 
HETATM   37  C1  UNL     1      27.620   4.135   8.551  1.00  0.00     0.131 A 
ATOM     38  H2  UNL     1      28.105   5.904   7.786  1.00  0.00     0.168 HD
HETATM   39  N4  UNL     1      27.533   1.667   9.147  1.00  0.00    -0.346 N 
HETATM   40  C5  UNL     1      28.343   0.619   8.715  1.00  0.00     0.188 A 
ATOM     41  H4  UNL     1      26.731   1.611   9.774  1.00  0.00     0.167 HD
BRANCH  37  42
HETATM   42  N1  UNL     1      26.498   4.355   9.317  1.00  0.00    -0.383 N 
ATOM     43  H12 UNL     1      25.926   5.136   8.996  1.00  0.00     0.157 HD
ATOM     44  H11 UNL     1      26.131   3.906  10.156  1.00  0.00     0.157 HD
ENDBRANCH  37  42
ENDBRANCH   1  30
BRANCH   5  45
HETATM   45  O12 UNL     1      30.846  -1.928   7.506  1.00  0.00    -0.388 OA
ATOM     46  H12 UNL     1      31.001  -2.008   8.439  1.00  0.00     0.210 HD
ENDBRANCH   5  45
TORSDOF 14
ENDMDL
