MODEL 6
REMARK VINA RESULT: -9.132425224      2.856     10.486
REMARK  14 active torsions:
REMARK  status: ('A' for Active; 'I' for Inactive)
REMARK    1  A    between atoms: N1_1  and  C1_4 
REMARK    2  A    between atoms: N5_15  and  C6_16 
REMARK    3  A    between atoms: C7_18  and  C8_19 
REMARK    4  A    between atoms: C8_19  and  O2_20 
REMARK    5  A    between atoms: O2_20  and  P1_21 
REMARK    6  A    between atoms: P1_21  and  O5_24 
REMARK    7  A    between atoms: O5_24  and  P2_25 
REMARK    8  A    between atoms: P2_25  and  O8_28 
REMARK    9  A    between atoms: O8_28  and  C9_29 
REMARK   10  A    between atoms: C9_29  and  C10_30 
REMARK   11  A    between atoms: C12_35  and  O9_36 
REMARK   12  A    between atoms: C13_38  and  O10_39 
REMARK   13  A    between atoms: C14_41  and  O11_42 
REMARK   14  A    between atoms: C15_44  and  O12_45 
ROOT
HETATM    1  C6  UNL     1      27.316  -3.573   0.817  1.00  0.00     0.262 C 
HETATM    2  O1  UNL     1      27.567  -2.819   1.912  1.00  0.00    -0.353 OA
HETATM    3  C7  UNL     1      28.688  -3.336   2.411  1.00  0.00     0.180 C 
HETATM    4  C14 UNL     1      29.671  -3.345   1.275  1.00  0.00     0.182 C 
HETATM    5  C15 UNL     1      28.710  -3.868   0.172  1.00  0.00     0.198 C 
ENDROOT
BRANCH   3   6
HETATM    6  C8  UNL     1      29.342  -2.793   3.639  1.00  0.00     0.216 C 
BRANCH   6   7
HETATM    7  O2  UNL     1      30.325  -1.878   3.419  1.00  0.00    -0.287 OA
BRANCH   7   8
HETATM    8  P1  UNL     1      29.677  -0.414   3.862  1.00  0.00     0.417 P 
HETATM    9  O3  UNL     1      30.750   0.852   4.158  1.00  0.00    -0.624 OA
HETATM   10  O4  UNL     1      28.078  -0.077   3.642  1.00  0.00    -0.624 OA
BRANCH   8  11
HETATM   11  O5  UNL     1      29.534  -0.695   5.293  1.00  0.00    -0.180 OA
BRANCH  11  12
HETATM   12  P2  UNL     1      29.348   0.222   6.534  1.00  0.00     0.417 P 
HETATM   13  O6  UNL     1      27.858  -0.352   6.873  1.00  0.00    -0.624 OA
HETATM   14  O7  UNL     1      30.667  -0.713   7.229  1.00  0.00    -0.624 OA
BRANCH  12  15
HETATM   15  O8  UNL     1      29.525   0.894   7.913  1.00  0.00    -0.287 OA
BRANCH  15  16
HETATM   16  C9  UNL     1      28.431   1.156   8.720  1.00  0.00     0.217 C 
BRANCH  16  17
HETATM   17  C10 UNL     1      27.990   2.519   8.088  1.00  0.00     0.241 C 
HETATM   18  N6  UNL     1      26.632   2.809   8.346  1.00  0.00    -0.064 N 
HETATM   19  C11 UNL     1      26.659   4.283   8.356  1.00  0.00     0.267 C 
ATOM     20  H62 UNL     1      25.963   2.387   7.702  1.00  0.00     0.277 HD
ATOM     21  H61 UNL     1      26.240   2.372   9.180  1.00  0.00     0.277 HD
HETATM   22  C12 UNL     1      27.948   4.611   9.064  1.00  0.00     0.174 C 
HETATM   23  C13 UNL     1      28.904   3.585   8.475  1.00  0.00     0.181 C 
BRANCH  22  24
HETATM   24  O9  UNL     1      28.444   5.861   8.759  1.00  0.00    -0.391 OA
ATOM     25  H9  UNL     1      28.848   5.911   7.901  1.00  0.00     0.210 HD
ENDBRANCH  22  24
BRANCH  23  26
HETATM   26  O10 UNL     1      29.675   4.099   7.442  1.00  0.00    -0.391 OA
ATOM     27  H10 UNL     1      30.389   3.541   7.158  1.00  0.00     0.210 HD
ENDBRANCH  23  26
ENDBRANCH  16  17
ENDBRANCH  15  16
ENDBRANCH  12  15
ENDBRANCH  11  12
ENDBRANCH   8  11
ENDBRANCH   7   8
ENDBRANCH   6   7
ENDBRANCH   3   6
BRANCH   4  28
HETATM   28  O11 UNL     1      30.728  -4.194   1.543  1.00  0.00    -0.390 OA
ATOM     29  H11 UNL     1      31.422  -3.739   2.005  1.00  0.00     0.210 HD
ENDBRANCH   4  28
BRANCH   1  30
HETATM   30  N5  UNL     1      26.479  -2.929  -0.219  1.00  0.00    -0.297 N 
HETATM   31  C3  UNL     1      25.309  -3.447  -0.582  1.00  0.00     0.142 A 
HETATM   32  N3  UNL     1      24.794  -4.670  -0.445  1.00  0.00    -0.336 N 
HETATM   33  C4  UNL     1      24.550  -2.428  -1.116  1.00  0.00     0.122 A 
HETATM   34  C2  UNL     1      23.533  -4.854  -0.870  1.00  0.00     0.183 A 
ATOM     35  H3  UNL     1      25.334  -5.432  -0.034  1.00  0.00     0.168 HD
HETATM   36  N2  UNL     1      22.820  -3.867  -1.344  1.00  0.00    -0.337 N 
HETATM   37  C1  UNL     1      23.216  -2.632  -1.498  1.00  0.00     0.131 A 
ATOM     38  H2  UNL     1      21.863  -4.082  -1.621  1.00  0.00     0.168 HD
HETATM   39  N4  UNL     1      25.331  -1.287  -1.079  1.00  0.00    -0.346 N 
HETATM   40  C5  UNL     1      26.550  -1.692  -0.543  1.00  0.00     0.188 A 
ATOM     41  H4  UNL     1      25.069  -0.349  -1.381  1.00  0.00     0.167 HD
BRANCH  37  42
HETATM   42  N1  UNL     1      22.582  -1.490  -1.932  1.00  0.00    -0.383 N 
ATOM     43  H12 UNL     1      22.962  -1.113  -2.800  1.00  0.00     0.157 HD
ATOM     44  H11 UNL     1      21.819  -0.931  -1.551  1.00  0.00     0.157 HD
ENDBRANCH  37  42
ENDBRANCH   1  30
BRANCH   5  45
HETATM   45  O12 UNL     1      28.989  -5.258   0.086  1.00  0.00    -0.388 OA
ATOM     46  H12 UNL     1      29.550  -5.562   0.789  1.00  0.00     0.210 HD
ENDBRANCH   5  45
TORSDOF 14
ENDMDL
