MODEL 2
REMARK VINA RESULT: -4.571526011      1.484      2.494
REMARK  7 active torsions:
REMARK  status: ('A' for Active; 'I' for Inactive)
REMARK    1  A    between atoms: O1_1  and  C1_3 
REMARK    2  A    between atoms: C1_3  and  C2_4 
REMARK    3  A    between atoms: C3_6  and  O3_7 
REMARK    4  A    between atoms: C3_6  and  C4_9 
REMARK    5  A    between atoms: C4_9  and  O4_10 
REMARK    6  A    between atoms: C5_12  and  O5_13 
REMARK    7  A    between atoms: C6_15  and  O6_16 
ROOT
HETATM    1  C2  UNL     1      12.508  -5.386   5.257  1.00  0.00     0.180 C 
HETATM    2  O2  UNL     1      12.249  -5.548   3.927  1.00  0.00    -0.341 OA
HETATM    3  C3  UNL     1      13.247  -4.990   3.181  1.00  0.00     0.213 C 
HETATM    4  C5  UNL     1      13.814  -3.911   4.034  1.00  0.00     0.213 C 
HETATM    5  C6  UNL     1      13.758  -4.546   5.400  1.00  0.00     0.183 C 
ENDROOT
BRANCH   3   6
HETATM    6  O3  UNL     1      12.758  -4.424   1.984  1.00  0.00    -0.362 OA
ATOM      7  H3  UNL     1      11.838  -4.196   2.049  1.00  0.00     0.213 HD
ENDBRANCH   3   6
BRANCH   3   8
HETATM    8  C4  UNL     1      14.241  -6.047   2.791  1.00  0.00     0.235 C 
BRANCH   8   9
HETATM    9  O4  UNL     1      13.495  -7.198   2.458  1.00  0.00    -0.395 OA
ATOM     10  H4  UNL     1      12.710  -7.175   2.994  1.00  0.00     0.209 HD
ENDBRANCH   8   9
ENDBRANCH   3   8
BRANCH   4  11
HETATM   11  O5  UNL     1      12.907  -2.841   4.053  1.00  0.00    -0.387 OA
ATOM     12  H5  UNL     1      12.029  -3.195   4.131  1.00  0.00     0.210 HD
ENDBRANCH   4  11
BRANCH   1  13
HETATM   13  C1  UNL     1      11.325  -4.649   5.899  1.00  0.00     0.198 C 
BRANCH  13  14
HETATM   14  O1  UNL     1      10.396  -4.389   4.876  1.00  0.00    -0.398 OA
ATOM     15  H1  UNL     1      10.499  -3.477   4.631  1.00  0.00     0.209 HD
ENDBRANCH  13  14
ENDBRANCH   1  13
BRANCH   5  16
HETATM   16  O6  UNL     1      14.877  -5.330   5.669  1.00  0.00    -0.390 OA
ATOM     17  H6  UNL     1      15.468  -5.365   4.926  1.00  0.00     0.210 HD
ENDBRANCH   5  16
TORSDOF 7
ENDMDL
