MODEL 7
REMARK VINA RESULT: -9.041104096      1.095      6.514
REMARK  9 active torsions:
REMARK  status: ('A' for Active; 'I' for Inactive)
REMARK    1  A    between atoms: P1_2  and  O4_5 
REMARK    2  A    between atoms: O4_5  and  C1_6 
REMARK    3  A    between atoms: C1_6  and  C2_7 
REMARK    4  A    between atoms: C3_9  and  O6_10 
REMARK    5  A    between atoms: C3_9  and  C4_12 
REMARK    6  A    between atoms: C4_12  and  O7_13 
REMARK    7  A    between atoms: O7_13  and  P2_14 
REMARK    8  A    between atoms: C5_18  and  O11_19 
REMARK    9  A    between atoms: C6_21  and  O12_22 
ROOT
HETATM    1  C2  UNL     1     -19.391 -17.370  13.469  1.00  0.00     0.181 C 
HETATM    2  O5  UNL     1     -19.811 -16.063  13.433  1.00  0.00    -0.341 OA
HETATM    3  C3  UNL     1     -19.590 -15.475  14.660  1.00  0.00     0.213 C 
HETATM    4  C5  UNL     1     -19.088 -16.562  15.598  1.00  0.00     0.213 C 
HETATM    5  C6  UNL     1     -19.699 -17.775  14.907  1.00  0.00     0.183 C 
ENDROOT
BRANCH   3   6
HETATM    6  O6  UNL     1     -20.851 -15.103  15.157  1.00  0.00    -0.362 OA
ATOM      7  H6  UNL     1     -21.049 -14.253  14.782  1.00  0.00     0.213 HD
ENDBRANCH   3   6
BRANCH   3   8
HETATM    8  C4  UNL     1     -18.662 -14.293  14.605  1.00  0.00     0.253 C 
BRANCH   8   9
HETATM    9  O7  UNL     1     -18.619 -13.590  15.820  1.00  0.00    -0.277 OA
BRANCH   9  10
HETATM   10  P2  UNL     1     -19.087 -11.969  15.607  1.00  0.00     0.422 P 
HETATM   11  O8  UNL     1     -17.980 -11.170  14.933  1.00  0.00    -0.617 OA
HETATM   12  O9  UNL     1     -19.439 -11.250  17.105  1.00  0.00    -0.617 OA
HETATM   13  O10 UNL     1     -20.467 -11.942  14.618  1.00  0.00    -0.617 OA
ENDBRANCH   9  10
ENDBRANCH   8   9
ENDBRANCH   3   8
BRANCH   4  14
HETATM   14  O11 UNL     1     -19.543 -16.402  16.890  1.00  0.00    -0.387 OA
ATOM     15  H11 UNL     1     -19.596 -17.223  17.365  1.00  0.00     0.210 HD
ENDBRANCH   4  14
BRANCH   1  16
HETATM   16  C1  UNL     1     -20.098 -18.287  12.527  1.00  0.00     0.217 C 
BRANCH  16  17
HETATM   17  O4  UNL     1     -21.103 -17.690  11.791  1.00  0.00    -0.280 OA
BRANCH  17  18
HETATM   18  P1  UNL     1     -22.576 -18.207  12.467  1.00  0.00     0.422 P 
HETATM   19  O1  UNL     1     -22.590 -19.717  12.635  1.00  0.00    -0.617 OA
HETATM   20  O2  UNL     1     -23.882 -17.733  11.487  1.00  0.00    -0.617 OA
HETATM   21  O3  UNL     1     -22.828 -17.497  13.992  1.00  0.00    -0.617 OA
ENDBRANCH  17  18
ENDBRANCH  16  17
ENDBRANCH   1  16
BRANCH   5  22
HETATM   22  O12 UNL     1     -19.089 -18.958  15.268  1.00  0.00    -0.390 OA
ATOM     23  H12 UNL     1     -18.742 -18.936  16.152  1.00  0.00     0.210 HD
ENDBRANCH   5  22
TORSDOF 9
ENDMDL
