MODEL 2
REMARK VINA RESULT: -9.301122873      0.059      1.027
REMARK  9 active torsions:
REMARK  status: ('A' for Active; 'I' for Inactive)
REMARK    1  A    between atoms: P1_2  and  O4_5 
REMARK    2  A    between atoms: O4_5  and  C1_6 
REMARK    3  A    between atoms: C1_6  and  C2_7 
REMARK    4  A    between atoms: C3_9  and  O6_10 
REMARK    5  A    between atoms: C3_9  and  C4_12 
REMARK    6  A    between atoms: C4_12  and  O7_13 
REMARK    7  A    between atoms: O7_13  and  P2_14 
REMARK    8  A    between atoms: C5_18  and  O11_19 
REMARK    9  A    between atoms: C6_21  and  O12_22 
ROOT
HETATM    1  C2  UNL     1     -19.865 -14.892  14.809  1.00  0.00     0.181 C 
HETATM    2  O5  UNL     1     -19.739 -15.394  13.537  1.00  0.00    -0.341 OA
HETATM    3  C3  UNL     1     -19.913 -16.761  13.562  1.00  0.00     0.213 C 
HETATM    4  C5  UNL     1     -20.043 -17.173  15.021  1.00  0.00     0.213 C 
HETATM    5  C6  UNL     1     -19.289 -16.015  15.665  1.00  0.00     0.183 C 
ENDROOT
BRANCH   3   6
HETATM    6  O6  UNL     1     -18.703 -17.325  13.121  1.00  0.00    -0.362 OA
ATOM      7  H6  UNL     1     -18.918 -18.179  12.765  1.00  0.00     0.213 HD
ENDBRANCH   3   6
BRANCH   3   8
HETATM    8  C4  UNL     1     -21.068 -17.240  12.727  1.00  0.00     0.253 C 
BRANCH   8   9
HETATM    9  O7  UNL     1     -22.138 -17.702  13.509  1.00  0.00    -0.277 OA
BRANCH   9  10
HETATM   10  P2  UNL     1     -23.435 -18.211  12.533  1.00  0.00     0.422 P 
HETATM   11  O8  UNL     1     -23.263 -19.666  12.120  1.00  0.00    -0.617 OA
HETATM   12  O9  UNL     1     -23.532 -17.257  11.130  1.00  0.00    -0.617 OA
HETATM   13  O10 UNL     1     -24.866 -18.058  13.432  1.00  0.00    -0.617 OA
ENDBRANCH   9  10
ENDBRANCH   8   9
ENDBRANCH   3   8
BRANCH   4  14
HETATM   14  O11 UNL     1     -19.463 -18.395  15.284  1.00  0.00    -0.387 OA
ATOM     15  H11 UNL     1     -19.920 -19.116  14.866  1.00  0.00     0.210 HD
ENDBRANCH   4  14
BRANCH   1  16
HETATM   16  C1  UNL     1     -19.114 -13.628  15.067  1.00  0.00     0.217 C 
BRANCH  16  17
HETATM   17  O4  UNL     1     -18.984 -13.301  16.403  1.00  0.00    -0.280 OA
BRANCH  17  18
HETATM   18  P1  UNL     1     -18.676 -11.630  16.468  1.00  0.00     0.422 P 
HETATM   19  O1  UNL     1     -18.526 -11.055  15.070  1.00  0.00    -0.617 OA
HETATM   20  O2  UNL     1     -17.265 -11.317  17.364  1.00  0.00    -0.617 OA
HETATM   21  O3  UNL     1     -19.943 -10.808  17.252  1.00  0.00    -0.617 OA
ENDBRANCH  17  18
ENDBRANCH  16  17
ENDBRANCH   1  16
BRANCH   5  22
HETATM   22  O12 UNL     1     -19.582 -15.866  17.004  1.00  0.00    -0.390 OA
ATOM     23  H12 UNL     1     -18.937 -16.276  17.568  1.00  0.00     0.210 HD
ENDBRANCH   5  22
TORSDOF 9
ENDMDL
