MODEL 1
REMARK VINA RESULT: -9.324826357      0.000      0.000
REMARK  9 active torsions:
REMARK  status: ('A' for Active; 'I' for Inactive)
REMARK    1  A    between atoms: P1_2  and  O4_5 
REMARK    2  A    between atoms: O4_5  and  C1_6 
REMARK    3  A    between atoms: C1_6  and  C2_7 
REMARK    4  A    between atoms: C3_9  and  O6_10 
REMARK    5  A    between atoms: C3_9  and  C4_12 
REMARK    6  A    between atoms: C4_12  and  O7_13 
REMARK    7  A    between atoms: O7_13  and  P2_14 
REMARK    8  A    between atoms: C5_18  and  O11_19 
REMARK    9  A    between atoms: C6_21  and  O12_22 
ROOT
HETATM    1  C2  UNL     1     -19.892 -14.884  14.805  1.00  0.00     0.181 C 
HETATM    2  O5  UNL     1     -19.752 -15.390  13.536  1.00  0.00    -0.341 OA
HETATM    3  C3  UNL     1     -19.900 -16.760  13.569  1.00  0.00     0.213 C 
HETATM    4  C5  UNL     1     -20.026 -17.166  15.029  1.00  0.00     0.213 C 
HETATM    5  C6  UNL     1     -19.296 -15.990  15.669  1.00  0.00     0.183 C 
ENDROOT
BRANCH   3   6
HETATM    6  O6  UNL     1     -18.678 -17.303  13.134  1.00  0.00    -0.362 OA
ATOM      7  H6  UNL     1     -18.687 -18.220  13.381  1.00  0.00     0.213 HD
ENDBRANCH   3   6
BRANCH   3   8
HETATM    8  C4  UNL     1     -21.042 -17.266  12.733  1.00  0.00     0.253 C 
BRANCH   8   9
HETATM    9  O7  UNL     1     -22.133 -17.681  13.513  1.00  0.00    -0.277 OA
BRANCH   9  10
HETATM   10  P2  UNL     1     -23.425 -18.198  12.534  1.00  0.00     0.422 P 
HETATM   11  O8  UNL     1     -23.243 -19.651  12.121  1.00  0.00    -0.617 OA
HETATM   12  O9  UNL     1     -23.525 -17.244  11.132  1.00  0.00    -0.617 OA
HETATM   13  O10 UNL     1     -24.859 -18.054  13.431  1.00  0.00    -0.617 OA
ENDBRANCH   9  10
ENDBRANCH   8   9
ENDBRANCH   3   8
BRANCH   4  14
HETATM   14  O11 UNL     1     -19.423 -18.375  15.301  1.00  0.00    -0.387 OA
ATOM     15  H11 UNL     1     -18.844 -18.337  16.053  1.00  0.00     0.210 HD
ENDBRANCH   4  14
BRANCH   1  16
HETATM   16  C1  UNL     1     -19.167 -13.604  15.058  1.00  0.00     0.217 C 
BRANCH  16  17
HETATM   17  O4  UNL     1     -18.937 -13.329  16.392  1.00  0.00    -0.280 OA
BRANCH  17  18
HETATM   18  P1  UNL     1     -18.654 -11.656  16.504  1.00  0.00     0.422 P 
HETATM   19  O1  UNL     1     -17.377 -11.375  17.277  1.00  0.00    -0.617 OA
HETATM   20  O2  UNL     1     -19.960 -10.879  17.267  1.00  0.00    -0.617 OA
HETATM   21  O3  UNL     1     -18.509 -10.959  14.958  1.00  0.00    -0.617 OA
ENDBRANCH  17  18
ENDBRANCH  16  17
ENDBRANCH   1  16
BRANCH   5  22
HETATM   22  O12 UNL     1     -19.597 -15.839  17.006  1.00  0.00    -0.390 OA
ATOM     23  H12 UNL     1     -19.204 -16.514  17.547  1.00  0.00     0.210 HD
ENDBRANCH   5  22
TORSDOF 9
ENDMDL
