MODEL 8
REMARK VINA RESULT: -8.865979774      1.475      6.452
REMARK  9 active torsions:
REMARK  status: ('A' for Active; 'I' for Inactive)
REMARK    1  A    between atoms: P1_2  and  O4_5 
REMARK    2  A    between atoms: O4_5  and  C1_6 
REMARK    3  A    between atoms: C1_6  and  C2_7 
REMARK    4  A    between atoms: C3_9  and  O6_10 
REMARK    5  A    between atoms: C3_9  and  C4_12 
REMARK    6  A    between atoms: C4_12  and  O7_13 
REMARK    7  A    between atoms: O7_13  and  P2_14 
REMARK    8  A    between atoms: C5_18  and  O11_19 
REMARK    9  A    between atoms: C6_21  and  O12_22 
ROOT
HETATM    1  C2  UNL     1     -18.661 -17.506  14.241  1.00  0.00     0.181 C 
HETATM    2  O5  UNL     1     -19.198 -16.337  13.760  1.00  0.00    -0.341 OA
HETATM    3  C3  UNL     1     -19.354 -15.443  14.798  1.00  0.00     0.213 C 
HETATM    4  C5  UNL     1     -18.987 -16.171  16.082  1.00  0.00     0.213 C 
HETATM    5  C6  UNL     1     -19.271 -17.601  15.636  1.00  0.00     0.183 C 
ENDROOT
BRANCH   3   6
HETATM    6  O6  UNL     1     -20.732 -15.182  14.896  1.00  0.00    -0.362 OA
ATOM      7  H6  UNL     1     -20.830 -14.238  14.876  1.00  0.00     0.213 HD
ENDBRANCH   3   6
BRANCH   3   8
HETATM    8  C4  UNL     1     -18.576 -14.168  14.620  1.00  0.00     0.253 C 
BRANCH   8   9
HETATM    9  O7  UNL     1     -18.497 -13.420  15.806  1.00  0.00    -0.277 OA
BRANCH   9  10
HETATM   10  P2  UNL     1     -19.122 -11.855  15.586  1.00  0.00     0.422 P 
HETATM   11  O8  UNL     1     -18.120 -10.969  14.860  1.00  0.00    -0.617 OA
HETATM   12  O9  UNL     1     -19.487 -11.144  17.085  1.00  0.00    -0.617 OA
HETATM   13  O10 UNL     1     -20.532 -11.975  14.648  1.00  0.00    -0.617 OA
ENDBRANCH   9  10
ENDBRANCH   8   9
ENDBRANCH   3   8
BRANCH   4  14
HETATM   14  O11 UNL     1     -19.764 -15.786  17.154  1.00  0.00    -0.387 OA
ATOM     15  H11 UNL     1     -19.633 -16.335  17.918  1.00  0.00     0.210 HD
ENDBRANCH   4  14
BRANCH   1  16
HETATM   16  C1  UNL     1     -19.006 -18.729  13.458  1.00  0.00     0.217 C 
BRANCH  16  17
HETATM   17  O4  UNL     1     -20.160 -19.368  13.872  1.00  0.00    -0.280 OA
BRANCH  17  18
HETATM   18  P1  UNL     1     -21.435 -18.712  12.958  1.00  0.00     0.422 P 
HETATM   19  O1  UNL     1     -22.313 -19.813  12.389  1.00  0.00    -0.617 OA
HETATM   20  O2  UNL     1     -20.830 -17.756  11.689  1.00  0.00    -0.617 OA
HETATM   21  O3  UNL     1     -22.407 -17.693  13.914  1.00  0.00    -0.617 OA
ENDBRANCH  17  18
ENDBRANCH  16  17
ENDBRANCH   1  16
BRANCH   5  22
HETATM   22  O12 UNL     1     -18.645 -18.541  16.427  1.00  0.00    -0.390 OA
ATOM     23  H12 UNL     1     -19.139 -18.747  17.211  1.00  0.00     0.210 HD
ENDBRANCH   5  22
TORSDOF 9
ENDMDL
