MODEL 10
REMARK VINA RESULT: -8.772212537      1.392      6.890
REMARK  9 active torsions:
REMARK  status: ('A' for Active; 'I' for Inactive)
REMARK    1  A    between atoms: P1_2  and  O4_5 
REMARK    2  A    between atoms: O4_5  and  C1_6 
REMARK    3  A    between atoms: C1_6  and  C2_7 
REMARK    4  A    between atoms: C3_9  and  O6_10 
REMARK    5  A    between atoms: C3_9  and  C4_12 
REMARK    6  A    between atoms: C4_12  and  O7_13 
REMARK    7  A    between atoms: O7_13  and  P2_14 
REMARK    8  A    between atoms: C5_18  and  O11_19 
REMARK    9  A    between atoms: C6_21  and  O12_22 
ROOT
HETATM    1  C2  UNL     1     -20.962 -17.389  13.533  1.00  0.00     0.181 C 
HETATM    2  O5  UNL     1     -20.898 -16.294  14.360  1.00  0.00    -0.341 OA
HETATM    3  C3  UNL     1     -19.594 -16.098  14.762  1.00  0.00     0.213 C 
HETATM    4  C5  UNL     1     -18.776 -17.263  14.225  1.00  0.00     0.213 C 
HETATM    5  C6  UNL     1     -19.885 -18.302  14.109  1.00  0.00     0.183 C 
ENDROOT
BRANCH   3   6
HETATM    6  O6  UNL     1     -19.581 -16.244  16.160  1.00  0.00    -0.362 OA
ATOM      7  H6  UNL     1     -19.966 -15.453  16.517  1.00  0.00     0.213 HD
ENDBRANCH   3   6
BRANCH   3   8
HETATM    8  C4  UNL     1     -19.029 -14.766  14.354  1.00  0.00     0.253 C 
BRANCH   8   9
HETATM    9  O7  UNL     1     -18.503 -14.052  15.443  1.00  0.00    -0.277 OA
BRANCH   9  10
HETATM   10  P2  UNL     1     -19.086 -12.455  15.466  1.00  0.00     0.422 P 
HETATM   11  O8  UNL     1     -20.423 -12.356  14.746  1.00  0.00    -0.617 OA
HETATM   12  O9  UNL     1     -17.983 -11.408  14.708  1.00  0.00    -0.617 OA
HETATM   13  O10 UNL     1     -19.297 -11.992  17.086  1.00  0.00    -0.617 OA
ENDBRANCH   9  10
ENDBRANCH   8   9
ENDBRANCH   3   8
BRANCH   4  14
HETATM   14  O11 UNL     1     -17.773 -17.652  15.088  1.00  0.00    -0.387 OA
ATOM     15  H11 UNL     1     -17.684 -18.596  15.147  1.00  0.00     0.210 HD
ENDBRANCH   4  14
BRANCH   1  16
HETATM   16  C1  UNL     1     -22.274 -18.101  13.528  1.00  0.00     0.217 C 
BRANCH  16  17
HETATM   17  O4  UNL     1     -22.503 -18.874  12.406  1.00  0.00    -0.280 OA
BRANCH  17  18
HETATM   18  P1  UNL     1     -24.145 -18.682  12.008  1.00  0.00     0.422 P 
HETATM   19  O1  UNL     1     -24.766 -20.014  11.622  1.00  0.00    -0.617 OA
HETATM   20  O2  UNL     1     -24.324 -17.580  10.726  1.00  0.00    -0.617 OA
HETATM   21  O3  UNL     1     -25.019 -18.045  13.322  1.00  0.00    -0.617 OA
ENDBRANCH  17  18
ENDBRANCH  16  17
ENDBRANCH   1  16
BRANCH   5  22
HETATM   22  O12 UNL     1     -19.558 -19.339  13.261  1.00  0.00    -0.390 OA
ATOM     23  H12 UNL     1     -19.990 -20.152  13.495  1.00  0.00     0.210 HD
ENDBRANCH   5  22
TORSDOF 9
ENDMDL
