MODEL 3
REMARK VINA RESULT: -9.237208674      0.073      1.032
REMARK  9 active torsions:
REMARK  status: ('A' for Active; 'I' for Inactive)
REMARK    1  A    between atoms: P1_2  and  O4_5 
REMARK    2  A    between atoms: O4_5  and  C1_6 
REMARK    3  A    between atoms: C1_6  and  C2_7 
REMARK    4  A    between atoms: C3_9  and  O6_10 
REMARK    5  A    between atoms: C3_9  and  C4_12 
REMARK    6  A    between atoms: C4_12  and  O7_13 
REMARK    7  A    between atoms: O7_13  and  P2_14 
REMARK    8  A    between atoms: C5_18  and  O11_19 
REMARK    9  A    between atoms: C6_21  and  O12_22 
ROOT
HETATM    1  C2  UNL     1     -19.888 -14.851  14.829  1.00  0.00     0.181 C 
HETATM    2  O5  UNL     1     -19.756 -15.354  13.558  1.00  0.00    -0.341 OA
HETATM    3  C3  UNL     1     -19.892 -16.725  13.590  1.00  0.00     0.213 C 
HETATM    4  C5  UNL     1     -20.002 -17.134  15.052  1.00  0.00     0.213 C 
HETATM    5  C6  UNL     1     -19.275 -15.954  15.686  1.00  0.00     0.183 C 
ENDROOT
BRANCH   3   6
HETATM    6  O6  UNL     1     -18.670 -17.259  13.143  1.00  0.00    -0.362 OA
ATOM      7  H6  UNL     1     -17.986 -16.747  13.557  1.00  0.00     0.213 HD
ENDBRANCH   3   6
BRANCH   3   8
HETATM    8  C4  UNL     1     -21.039 -17.240  12.764  1.00  0.00     0.253 C 
BRANCH   8   9
HETATM    9  O7  UNL     1     -22.119 -17.664  13.554  1.00  0.00    -0.277 OA
BRANCH   9  10
HETATM   10  P2  UNL     1     -23.430 -18.152  12.587  1.00  0.00     0.422 P 
HETATM   11  O8  UNL     1     -23.508 -17.314  11.319  1.00  0.00    -0.617 OA
HETATM   12  O9  UNL     1     -24.891 -17.984  13.438  1.00  0.00    -0.617 OA
HETATM   13  O10 UNL     1     -23.197 -19.778  12.161  1.00  0.00    -0.617 OA
ENDBRANCH   9  10
ENDBRANCH   8   9
ENDBRANCH   3   8
BRANCH   4  14
HETATM   14  O11 UNL     1     -19.387 -18.339  15.316  1.00  0.00    -0.387 OA
ATOM     15  H11 UNL     1     -19.707 -18.749  16.111  1.00  0.00     0.210 HD
ENDBRANCH   4  14
BRANCH   1  16
HETATM   16  C1  UNL     1     -19.170 -13.566  15.077  1.00  0.00     0.217 C 
BRANCH  16  17
HETATM   17  O4  UNL     1     -18.938 -13.286  16.410  1.00  0.00    -0.280 OA
BRANCH  17  18
HETATM   18  P1  UNL     1     -18.672 -11.610  16.517  1.00  0.00     0.422 P 
HETATM   19  O1  UNL     1     -17.402 -11.315  17.298  1.00  0.00    -0.617 OA
HETATM   20  O2  UNL     1     -19.990 -10.842  17.268  1.00  0.00    -0.617 OA
HETATM   21  O3  UNL     1     -18.522 -10.917  14.970  1.00  0.00    -0.617 OA
ENDBRANCH  17  18
ENDBRANCH  16  17
ENDBRANCH   1  16
BRANCH   5  22
HETATM   22  O12 UNL     1     -19.564 -15.807  17.026  1.00  0.00    -0.390 OA
ATOM     23  H12 UNL     1     -20.288 -16.355  17.306  1.00  0.00     0.210 HD
ENDBRANCH   5  22
TORSDOF 9
ENDMDL
