MODEL 4
REMARK VINA RESULT: -4.771834819      1.792      3.083
REMARK  0 active torsions:
REMARK  status: ('A' for Active; 'I' for Inactive)
ROOT
HETATM    1  C1  UNL     1      17.825   5.671  -1.391  1.00  0.00     0.001 A 
HETATM    2  C2  UNL     1      18.684   4.682  -1.803  1.00  0.00     0.002 A 
HETATM    3  C3  UNL     1      19.875   5.080  -2.391  1.00  0.00     0.032 A 
HETATM    4  C4  UNL     1      20.215   6.404  -2.570  1.00  0.00     0.059 A 
HETATM    5  N1  UNL     1      21.287   7.045  -3.102  1.00  0.00    -0.300 N 
ATOM      6  H1  UNL     1      22.107   6.587  -3.500  1.00  0.00     0.187 HD
HETATM    7  N2  UNL     1      21.107   8.361  -3.026  1.00  0.00    -0.311 N 
ATOM      8  H2  UNL     1      21.765   9.067  -3.355  1.00  0.00     0.186 HD
HETATM    9  C5  UNL     1      19.919   8.611  -2.445  1.00  0.00     0.120 A 
HETATM   10  C6  UNL     1      19.339   7.394  -2.150  1.00  0.00     0.009 A 
HETATM   11  C7  UNL     1      18.143   7.004  -1.560  1.00  0.00     0.015 A 
ENDROOT
TORSDOF 0
ENDMDL
