MODEL 3
REMARK VINA RESULT: -4.809744304      2.162      3.618
REMARK  0 active torsions:
REMARK  status: ('A' for Active; 'I' for Inactive)
ROOT
HETATM    1  C1  UNL     1      18.853   4.655  -1.813  1.00  0.00     0.001 A 
HETATM    2  C2  UNL     1      17.830   5.441  -1.343  1.00  0.00     0.002 A 
HETATM    3  C3  UNL     1      17.962   6.813  -1.494  1.00  0.00     0.032 A 
HETATM    4  C4  UNL     1      19.061   7.398  -2.087  1.00  0.00     0.059 A 
HETATM    5  N1  UNL     1      19.428   8.677  -2.352  1.00  0.00    -0.300 N 
ATOM      6  H1  UNL     1      18.877   9.505  -2.123  1.00  0.00     0.187 HD
HETATM    7  N2  UNL     1      20.614   8.689  -2.954  1.00  0.00    -0.311 N 
ATOM      8  H2  UNL     1      21.113   9.525  -3.259  1.00  0.00     0.186 HD
HETATM    9  C5  UNL     1      21.050   7.423  -3.098  1.00  0.00     0.120 A 
HETATM   10  C6  UNL     1      20.088   6.593  -2.558  1.00  0.00     0.009 A 
HETATM   11  C7  UNL     1      19.963   5.217  -2.411  1.00  0.00     0.015 A 
ENDROOT
TORSDOF 0
ENDMDL
