MODEL 2
REMARK VINA RESULT: -5.150313071      1.955      2.737
REMARK  5 active torsions:
REMARK  status: ('A' for Active; 'I' for Inactive)
REMARK    1  A    between atoms: O1_2  and  C2_3 
REMARK    2  A    between atoms: C2_3  and  C3_5 
REMARK    3  A    between atoms: C3_5  and  N1_6 
REMARK    4  A    between atoms: C3_5  and  C4_10 
REMARK    5  A    between atoms: C4_10  and  C5_11 
ROOT
HETATM    1  C5  UNL     1      20.882   8.093  -3.106  1.00  0.00    -0.028 A 
HETATM    2  C6  UNL     1      20.209   9.205  -2.609  1.00  0.00     0.096 A 
HETATM    3  N2  UNL     1      19.199   8.746  -1.861  1.00  0.00    -0.365 N 
ATOM      4  H2  UNL     1      18.527   9.330  -1.364  1.00  0.00     0.165 HD
HETATM    5  C7  UNL     1      19.199   7.387  -1.862  1.00  0.00     0.042 A 
HETATM    6  C8  UNL     1      18.366   6.469  -1.263  1.00  0.00     0.030 A 
HETATM    7  C9  UNL     1      18.617   5.129  -1.469  1.00  0.00     0.002 A 
HETATM    8  C10 UNL     1      19.665   4.686  -2.246  1.00  0.00     0.001 A 
HETATM    9  C11 UNL     1      20.493   5.587  -2.839  1.00  0.00     0.014 A 
HETATM   10  C12 UNL     1      20.247   6.938  -2.636  1.00  0.00    -0.002 A 
ENDROOT
BRANCH   1  11
HETATM   11  C4  UNL     1      22.085   8.138  -3.954  1.00  0.00     0.084 C 
BRANCH  11  12
HETATM   12  C3  UNL     1      21.845   8.223  -5.427  1.00  0.00     0.286 C 
BRANCH  12  13
HETATM   13  C2  UNL     1      21.432   9.528  -5.944  1.00  0.00     0.289 C 
HETATM   14  O2  UNL     1      20.715   9.597  -6.989  1.00  0.00    -0.263 OA
BRANCH  13  15
HETATM   15  O1  UNL     1      21.775  10.764  -5.361  1.00  0.00    -0.325 OA
HETATM   16  C1  UNL     1      22.128  11.852  -6.215  1.00  0.00     0.213 C 
ENDBRANCH  13  15
ENDBRANCH  12  13
BRANCH  12  17
HETATM   17  N1  UNL     1      23.099   7.781  -6.057  1.00  0.00    -0.066 N 
ATOM     18  H13 UNL     1      23.212   6.769  -6.001  1.00  0.00     0.275 HD
ATOM     19  H12 UNL     1      23.065   7.876  -7.072  1.00  0.00     0.275 HD
ATOM     20  H11 UNL     1      23.899   8.272  -5.659  1.00  0.00     0.275 HD
ENDBRANCH  12  17
ENDBRANCH  11  12
ENDBRANCH   1  11
TORSDOF 5
ENDMDL
