MODEL 8
REMARK VINA RESULT: -5.007094389      1.477      2.279
REMARK  5 active torsions:
REMARK  status: ('A' for Active; 'I' for Inactive)
REMARK    1  A    between atoms: O1_2  and  C2_3 
REMARK    2  A    between atoms: C2_3  and  C3_5 
REMARK    3  A    between atoms: C3_5  and  N1_6 
REMARK    4  A    between atoms: C3_5  and  C4_10 
REMARK    5  A    between atoms: C4_10  and  C5_11 
ROOT
HETATM    1  C5  UNL     1      21.202   7.855  -2.707  1.00  0.00    -0.028 A 
HETATM    2  C6  UNL     1      20.662   9.120  -2.493  1.00  0.00     0.096 A 
HETATM    3  N2  UNL     1      19.431   8.938  -1.999  1.00  0.00    -0.365 N 
ATOM      4  H2  UNL     1      18.789   9.687  -1.742  1.00  0.00     0.165 HD
HETATM    5  C7  UNL     1      19.163   7.610  -1.892  1.00  0.00     0.042 A 
HETATM    6  C8  UNL     1      18.046   6.932  -1.460  1.00  0.00     0.030 A 
HETATM    7  C9  UNL     1      18.070   5.554  -1.486  1.00  0.00     0.002 A 
HETATM    8  C10 UNL     1      19.165   4.843  -1.926  1.00  0.00     0.001 A 
HETATM    9  C11 UNL     1      20.273   5.507  -2.353  1.00  0.00     0.014 A 
HETATM   10  C12 UNL     1      20.257   6.894  -2.328  1.00  0.00    -0.002 A 
ENDROOT
BRANCH   1  11
HETATM   11  C4  UNL     1      22.557   7.586  -3.214  1.00  0.00     0.084 C 
BRANCH  11  12
HETATM   12  C3  UNL     1      22.820   7.992  -4.628  1.00  0.00     0.286 C 
BRANCH  12  13
HETATM   13  C2  UNL     1      21.664   8.013  -5.524  1.00  0.00     0.289 C 
HETATM   14  O2  UNL     1      21.149   6.923  -5.919  1.00  0.00    -0.263 OA
BRANCH  13  15
HETATM   15  O1  UNL     1      21.048   9.185  -6.007  1.00  0.00    -0.325 OA
HETATM   16  C1  UNL     1      21.262   9.564  -7.366  1.00  0.00     0.213 C 
ENDBRANCH  13  15
ENDBRANCH  12  13
BRANCH  12  17
HETATM   17  N1  UNL     1      23.446   9.322  -4.547  1.00  0.00    -0.066 N 
ATOM     18  H13 UNL     1      24.427   9.260  -4.274  1.00  0.00     0.275 HD
ATOM     19  H12 UNL     1      23.568   9.738  -5.470  1.00  0.00     0.275 HD
ATOM     20  H11 UNL     1      22.919   9.934  -3.924  1.00  0.00     0.275 HD
ENDBRANCH  12  17
ENDBRANCH  11  12
ENDBRANCH   1  11
TORSDOF 5
ENDMDL
