MODEL 10
REMARK VINA RESULT: -4.914994348      1.542      2.212
REMARK  5 active torsions:
REMARK  status: ('A' for Active; 'I' for Inactive)
REMARK    1  A    between atoms: O1_2  and  C2_3 
REMARK    2  A    between atoms: C2_3  and  C3_5 
REMARK    3  A    between atoms: C3_5  and  N1_6 
REMARK    4  A    between atoms: C3_5  and  C4_10 
REMARK    5  A    between atoms: C4_10  and  C5_11 
ROOT
HETATM    1  C5  UNL     1      21.131   7.816  -2.607  1.00  0.00    -0.028 A 
HETATM    2  C6  UNL     1      20.574   9.082  -2.461  1.00  0.00     0.096 A 
HETATM    3  N2  UNL     1      19.321   8.908  -2.024  1.00  0.00    -0.365 N 
ATOM      4  H2  UNL     1      18.662   9.659  -1.823  1.00  0.00     0.165 HD
HETATM    5  C7  UNL     1      19.056   7.582  -1.887  1.00  0.00     0.042 A 
HETATM    6  C8  UNL     1      17.923   6.909  -1.489  1.00  0.00     0.030 A 
HETATM    7  C9  UNL     1      17.955   5.531  -1.470  1.00  0.00     0.002 A 
HETATM    8  C10 UNL     1      19.076   4.814  -1.831  1.00  0.00     0.001 A 
HETATM    9  C11 UNL     1      20.199   5.473  -2.224  1.00  0.00     0.014 A 
HETATM   10  C12 UNL     1      20.174   6.860  -2.245  1.00  0.00    -0.002 A 
ENDROOT
BRANCH   1  11
HETATM   11  C4  UNL     1      22.512   7.541  -3.037  1.00  0.00     0.084 C 
BRANCH  11  12
HETATM   12  C3  UNL     1      22.752   7.544  -4.512  1.00  0.00     0.286 C 
BRANCH  12  13
HETATM   13  C2  UNL     1      21.735   6.892  -5.338  1.00  0.00     0.289 C 
HETATM   14  O2  UNL     1      20.911   7.594  -6.000  1.00  0.00    -0.263 OA
BRANCH  13  15
HETATM   15  O1  UNL     1      21.584   5.497  -5.466  1.00  0.00    -0.325 OA
HETATM   16  C1  UNL     1      22.749   4.674  -5.433  1.00  0.00     0.213 C 
ENDBRANCH  13  15
ENDBRANCH  12  13
BRANCH  12  17
HETATM   17  N1  UNL     1      22.901   8.960  -4.884  1.00  0.00    -0.066 N 
ATOM     18  H13 UNL     1      23.868   9.273  -4.792  1.00  0.00     0.275 HD
ATOM     19  H12 UNL     1      22.788   9.101  -5.888  1.00  0.00     0.275 HD
ATOM     20  H11 UNL     1      22.263   9.547  -4.347  1.00  0.00     0.275 HD
ENDBRANCH  12  17
ENDBRANCH  11  12
ENDBRANCH   1  11
TORSDOF 5
ENDMDL
