MODEL 6
REMARK VINA RESULT: -5.037639131      1.959      2.635
REMARK  5 active torsions:
REMARK  status: ('A' for Active; 'I' for Inactive)
REMARK    1  A    between atoms: O1_2  and  C2_3 
REMARK    2  A    between atoms: C2_3  and  C3_5 
REMARK    3  A    between atoms: C3_5  and  N1_6 
REMARK    4  A    between atoms: C3_5  and  C4_10 
REMARK    5  A    between atoms: C4_10  and  C5_11 
ROOT
HETATM    1  C5  UNL     1      21.107   8.047  -2.806  1.00  0.00    -0.028 A 
HETATM    2  C6  UNL     1      20.422   9.206  -2.457  1.00  0.00     0.096 A 
HETATM    3  N2  UNL     1      19.270   8.823  -1.895  1.00  0.00    -0.365 N 
ATOM      4  H2  UNL     1      18.556   9.456  -1.535  1.00  0.00     0.165 HD
HETATM    5  C7  UNL     1      19.192   7.466  -1.872  1.00  0.00     0.042 A 
HETATM    6  C8  UNL     1      18.214   6.611  -1.417  1.00  0.00     0.030 A 
HETATM    7  C9  UNL     1      18.419   5.255  -1.552  1.00  0.00     0.002 A 
HETATM    8  C10 UNL     1      19.561   4.734  -2.121  1.00  0.00     0.001 A 
HETATM    9  C11 UNL     1      20.532   5.574  -2.571  1.00  0.00     0.014 A 
HETATM   10  C12 UNL     1      20.333   6.941  -2.439  1.00  0.00    -0.002 A 
ENDROOT
BRANCH   1  11
HETATM   11  C4  UNL     1      22.442   8.004  -3.427  1.00  0.00     0.084 C 
BRANCH  11  12
HETATM   12  C3  UNL     1      22.511   8.418  -4.861  1.00  0.00     0.286 C 
BRANCH  12  13
HETATM   13  C2  UNL     1      22.571   9.857  -5.120  1.00  0.00     0.289 C 
HETATM   14  O2  UNL     1      23.217  10.616  -4.334  1.00  0.00    -0.263 OA
BRANCH  13  15
HETATM   15  O1  UNL     1      21.949  10.499  -6.210  1.00  0.00    -0.325 OA
HETATM   16  C1  UNL     1      21.141   9.724  -7.093  1.00  0.00     0.213 C 
ENDBRANCH  13  15
ENDBRANCH  12  13
BRANCH  12  17
HETATM   17  N1  UNL     1      23.693   7.736  -5.412  1.00  0.00    -0.066 N 
ATOM     18  H13 UNL     1      23.714   7.782  -6.430  1.00  0.00     0.275 HD
ATOM     19  H12 UNL     1      24.552   8.251  -5.216  1.00  0.00     0.275 HD
ATOM     20  H11 UNL     1      23.747   6.773  -5.077  1.00  0.00     0.275 HD
ENDBRANCH  12  17
ENDBRANCH  11  12
ENDBRANCH   1  11
TORSDOF 5
ENDMDL
