MODEL 20
REMARK VINA RESULT: -4.388627164      2.950      6.210
REMARK  5 active torsions:
REMARK  status: ('A' for Active; 'I' for Inactive)
REMARK    1  A    between atoms: O1_2  and  C2_3 
REMARK    2  A    between atoms: C2_3  and  C3_5 
REMARK    3  A    between atoms: C3_5  and  N1_6 
REMARK    4  A    between atoms: C3_5  and  C4_10 
REMARK    5  A    between atoms: C4_10  and  C5_11 
ROOT
HETATM    1  C5  UNL     1      22.329   7.762  -7.047  1.00  0.00    -0.028 A 
HETATM    2  C6  UNL     1      22.612   6.409  -6.886  1.00  0.00     0.096 A 
HETATM    3  N2  UNL     1      22.680   5.877  -8.111  1.00  0.00    -0.365 N 
ATOM      4  H2  UNL     1      22.875   4.897  -8.313  1.00  0.00     0.165 HD
HETATM    5  C7  UNL     1      22.449   6.835  -9.048  1.00  0.00     0.042 A 
HETATM    6  C8  UNL     1      22.398   6.779 -10.423  1.00  0.00     0.030 A 
HETATM    7  C9  UNL     1      22.118   7.940 -11.111  1.00  0.00     0.002 A 
HETATM    8  C10 UNL     1      21.891   9.140 -10.474  1.00  0.00     0.001 A 
HETATM    9  C11 UNL     1      21.942   9.202  -9.116  1.00  0.00     0.014 A 
HETATM   10  C12 UNL     1      22.224   8.037  -8.415  1.00  0.00    -0.002 A 
ENDROOT
BRANCH   1  11
HETATM   11  C4  UNL     1      22.199   8.738  -5.953  1.00  0.00     0.084 C 
BRANCH  11  12
HETATM   12  C3  UNL     1      20.910   8.709  -5.198  1.00  0.00     0.286 C 
BRANCH  12  13
HETATM   13  C2  UNL     1      20.907   9.367  -3.891  1.00  0.00     0.289 C 
HETATM   14  O2  UNL     1      21.939   9.988  -3.492  1.00  0.00    -0.263 OA
BRANCH  13  15
HETATM   15  O1  UNL     1      19.814   9.371  -3.001  1.00  0.00    -0.325 OA
HETATM   16  C1  UNL     1      19.547   8.197  -2.236  1.00  0.00     0.213 C 
ENDBRANCH  13  15
ENDBRANCH  12  13
BRANCH  12  17
HETATM   17  N1  UNL     1      19.914   9.317  -6.094  1.00  0.00    -0.066 N 
ATOM     18  H13 UNL     1      19.032   8.805  -6.079  1.00  0.00     0.275 HD
ATOM     19  H12 UNL     1      19.580  10.212  -5.735  1.00  0.00     0.275 HD
ATOM     20  H11 UNL     1      20.283   9.405  -7.041  1.00  0.00     0.275 HD
ENDBRANCH  12  17
ENDBRANCH  11  12
ENDBRANCH   1  11
TORSDOF 5
ENDMDL
