MODEL 18
REMARK VINA RESULT: -4.114120620      2.763      4.575
REMARK  1 active torsions:
REMARK  status: ('A' for Active; 'I' for Inactive)
REMARK    1  A    between atoms: O1_1  and  C1_3 
ROOT
HETATM    1  C1  UNL     1      20.465   8.639  -2.898  1.00  0.00     0.066 A 
HETATM    2  C2  UNL     1      21.485   8.014  -2.212  1.00  0.00     0.037 A 
HETATM    3  C3  UNL     1      22.510   7.364  -2.891  1.00  0.00     0.015 A 
HETATM    4  C4  UNL     1      22.545   7.318  -4.269  1.00  0.00    -0.026 A 
HETATM    5  C5  UNL     1      23.561   6.673  -4.948  1.00  0.00     0.012 A 
HETATM    6  C6  UNL     1      23.603   6.623  -6.335  1.00  0.00     0.001 A 
HETATM    7  C7  UNL     1      22.588   7.245  -7.032  1.00  0.00     0.001 A 
HETATM    8  C8  UNL     1      21.576   7.888  -6.350  1.00  0.00     0.012 A 
HETATM    9  C9  UNL     1      21.532   7.939  -4.965  1.00  0.00    -0.023 A 
HETATM   10  C10 UNL     1      20.520   8.581  -4.276  1.00  0.00     0.048 A 
ENDROOT
BRANCH   1  11
HETATM   11  O1  UNL     1      19.428   9.296  -2.230  1.00  0.00    -0.361 OA
ATOM     12  H1  UNL     1      18.961  10.021  -2.629  1.00  0.00     0.217 HD
ENDBRANCH   1  11
TORSDOF 1
ENDMDL
