MODEL 8
REMARK VINA RESULT: -4.642128030      2.511      4.198
REMARK  1 active torsions:
REMARK  status: ('A' for Active; 'I' for Inactive)
REMARK    1  A    between atoms: O1_1  and  C1_3 
ROOT
HETATM    1  C1  UNL     1      20.174   8.418  -2.950  1.00  0.00     0.066 A 
HETATM    2  C2  UNL     1      20.418   7.182  -2.387  1.00  0.00     0.037 A 
HETATM    3  C3  UNL     1      21.063   6.183  -3.109  1.00  0.00     0.015 A 
HETATM    4  C4  UNL     1      21.480   6.388  -4.408  1.00  0.00    -0.026 A 
HETATM    5  C5  UNL     1      22.120   5.398  -5.128  1.00  0.00     0.012 A 
HETATM    6  C6  UNL     1      22.543   5.598  -6.436  1.00  0.00     0.001 A 
HETATM    7  C7  UNL     1      22.304   6.829  -7.008  1.00  0.00     0.001 A 
HETATM    8  C8  UNL     1      21.664   7.814  -6.285  1.00  0.00     0.012 A 
HETATM    9  C9  UNL     1      21.241   7.618  -4.980  1.00  0.00    -0.023 A 
HETATM   10  C10 UNL     1      20.599   8.601  -4.249  1.00  0.00     0.048 A 
ENDROOT
BRANCH   1  11
HETATM   11  O1  UNL     1      19.527   9.432  -2.237  1.00  0.00    -0.361 OA
ATOM     12  H1  UNL     1      19.663  10.349  -2.443  1.00  0.00     0.217 HD
ENDBRANCH   1  11
TORSDOF 1
ENDMDL
