MODEL 10
REMARK VINA RESULT: -4.509424851      2.692      4.276
REMARK  1 active torsions:
REMARK  status: ('A' for Active; 'I' for Inactive)
REMARK    1  A    between atoms: O1_1  and  C1_3 
ROOT
HETATM    1  C1  UNL     1      19.859   7.871  -2.411  1.00  0.00     0.066 A 
HETATM    2  C2  UNL     1      20.444   6.622  -2.432  1.00  0.00     0.037 A 
HETATM    3  C3  UNL     1      21.200   6.207  -3.524  1.00  0.00     0.015 A 
HETATM    4  C4  UNL     1      21.392   7.022  -4.620  1.00  0.00    -0.026 A 
HETATM    5  C5  UNL     1      22.141   6.613  -5.706  1.00  0.00     0.012 A 
HETATM    6  C6  UNL     1      22.339   7.429  -6.812  1.00  0.00     0.001 A 
HETATM    7  C7  UNL     1      21.758   8.680  -6.801  1.00  0.00     0.001 A 
HETATM    8  C8  UNL     1      21.010   9.084  -5.715  1.00  0.00     0.012 A 
HETATM    9  C9  UNL     1      20.812   8.271  -4.609  1.00  0.00    -0.023 A 
HETATM   10  C10 UNL     1      20.064   8.670  -3.517  1.00  0.00     0.048 A 
ENDROOT
BRANCH   1  11
HETATM   11  O1  UNL     1      19.096   8.303  -1.321  1.00  0.00    -0.361 OA
ATOM     12  H1  UNL     1      19.371   9.035  -0.782  1.00  0.00     0.217 HD
ENDBRANCH   1  11
TORSDOF 1
ENDMDL
