MODEL 3
REMARK VINA RESULT: -5.336965211      0.827      2.092
REMARK  1 active torsions:
REMARK  status: ('A' for Active; 'I' for Inactive)
REMARK    1  A    between atoms: O1_1  and  C1_3 
ROOT
HETATM    1  C1  UNL     1      22.362   6.216  -2.941  1.00  0.00     0.066 A 
HETATM    2  C2  UNL     1      22.140   7.573  -2.833  1.00  0.00     0.037 A 
HETATM    3  C3  UNL     1      20.908   8.063  -2.414  1.00  0.00     0.015 A 
HETATM    4  C4  UNL     1      19.866   7.217  -2.095  1.00  0.00    -0.026 A 
HETATM    5  C5  UNL     1      18.641   7.700  -1.679  1.00  0.00     0.012 A 
HETATM    6  C6  UNL     1      17.588   6.855  -1.355  1.00  0.00     0.001 A 
HETATM    7  C7  UNL     1      17.799   5.496  -1.460  1.00  0.00     0.001 A 
HETATM    8  C8  UNL     1      19.025   5.018  -1.876  1.00  0.00     0.012 A 
HETATM    9  C9  UNL     1      20.077   5.861  -2.199  1.00  0.00    -0.023 A 
HETATM   10  C10 UNL     1      21.308   5.388  -2.616  1.00  0.00     0.048 A 
ENDROOT
BRANCH   1  11
HETATM   11  O1  UNL     1      23.595   5.707  -3.361  1.00  0.00    -0.361 OA
ATOM     12  H1  UNL     1      24.401   5.920  -2.905  1.00  0.00     0.217 HD
ENDBRANCH   1  11
TORSDOF 1
ENDMDL
