MODEL 6
REMARK VINA RESULT: -4.957407709      1.586      2.610
REMARK  1 active torsions:
REMARK  status: ('A' for Active; 'I' for Inactive)
REMARK    1  A    between atoms: O1_1  and  C1_3 
ROOT
HETATM    1  C1  UNL     1      22.305   4.856  -3.320  1.00  0.00     0.066 A 
HETATM    2  C2  UNL     1      22.935   6.028  -3.685  1.00  0.00     0.037 A 
HETATM    3  C3  UNL     1      22.342   7.263  -3.440  1.00  0.00     0.015 A 
HETATM    4  C4  UNL     1      21.110   7.362  -2.828  1.00  0.00    -0.026 A 
HETATM    5  C5  UNL     1      20.518   8.586  -2.584  1.00  0.00     0.012 A 
HETATM    6  C6  UNL     1      19.278   8.694  -1.968  1.00  0.00     0.001 A 
HETATM    7  C7  UNL     1      18.640   7.528  -1.599  1.00  0.00     0.001 A 
HETATM    8  C8  UNL     1      19.235   6.308  -1.846  1.00  0.00     0.012 A 
HETATM    9  C9  UNL     1      20.472   6.199  -2.460  1.00  0.00    -0.023 A 
HETATM   10  C10 UNL     1      21.074   4.979  -2.709  1.00  0.00     0.048 A 
ENDROOT
BRANCH   1  11
HETATM   11  O1  UNL     1      22.888   3.608  -3.559  1.00  0.00    -0.361 OA
ATOM     12  H1  UNL     1      23.087   3.008  -2.849  1.00  0.00     0.217 HD
ENDBRANCH   1  11
TORSDOF 1
ENDMDL
