MODEL 2
REMARK VINA RESULT: -5.646140552      1.607      2.505
REMARK  1 active torsions:
REMARK  status: ('A' for Active; 'I' for Inactive)
REMARK    1  A    between atoms: O1_1  and  C1_3 
ROOT
HETATM    1  C1  UNL     1      19.172   7.866  -2.063  1.00  0.00     0.076 A 
HETATM    2  C2  UNL     1      18.066   7.244  -1.501  1.00  0.00     0.037 A 
HETATM    3  C3  UNL     1      17.988   5.870  -1.411  1.00  0.00     0.004 A 
HETATM    4  C4  UNL     1      19.055   5.115  -1.904  1.00  0.00     0.012 A 
HETATM    5  C5  UNL     1      20.167   5.703  -2.468  1.00  0.00    -0.023 A 
HETATM    6  C6  UNL     1      21.234   4.966  -2.962  1.00  0.00     0.012 A 
HETATM    7  C7  UNL     1      22.330   5.596  -3.520  1.00  0.00     0.001 A 
HETATM    8  C8  UNL     1      22.401   6.970  -3.605  1.00  0.00     0.001 A 
HETATM    9  C9  UNL     1      21.328   7.688  -3.108  1.00  0.00     0.015 A 
HETATM   10  C10 UNL     1      20.223   7.081  -2.547  1.00  0.00     0.007 A 
ENDROOT
BRANCH   1  11
HETATM   11  O1  UNL     1      19.280   9.249  -2.167  1.00  0.00    -0.360 OA
ATOM     12  H1  UNL     1      18.999   9.728  -2.938  1.00  0.00     0.217 HD
ENDBRANCH   1  11
TORSDOF 1
ENDMDL
