MODEL 17
REMARK VINA RESULT: -3.859620637      6.890      7.388
REMARK  1 active torsions:
REMARK  status: ('A' for Active; 'I' for Inactive)
REMARK    1  A    between atoms: O1_1  and  C1_3 
ROOT
HETATM    1  C1  UNL     1      24.766   6.290   0.641  1.00  0.00     0.076 A 
HETATM    2  C2  UNL     1      24.567   7.649   0.832  1.00  0.00     0.037 A 
HETATM    3  C3  UNL     1      24.956   8.271   2.000  1.00  0.00     0.004 A 
HETATM    4  C4  UNL     1      25.556   7.494   2.993  1.00  0.00     0.012 A 
HETATM    5  C5  UNL     1      25.767   6.141   2.834  1.00  0.00    -0.023 A 
HETATM    6  C6  UNL     1      26.361   5.356   3.811  1.00  0.00     0.012 A 
HETATM    7  C7  UNL     1      26.553   4.002   3.611  1.00  0.00     0.001 A 
HETATM    8  C8  UNL     1      26.164   3.389   2.440  1.00  0.00     0.001 A 
HETATM    9  C9  UNL     1      25.572   4.186   1.478  1.00  0.00     0.015 A 
HETATM   10  C10 UNL     1      25.370   5.539   1.656  1.00  0.00     0.007 A 
ENDROOT
BRANCH   1  11
HETATM   11  O1  UNL     1      24.386   5.634  -0.526  1.00  0.00    -0.360 OA
ATOM     12  H1  UNL     1      23.882   4.829  -0.520  1.00  0.00     0.217 HD
ENDBRANCH   1  11
TORSDOF 1
ENDMDL
