MODEL 11
REMARK VINA RESULT: -4.298292876      2.224      3.004
REMARK  1 active torsions:
REMARK  status: ('A' for Active; 'I' for Inactive)
REMARK    1  A    between atoms: O1_1  and  C1_3 
ROOT
HETATM    1  C1  UNL     1      20.440   8.475  -3.982  1.00  0.00     0.076 A 
HETATM    2  C2  UNL     1      19.592   8.832  -2.944  1.00  0.00     0.037 A 
HETATM    3  C3  UNL     1      19.320   7.960  -1.911  1.00  0.00     0.004 A 
HETATM    4  C4  UNL     1      19.922   6.700  -1.936  1.00  0.00     0.012 A 
HETATM    5  C5  UNL     1      20.769   6.315  -2.952  1.00  0.00    -0.023 A 
HETATM    6  C6  UNL     1      21.374   5.067  -2.991  1.00  0.00     0.012 A 
HETATM    7  C7  UNL     1      22.217   4.722  -4.030  1.00  0.00     0.001 A 
HETATM    8  C8  UNL     1      22.484   5.599  -5.058  1.00  0.00     0.001 A 
HETATM    9  C9  UNL     1      21.872   6.838  -5.004  1.00  0.00     0.015 A 
HETATM   10  C10 UNL     1      21.027   7.205  -3.977  1.00  0.00     0.007 A 
ENDROOT
BRANCH   1  11
HETATM   11  O1  UNL     1      20.734   9.333  -5.038  1.00  0.00    -0.360 OA
ATOM     12  H1  UNL     1      21.625   9.541  -5.294  1.00  0.00     0.217 HD
ENDBRANCH   1  11
TORSDOF 1
ENDMDL
