MODEL 19
REMARK VINA RESULT: -3.296389386      2.658      4.953
REMARK  0 active torsions:
REMARK  status: ('A' for Active; 'I' for Inactive)
ROOT
HETATM    1  N1  UNL     1      20.443   4.830  -2.557  1.00  0.00    -0.074 NA
HETATM    2  C1  UNL     1      20.788   5.832  -3.527  1.00  0.00     0.159 A 
HETATM    3  N2  UNL     1      20.323   7.044  -3.699  1.00  0.00    -0.338 N 
ATOM      4  H2  UNL     1      19.595   7.396  -3.077  1.00  0.00     0.167 HD
HETATM    5  C2  UNL     1      20.777   7.807  -4.655  1.00  0.00     0.051 A 
HETATM    6  C3  UNL     1      20.360   9.108  -4.933  1.00  0.00     0.031 A 
HETATM    7  C4  UNL     1      20.925   9.801  -5.973  1.00  0.00     0.002 A 
HETATM    8  C5  UNL     1      21.905   9.294  -6.792  1.00  0.00     0.002 A 
HETATM    9  C6  UNL     1      22.319   8.006  -6.519  1.00  0.00     0.021 A 
HETATM   10  C7  UNL     1      21.752   7.285  -5.459  1.00  0.00     0.034 A 
HETATM   11  S1  UNL     1      21.948   5.720  -4.779  1.00  0.00    -0.055 SA
ENDROOT
TORSDOF 0
ENDMDL
