MODEL 1
REMARK VINA RESULT: -4.832678654      0.000      0.000
REMARK  0 active torsions:
REMARK  status: ('A' for Active; 'I' for Inactive)
ROOT
HETATM    1  N1  UNL     1      21.903   9.478  -4.330  1.00  0.00    -0.074 NA
HETATM    2  C1  UNL     1      21.035   8.561  -3.643  1.00  0.00     0.159 A 
HETATM    3  N2  UNL     1      21.031   7.253  -3.617  1.00  0.00    -0.338 N 
ATOM      4  H2  UNL     1      21.731   6.737  -4.149  1.00  0.00     0.167 HD
HETATM    5  C2  UNL     1      20.143   6.598  -2.919  1.00  0.00     0.051 A 
HETATM    6  C3  UNL     1      20.041   5.212  -2.816  1.00  0.00     0.031 A 
HETATM    7  C4  UNL     1      19.056   4.653  -2.044  1.00  0.00     0.002 A 
HETATM    8  C5  UNL     1      18.126   5.380  -1.338  1.00  0.00     0.002 A 
HETATM    9  C6  UNL     1      18.225   6.753  -1.439  1.00  0.00     0.021 A 
HETATM   10  C7  UNL     1      19.228   7.340  -2.224  1.00  0.00     0.034 A 
HETATM   11  S1  UNL     1      19.712   8.937  -2.627  1.00  0.00    -0.055 SA
ENDROOT
TORSDOF 0
ENDMDL
