MODEL 12
REMARK VINA RESULT: -3.691464320      3.118      5.380
REMARK  0 active torsions:
REMARK  status: ('A' for Active; 'I' for Inactive)
ROOT
HETATM    1  N1  UNL     1      19.315   8.756  -2.522  1.00  0.00    -0.074 NA
HETATM    2  C1  UNL     1      20.003   8.669  -3.780  1.00  0.00     0.159 A 
HETATM    3  N2  UNL     1      20.116   9.541  -4.749  1.00  0.00    -0.338 N 
ATOM      4  H2  UNL     1      19.666  10.452  -4.660  1.00  0.00     0.167 HD
HETATM    5  C2  UNL     1      20.796   9.262  -5.828  1.00  0.00     0.051 A 
HETATM    6  C3  UNL     1      20.984  10.108  -6.919  1.00  0.00     0.031 A 
HETATM    7  C4  UNL     1      21.725   9.686  -7.993  1.00  0.00     0.002 A 
HETATM    8  C5  UNL     1      22.318   8.449  -8.080  1.00  0.00     0.002 A 
HETATM    9  C6  UNL     1      22.133   7.609  -7.000  1.00  0.00     0.021 A 
HETATM   10  C7  UNL     1      21.378   8.026  -5.894  1.00  0.00     0.034 A 
HETATM   11  S1  UNL     1      20.903   7.348  -4.390  1.00  0.00    -0.055 SA
ENDROOT
TORSDOF 0
ENDMDL
