MODEL 15
REMARK VINA RESULT: -4.086322505      3.123      4.226
REMARK  2 active torsions:
REMARK  status: ('A' for Active; 'I' for Inactive)
REMARK    1  A    between atoms: O1_2  and  C2_3 
REMARK    2  A    between atoms: C2_3  and  C3_5 
ROOT
HETATM    1  C3  UNL     1      21.382   9.404  -3.231  1.00  0.00     0.052 A 
HETATM    2  C4  UNL     1      20.031   9.482  -2.858  1.00  0.00     0.018 A 
HETATM    3  C5  UNL     1      19.322   8.421  -2.361  1.00  0.00     0.003 A 
HETATM    4  C6  UNL     1      19.999   7.233  -2.232  1.00  0.00     0.030 A 
HETATM    5  C7  UNL     1      21.339   7.101  -2.588  1.00  0.00     0.043 A 
HETATM    6  N1  UNL     1      22.205   6.079  -2.561  1.00  0.00    -0.365 N 
ATOM      7  H1  UNL     1      21.986   5.135  -2.240  1.00  0.00     0.165 HD
HETATM    8  C8  UNL     1      23.398   6.475  -3.018  1.00  0.00     0.089 A 
HETATM    9  C9  UNL     1      23.333   7.799  -3.362  1.00  0.00     0.032 A 
HETATM   10  C10 UNL     1      22.024   8.200  -3.088  1.00  0.00     0.008 A 
ENDROOT
BRANCH   1  11
HETATM   11  C2  UNL     1      22.061  10.574  -3.749  1.00  0.00     0.293 C 
HETATM   12  O2  UNL     1      22.844  11.275  -3.035  1.00  0.00    -0.259 OA
BRANCH  11  13
HETATM   13  O1  UNL     1      21.888  10.985  -5.047  1.00  0.00    -0.322 OA
HETATM   14  C1  UNL     1      22.388  12.214  -5.533  1.00  0.00     0.213 C 
ENDBRANCH  11  13
ENDBRANCH   1  11
TORSDOF 2
ENDMDL
