MODEL 16
REMARK VINA RESULT: -4.042984312      2.874      4.248
REMARK  2 active torsions:
REMARK  status: ('A' for Active; 'I' for Inactive)
REMARK    1  A    between atoms: O1_2  and  C2_3 
REMARK    2  A    between atoms: C2_3  and  C3_5 
ROOT
HETATM    1  C3  UNL     1      20.854   8.828  -4.701  1.00  0.00     0.052 A 
HETATM    2  C4  UNL     1      20.228   9.425  -3.595  1.00  0.00     0.018 A 
HETATM    3  C5  UNL     1      19.889   8.742  -2.458  1.00  0.00     0.003 A 
HETATM    4  C6  UNL     1      20.192   7.403  -2.431  1.00  0.00     0.030 A 
HETATM    5  C7  UNL     1      20.812   6.761  -3.500  1.00  0.00     0.043 A 
HETATM    6  N1  UNL     1      21.203   5.497  -3.718  1.00  0.00    -0.365 N 
ATOM      7  H1  UNL     1      21.092   4.728  -3.056  1.00  0.00     0.165 HD
HETATM    8  C8  UNL     1      21.760   5.391  -4.929  1.00  0.00     0.089 A 
HETATM    9  C9  UNL     1      21.743   6.614  -5.544  1.00  0.00     0.032 A 
HETATM   10  C10 UNL     1      21.140   7.488  -4.636  1.00  0.00     0.008 A 
ENDROOT
BRANCH   1  11
HETATM   11  C2  UNL     1      21.180   9.622  -5.868  1.00  0.00     0.293 C 
HETATM   12  O2  UNL     1      20.464   9.610  -6.918  1.00  0.00    -0.259 OA
BRANCH  11  13
HETATM   13  O1  UNL     1      22.289  10.431  -5.895  1.00  0.00    -0.322 OA
HETATM   14  C1  UNL     1      22.232  11.815  -5.616  1.00  0.00     0.213 C 
ENDBRANCH  11  13
ENDBRANCH   1  11
TORSDOF 2
ENDMDL
