MODEL 17
REMARK VINA RESULT: -4.021707505      2.852      4.783
REMARK  2 active torsions:
REMARK  status: ('A' for Active; 'I' for Inactive)
REMARK    1  A    between atoms: O1_2  and  C2_3 
REMARK    2  A    between atoms: C2_3  and  C3_5 
ROOT
HETATM    1  C3  UNL     1      20.585   8.325  -4.202  1.00  0.00     0.052 A 
HETATM    2  C4  UNL     1      20.681   9.110  -5.362  1.00  0.00     0.018 A 
HETATM    3  C5  UNL     1      21.319   8.699  -6.502  1.00  0.00     0.003 A 
HETATM    4  C6  UNL     1      21.884   7.448  -6.475  1.00  0.00     0.030 A 
HETATM    5  C7  UNL     1      21.818   6.628  -5.350  1.00  0.00     0.043 A 
HETATM    6  N1  UNL     1      22.276   5.399  -5.075  1.00  0.00    -0.365 N 
ATOM      7  H1  UNL     1      22.803   4.813  -5.723  1.00  0.00     0.165 HD
HETATM    8  C8  UNL     1      21.943   5.054  -3.827  1.00  0.00     0.089 A 
HETATM    9  C9  UNL     1      21.243   6.078  -3.245  1.00  0.00     0.032 A 
HETATM   10  C10 UNL     1      21.162   7.081  -4.214  1.00  0.00     0.008 A 
ENDROOT
BRANCH   1  11
HETATM   11  C2  UNL     1      19.891   8.834  -3.037  1.00  0.00     0.293 C 
HETATM   12  O2  UNL     1      20.252   9.898  -2.444  1.00  0.00    -0.259 OA
BRANCH  11  13
HETATM   13  O1  UNL     1      18.802   8.184  -2.512  1.00  0.00    -0.322 OA
HETATM   14  C1  UNL     1      18.754   7.726  -1.177  1.00  0.00     0.213 C 
ENDBRANCH  11  13
ENDBRANCH   1  11
TORSDOF 2
ENDMDL
