MODEL 3
REMARK VINA RESULT: -4.952969259      0.666      1.371
REMARK  2 active torsions:
REMARK  status: ('A' for Active; 'I' for Inactive)
REMARK    1  A    between atoms: O1_2  and  C2_3 
REMARK    2  A    between atoms: C2_3  and  C3_5 
ROOT
HETATM    1  C3  UNL     1      20.526   5.941  -2.997  1.00  0.00     0.052 A 
HETATM    2  C4  UNL     1      19.612   5.074  -2.379  1.00  0.00     0.018 A 
HETATM    3  C5  UNL     1      18.536   5.505  -1.650  1.00  0.00     0.003 A 
HETATM    4  C6  UNL     1      18.372   6.864  -1.539  1.00  0.00     0.030 A 
HETATM    5  C7  UNL     1      19.249   7.768  -2.132  1.00  0.00     0.043 A 
HETATM    6  N1  UNL     1      19.309   9.107  -2.171  1.00  0.00    -0.365 N 
ATOM      7  H1  UNL     1      18.645   9.736  -1.720  1.00  0.00     0.165 HD
HETATM    8  C8  UNL     1      20.368   9.498  -2.888  1.00  0.00     0.089 A 
HETATM    9  C9  UNL     1      21.040   8.395  -3.342  1.00  0.00     0.032 A 
HETATM   10  C10 UNL     1      20.329   7.292  -2.863  1.00  0.00     0.008 A 
ENDROOT
BRANCH   1  11
HETATM   11  C2  UNL     1      21.641   5.404  -3.752  1.00  0.00     0.293 C 
HETATM   12  O2  UNL     1      21.613   5.299  -5.018  1.00  0.00    -0.259 OA
BRANCH  11  13
HETATM   13  O1  UNL     1      22.788   4.980  -3.129  1.00  0.00    -0.322 OA
HETATM   14  C1  UNL     1      23.773   5.871  -2.650  1.00  0.00     0.213 C 
ENDBRANCH  11  13
ENDBRANCH   1  11
TORSDOF 2
ENDMDL
