MODEL 1
REMARK VINA RESULT: -5.032050613      0.000      0.000
REMARK  2 active torsions:
REMARK  status: ('A' for Active; 'I' for Inactive)
REMARK    1  A    between atoms: O1_2  and  C2_3 
REMARK    2  A    between atoms: C2_3  and  C3_5 
ROOT
HETATM    1  C3  UNL     1      20.545   5.952  -2.956  1.00  0.00     0.052 A 
HETATM    2  C4  UNL     1      19.612   5.090  -2.359  1.00  0.00     0.018 A 
HETATM    3  C5  UNL     1      18.519   5.528  -1.659  1.00  0.00     0.003 A 
HETATM    4  C6  UNL     1      18.358   6.888  -1.556  1.00  0.00     0.030 A 
HETATM    5  C7  UNL     1      19.255   7.787  -2.129  1.00  0.00     0.043 A 
HETATM    6  N1  UNL     1      19.322   9.125  -2.170  1.00  0.00    -0.365 N 
ATOM      7  H1  UNL     1      18.649   9.758  -1.737  1.00  0.00     0.165 HD
HETATM    8  C8  UNL     1      20.401   9.509  -2.860  1.00  0.00     0.089 A 
HETATM    9  C9  UNL     1      21.079   8.401  -3.295  1.00  0.00     0.032 A 
HETATM   10  C10 UNL     1      20.351   7.303  -2.831  1.00  0.00     0.008 A 
ENDROOT
BRANCH   1  11
HETATM   11  C2  UNL     1      21.676   5.408  -3.681  1.00  0.00     0.293 C 
HETATM   12  O2  UNL     1      22.785   5.154  -3.115  1.00  0.00    -0.259 OA
BRANCH  11  13
HETATM   13  O1  UNL     1      21.602   5.139  -5.025  1.00  0.00    -0.322 OA
HETATM   14  C1  UNL     1      22.030   6.055  -6.012  1.00  0.00     0.213 C 
ENDBRANCH  11  13
ENDBRANCH   1  11
TORSDOF 2
ENDMDL
