MODEL 10
REMARK VINA RESULT: -4.310873872      1.813      2.406
REMARK  1 active torsions:
REMARK  status: ('A' for Active; 'I' for Inactive)
REMARK    1  A    between atoms: O1_1  and  C1_3 
ROOT
HETATM    1  C1  UNL     1      10.572  17.136  22.254  1.00  0.00     0.066 A 
HETATM    2  C2  UNL     1      11.055  18.121  21.436  1.00  0.00     0.039 A 
HETATM    3  C3  UNL     1      11.387  17.825  20.128  1.00  0.00     0.033 A 
HETATM    4  C4  UNL     1      11.251  16.560  19.611  1.00  0.00     0.042 A 
HETATM    5  N1  UNL     1      11.508  16.061  18.395  1.00  0.00    -0.365 N 
ATOM      6  H1  UNL     1      11.874  16.593  17.606  1.00  0.00     0.165 HD
HETATM    7  C5  UNL     1      11.208  14.743  18.374  1.00  0.00     0.089 A 
HETATM    8  C6  UNL     1      10.746  14.429  19.636  1.00  0.00     0.030 A 
HETATM    9  C7  UNL     1      10.761  15.553  20.441  1.00  0.00    -0.005 A 
HETATM   10  C8  UNL     1      10.438  15.867  21.729  1.00  0.00     0.050 A 
ENDROOT
BRANCH   1  11
HETATM   11  O1  UNL     1      10.221  17.394  23.594  1.00  0.00    -0.361 OA
ATOM     12  H1  UNL     1       9.606  16.843  24.063  1.00  0.00     0.217 HD
ENDBRANCH   1  11
TORSDOF 1
ENDMDL
