MODEL 9
REMARK VINA RESULT: -4.327983997      2.180      2.744
REMARK  1 active torsions:
REMARK  status: ('A' for Active; 'I' for Inactive)
REMARK    1  A    between atoms: O1_1  and  C1_3 
ROOT
HETATM    1  C1  UNL     1       9.468  16.065  22.793  1.00  0.00     0.066 A 
HETATM    2  C2  UNL     1      10.023  17.227  22.331  1.00  0.00     0.039 A 
HETATM    3  C3  UNL     1      10.616  17.256  21.084  1.00  0.00     0.033 A 
HETATM    4  C4  UNL     1      10.673  16.146  20.279  1.00  0.00     0.042 A 
HETATM    5  N1  UNL     1      11.189  15.953  19.058  1.00  0.00    -0.365 N 
ATOM      6  H1  UNL     1      11.658  16.666  18.500  1.00  0.00     0.165 HD
HETATM    7  C5  UNL     1      10.995  14.670  18.681  1.00  0.00     0.089 A 
HETATM    8  C6  UNL     1      10.328  14.056  19.721  1.00  0.00     0.030 A 
HETATM    9  C7  UNL     1      10.109  14.959  20.745  1.00  0.00    -0.005 A 
HETATM   10  C8  UNL     1       9.528  14.951  21.979  1.00  0.00     0.050 A 
ENDROOT
BRANCH   1  11
HETATM   11  O1  UNL     1       8.853  15.990  24.058  1.00  0.00    -0.361 OA
ATOM     12  H1  UNL     1       9.241  16.392  24.826  1.00  0.00     0.217 HD
ENDBRANCH   1  11
TORSDOF 1
ENDMDL
