MODEL 5
REMARK VINA RESULT: -4.826608448      2.047      2.612
REMARK  1 active torsions:
REMARK  status: ('A' for Active; 'I' for Inactive)
REMARK    1  A    between atoms: O1_1  and  C1_3 
ROOT
HETATM    1  C1  UNL     1      10.195  15.614  22.146  1.00  0.00     0.066 A 
HETATM    2  C2  UNL     1      10.895  16.702  21.701  1.00  0.00     0.039 A 
HETATM    3  C3  UNL     1      11.209  16.814  20.361  1.00  0.00     0.033 A 
HETATM    4  C4  UNL     1      10.843  15.861  19.444  1.00  0.00     0.042 A 
HETATM    5  N1  UNL     1      11.039  15.770  18.123  1.00  0.00    -0.365 N 
ATOM      6  H1  UNL     1      11.534  16.456  17.554  1.00  0.00     0.165 HD
HETATM    7  C5  UNL     1      10.481  14.629  17.659  1.00  0.00     0.089 A 
HETATM    8  C6  UNL     1       9.919  13.999  18.750  1.00  0.00     0.030 A 
HETATM    9  C7  UNL     1      10.129  14.749  19.893  1.00  0.00    -0.005 A 
HETATM   10  C8  UNL     1       9.828  14.658  21.220  1.00  0.00     0.050 A 
ENDROOT
BRANCH   1  11
HETATM   11  O1  UNL     1       9.852  15.459  23.504  1.00  0.00    -0.361 OA
ATOM     12  H1  UNL     1      10.126  14.699  24.003  1.00  0.00     0.217 HD
ENDBRANCH   1  11
TORSDOF 1
ENDMDL
