MODEL 2
REMARK VINA RESULT: -4.837148362      1.388      2.389
REMARK  0 active torsions:
REMARK  status: ('A' for Active; 'I' for Inactive)
ROOT
HETATM    1  C1  UNL     1       5.713   8.292   0.019  1.00  0.00     0.048 C 
HETATM    2  C2  UNL     1       5.731   6.904  -0.521  1.00  0.00    -0.061 A 
HETATM    3  C3  UNL     1       4.586   6.371  -1.074  1.00  0.00     0.009 A 
HETATM    4  C4  UNL     1       4.591   5.083  -1.578  1.00  0.00     0.031 A 
HETATM    5  C5  UNL     1       5.717   4.283  -1.557  1.00  0.00     0.042 A 
HETATM    6  N1  UNL     1       5.979   3.033  -1.969  1.00  0.00    -0.365 N 
ATOM      7  H1  UNL     1       5.303   2.412  -2.414  1.00  0.00     0.165 HD
HETATM    8  C6  UNL     1       7.271   2.712  -1.709  1.00  0.00     0.089 A 
HETATM    9  C7  UNL     1       7.819   3.833  -1.105  1.00  0.00     0.030 A 
HETATM   10  C8  UNL     1       6.859   4.820  -1.004  1.00  0.00    -0.008 A 
HETATM   11  C9  UNL     1       6.855   6.104  -0.500  1.00  0.00     0.020 A 
ENDROOT
TORSDOF 0
ENDMDL
