MODEL 10
REMARK VINA RESULT: -4.216481318      1.488      2.384
REMARK  0 active torsions:
REMARK  status: ('A' for Active; 'I' for Inactive)
ROOT
HETATM    1  C1  UNL     1       3.954   8.036  -0.513  1.00  0.00     0.048 C 
HETATM    2  C2  UNL     1       4.419   6.716  -1.025  1.00  0.00    -0.061 A 
HETATM    3  C3  UNL     1       3.622   6.001  -1.893  1.00  0.00     0.009 A 
HETATM    4  C4  UNL     1       4.043   4.775  -2.375  1.00  0.00     0.031 A 
HETATM    5  C5  UNL     1       5.255   4.216  -2.021  1.00  0.00     0.042 A 
HETATM    6  N1  UNL     1       5.882   3.072  -2.338  1.00  0.00    -0.365 N 
ATOM      7  H1  UNL     1       5.510   2.358  -2.965  1.00  0.00     0.165 HD
HETATM    8  C6  UNL     1       7.080   3.000  -1.706  1.00  0.00     0.089 A 
HETATM    9  C7  UNL     1       7.181   4.167  -0.965  1.00  0.00     0.030 A 
HETATM   10  C8  UNL     1       6.049   4.934  -1.152  1.00  0.00    -0.008 A 
HETATM   11  C9  UNL     1       5.629   6.157  -0.671  1.00  0.00     0.020 A 
ENDROOT
TORSDOF 0
ENDMDL
