MODEL 12
REMARK VINA RESULT: -4.064422940      1.293      1.924
REMARK  0 active torsions:
REMARK  status: ('A' for Active; 'I' for Inactive)
ROOT
HETATM    1  C1  UNL     1       3.841   8.367  -0.905  1.00  0.00     0.048 C 
HETATM    2  C2  UNL     1       4.760   7.195  -0.957  1.00  0.00    -0.061 A 
HETATM    3  C3  UNL     1       6.003   7.275  -0.367  1.00  0.00     0.009 A 
HETATM    4  C4  UNL     1       6.865   6.193  -0.409  1.00  0.00     0.031 A 
HETATM    5  C5  UNL     1       6.533   5.005  -1.029  1.00  0.00     0.042 A 
HETATM    6  N1  UNL     1       7.170   3.837  -1.207  1.00  0.00    -0.365 N 
ATOM      7  H1  UNL     1       8.109   3.628  -0.869  1.00  0.00     0.165 HD
HETATM    8  C6  UNL     1       6.386   2.974  -1.900  1.00  0.00     0.089 A 
HETATM    9  C7  UNL     1       5.210   3.661  -2.156  1.00  0.00     0.030 A 
HETATM   10  C8  UNL     1       5.288   4.930  -1.618  1.00  0.00    -0.008 A 
HETATM   11  C9  UNL     1       4.429   6.008  -1.576  1.00  0.00     0.020 A 
ENDROOT
TORSDOF 0
ENDMDL
