MODEL 5
REMARK VINA RESULT: -4.773054285      1.285      2.036
REMARK  0 active torsions:
REMARK  status: ('A' for Active; 'I' for Inactive)
ROOT
HETATM    1  C1  UNL     1       3.730   6.575  -0.481  1.00  0.00     0.048 C 
HETATM    2  C2  UNL     1       4.685   5.524  -0.930  1.00  0.00    -0.061 A 
HETATM    3  C3  UNL     1       4.221   4.436  -1.638  1.00  0.00     0.009 A 
HETATM    4  C4  UNL     1       5.099   3.454  -2.059  1.00  0.00     0.031 A 
HETATM    5  C5  UNL     1       6.454   3.511  -1.801  1.00  0.00     0.042 A 
HETATM    6  N1  UNL     1       7.492   2.711  -2.091  1.00  0.00    -0.365 N 
ATOM      7  H1  UNL     1       7.426   1.835  -2.609  1.00  0.00     0.165 HD
HETATM    8  C6  UNL     1       8.642   3.234  -1.597  1.00  0.00     0.089 A 
HETATM    9  C7  UNL     1       8.277   4.416  -0.974  1.00  0.00     0.030 A 
HETATM   10  C8  UNL     1       6.914   4.601  -1.094  1.00  0.00    -0.008 A 
HETATM   11  C9  UNL     1       6.039   5.580  -0.672  1.00  0.00     0.020 A 
ENDROOT
TORSDOF 0
ENDMDL
