MODEL 16
REMARK VINA RESULT: -3.903679275      2.642      4.602
REMARK  0 active torsions:
REMARK  status: ('A' for Active; 'I' for Inactive)
ROOT
HETATM    1  C1  UNL     1       6.459   3.359  -1.580  1.00  0.00     0.048 C 
HETATM    2  C2  UNL     1       5.258   4.238  -1.644  1.00  0.00    -0.061 A 
HETATM    3  C3  UNL     1       4.825   4.887  -0.507  1.00  0.00     0.009 A 
HETATM    4  C4  UNL     1       3.711   5.705  -0.554  1.00  0.00     0.031 A 
HETATM    5  C5  UNL     1       2.991   5.912  -1.715  1.00  0.00     0.042 A 
HETATM    6  N1  UNL     1       1.904   6.637  -2.020  1.00  0.00    -0.365 N 
ATOM      7  H1  UNL     1       1.384   7.213  -1.359  1.00  0.00     0.165 HD
HETATM    8  C6  UNL     1       1.595   6.492  -3.333  1.00  0.00     0.089 A 
HETATM    9  C7  UNL     1       2.550   5.631  -3.848  1.00  0.00     0.030 A 
HETATM   10  C8  UNL     1       3.428   5.261  -2.849  1.00  0.00    -0.008 A 
HETATM   11  C9  UNL     1       4.538   4.444  -2.802  1.00  0.00     0.020 A 
ENDROOT
TORSDOF 0
ENDMDL
