MODEL 17
REMARK VINA RESULT: -3.857952810      2.124      3.255
REMARK  0 active torsions:
REMARK  status: ('A' for Active; 'I' for Inactive)
ROOT
HETATM    1  C1  UNL     1       5.796   9.131   0.269  1.00  0.00     0.048 C 
HETATM    2  C2  UNL     1       5.469   7.994  -0.637  1.00  0.00    -0.061 A 
HETATM    3  C3  UNL     1       4.741   8.223  -1.785  1.00  0.00     0.009 A 
HETATM    4  C4  UNL     1       4.432   7.175  -2.633  1.00  0.00     0.031 A 
HETATM    5  C5  UNL     1       4.828   5.876  -2.382  1.00  0.00     0.042 A 
HETATM    6  N1  UNL     1       4.663   4.711  -3.027  1.00  0.00    -0.365 N 
ATOM      7  H1  UNL     1       4.158   4.597  -3.906  1.00  0.00     0.165 HD
HETATM    8  C6  UNL     1       5.262   3.704  -2.342  1.00  0.00     0.089 A 
HETATM    9  C7  UNL     1       5.820   4.297  -1.221  1.00  0.00     0.030 A 
HETATM   10  C8  UNL     1       5.556   5.652  -1.233  1.00  0.00    -0.008 A 
HETATM   11  C9  UNL     1       5.864   6.696  -0.386  1.00  0.00     0.020 A 
ENDROOT
TORSDOF 0
ENDMDL
