MODEL 17
REMARK VINA RESULT: -5.704455496      2.243      6.694
REMARK  7 active torsions:
REMARK  status: ('A' for Active; 'I' for Inactive)
REMARK    1  A    between atoms: O1_1  and  C1_3 
REMARK    2  A    between atoms: C1_3  and  C2_4 
REMARK    3  A    between atoms: C2_4  and  C3_5 
REMARK    4  A    between atoms: C5_7  and  C6_8 
REMARK    5  A    between atoms: C9_13  and  O2_14 
REMARK    6  A    between atoms: O2_14  and  C10_15 
REMARK    7  A    between atoms: C10_15  and  C11_16 
ROOT
HETATM    1  C6  UNL     1      14.901  27.250  20.686  1.00  0.00    -0.035 A 
HETATM    2  C7  UNL     1      15.069  26.003  21.259  1.00  0.00     0.095 A 
HETATM    3  N1  UNL     1      15.417  24.940  20.516  1.00  0.00    -0.372 N 
ATOM      4  H1  UNL     1      15.529  24.038  20.978  1.00  0.00     0.164 HD
HETATM    5  C8  UNL     1      15.625  25.013  19.170  1.00  0.00     0.124 A 
HETATM    6  C9  UNL     1      15.477  26.224  18.541  1.00  0.00     0.084 A 
HETATM    7  C14 UNL     1      15.112  27.327  19.334  1.00  0.00     0.047 A 
ENDROOT
BRANCH   6   8
HETATM    8  O2  UNL     1      15.668  26.413  17.190  1.00  0.00    -0.348 OA
BRANCH   8   9
HETATM    9  C10 UNL     1      15.937  25.397  16.282  1.00  0.00     0.208 C 
BRANCH   9  10
HETATM   10  C11 UNL     1      16.234  25.968  14.936  1.00  0.00     0.211 C 
HETATM   11  C12 UNL     1      17.771  26.050  14.666  1.00  0.00     0.062 C 
HETATM   12  C13 UNL     1      17.338  27.258  13.862  1.00  0.00     0.235 C 
HETATM   13  N2  UNL     1      16.277  27.420  14.869  1.00  0.00    -0.069 N 
ATOM     14  H22 UNL     1      15.440  27.968  14.675  1.00  0.00     0.277 HD
ATOM     15  H21 UNL     1      16.420  27.988  15.704  1.00  0.00     0.277 HD
ENDBRANCH   9  10
ENDBRANCH   8   9
ENDBRANCH   6   8
BRANCH   1  16
HETATM   16  C5  UNL     1      14.516  28.452  21.477  1.00  0.00     0.024 A 
HETATM   17  C3  UNL     1      15.412  28.971  22.538  1.00  0.00    -0.003 A 
HETATM   18  C4  UNL     1      14.182  28.147  22.911  1.00  0.00     0.015 A 
BRANCH  17  19
HETATM   19  C2  UNL     1      15.292  30.413  22.901  1.00  0.00     0.031 C 
BRANCH  19  20
HETATM   20  C1  UNL     1      16.605  31.042  23.289  1.00  0.00     0.164 C 
BRANCH  20  21
HETATM   21  O1  UNL     1      17.085  31.942  22.370  1.00  0.00    -0.401 OA
ATOM     22  H1  UNL     1      18.008  31.834  22.171  1.00  0.00     0.209 HD
ENDBRANCH  20  21
ENDBRANCH  19  20
ENDBRANCH  17  19
ENDBRANCH   1  16
TORSDOF 7
ENDMDL
