MODEL 4
REMARK VINA RESULT: -6.742569486      2.188      6.594
REMARK  7 active torsions:
REMARK  status: ('A' for Active; 'I' for Inactive)
REMARK    1  A    between atoms: O1_1  and  C1_3 
REMARK    2  A    between atoms: C1_3  and  C2_4 
REMARK    3  A    between atoms: C2_4  and  C3_5 
REMARK    4  A    between atoms: C5_7  and  C6_8 
REMARK    5  A    between atoms: C9_13  and  O2_14 
REMARK    6  A    between atoms: O2_14  and  C10_15 
REMARK    7  A    between atoms: C10_15  and  C11_16 
ROOT
HETATM    1  C6  UNL     1      15.119  26.267  20.179  1.00  0.00    -0.035 A 
HETATM    2  C7  UNL     1      15.001  24.899  20.021  1.00  0.00     0.095 A 
HETATM    3  N1  UNL     1      15.289  24.308  18.850  1.00  0.00    -0.372 N 
ATOM      4  H1  UNL     1      15.188  23.296  18.777  1.00  0.00     0.164 HD
HETATM    5  C8  UNL     1      15.711  25.002  17.755  1.00  0.00     0.124 A 
HETATM    6  C9  UNL     1      15.851  26.365  17.846  1.00  0.00     0.084 A 
HETATM    7  C14 UNL     1      15.544  26.968  19.079  1.00  0.00     0.047 A 
ENDROOT
BRANCH   6   8
HETATM    8  O2  UNL     1      16.274  27.162  16.806  1.00  0.00    -0.348 OA
BRANCH   8   9
HETATM    9  C10 UNL     1      17.475  27.859  16.783  1.00  0.00     0.208 C 
BRANCH   9  10
HETATM   10  C11 UNL     1      18.133  27.719  15.452  1.00  0.00     0.211 C 
HETATM   11  C12 UNL     1      17.094  27.456  14.315  1.00  0.00     0.062 C 
HETATM   12  C13 UNL     1      18.259  26.678  13.739  1.00  0.00     0.235 C 
HETATM   13  N2  UNL     1      18.622  26.387  15.134  1.00  0.00    -0.069 N 
ATOM     14  H22 UNL     1      19.565  26.092  15.388  1.00  0.00     0.277 HD
ATOM     15  H21 UNL     1      18.267  25.560  15.615  1.00  0.00     0.277 HD
ENDBRANCH   9  10
ENDBRANCH   8   9
ENDBRANCH   6   8
BRANCH   1  16
HETATM   16  C5  UNL     1      14.809  26.958  21.462  1.00  0.00     0.024 A 
HETATM   17  C3  UNL     1      14.782  28.438  21.530  1.00  0.00    -0.003 A 
HETATM   18  C4  UNL     1      15.989  27.670  22.062  1.00  0.00     0.015 A 
BRANCH  17  19
HETATM   19  C2  UNL     1      13.958  29.067  22.603  1.00  0.00     0.031 C 
BRANCH  19  20
HETATM   20  C1  UNL     1      12.827  29.908  22.071  1.00  0.00     0.164 C 
BRANCH  20  21
HETATM   21  O1  UNL     1      12.717  29.893  20.703  1.00  0.00    -0.401 OA
ATOM     22  H1  UNL     1      11.866  30.171  20.382  1.00  0.00     0.209 HD
ENDBRANCH  20  21
ENDBRANCH  19  20
ENDBRANCH  17  19
ENDBRANCH   1  16
TORSDOF 7
ENDMDL
