MODEL 7
REMARK VINA RESULT: -6.539846106      2.287      6.666
REMARK  7 active torsions:
REMARK  status: ('A' for Active; 'I' for Inactive)
REMARK    1  A    between atoms: O1_1  and  C1_3 
REMARK    2  A    between atoms: C1_3  and  C2_4 
REMARK    3  A    between atoms: C2_4  and  C3_5 
REMARK    4  A    between atoms: C5_7  and  C6_8 
REMARK    5  A    between atoms: C9_13  and  O2_14 
REMARK    6  A    between atoms: O2_14  and  C10_15 
REMARK    7  A    between atoms: C10_15  and  C11_16 
ROOT
HETATM    1  C6  UNL     1      15.526  27.096  20.395  1.00  0.00    -0.035 A 
HETATM    2  C7  UNL     1      15.138  25.787  20.613  1.00  0.00     0.095 A 
HETATM    3  N1  UNL     1      15.220  24.867  19.638  1.00  0.00    -0.372 N 
ATOM      4  H1  UNL     1      14.923  23.913  19.841  1.00  0.00     0.164 HD
HETATM    5  C8  UNL     1      15.684  25.153  18.387  1.00  0.00     0.124 A 
HETATM    6  C9  UNL     1      16.088  26.435  18.106  1.00  0.00     0.084 A 
HETATM    7  C14 UNL     1      15.994  27.386  19.139  1.00  0.00     0.047 A 
ENDROOT
BRANCH   6   8
HETATM    8  O2  UNL     1      16.576  26.833  16.882  1.00  0.00    -0.348 OA
BRANCH   8   9
HETATM    9  C10 UNL     1      17.460  27.887  16.689  1.00  0.00     0.208 C 
BRANCH   9  10
HETATM   10  C11 UNL     1      18.142  27.758  15.369  1.00  0.00     0.211 C 
HETATM   11  C12 UNL     1      17.126  27.480  14.215  1.00  0.00     0.062 C 
HETATM   12  C13 UNL     1      18.313  26.722  13.657  1.00  0.00     0.235 C 
HETATM   13  N2  UNL     1      18.658  26.435  15.058  1.00  0.00    -0.069 N 
ATOM     14  H22 UNL     1      19.601  26.156  15.326  1.00  0.00     0.277 HD
ATOM     15  H21 UNL     1      18.308  25.602  15.532  1.00  0.00     0.277 HD
ENDBRANCH   9  10
ENDBRANCH   8   9
ENDBRANCH   6   8
BRANCH   1  16
HETATM   16  C5  UNL     1      15.449  28.143  21.451  1.00  0.00     0.024 A 
HETATM   17  C3  UNL     1      15.936  27.862  22.823  1.00  0.00    -0.003 A 
HETATM   18  C4  UNL     1      14.439  27.843  22.524  1.00  0.00     0.015 A 
BRANCH  17  19
HETATM   19  C2  UNL     1      16.359  29.024  23.658  1.00  0.00     0.031 C 
BRANCH  19  20
HETATM   20  C1  UNL     1      17.790  29.436  23.428  1.00  0.00     0.164 C 
BRANCH  20  21
HETATM   21  O1  UNL     1      18.671  28.930  24.351  1.00  0.00    -0.401 OA
ATOM     22  H1  UNL     1      19.572  29.195  24.209  1.00  0.00     0.209 HD
ENDBRANCH  20  21
ENDBRANCH  19  20
ENDBRANCH  17  19
ENDBRANCH   1  16
TORSDOF 7
ENDMDL
