MODEL 5
REMARK VINA RESULT: -6.676789314      2.219      6.240
REMARK  7 active torsions:
REMARK  status: ('A' for Active; 'I' for Inactive)
REMARK    1  A    between atoms: O1_1  and  C1_3 
REMARK    2  A    between atoms: C1_3  and  C2_4 
REMARK    3  A    between atoms: C2_4  and  C3_5 
REMARK    4  A    between atoms: C5_7  and  C6_8 
REMARK    5  A    between atoms: C9_13  and  O2_14 
REMARK    6  A    between atoms: O2_14  and  C10_15 
REMARK    7  A    between atoms: C10_15  and  C11_16 
ROOT
HETATM    1  C6  UNL     1      14.750  25.957  20.816  1.00  0.00    -0.035 A 
HETATM    2  C7  UNL     1      14.171  24.750  21.160  1.00  0.00     0.095 A 
HETATM    3  N1  UNL     1      14.258  23.683  20.350  1.00  0.00    -0.372 N 
ATOM      4  H1  UNL     1      13.816  22.811  20.643  1.00  0.00     0.164 HD
HETATM    5  C8  UNL     1      14.911  23.713  19.153  1.00  0.00     0.124 A 
HETATM    6  C9  UNL     1      15.510  24.882  18.753  1.00  0.00     0.084 A 
HETATM    7  C14 UNL     1      15.408  25.990  19.614  1.00  0.00     0.047 A 
ENDROOT
BRANCH   6   8
HETATM    8  O2  UNL     1      16.198  25.023  17.569  1.00  0.00    -0.348 OA
BRANCH   8   9
HETATM    9  C10 UNL     1      15.617  25.370  16.356  1.00  0.00     0.208 C 
BRANCH   9  10
HETATM   10  C11 UNL     1      16.139  26.687  15.888  1.00  0.00     0.211 C 
HETATM   11  C12 UNL     1      17.176  26.523  14.731  1.00  0.00     0.062 C 
HETATM   12  C13 UNL     1      17.748  27.771  15.369  1.00  0.00     0.235 C 
HETATM   13  N2  UNL     1      17.261  27.220  16.643  1.00  0.00    -0.069 N 
ATOM     14  H22 UNL     1      17.118  27.813  17.460  1.00  0.00     0.277 HD
ATOM     15  H21 UNL     1      17.848  26.617  17.221  1.00  0.00     0.277 HD
ENDBRANCH   9  10
ENDBRANCH   8   9
ENDBRANCH   6   8
BRANCH   1  16
HETATM   16  C5  UNL     1      14.675  27.162  21.688  1.00  0.00     0.024 A 
HETATM   17  C3  UNL     1      15.116  28.483  21.183  1.00  0.00    -0.003 A 
HETATM   18  C4  UNL     1      16.020  27.681  22.115  1.00  0.00     0.015 A 
BRANCH  17  19
HETATM   19  C2  UNL     1      14.533  29.699  21.822  1.00  0.00     0.031 C 
BRANCH  19  20
HETATM   20  C1  UNL     1      13.027  29.724  21.796  1.00  0.00     0.164 C 
BRANCH  20  21
HETATM   21  O1  UNL     1      12.495  29.872  20.539  1.00  0.00    -0.401 OA
ATOM     22  H1  UNL     1      12.101  29.080  20.192  1.00  0.00     0.209 HD
ENDBRANCH  20  21
ENDBRANCH  19  20
ENDBRANCH  17  19
ENDBRANCH   1  16
TORSDOF 7
ENDMDL
