MODEL 6
REMARK VINA RESULT: -6.651936916      2.239      6.832
REMARK  7 active torsions:
REMARK  status: ('A' for Active; 'I' for Inactive)
REMARK    1  A    between atoms: O1_1  and  C1_3 
REMARK    2  A    between atoms: C1_3  and  C2_4 
REMARK    3  A    between atoms: C2_4  and  C3_5 
REMARK    4  A    between atoms: C5_7  and  C6_8 
REMARK    5  A    between atoms: C9_13  and  O2_14 
REMARK    6  A    between atoms: O2_14  and  C10_15 
REMARK    7  A    between atoms: C10_15  and  C11_16 
ROOT
HETATM    1  C6  UNL     1      15.106  26.163  20.483  1.00  0.00    -0.035 A 
HETATM    2  C7  UNL     1      14.886  24.815  20.269  1.00  0.00     0.095 A 
HETATM    3  N1  UNL     1      15.149  24.249  19.080  1.00  0.00    -0.372 N 
ATOM      4  H1  UNL     1      14.972  23.251  18.965  1.00  0.00     0.164 HD
HETATM    5  C8  UNL     1      15.641  24.950  18.019  1.00  0.00     0.124 A 
HETATM    6  C9  UNL     1      15.884  26.294  18.167  1.00  0.00     0.084 A 
HETATM    7  C14 UNL     1      15.602  26.870  19.419  1.00  0.00     0.047 A 
ENDROOT
BRANCH   6   8
HETATM    8  O2  UNL     1      16.384  27.096  17.166  1.00  0.00    -0.348 OA
BRANCH   8   9
HETATM    9  C10 UNL     1      16.415  26.752  15.820  1.00  0.00     0.208 C 
BRANCH   9  10
HETATM   10  C11 UNL     1      17.555  27.428  15.137  1.00  0.00     0.211 C 
HETATM   11  C12 UNL     1      18.614  26.403  14.619  1.00  0.00     0.062 C 
HETATM   12  C13 UNL     1      19.547  27.558  14.915  1.00  0.00     0.235 C 
HETATM   13  N2  UNL     1      18.623  27.891  16.010  1.00  0.00    -0.069 N 
ATOM     14  H22 UNL     1      18.603  28.822  16.426  1.00  0.00     0.277 HD
ATOM     15  H21 UNL     1      18.748  27.507  16.947  1.00  0.00     0.277 HD
ENDBRANCH   9  10
ENDBRANCH   8   9
ENDBRANCH   6   8
BRANCH   1  16
HETATM   16  C5  UNL     1      14.827  26.825  21.788  1.00  0.00     0.024 A 
HETATM   17  C3  UNL     1      14.529  28.275  21.845  1.00  0.00    -0.003 A 
HETATM   18  C4  UNL     1      15.915  27.763  22.231  1.00  0.00     0.015 A 
BRANCH  17  19
HETATM   19  C2  UNL     1      13.736  28.774  23.006  1.00  0.00     0.031 C 
BRANCH  19  20
HETATM   20  C1  UNL     1      13.317  30.215  22.868  1.00  0.00     0.164 C 
BRANCH  20  21
HETATM   21  O1  UNL     1      13.683  31.005  23.929  1.00  0.00    -0.401 OA
ATOM     22  H1  UNL     1      13.068  30.986  24.654  1.00  0.00     0.209 HD
ENDBRANCH  20  21
ENDBRANCH  19  20
ENDBRANCH  17  19
ENDBRANCH   1  16
TORSDOF 7
ENDMDL
