MODEL 2
REMARK VINA RESULT: -7.003876653      1.088      1.508
REMARK  7 active torsions:
REMARK  status: ('A' for Active; 'I' for Inactive)
REMARK    1  A    between atoms: O1_1  and  C1_3 
REMARK    2  A    between atoms: C1_3  and  C2_4 
REMARK    3  A    between atoms: C2_4  and  C3_5 
REMARK    4  A    between atoms: C5_7  and  C6_8 
REMARK    5  A    between atoms: C9_13  and  O2_14 
REMARK    6  A    between atoms: O2_14  and  C10_15 
REMARK    7  A    between atoms: C10_15  and  C11_16 
ROOT
HETATM    1  C6  UNL     1      15.882  25.519  17.876  1.00  0.00    -0.035 A 
HETATM    2  C7  UNL     1      15.364  24.454  18.588  1.00  0.00     0.095 A 
HETATM    3  N1  UNL     1      14.946  24.603  19.855  1.00  0.00    -0.372 N 
ATOM      4  H1  UNL     1      14.570  23.790  20.344  1.00  0.00     0.164 HD
HETATM    5  C8  UNL     1      15.000  25.794  20.518  1.00  0.00     0.124 A 
HETATM    6  C9  UNL     1      15.502  26.893  19.866  1.00  0.00     0.084 A 
HETATM    7  C14 UNL     1      15.937  26.718  18.539  1.00  0.00     0.047 A 
ENDROOT
BRANCH   6   8
HETATM    8  O2  UNL     1      15.599  28.143  20.436  1.00  0.00    -0.348 OA
BRANCH   8   9
HETATM    9  C10 UNL     1      14.828  28.585  21.503  1.00  0.00     0.208 C 
BRANCH   9  10
HETATM   10  C11 UNL     1      15.667  28.722  22.729  1.00  0.00     0.211 C 
HETATM   11  C12 UNL     1      16.021  30.214  23.027  1.00  0.00     0.062 C 
HETATM   12  C13 UNL     1      17.275  29.571  23.582  1.00  0.00     0.235 C 
HETATM   13  N2  UNL     1      17.098  28.558  22.530  1.00  0.00    -0.069 N 
ATOM     14  H22 UNL     1      17.542  27.642  22.593  1.00  0.00     0.277 HD
ATOM     15  H21 UNL     1      17.523  28.668  21.609  1.00  0.00     0.277 HD
ENDBRANCH   9  10
ENDBRANCH   8   9
ENDBRANCH   6   8
BRANCH   1  16
HETATM   16  C5  UNL     1      16.355  25.392  16.470  1.00  0.00     0.024 A 
HETATM   17  C3  UNL     1      16.598  26.601  15.648  1.00  0.00    -0.003 A 
HETATM   18  C4  UNL     1      15.323  25.785  15.450  1.00  0.00     0.015 A 
BRANCH  17  19
HETATM   19  C2  UNL     1      17.560  26.484  14.513  1.00  0.00     0.031 C 
BRANCH  19  20
HETATM   20  C1  UNL     1      18.846  27.234  14.740  1.00  0.00     0.164 C 
BRANCH  20  21
HETATM   21  O1  UNL     1      19.780  26.533  15.462  1.00  0.00    -0.401 OA
ATOM     22  H1  UNL     1      20.659  26.583  15.106  1.00  0.00     0.209 HD
ENDBRANCH  20  21
ENDBRANCH  19  20
ENDBRANCH  17  19
ENDBRANCH   1  16
TORSDOF 7
ENDMDL
