MODEL 8
REMARK VINA RESULT: -6.538282806      3.035      4.677
REMARK  7 active torsions:
REMARK  status: ('A' for Active; 'I' for Inactive)
REMARK    1  A    between atoms: O1_1  and  C1_3 
REMARK    2  A    between atoms: C1_3  and  C2_4 
REMARK    3  A    between atoms: C2_4  and  C3_5 
REMARK    4  A    between atoms: C5_7  and  C6_8 
REMARK    5  A    between atoms: C9_13  and  O2_14 
REMARK    6  A    between atoms: O2_14  and  C10_15 
REMARK    7  A    between atoms: C10_15  and  C11_16 
ROOT
HETATM    1  C6  UNL     1      15.566  27.212  21.534  1.00  0.00    -0.035 A 
HETATM    2  C7  UNL     1      14.414  27.975  21.512  1.00  0.00     0.095 A 
HETATM    3  N1  UNL     1      14.302  29.086  22.258  1.00  0.00    -0.372 N 
ATOM      4  H1  UNL     1      13.434  29.619  22.212  1.00  0.00     0.164 HD
HETATM    5  C8  UNL     1      15.299  29.533  23.075  1.00  0.00     0.124 A 
HETATM    6  C9  UNL     1      16.472  28.822  23.141  1.00  0.00     0.084 A 
HETATM    7  C14 UNL     1      16.571  27.660  22.353  1.00  0.00     0.047 A 
ENDROOT
BRANCH   6   8
HETATM    8  O2  UNL     1      17.543  29.183  23.926  1.00  0.00    -0.348 OA
BRANCH   8   9
HETATM    9  C10 UNL     1      18.534  30.079  23.546  1.00  0.00     0.208 C 
BRANCH   9  10
HETATM   10  C11 UNL     1      18.269  31.426  24.127  1.00  0.00     0.211 C 
HETATM   11  C12 UNL     1      18.191  32.530  23.024  1.00  0.00     0.062 C 
HETATM   12  C13 UNL     1      18.754  33.376  24.148  1.00  0.00     0.235 C 
HETATM   13  N2  UNL     1      19.442  32.152  24.587  1.00  0.00    -0.069 N 
ATOM     14  H22 UNL     1      19.791  32.050  25.539  1.00  0.00     0.277 HD
ATOM     15  H21 UNL     1      20.377  31.918  24.251  1.00  0.00     0.277 HD
ENDBRANCH   9  10
ENDBRANCH   8   9
ENDBRANCH   6   8
BRANCH   1  16
HETATM   16  C5  UNL     1      15.727  25.975  20.721  1.00  0.00     0.024 A 
HETATM   17  C3  UNL     1      15.046  25.844  19.412  1.00  0.00    -0.003 A 
HETATM   18  C4  UNL     1      14.478  25.141  20.642  1.00  0.00     0.015 A 
BRANCH  17  19
HETATM   19  C2  UNL     1      15.639  24.906  18.414  1.00  0.00     0.031 C 
BRANCH  19  20
HETATM   20  C1  UNL     1      15.696  25.476  17.020  1.00  0.00     0.164 C 
BRANCH  20  21
HETATM   21  O1  UNL     1      16.902  25.291  16.391  1.00  0.00    -0.401 OA
ATOM     22  H1  UNL     1      17.314  26.097  16.104  1.00  0.00     0.209 HD
ENDBRANCH  20  21
ENDBRANCH  19  20
ENDBRANCH  17  19
ENDBRANCH   1  16
TORSDOF 7
ENDMDL
