MODEL 1
REMARK VINA RESULT: -7.106277145      0.000      0.000
REMARK  7 active torsions:
REMARK  status: ('A' for Active; 'I' for Inactive)
REMARK    1  A    between atoms: O1_1  and  C1_3 
REMARK    2  A    between atoms: C1_3  and  C2_4 
REMARK    3  A    between atoms: C2_4  and  C3_5 
REMARK    4  A    between atoms: C5_7  and  C6_8 
REMARK    5  A    between atoms: C9_13  and  O2_14 
REMARK    6  A    between atoms: O2_14  and  C10_15 
REMARK    7  A    between atoms: C10_15  and  C11_16 
ROOT
HETATM    1  C6  UNL     1      15.939  25.523  18.009  1.00  0.00    -0.035 A 
HETATM    2  C7  UNL     1      15.282  24.479  18.633  1.00  0.00     0.095 A 
HETATM    3  N1  UNL     1      14.903  24.566  19.918  1.00  0.00    -0.372 N 
ATOM      4  H1  UNL     1      14.421  23.772  20.339  1.00  0.00     0.164 HD
HETATM    5  C8  UNL     1      15.135  25.669  20.685  1.00  0.00     0.124 A 
HETATM    6  C9  UNL     1      15.782  26.743  20.125  1.00  0.00     0.084 A 
HETATM    7  C14 UNL     1      16.172  26.634  18.778  1.00  0.00     0.047 A 
ENDROOT
BRANCH   6   8
HETATM    8  O2  UNL     1      16.063  27.907  20.805  1.00  0.00    -0.348 OA
BRANCH   8   9
HETATM    9  C10 UNL     1      16.078  28.029  22.188  1.00  0.00     0.208 C 
BRANCH   9  10
HETATM   10  C11 UNL     1      15.054  29.017  22.635  1.00  0.00     0.211 C 
HETATM   11  C12 UNL     1      13.709  28.324  23.024  1.00  0.00     0.062 C 
HETATM   12  C13 UNL     1      13.146  29.634  22.514  1.00  0.00     0.235 C 
HETATM   13  N2  UNL     1      14.276  29.635  21.572  1.00  0.00    -0.069 N 
ATOM     14  H22 UNL     1      14.588  30.492  21.116  1.00  0.00     0.277 HD
ATOM     15  H21 UNL     1      14.200  29.206  20.650  1.00  0.00     0.277 HD
ENDBRANCH   9  10
ENDBRANCH   8   9
ENDBRANCH   6   8
BRANCH   1  16
HETATM   16  C5  UNL     1      16.374  25.463  16.586  1.00  0.00     0.024 A 
HETATM   17  C3  UNL     1      16.607  26.710  15.820  1.00  0.00    -0.003 A 
HETATM   18  C4  UNL     1      15.319  25.916  15.615  1.00  0.00     0.015 A 
BRANCH  17  19
HETATM   19  C2  UNL     1      17.538  26.643  14.655  1.00  0.00     0.031 C 
BRANCH  19  20
HETATM   20  C1  UNL     1      18.833  27.377  14.882  1.00  0.00     0.164 C 
BRANCH  20  21
HETATM   21  O1  UNL     1      19.803  26.620  15.491  1.00  0.00    -0.401 OA
ATOM     22  H1  UNL     1      20.394  26.190  14.883  1.00  0.00     0.209 HD
ENDBRANCH  20  21
ENDBRANCH  19  20
ENDBRANCH  17  19
ENDBRANCH   1  16
TORSDOF 7
ENDMDL
