MODEL 8
REMARK VINA RESULT: -4.551731469      1.544      1.544
REMARK  1 active torsions:
REMARK  status: ('A' for Active; 'I' for Inactive)
REMARK    1  A    between atoms: C2_2  and  C3_4 
ROOT
HETATM    1  C1  UNL     1     -46.573 -29.032 -17.524  1.00  0.00     0.103 C 
HETATM    2  C2  UNL     1     -46.951 -30.256 -18.270  1.00  0.00     0.221 C 
HETATM    3  O1  UNL     1     -46.120 -30.789 -19.044  1.00  0.00    -0.286 OA
ENDROOT
BRANCH   2   4
HETATM    4  C3  UNL     1     -48.275 -30.818 -18.093  1.00  0.00     0.246 C 
HETATM    5  O2  UNL     1     -48.706 -30.951 -16.923  1.00  0.00    -0.642 OA
HETATM    6  O3  UNL     1     -49.050 -31.199 -19.205  1.00  0.00    -0.642 OA
ENDBRANCH   2   4
TORSDOF 1
ENDMDL
