MODEL 2
REMARK VINA RESULT: -4.898257811      0.101      1.341
REMARK  1 active torsions:
REMARK  status: ('A' for Active; 'I' for Inactive)
REMARK    1  A    between atoms: C2_2  and  C3_4 
ROOT
HETATM    1  C1  UNL     1     -46.445 -31.507 -16.488  1.00  0.00     0.103 C 
HETATM    2  C2  UNL     1     -47.214 -31.796 -17.722  1.00  0.00     0.221 C 
HETATM    3  O1  UNL     1     -46.733 -32.572 -18.582  1.00  0.00    -0.286 OA
ENDROOT
BRANCH   2   4
HETATM    4  C3  UNL     1     -48.510 -31.177 -17.915  1.00  0.00     0.246 C 
HETATM    5  O2  UNL     1     -48.990 -31.166 -19.074  1.00  0.00    -0.642 OA
HETATM    6  O3  UNL     1     -49.206 -30.609 -16.831  1.00  0.00    -0.642 OA
ENDBRANCH   2   4
TORSDOF 1
ENDMDL
