MODEL 1
REMARK VINA RESULT: -4.962840200      0.000      0.000
REMARK  1 active torsions:
REMARK  status: ('A' for Active; 'I' for Inactive)
REMARK    1  A    between atoms: C2_2  and  C3_4 
ROOT
HETATM    1  C1  UNL     1     -46.470 -31.514 -16.460  1.00  0.00     0.103 C 
HETATM    2  C2  UNL     1     -47.214 -31.801 -17.710  1.00  0.00     0.221 C 
HETATM    3  O1  UNL     1     -46.715 -32.577 -18.560  1.00  0.00    -0.286 OA
ENDROOT
BRANCH   2   4
HETATM    4  C3  UNL     1     -48.505 -31.182 -17.929  1.00  0.00     0.246 C 
HETATM    5  O2  UNL     1     -49.098 -30.691 -16.938  1.00  0.00    -0.642 OA
HETATM    6  O3  UNL     1     -49.072 -31.134 -19.217  1.00  0.00    -0.642 OA
ENDBRANCH   2   4
TORSDOF 1
ENDMDL
