MODEL 5
REMARK VINA RESULT: -4.933216306      1.898      2.603
REMARK  2 active torsions:
REMARK  status: ('A' for Active; 'I' for Inactive)
REMARK    1  A    between atoms: C2_2  and  C3_3 
REMARK    2  A    between atoms: C3_3  and  C4_5 
ROOT
HETATM    1  C3  UNL     1     -19.662  -6.400   9.727  1.00  0.00     0.224 C 
HETATM    2  O1  UNL     1     -18.929  -5.483   9.331  1.00  0.00    -0.286 OA
ENDROOT
BRANCH   1   3
HETATM    3  C2  UNL     1     -20.749  -6.862   8.837  1.00  0.00     0.086 C 
HETATM    4  C1  UNL     1     -20.351  -8.130   8.096  1.00  0.00     0.013 C 
ENDBRANCH   1   3
BRANCH   1   5
HETATM    5  C4  UNL     1     -19.471  -7.025  11.027  1.00  0.00     0.246 C 
HETATM    6  O2  UNL     1     -20.422  -7.561  11.603  1.00  0.00    -0.642 OA
HETATM    7  O3  UNL     1     -18.227  -7.045  11.660  1.00  0.00    -0.642 OA
ENDBRANCH   1   5
TORSDOF 2
ENDMDL
