MODEL 12
REMARK VINA RESULT: -4.676687385      1.565      2.160
REMARK  2 active torsions:
REMARK  status: ('A' for Active; 'I' for Inactive)
REMARK    1  A    between atoms: C2_2  and  C3_3 
REMARK    2  A    between atoms: C3_3  and  C4_5 
ROOT
HETATM    1  C3  UNL     1     -19.086  -7.553   9.225  1.00  0.00     0.224 C 
HETATM    2  O1  UNL     1     -18.173  -7.474   8.391  1.00  0.00    -0.286 OA
ENDROOT
BRANCH   1   3
HETATM    3  C2  UNL     1     -20.427  -7.057   8.846  1.00  0.00     0.086 C 
HETATM    4  C1  UNL     1     -21.155  -6.470  10.046  1.00  0.00     0.013 C 
ENDBRANCH   1   3
BRANCH   1   5
HETATM    5  C4  UNL     1     -18.868  -8.120  10.547  1.00  0.00     0.246 C 
HETATM    6  O2  UNL     1     -19.278  -9.253  10.811  1.00  0.00    -0.642 OA
HETATM    7  O3  UNL     1     -18.194  -7.418  11.548  1.00  0.00    -0.642 OA
ENDBRANCH   1   5
TORSDOF 2
ENDMDL
