MODEL 16
REMARK VINA RESULT: -4.581439758      1.923      2.794
REMARK  2 active torsions:
REMARK  status: ('A' for Active; 'I' for Inactive)
REMARK    1  A    between atoms: C2_2  and  C3_3 
REMARK    2  A    between atoms: C3_3  and  C4_5 
ROOT
HETATM    1  C3  UNL     1     -19.270  -7.487   9.045  1.00  0.00     0.224 C 
HETATM    2  O1  UNL     1     -18.162  -7.452   8.492  1.00  0.00    -0.286 OA
ENDROOT
BRANCH   1   3
HETATM    3  C2  UNL     1     -20.459  -7.780   8.215  1.00  0.00     0.086 C 
HETATM    4  C1  UNL     1     -20.419  -9.205   7.684  1.00  0.00     0.013 C 
ENDBRANCH   1   3
BRANCH   1   5
HETATM    5  C4  UNL     1     -19.419  -7.253  10.473  1.00  0.00     0.246 C 
HETATM    6  O2  UNL     1     -20.544  -7.160  10.972  1.00  0.00    -0.642 OA
HETATM    7  O3  UNL     1     -18.315  -7.132  11.319  1.00  0.00    -0.642 OA
ENDBRANCH   1   5
TORSDOF 2
ENDMDL
