MODEL 19
REMARK VINA RESULT: -4.550286053      1.578      1.832
REMARK  2 active torsions:
REMARK  status: ('A' for Active; 'I' for Inactive)
REMARK    1  A    between atoms: C2_2  and  C3_3 
REMARK    2  A    between atoms: C3_3  and  C4_5 
ROOT
HETATM    1  C3  UNL     1     -19.119  -7.502   9.276  1.00  0.00     0.224 C 
HETATM    2  O1  UNL     1     -18.228  -7.364   8.427  1.00  0.00    -0.286 OA
ENDROOT
BRANCH   1   3
HETATM    3  C2  UNL     1     -20.473  -6.996   8.961  1.00  0.00     0.086 C 
HETATM    4  C1  UNL     1     -21.174  -6.489  10.213  1.00  0.00     0.013 C 
ENDBRANCH   1   3
BRANCH   1   5
HETATM    5  C4  UNL     1     -18.865  -8.149  10.554  1.00  0.00     0.246 C 
HETATM    6  O2  UNL     1     -18.184  -7.581  11.412  1.00  0.00    -0.642 OA
HETATM    7  O3  UNL     1     -19.374  -9.414  10.854  1.00  0.00    -0.642 OA
ENDBRANCH   1   5
TORSDOF 2
ENDMDL
