MODEL 1
REMARK VINA RESULT: -4.374277679      0.000      0.000
REMARK  2 active torsions:
REMARK  status: ('A' for Active; 'I' for Inactive)
REMARK    1  A    between atoms: C2_2  and  O1_3 
REMARK    2  A    between atoms: C2_2  and  C3_5 
ROOT
HETATM    1  C1  UNL     1      28.465  47.206  53.565  1.00  0.00     0.050 C 
HETATM    2  C2  UNL     1      28.823  47.038  52.105  1.00  0.00     0.214 C 
ENDROOT
BRANCH   2   3
HETATM    3  O1  UNL     1      29.820  47.947  51.773  1.00  0.00    -0.385 OA
ATOM      4  H1  UNL     1      29.579  48.396  50.971  1.00  0.00     0.210 HD
ENDBRANCH   2   3
BRANCH   2   5
HETATM    5  C3  UNL     1      29.277  45.634  51.836  1.00  0.00     0.202 C 
HETATM    6  O2  UNL     1      28.751  44.720  52.515  1.00  0.00    -0.646 OA
HETATM    7  O3  UNL     1      30.244  45.379  50.868  1.00  0.00    -0.646 OA
ENDBRANCH   2   5
TORSDOF 2
ENDMDL
