MODEL 10
REMARK VINA RESULT: -3.764444047      1.277      1.681
REMARK  2 active torsions:
REMARK  status: ('A' for Active; 'I' for Inactive)
REMARK    1  A    between atoms: C2_2  and  O1_3 
REMARK    2  A    between atoms: C2_2  and  C3_5 
ROOT
HETATM    1  C1  UNL     1      28.617  46.342  53.534  1.00  0.00     0.050 C 
HETATM    2  C2  UNL     1      28.841  47.043  52.213  1.00  0.00     0.214 C 
ENDROOT
BRANCH   2   3
HETATM    3  O1  UNL     1      30.142  47.532  52.171  1.00  0.00    -0.385 OA
ATOM      4  H1  UNL     1      30.301  47.922  51.320  1.00  0.00     0.210 HD
ENDBRANCH   2   3
BRANCH   2   5
HETATM    5  C3  UNL     1      28.594  46.103  51.071  1.00  0.00     0.202 C 
HETATM    6  O2  UNL     1      29.599  45.607  50.507  1.00  0.00    -0.646 OA
HETATM    7  O3  UNL     1      27.295  45.805  50.671  1.00  0.00    -0.646 OA
ENDBRANCH   2   5
TORSDOF 2
ENDMDL
