MODEL 3
REMARK VINA RESULT: -3.899831645      1.417      1.974
REMARK  2 active torsions:
REMARK  status: ('A' for Active; 'I' for Inactive)
REMARK    1  A    between atoms: C2_2  and  O1_3 
REMARK    2  A    between atoms: C2_2  and  C3_5 
ROOT
HETATM    1  C1  UNL     1      28.330  47.945  51.767  1.00  0.00     0.050 C 
HETATM    2  C2  UNL     1      28.284  46.705  50.902  1.00  0.00     0.214 C 
ENDROOT
BRANCH   2   3
HETATM    3  O1  UNL     1      28.669  47.038  49.608  1.00  0.00    -0.385 OA
ATOM      4  H1  UNL     1      27.894  47.137  49.068  1.00  0.00     0.210 HD
ENDBRANCH   2   3
BRANCH   2   5
HETATM    5  C3  UNL     1      29.180  45.641  51.462  1.00  0.00     0.202 C 
HETATM    6  O2  UNL     1      30.240  45.395  50.837  1.00  0.00    -0.646 OA
HETATM    7  O3  UNL     1      28.832  44.968  52.628  1.00  0.00    -0.646 OA
ENDBRANCH   2   5
TORSDOF 2
ENDMDL
