MODEL 2
REMARK VINA RESULT: -4.305305898      0.116      1.341
REMARK  2 active torsions:
REMARK  status: ('A' for Active; 'I' for Inactive)
REMARK    1  A    between atoms: C2_2  and  O1_3 
REMARK    2  A    between atoms: C2_2  and  C3_5 
ROOT
HETATM    1  C1  UNL     1      28.455  47.200  53.573  1.00  0.00     0.050 C 
HETATM    2  C2  UNL     1      28.831  47.013  52.120  1.00  0.00     0.214 C 
ENDROOT
BRANCH   2   3
HETATM    3  O1  UNL     1      29.860  47.891  51.799  1.00  0.00    -0.385 OA
ATOM      4  H1  UNL     1      29.582  48.450  51.083  1.00  0.00     0.210 HD
ENDBRANCH   2   3
BRANCH   2   5
HETATM    5  C3  UNL     1      29.246  45.596  51.864  1.00  0.00     0.202 C 
HETATM    6  O2  UNL     1      30.142  45.405  51.005  1.00  0.00    -0.646 OA
HETATM    7  O3  UNL     1      28.650  44.549  52.560  1.00  0.00    -0.646 OA
ENDBRANCH   2   5
TORSDOF 2
ENDMDL
