MODEL 4
REMARK VINA RESULT: -3.856414507      1.411      1.421
REMARK  2 active torsions:
REMARK  status: ('A' for Active; 'I' for Inactive)
REMARK    1  A    between atoms: C2_2  and  O1_3 
REMARK    2  A    between atoms: C2_2  and  C3_5 
ROOT
HETATM    1  C1  UNL     1      28.229  48.029  51.912  1.00  0.00     0.050 C 
HETATM    2  C2  UNL     1      28.156  46.761  51.091  1.00  0.00     0.214 C 
ENDROOT
BRANCH   2   3
HETATM    3  O1  UNL     1      28.447  47.059  49.765  1.00  0.00    -0.385 OA
ATOM      4  H1  UNL     1      29.315  47.442  49.714  1.00  0.00     0.210 HD
ENDBRANCH   2   3
BRANCH   2   5
HETATM    5  C3  UNL     1      29.111  45.736  51.624  1.00  0.00     0.202 C 
HETATM    6  O2  UNL     1      28.841  45.222  52.737  1.00  0.00    -0.646 OA
HETATM    7  O3  UNL     1      30.244  45.382  50.898  1.00  0.00    -0.646 OA
ENDBRANCH   2   5
TORSDOF 2
ENDMDL
