MODEL 15
REMARK VINA RESULT: -6.910367417      3.790      5.825
REMARK  7 active torsions:
REMARK  status: ('A' for Active; 'I' for Inactive)
REMARK    1  A    between atoms: O1_2  and  C2_3 
REMARK    2  A    between atoms: C5_6  and  C6_7 
REMARK    3  A    between atoms: C6_7  and  C7_8 
REMARK    4  A    between atoms: C9_11  and  O3_12 
REMARK    5  A    between atoms: C10_14  and  O4_15 
REMARK    6  A    between atoms: C12_18  and  O5_19 
REMARK    7  A    between atoms: C12_18  and  C13_21 
ROOT
HETATM    1  C7  UNL     1     -48.610 -30.103  -7.477  1.00  0.00     0.108 C 
HETATM    2  C8  UNL     1     -49.935 -29.510  -7.541  1.00  0.00     0.165 C 
HETATM    3  O2  UNL     1     -50.495 -29.142  -8.515  1.00  0.00    -0.294 OA
HETATM    4  C9  UNL     1     -50.666 -29.351  -6.223  1.00  0.00     0.216 C 
HETATM    5  C10 UNL     1     -49.611 -29.473  -5.151  1.00  0.00     0.157 C 
HETATM    6  C11 UNL     1     -48.436 -28.619  -5.530  1.00  0.00     0.084 C 
HETATM    7  C12 UNL     1     -47.637 -29.248  -6.673  1.00  0.00     0.158 C 
ENDROOT
BRANCH   1   8
HETATM    8  C6  UNL     1     -47.998 -30.540  -8.747  1.00  0.00     0.054 C 
BRANCH   8   9
HETATM    9  C5  UNL     1     -48.650 -31.740  -9.317  1.00  0.00    -0.057 A 
HETATM   10  C4  UNL     1     -48.775 -32.950  -8.675  1.00  0.00     0.010 A 
HETATM   11  C3  UNL     1     -49.383 -34.053  -9.273  1.00  0.00     0.037 A 
HETATM   12  C2  UNL     1     -49.891 -33.974 -10.547  1.00  0.00     0.068 A 
HETATM   13  C15 UNL     1     -49.780 -32.768 -11.215  1.00  0.00     0.037 A 
HETATM   14  C14 UNL     1     -49.178 -31.690 -10.616  1.00  0.00     0.010 A 
BRANCH  12  15
HETATM   15  O1  UNL     1     -50.507 -35.073 -11.166  1.00  0.00    -0.356 OA
HETATM   16  C1  UNL     1     -49.951 -36.346 -10.914  1.00  0.00     0.210 C 
ENDBRANCH  12  15
ENDBRANCH   8   9
ENDBRANCH   1   8
BRANCH   7  17
HETATM   17  O5  UNL     1     -46.694 -30.101  -6.106  1.00  0.00    -0.378 OA
ATOM     18  H5  UNL     1     -46.640 -30.876  -6.654  1.00  0.00     0.211 HD
ENDBRANCH   7  17
BRANCH   7  19
HETATM   19  C13 UNL     1     -46.972 -28.229  -7.503  1.00  0.00     0.210 C 
HETATM   20  O6  UNL     1     -47.634 -27.277  -7.972  1.00  0.00    -0.646 OA
HETATM   21  O7  UNL     1     -45.621 -28.297  -7.782  1.00  0.00    -0.646 OA
ENDBRANCH   7  19
BRANCH   4  22
HETATM   22  O3  UNL     1     -51.693 -30.254  -6.094  1.00  0.00    -0.385 OA
ATOM     23  H3  UNL     1     -52.192 -30.111  -5.298  1.00  0.00     0.210 HD
ENDBRANCH   4  22
BRANCH   5  24
HETATM   24  O4  UNL     1     -50.133 -28.960  -3.958  1.00  0.00    -0.392 OA
ATOM     25  H4  UNL     1     -50.810 -29.552  -3.649  1.00  0.00     0.210 HD
ENDBRANCH   5  24
TORSDOF 7
ENDMDL
