MODEL 2
REMARK VINA RESULT: -9.685173297      0.141      1.012
REMARK  7 active torsions:
REMARK  status: ('A' for Active; 'I' for Inactive)
REMARK    1  A    between atoms: O1_2  and  C2_3 
REMARK    2  A    between atoms: C5_6  and  C6_7 
REMARK    3  A    between atoms: C6_7  and  C7_8 
REMARK    4  A    between atoms: C9_11  and  O3_12 
REMARK    5  A    between atoms: C10_14  and  O4_15 
REMARK    6  A    between atoms: C12_18  and  O5_19 
REMARK    7  A    between atoms: C12_18  and  C13_21 
ROOT
HETATM    1  C7  UNL     1     -45.237 -29.363  -6.925  1.00  0.00     0.108 C 
HETATM    2  C8  UNL     1     -45.097 -30.299  -8.027  1.00  0.00     0.165 C 
HETATM    3  O2  UNL     1     -45.367 -31.451  -8.009  1.00  0.00    -0.294 OA
HETATM    4  C9  UNL     1     -44.549 -29.738  -9.322  1.00  0.00     0.216 C 
HETATM    5  C10 UNL     1     -43.899 -28.426  -8.960  1.00  0.00     0.157 C 
HETATM    6  C11 UNL     1     -43.043 -28.630  -7.745  1.00  0.00     0.084 C 
HETATM    7  C12 UNL     1     -43.895 -28.790  -6.483  1.00  0.00     0.158 C 
ENDROOT
BRANCH   1   8
HETATM    8  C6  UNL     1     -46.031 -29.797  -5.759  1.00  0.00     0.054 C 
BRANCH   8   9
HETATM    9  C5  UNL     1     -47.490 -29.684  -5.981  1.00  0.00    -0.057 A 
HETATM   10  C4  UNL     1     -48.078 -29.124  -7.091  1.00  0.00     0.010 A 
HETATM   11  C3  UNL     1     -49.462 -29.027  -7.235  1.00  0.00     0.037 A 
HETATM   12  C2  UNL     1     -50.306 -29.497  -6.257  1.00  0.00     0.068 A 
HETATM   13  C15 UNL     1     -49.741 -30.066  -5.131  1.00  0.00     0.037 A 
HETATM   14  C14 UNL     1     -48.378 -30.154  -5.001  1.00  0.00     0.010 A 
BRANCH  12  15
HETATM   15  O1  UNL     1     -51.701 -29.410  -6.383  1.00  0.00    -0.356 OA
HETATM   16  C1  UNL     1     -52.210 -29.024  -7.643  1.00  0.00     0.210 C 
ENDBRANCH  12  15
ENDBRANCH   8   9
ENDBRANCH   1   8
BRANCH   7  17
HETATM   17  O5  UNL     1     -44.127 -27.517  -5.970  1.00  0.00    -0.378 OA
ATOM     18  H5  UNL     1     -43.862 -26.887  -6.631  1.00  0.00     0.211 HD
ENDBRANCH   7  17
BRANCH   7  19
HETATM   19  C13 UNL     1     -43.232 -29.635  -5.476  1.00  0.00     0.210 C 
HETATM   20  O6  UNL     1     -43.227 -29.287  -4.275  1.00  0.00    -0.646 OA
HETATM   21  O7  UNL     1     -42.607 -30.816  -5.825  1.00  0.00    -0.646 OA
ENDBRANCH   7  19
BRANCH   4  22
HETATM   22  O3  UNL     1     -45.523 -29.625 -10.284  1.00  0.00    -0.385 OA
ATOM     23  H3  UNL     1     -45.249 -30.004 -11.112  1.00  0.00     0.210 HD
ENDBRANCH   4  22
BRANCH   5  24
HETATM   24  O4  UNL     1     -43.053 -28.048 -10.009  1.00  0.00    -0.392 OA
ATOM     25  H4  UNL     1     -43.548 -27.507 -10.613  1.00  0.00     0.210 HD
ENDBRANCH   5  24
TORSDOF 7
ENDMDL
