MODEL 13
REMARK VINA RESULT: -7.128820523      2.480      6.563
REMARK  7 active torsions:
REMARK  status: ('A' for Active; 'I' for Inactive)
REMARK    1  A    between atoms: O1_2  and  C2_3 
REMARK    2  A    between atoms: C5_6  and  C6_7 
REMARK    3  A    between atoms: C6_7  and  C7_8 
REMARK    4  A    between atoms: C9_11  and  O3_12 
REMARK    5  A    between atoms: C10_14  and  O4_15 
REMARK    6  A    between atoms: C12_18  and  O5_19 
REMARK    7  A    between atoms: C12_18  and  C13_21 
ROOT
HETATM    1  C7  UNL     1     -48.756 -30.421  -7.270  1.00  0.00     0.108 C 
HETATM    2  C8  UNL     1     -49.777 -30.519  -6.241  1.00  0.00     0.165 C 
HETATM    3  O2  UNL     1     -49.687 -31.100  -5.215  1.00  0.00    -0.294 OA
HETATM    4  C9  UNL     1     -51.083 -29.804  -6.518  1.00  0.00     0.216 C 
HETATM    5  C10 UNL     1     -51.100 -29.538  -8.003  1.00  0.00     0.157 C 
HETATM    6  C11 UNL     1     -50.699 -30.792  -8.723  1.00  0.00     0.084 C 
HETATM    7  C12 UNL     1     -49.199 -31.061  -8.581  1.00  0.00     0.158 C 
ENDROOT
BRANCH   1   8
HETATM    8  C6  UNL     1     -47.388 -30.848  -6.915  1.00  0.00     0.054 C 
BRANCH   8   9
HETATM    9  C5  UNL     1     -46.343 -30.100  -7.650  1.00  0.00    -0.057 A 
HETATM   10  C4  UNL     1     -46.350 -28.741  -7.866  1.00  0.00     0.010 A 
HETATM   11  C3  UNL     1     -45.345 -28.095  -8.585  1.00  0.00     0.037 A 
HETATM   12  C2  UNL     1     -44.290 -28.801  -9.113  1.00  0.00     0.068 A 
HETATM   13  C15 UNL     1     -44.260 -30.168  -8.910  1.00  0.00     0.037 A 
HETATM   14  C14 UNL     1     -45.255 -30.793  -8.202  1.00  0.00     0.010 A 
BRANCH  12  15
HETATM   15  O1  UNL     1     -43.269 -28.169  -9.840  1.00  0.00    -0.356 OA
HETATM   16  C1  UNL     1     -41.981 -28.158  -9.261  1.00  0.00     0.210 C 
ENDBRANCH  12  15
ENDBRANCH   8   9
ENDBRANCH   1   8
BRANCH   7  17
HETATM   17  O5  UNL     1     -48.554 -30.392  -9.617  1.00  0.00    -0.378 OA
ATOM     18  H5  UNL     1     -49.160 -30.338 -10.348  1.00  0.00     0.211 HD
ENDBRANCH   7  17
BRANCH   7  19
HETATM   19  C13 UNL     1     -48.892 -32.500  -8.632  1.00  0.00     0.210 C 
HETATM   20  O6  UNL     1     -49.555 -33.304  -7.940  1.00  0.00    -0.646 OA
HETATM   21  O7  UNL     1     -47.880 -32.994  -9.431  1.00  0.00    -0.646 OA
ENDBRANCH   7  19
BRANCH   4  22
HETATM   22  O3  UNL     1     -51.220 -28.672  -5.752  1.00  0.00    -0.385 OA
ATOM     23  H3  UNL     1     -52.118 -28.361  -5.737  1.00  0.00     0.210 HD
ENDBRANCH   4  22
BRANCH   5  24
HETATM   24  O4  UNL     1     -52.413 -29.238  -8.383  1.00  0.00    -0.392 OA
ATOM     25  H4  UNL     1     -52.404 -28.424  -8.873  1.00  0.00     0.210 HD
ENDBRANCH   5  24
TORSDOF 7
ENDMDL
