MODEL 3
REMARK VINA RESULT: -9.227586803      1.349      1.564
REMARK  7 active torsions:
REMARK  status: ('A' for Active; 'I' for Inactive)
REMARK    1  A    between atoms: O1_2  and  C2_3 
REMARK    2  A    between atoms: C5_6  and  C6_7 
REMARK    3  A    between atoms: C6_7  and  C7_8 
REMARK    4  A    between atoms: C9_11  and  O3_12 
REMARK    5  A    between atoms: C10_14  and  O4_15 
REMARK    6  A    between atoms: C12_18  and  O5_19 
REMARK    7  A    between atoms: C12_18  and  C13_21 
ROOT
HETATM    1  C7  UNL     1     -44.484 -29.608  -7.648  1.00  0.00     0.108 C 
HETATM    2  C8  UNL     1     -43.697 -30.289  -8.663  1.00  0.00     0.165 C 
HETATM    3  O2  UNL     1     -43.634 -31.457  -8.836  1.00  0.00    -0.294 OA
HETATM    4  C9  UNL     1     -42.880 -29.408  -9.585  1.00  0.00     0.216 C 
HETATM    5  C10 UNL     1     -42.790 -28.066  -8.900  1.00  0.00     0.157 C 
HETATM    6  C11 UNL     1     -42.426 -28.282  -7.461  1.00  0.00     0.084 C 
HETATM    7  C12 UNL     1     -43.609 -28.838  -6.664  1.00  0.00     0.158 C 
ENDROOT
BRANCH   1   8
HETATM    8  C6  UNL     1     -45.505 -30.398  -6.934  1.00  0.00     0.054 C 
BRANCH   8   9
HETATM    9  C5  UNL     1     -46.888 -29.992  -7.273  1.00  0.00    -0.057 A 
HETATM   10  C4  UNL     1     -47.606 -29.016  -6.624  1.00  0.00     0.010 A 
HETATM   11  C3  UNL     1     -48.915 -28.691  -6.977  1.00  0.00     0.037 A 
HETATM   12  C2  UNL     1     -49.549 -29.344  -8.007  1.00  0.00     0.068 A 
HETATM   13  C15 UNL     1     -48.849 -30.330  -8.677  1.00  0.00     0.037 A 
HETATM   14  C14 UNL     1     -47.562 -30.642  -8.319  1.00  0.00     0.010 A 
BRANCH  12  15
HETATM   15  O1  UNL     1     -50.866 -29.033  -8.378  1.00  0.00    -0.356 OA
HETATM   16  C1  UNL     1     -51.882 -29.318  -7.440  1.00  0.00     0.210 C 
ENDBRANCH  12  15
ENDBRANCH   8   9
ENDBRANCH   1   8
BRANCH   7  17
HETATM   17  O5  UNL     1     -44.348 -27.754  -6.200  1.00  0.00    -0.378 OA
ATOM     18  H5  UNL     1     -45.145 -27.706  -6.716  1.00  0.00     0.211 HD
ENDBRANCH   7  17
BRANCH   7  19
HETATM   19  C13 UNL     1     -43.167 -29.676  -5.537  1.00  0.00     0.210 C 
HETATM   20  O6  UNL     1     -43.458 -29.350  -4.366  1.00  0.00    -0.646 OA
HETATM   21  O7  UNL     1     -42.429 -30.826  -5.740  1.00  0.00    -0.646 OA
ENDBRANCH   7  19
BRANCH   4  22
HETATM   22  O3  UNL     1     -43.419 -29.350 -10.847  1.00  0.00    -0.385 OA
ATOM     23  H3  UNL     1     -43.072 -28.619 -11.347  1.00  0.00     0.210 HD
ENDBRANCH   4  22
BRANCH   5  24
HETATM   24  O4  UNL     1     -41.751 -27.339  -9.490  1.00  0.00    -0.392 OA
ATOM     25  H4  UNL     1     -41.674 -26.506  -9.039  1.00  0.00     0.210 HD
ENDBRANCH   5  24
TORSDOF 7
ENDMDL
