MODEL 1
REMARK VINA RESULT: -9.711298133      0.000      0.000
REMARK  7 active torsions:
REMARK  status: ('A' for Active; 'I' for Inactive)
REMARK    1  A    between atoms: O1_2  and  C2_3 
REMARK    2  A    between atoms: C5_6  and  C6_7 
REMARK    3  A    between atoms: C6_7  and  C7_8 
REMARK    4  A    between atoms: C9_11  and  O3_12 
REMARK    5  A    between atoms: C10_14  and  O4_15 
REMARK    6  A    between atoms: C12_18  and  O5_19 
REMARK    7  A    between atoms: C12_18  and  C13_21 
ROOT
HETATM    1  C7  UNL     1     -45.234 -29.396  -6.897  1.00  0.00     0.108 C 
HETATM    2  C8  UNL     1     -45.121 -30.341  -7.995  1.00  0.00     0.165 C 
HETATM    3  O2  UNL     1     -45.360 -31.499  -7.954  1.00  0.00    -0.294 OA
HETATM    4  C9  UNL     1     -44.650 -29.780  -9.320  1.00  0.00     0.216 C 
HETATM    5  C10 UNL     1     -44.018 -28.447  -9.001  1.00  0.00     0.157 C 
HETATM    6  C11 UNL     1     -43.100 -28.617  -7.826  1.00  0.00     0.084 C 
HETATM    7  C12 UNL     1     -43.888 -28.785  -6.525  1.00  0.00     0.158 C 
ENDROOT
BRANCH   1   8
HETATM    8  C6  UNL     1     -45.960 -29.838  -5.690  1.00  0.00     0.054 C 
BRANCH   8   9
HETATM    9  C5  UNL     1     -47.428 -29.693  -5.816  1.00  0.00    -0.057 A 
HETATM   10  C4  UNL     1     -48.341 -30.040  -4.848  1.00  0.00     0.010 A 
HETATM   11  C3  UNL     1     -49.716 -29.898  -5.034  1.00  0.00     0.037 A 
HETATM   12  C2  UNL     1     -50.220 -29.397  -6.210  1.00  0.00     0.068 A 
HETATM   13  C15 UNL     1     -49.324 -29.040  -7.200  1.00  0.00     0.037 A 
HETATM   14  C14 UNL     1     -47.973 -29.186  -7.006  1.00  0.00     0.010 A 
BRANCH  12  15
HETATM   15  O1  UNL     1     -51.600 -29.247  -6.416  1.00  0.00    -0.356 OA
HETATM   16  C1  UNL     1     -52.036 -29.070  -7.748  1.00  0.00     0.210 C 
ENDBRANCH  12  15
ENDBRANCH   8   9
ENDBRANCH   1   8
BRANCH   7  17
HETATM   17  O5  UNL     1     -44.128 -27.513  -6.013  1.00  0.00    -0.378 OA
ATOM     18  H5  UNL     1     -44.626 -27.030  -6.663  1.00  0.00     0.211 HD
ENDBRANCH   7  17
BRANCH   7  19
HETATM   19  C13 UNL     1     -43.156 -29.602  -5.542  1.00  0.00     0.210 C 
HETATM   20  O6  UNL     1     -43.075 -29.224  -4.353  1.00  0.00    -0.646 OA
HETATM   21  O7  UNL     1     -42.548 -30.789  -5.901  1.00  0.00    -0.646 OA
ENDBRANCH   7  19
BRANCH   4  22
HETATM   22  O3  UNL     1     -45.671 -29.702 -10.236  1.00  0.00    -0.385 OA
ATOM     23  H3  UNL     1     -45.373 -29.360 -11.071  1.00  0.00     0.210 HD
ENDBRANCH   4  22
BRANCH   5  24
HETATM   24  O4  UNL     1     -43.232 -28.059 -10.093  1.00  0.00    -0.392 OA
ATOM     25  H4  UNL     1     -42.319 -28.195  -9.868  1.00  0.00     0.210 HD
ENDBRANCH   5  24
TORSDOF 7
ENDMDL
