MODEL 16
REMARK VINA RESULT: -6.896865645      3.750      5.833
REMARK  7 active torsions:
REMARK  status: ('A' for Active; 'I' for Inactive)
REMARK    1  A    between atoms: O1_2  and  C2_3 
REMARK    2  A    between atoms: C5_6  and  C6_7 
REMARK    3  A    between atoms: C6_7  and  C7_8 
REMARK    4  A    between atoms: C9_11  and  O3_12 
REMARK    5  A    between atoms: C10_14  and  O4_15 
REMARK    6  A    between atoms: C12_18  and  O5_19 
REMARK    7  A    between atoms: C12_18  and  C13_21 
ROOT
HETATM    1  C7  UNL     1     -48.560 -30.056  -7.494  1.00  0.00     0.108 C 
HETATM    2  C8  UNL     1     -49.881 -29.452  -7.544  1.00  0.00     0.165 C 
HETATM    3  O2  UNL     1     -50.450 -29.086  -8.514  1.00  0.00    -0.294 OA
HETATM    4  C9  UNL     1     -50.592 -29.277  -6.218  1.00  0.00     0.216 C 
HETATM    5  C10 UNL     1     -49.524 -29.402  -5.159  1.00  0.00     0.157 C 
HETATM    6  C11 UNL     1     -48.347 -28.561  -5.559  1.00  0.00     0.084 C 
HETATM    7  C12 UNL     1     -47.569 -29.204  -6.709  1.00  0.00     0.158 C 
ENDROOT
BRANCH   1   8
HETATM    8  C6  UNL     1     -47.969 -30.506  -8.769  1.00  0.00     0.054 C 
BRANCH   8   9
HETATM    9  C5  UNL     1     -48.675 -31.670  -9.351  1.00  0.00    -0.057 A 
HETATM   10  C4  UNL     1     -49.279 -31.690 -10.586  1.00  0.00     0.010 A 
HETATM   11  C3  UNL     1     -49.947 -32.813 -11.073  1.00  0.00     0.037 A 
HETATM   12  C2  UNL     1     -50.028 -33.964 -10.325  1.00  0.00     0.068 A 
HETATM   13  C15 UNL     1     -49.429 -33.971  -9.080  1.00  0.00     0.037 A 
HETATM   14  C14 UNL     1     -48.775 -32.859  -8.611  1.00  0.00     0.010 A 
BRANCH  12  15
HETATM   15  O1  UNL     1     -50.696 -35.104 -10.797  1.00  0.00    -0.356 OA
HETATM   16  C1  UNL     1     -50.102 -35.798 -11.874  1.00  0.00     0.210 C 
ENDBRANCH  12  15
ENDBRANCH   8   9
ENDBRANCH   1   8
BRANCH   7  17
HETATM   17  O5  UNL     1     -46.626 -30.061  -6.149  1.00  0.00    -0.378 OA
ATOM     18  H5  UNL     1     -45.924 -30.170  -6.780  1.00  0.00     0.211 HD
ENDBRANCH   7  17
BRANCH   7  19
HETATM   19  C13 UNL     1     -46.906 -28.197  -7.554  1.00  0.00     0.210 C 
HETATM   20  O6  UNL     1     -47.569 -27.250  -8.032  1.00  0.00    -0.646 OA
HETATM   21  O7  UNL     1     -45.557 -28.269  -7.839  1.00  0.00    -0.646 OA
ENDBRANCH   7  19
BRANCH   4  22
HETATM   22  O3  UNL     1     -51.625 -30.171  -6.069  1.00  0.00    -0.385 OA
ATOM     23  H3  UNL     1     -51.524 -30.702  -5.287  1.00  0.00     0.210 HD
ENDBRANCH   4  22
BRANCH   5  24
HETATM   24  O4  UNL     1     -50.026 -28.877  -3.963  1.00  0.00    -0.392 OA
ATOM     25  H4  UNL     1     -50.074 -29.579  -3.325  1.00  0.00     0.210 HD
ENDBRANCH   5  24
TORSDOF 7
ENDMDL
