MODEL 11
REMARK VINA RESULT: -8.063812254      1.314      3.175
REMARK  6 active torsions:
REMARK  status: ('A' for Active; 'I' for Inactive)
REMARK    1  A    between atoms: C2_3  and  O2_4 
REMARK    2  A    between atoms: C3_6  and  O3_7 
REMARK    3  A    between atoms: C5_10  and  O4_11 
REMARK    4  A    between atoms: C5_10  and  C6_13 
REMARK    5  A    between atoms: C7_16  and  C8_17 
REMARK    6  A    between atoms: C8_17  and  C9_18 
ROOT
HETATM    1  O1  UNL     1      31.604  43.124   8.458  1.00  0.00    -0.294 OA
HETATM    2  C1  UNL     1      30.410  43.321   8.513  1.00  0.00     0.165 C 
HETATM    3  C2  UNL     1      29.479  42.420   9.282  1.00  0.00     0.216 C 
HETATM    4  C3  UNL     1      28.078  42.881   9.040  1.00  0.00     0.157 C 
HETATM    5  C4  UNL     1      27.747  43.050   7.589  1.00  0.00     0.084 C 
HETATM    6  C5  UNL     1      28.797  43.856   6.828  1.00  0.00     0.158 C 
HETATM    7  C7  UNL     1      29.720  44.472   7.833  1.00  0.00     0.108 C 
ENDROOT
BRANCH   7   8
HETATM    8  C8  UNL     1      30.698  45.446   7.273  1.00  0.00     0.061 C 
BRANCH   8   9
HETATM    9  C9  UNL     1      30.133  46.793   7.045  1.00  0.00     0.026 A 
HETATM   10  C10 UNL     1      29.837  47.640   8.112  1.00  0.00     0.167 A 
HETATM   11  F1  UNL     1      30.066  47.213   9.375  1.00  0.00    -0.202 F 
HETATM   12  C11 UNL     1      29.319  48.901   7.916  1.00  0.00     0.197 A 
HETATM   13  F2  UNL     1      29.039  49.709   8.988  1.00  0.00    -0.199 F 
HETATM   14  C12 UNL     1      29.077  49.362   6.654  1.00  0.00     0.199 A 
HETATM   15  F3  UNL     1      28.564  50.603   6.413  1.00  0.00    -0.199 F 
HETATM   16  C13 UNL     1      29.350  48.566   5.565  1.00  0.00     0.197 A 
HETATM   17  F4  UNL     1      29.124  48.987   4.288  1.00  0.00    -0.199 F 
HETATM   18  C14 UNL     1      29.866  47.314   5.796  1.00  0.00     0.167 A 
HETATM   19  F5  UNL     1      30.140  46.544   4.699  1.00  0.00    -0.202 F 
ENDBRANCH   8   9
ENDBRANCH   7   8
BRANCH   6  20
HETATM   20  O4  UNL     1      28.176  44.825   6.048  1.00  0.00    -0.378 OA
ATOM     21  H4  UNL     1      28.306  45.683   6.434  1.00  0.00     0.211 HD
ENDBRANCH   6  20
BRANCH   6  22
HETATM   22  C6  UNL     1      29.511  42.912   5.949  1.00  0.00     0.210 C 
HETATM   23  O5  UNL     1      28.913  41.903   5.501  1.00  0.00    -0.646 OA
HETATM   24  O6  UNL     1      30.830  43.055   5.565  1.00  0.00    -0.646 OA
ENDBRANCH   6  22
BRANCH   3  25
HETATM   25  O2  UNL     1      29.772  42.639  10.639  1.00  0.00    -0.385 OA
ATOM     26  H2  UNL     1      28.931  42.663  11.083  1.00  0.00     0.210 HD
ENDBRANCH   3  25
BRANCH   4  27
HETATM   27  O3  UNL     1      27.206  41.912   9.555  1.00  0.00    -0.392 OA
ATOM     28  H3  UNL     1      27.691  41.101   9.653  1.00  0.00     0.210 HD
ENDBRANCH   4  27
TORSDOF 6
ENDMDL
