MODEL 3
REMARK VINA RESULT: -9.897372877      1.189      3.035
REMARK  6 active torsions:
REMARK  status: ('A' for Active; 'I' for Inactive)
REMARK    1  A    between atoms: C2_3  and  O2_4 
REMARK    2  A    between atoms: C3_6  and  O3_7 
REMARK    3  A    between atoms: C5_10  and  O4_11 
REMARK    4  A    between atoms: C5_10  and  C6_13 
REMARK    5  A    between atoms: C7_16  and  C8_17 
REMARK    6  A    between atoms: C8_17  and  C9_18 
ROOT
HETATM    1  O1  UNL     1      31.208  45.506   7.614  1.00  0.00    -0.294 OA
HETATM    2  C1  UNL     1      30.181  45.026   8.041  1.00  0.00     0.165 C 
HETATM    3  C2  UNL     1      29.964  44.761   9.508  1.00  0.00     0.216 C 
HETATM    4  C3  UNL     1      28.652  44.062   9.668  1.00  0.00     0.157 C 
HETATM    5  C4  UNL     1      28.499  42.868   8.776  1.00  0.00     0.084 C 
HETATM    6  C5  UNL     1      28.866  43.160   7.323  1.00  0.00     0.158 C 
HETATM    7  C7  UNL     1      29.013  44.642   7.174  1.00  0.00     0.108 C 
ENDROOT
BRANCH   7   8
HETATM    8  C8  UNL     1      29.187  45.119   5.775  1.00  0.00     0.061 C 
BRANCH   8   9
HETATM    9  C9  UNL     1      29.275  46.590   5.653  1.00  0.00     0.026 A 
HETATM   10  C10 UNL     1      28.718  47.427   6.619  1.00  0.00     0.167 A 
HETATM   11  F1  UNL     1      28.082  46.877   7.678  1.00  0.00    -0.202 F 
HETATM   12  C11 UNL     1      28.798  48.799   6.526  1.00  0.00     0.197 A 
HETATM   13  F2  UNL     1      28.240  49.593   7.494  1.00  0.00    -0.199 F 
HETATM   14  C12 UNL     1      29.434  49.385   5.470  1.00  0.00     0.199 A 
HETATM   15  F3  UNL     1      29.539  50.738   5.336  1.00  0.00    -0.199 F 
HETATM   16  C13 UNL     1      30.001  48.605   4.487  1.00  0.00     0.197 A 
HETATM   17  F4  UNL     1      30.646  49.149   3.416  1.00  0.00    -0.199 F 
HETATM   18  C14 UNL     1      29.903  47.241   4.611  1.00  0.00     0.167 A 
HETATM   19  F5  UNL     1      30.482  46.485   3.629  1.00  0.00    -0.202 F 
ENDBRANCH   8   9
ENDBRANCH   7   8
BRANCH   6  20
HETATM   20  O4  UNL     1      27.881  42.660   6.477  1.00  0.00    -0.378 OA
ATOM     21  H4  UNL     1      28.135  42.792   5.571  1.00  0.00     0.211 HD
ENDBRANCH   6  20
BRANCH   6  22
HETATM   22  C6  UNL     1      30.136  42.463   7.051  1.00  0.00     0.210 C 
HETATM   23  O5  UNL     1      30.676  41.776   7.952  1.00  0.00    -0.646 OA
HETATM   24  O6  UNL     1      30.802  42.507   5.841  1.00  0.00    -0.646 OA
ENDBRANCH   6  22
BRANCH   3  25
HETATM   25  O2  UNL     1      29.849  46.026  10.111  1.00  0.00    -0.385 OA
ATOM     26  H2  UNL     1      30.688  46.190  10.527  1.00  0.00     0.210 HD
ENDBRANCH   3  25
BRANCH   4  27
HETATM   27  O3  UNL     1      28.560  43.607  10.991  1.00  0.00    -0.392 OA
ATOM     28  H3  UNL     1      27.754  43.112  11.076  1.00  0.00     0.210 HD
ENDBRANCH   4  27
TORSDOF 6
ENDMDL
