MODEL 5
REMARK VINA RESULT: -9.634734868      1.155      3.040
REMARK  6 active torsions:
REMARK  status: ('A' for Active; 'I' for Inactive)
REMARK    1  A    between atoms: C2_3  and  O2_4 
REMARK    2  A    between atoms: C3_6  and  O3_7 
REMARK    3  A    between atoms: C5_10  and  O4_11 
REMARK    4  A    between atoms: C5_10  and  C6_13 
REMARK    5  A    between atoms: C7_16  and  C8_17 
REMARK    6  A    between atoms: C8_17  and  C9_18 
ROOT
HETATM    1  O1  UNL     1      31.600  44.674   7.432  1.00  0.00    -0.294 OA
HETATM    2  C1  UNL     1      30.498  44.785   7.920  1.00  0.00     0.165 C 
HETATM    3  C2  UNL     1      30.241  44.559   9.388  1.00  0.00     0.216 C 
HETATM    4  C3  UNL     1      28.768  44.660   9.625  1.00  0.00     0.157 C 
HETATM    5  C4  UNL     1      27.955  43.808   8.698  1.00  0.00     0.084 C 
HETATM    6  C5  UNL     1      28.353  43.975   7.233  1.00  0.00     0.158 C 
HETATM    7  C7  UNL     1      29.268  45.156   7.137  1.00  0.00     0.108 C 
ENDROOT
BRANCH   7   8
HETATM    8  C8  UNL     1      29.607  45.576   5.750  1.00  0.00     0.061 C 
BRANCH   8   9
HETATM    9  C9  UNL     1      29.578  47.040   5.547  1.00  0.00     0.026 A 
HETATM   10  C10 UNL     1      29.093  47.895   6.537  1.00  0.00     0.167 A 
HETATM   11  F1  UNL     1      28.635  47.367   7.695  1.00  0.00    -0.202 F 
HETATM   12  C11 UNL     1      29.068  49.261   6.368  1.00  0.00     0.197 A 
HETATM   13  F2  UNL     1      28.584  50.073   7.361  1.00  0.00    -0.199 F 
HETATM   14  C12 UNL     1      29.524  49.825   5.211  1.00  0.00     0.199 A 
HETATM   15  F3  UNL     1      29.518  51.173   5.001  1.00  0.00    -0.199 F 
HETATM   16  C13 UNL     1      30.014  49.027   4.202  1.00  0.00     0.197 A 
HETATM   17  F4  UNL     1      30.479  49.549   3.031  1.00  0.00    -0.199 F 
HETATM   18  C14 UNL     1      30.024  47.669   4.403  1.00  0.00     0.167 A 
HETATM   19  F5  UNL     1      30.524  46.896   3.391  1.00  0.00    -0.202 F 
ENDBRANCH   8   9
ENDBRANCH   7   8
BRANCH   6  20
HETATM   20  O4  UNL     1      27.216  44.148   6.451  1.00  0.00    -0.378 OA
ATOM     21  H4  UNL     1      26.907  43.306   6.138  1.00  0.00     0.211 HD
ENDBRANCH   6  20
BRANCH   6  22
HETATM   22  C6  UNL     1      29.034  42.731   6.828  1.00  0.00     0.210 C 
HETATM   23  O5  UNL     1      29.111  42.431   5.611  1.00  0.00    -0.646 OA
HETATM   24  O6  UNL     1      29.615  41.841   7.710  1.00  0.00    -0.646 OA
ENDBRANCH   6  22
BRANCH   3  25
HETATM   25  O2  UNL     1      30.853  45.636  10.052  1.00  0.00    -0.385 OA
ATOM     26  H2  UNL     1      30.959  45.356  10.954  1.00  0.00     0.210 HD
ENDBRANCH   3  25
BRANCH   4  27
HETATM   27  O3  UNL     1      28.506  44.219  10.930  1.00  0.00    -0.392 OA
ATOM     28  H3  UNL     1      27.572  44.295  11.085  1.00  0.00     0.210 HD
ENDBRANCH   4  27
TORSDOF 6
ENDMDL
