MODEL 13
REMARK VINA RESULT: -7.998599123      1.296      3.656
REMARK  6 active torsions:
REMARK  status: ('A' for Active; 'I' for Inactive)
REMARK    1  A    between atoms: C2_3  and  O2_4 
REMARK    2  A    between atoms: C3_6  and  O3_7 
REMARK    3  A    between atoms: C5_10  and  O4_11 
REMARK    4  A    between atoms: C5_10  and  C6_13 
REMARK    5  A    between atoms: C7_16  and  C8_17 
REMARK    6  A    between atoms: C8_17  and  C9_18 
ROOT
HETATM    1  O1  UNL     1      31.614  43.170   8.462  1.00  0.00    -0.294 OA
HETATM    2  C1  UNL     1      30.421  43.370   8.528  1.00  0.00     0.165 C 
HETATM    3  C2  UNL     1      29.501  42.491   9.336  1.00  0.00     0.216 C 
HETATM    4  C3  UNL     1      28.096  42.946   9.102  1.00  0.00     0.157 C 
HETATM    5  C4  UNL     1      27.744  43.073   7.651  1.00  0.00     0.084 C 
HETATM    6  C5  UNL     1      28.783  43.857   6.853  1.00  0.00     0.158 C 
HETATM    7  C7  UNL     1      29.721  44.501   7.826  1.00  0.00     0.108 C 
ENDROOT
BRANCH   7   8
HETATM    8  C8  UNL     1      30.690  45.458   7.225  1.00  0.00     0.061 C 
BRANCH   8   9
HETATM    9  C9  UNL     1      30.139  46.815   7.023  1.00  0.00     0.026 A 
HETATM   10  C10 UNL     1      29.882  47.305   5.744  1.00  0.00     0.167 A 
HETATM   11  F1  UNL     1      30.151  46.523   4.673  1.00  0.00    -0.202 F 
HETATM   12  C11 UNL     1      29.361  48.564   5.539  1.00  0.00     0.197 A 
HETATM   13  F2  UNL     1      29.119  49.015   4.267  1.00  0.00    -0.199 F 
HETATM   14  C12 UNL     1      29.078  49.377   6.598  1.00  0.00     0.199 A 
HETATM   15  F3  UNL     1      28.561  50.630   6.442  1.00  0.00    -0.199 F 
HETATM   16  C13 UNL     1      29.314  48.943   7.883  1.00  0.00     0.197 A 
HETATM   17  F4  UNL     1      29.046  49.722   8.969  1.00  0.00    -0.199 F 
HETATM   18  C14 UNL     1      29.833  47.683   8.052  1.00  0.00     0.167 A 
HETATM   19  F5  UNL     1      30.050  47.268   9.337  1.00  0.00    -0.202 F 
ENDBRANCH   8   9
ENDBRANCH   7   8
BRANCH   6  20
HETATM   20  O4  UNL     1      28.150  44.804   6.054  1.00  0.00    -0.378 OA
ATOM     21  H4  UNL     1      27.772  44.383   5.291  1.00  0.00     0.211 HD
ENDBRANCH   6  20
BRANCH   6  22
HETATM   22  C6  UNL     1      29.484  42.888   5.990  1.00  0.00     0.210 C 
HETATM   23  O5  UNL     1      28.864  41.895   5.535  1.00  0.00    -0.646 OA
HETATM   24  O6  UNL     1      30.814  42.990   5.630  1.00  0.00    -0.646 OA
ENDBRANCH   6  22
BRANCH   3  25
HETATM   25  O2  UNL     1      29.813  42.748  10.682  1.00  0.00    -0.385 OA
ATOM     26  H2  UNL     1      29.776  41.905  11.120  1.00  0.00     0.210 HD
ENDBRANCH   3  25
BRANCH   4  27
HETATM   27  O3  UNL     1      27.232  41.991   9.657  1.00  0.00    -0.392 OA
ATOM     28  H3  UNL     1      26.637  42.439  10.246  1.00  0.00     0.210 HD
ENDBRANCH   4  27
TORSDOF 6
ENDMDL
