MODEL 2
REMARK VINA RESULT: -10.051617812      1.182      3.558
REMARK  6 active torsions:
REMARK  status: ('A' for Active; 'I' for Inactive)
REMARK    1  A    between atoms: C2_3  and  O2_4 
REMARK    2  A    between atoms: C3_6  and  O3_7 
REMARK    3  A    between atoms: C5_10  and  O4_11 
REMARK    4  A    between atoms: C5_10  and  C6_13 
REMARK    5  A    between atoms: C7_16  and  C8_17 
REMARK    6  A    between atoms: C8_17  and  C9_18 
ROOT
HETATM    1  O1  UNL     1      31.186  45.523   7.627  1.00  0.00    -0.294 OA
HETATM    2  C1  UNL     1      30.157  45.039   8.046  1.00  0.00     0.165 C 
HETATM    3  C2  UNL     1      29.936  44.760   9.510  1.00  0.00     0.216 C 
HETATM    4  C3  UNL     1      28.624  44.060   9.658  1.00  0.00     0.157 C 
HETATM    5  C4  UNL     1      28.475  42.873   8.755  1.00  0.00     0.084 C 
HETATM    6  C5  UNL     1      28.846  43.179   7.306  1.00  0.00     0.158 C 
HETATM    7  C7  UNL     1      28.993  44.663   7.171  1.00  0.00     0.108 C 
ENDROOT
BRANCH   7   8
HETATM    8  C8  UNL     1      29.172  45.152   5.777  1.00  0.00     0.061 C 
BRANCH   8   9
HETATM    9  C9  UNL     1      29.277  46.623   5.671  1.00  0.00     0.026 A 
HETATM   10  C10 UNL     1      29.915  47.223   4.585  1.00  0.00     0.167 A 
HETATM   11  F1  UNL     1      30.452  46.439   3.622  1.00  0.00    -0.202 F 
HETATM   12  C11 UNL     1      30.014  48.591   4.467  1.00  0.00     0.197 A 
HETATM   13  F2  UNL     1      30.648  49.149   3.387  1.00  0.00    -0.199 F 
HETATM   14  C12 UNL     1      29.483  49.410   5.421  1.00  0.00     0.199 A 
HETATM   15  F3  UNL     1      29.557  50.770   5.345  1.00  0.00    -0.199 F 
HETATM   16  C13 UNL     1      28.842  48.869   6.514  1.00  0.00     0.197 A 
HETATM   17  F4  UNL     1      28.297  49.650   7.490  1.00  0.00    -0.199 F 
HETATM   18  C14 UNL     1      28.761  47.501   6.601  1.00  0.00     0.167 A 
HETATM   19  F5  UNL     1      28.112  46.986   7.689  1.00  0.00    -0.202 F 
ENDBRANCH   8   9
ENDBRANCH   7   8
BRANCH   6  20
HETATM   20  O4  UNL     1      27.865  42.686   6.452  1.00  0.00    -0.378 OA
ATOM     21  H4  UNL     1      27.299  43.394   6.166  1.00  0.00     0.211 HD
ENDBRANCH   6  20
BRANCH   6  22
HETATM   22  C6  UNL     1      30.118  42.485   7.032  1.00  0.00     0.210 C 
HETATM   23  O5  UNL     1      30.661  41.800   7.933  1.00  0.00    -0.646 OA
HETATM   24  O6  UNL     1      30.781  42.529   5.821  1.00  0.00    -0.646 OA
ENDBRANCH   6  22
BRANCH   3  25
HETATM   25  O2  UNL     1      29.818  46.019  10.124  1.00  0.00    -0.385 OA
ATOM     26  H2  UNL     1      28.932  46.312   9.943  1.00  0.00     0.210 HD
ENDBRANCH   3  25
BRANCH   4  27
HETATM   27  O3  UNL     1      28.527  43.592  10.976  1.00  0.00    -0.392 OA
ATOM     28  H3  UNL     1      27.613  43.407  11.157  1.00  0.00     0.210 HD
ENDBRANCH   4  27
TORSDOF 6
ENDMDL
