MODEL 14
REMARK VINA RESULT: -6.870042151      2.014      6.604
REMARK  7 active torsions:
REMARK  status: ('A' for Active; 'I' for Inactive)
REMARK    1  A    between atoms: O1_2  and  C2_3 
REMARK    2  A    between atoms: C5_6  and  C6_7 
REMARK    3  A    between atoms: C6_7  and  C7_8 
REMARK    4  A    between atoms: C9_11  and  O3_12 
REMARK    5  A    between atoms: C10_14  and  O4_15 
REMARK    6  A    between atoms: C12_18  and  O5_19 
REMARK    7  A    between atoms: C12_18  and  C13_21 
ROOT
HETATM    1  C7  UNL     1      24.426  49.370 -17.586  1.00  0.00     0.108 C 
HETATM    2  C8  UNL     1      23.063  48.909 -17.793  1.00  0.00     0.165 C 
HETATM    3  O2  UNL     1      22.685  47.790 -17.742  1.00  0.00    -0.294 OA
HETATM    4  C9  UNL     1      22.032  49.974 -18.104  1.00  0.00     0.216 C 
HETATM    5  C10 UNL     1      22.814  51.191 -18.532  1.00  0.00     0.157 C 
HETATM    6  C11 UNL     1      23.861  50.770 -19.521  1.00  0.00     0.084 C 
HETATM    7  C12 UNL     1      25.007  50.023 -18.835  1.00  0.00     0.158 C 
ENDROOT
BRANCH   1   8
HETATM    8  C6  UNL     1      25.386  48.415 -16.999  1.00  0.00     0.054 C 
BRANCH   8   9
HETATM    9  C5  UNL     1      25.326  48.374 -15.520  1.00  0.00    -0.057 A 
HETATM   10  C4  UNL     1      26.045  49.191 -14.679  1.00  0.00     0.010 A 
HETATM   11  C3  UNL     1      25.962  49.092 -13.291  1.00  0.00     0.037 A 
HETATM   12  C2  UNL     1      25.143  48.160 -12.698  1.00  0.00     0.068 A 
HETATM   13  C15 UNL     1      24.409  47.326 -13.521  1.00  0.00     0.037 A 
HETATM   14  C14 UNL     1      24.501  47.433 -14.886  1.00  0.00     0.010 A 
BRANCH  12  15
HETATM   15  O1  UNL     1      25.046  48.044 -11.303  1.00  0.00    -0.356 OA
HETATM   16  C1  UNL     1      24.362  49.073 -10.619  1.00  0.00     0.210 C 
ENDBRANCH  12  15
ENDBRANCH   8   9
ENDBRANCH   1   8
BRANCH   7  17
HETATM   17  O5  UNL     1      25.938  50.972 -18.421  1.00  0.00    -0.378 OA
ATOM     18  H5  UNL     1      26.767  50.526 -18.292  1.00  0.00     0.211 HD
ENDBRANCH   7  17
BRANCH   7  19
HETATM   19  C13 UNL     1      25.640  49.043 -19.734  1.00  0.00     0.210 C 
HETATM   20  O6  UNL     1      26.874  49.084 -19.931  1.00  0.00    -0.646 OA
HETATM   21  O7  UNL     1      24.900  48.070 -20.375  1.00  0.00    -0.646 OA
ENDBRANCH   7  19
BRANCH   4  22
HETATM   22  O3  UNL     1      21.194  50.201 -17.040  1.00  0.00    -0.385 OA
ATOM     23  H3  UNL     1      21.615  50.009 -16.209  1.00  0.00     0.210 HD
ENDBRANCH   4  22
BRANCH   5  24
HETATM   24  O4  UNL     1      21.943  52.066 -19.191  1.00  0.00    -0.392 OA
ATOM     25  H4  UNL     1      21.186  52.210 -18.636  1.00  0.00     0.210 HD
ENDBRANCH   5  24
TORSDOF 7
ENDMDL
