MODEL 8
REMARK VINA RESULT: -8.278357447      1.607      3.698
REMARK  7 active torsions:
REMARK  status: ('A' for Active; 'I' for Inactive)
REMARK    1  A    between atoms: O1_2  and  C2_3 
REMARK    2  A    between atoms: C5_6  and  C6_7 
REMARK    3  A    between atoms: C6_7  and  C7_8 
REMARK    4  A    between atoms: C9_11  and  O3_12 
REMARK    5  A    between atoms: C10_14  and  O4_15 
REMARK    6  A    between atoms: C12_18  and  O5_19 
REMARK    7  A    between atoms: C12_18  and  C13_21 
ROOT
HETATM    1  C7  UNL     1      24.100  48.195 -13.458  1.00  0.00     0.108 C 
HETATM    2  C8  UNL     1      22.974  49.085 -13.227  1.00  0.00     0.165 C 
HETATM    3  O2  UNL     1      22.837  50.174 -13.669  1.00  0.00    -0.294 OA
HETATM    4  C9  UNL     1      21.873  48.559 -12.331  1.00  0.00     0.216 C 
HETATM    5  C10 UNL     1      22.473  47.395 -11.581  1.00  0.00     0.157 C 
HETATM    6  C11 UNL     1      23.816  47.803 -11.052  1.00  0.00     0.084 C 
HETATM    7  C12 UNL     1      24.856  47.881 -12.172  1.00  0.00     0.158 C 
ENDROOT
BRANCH   1   8
HETATM    8  C6  UNL     1      25.035  48.548 -14.543  1.00  0.00     0.054 C 
BRANCH   8   9
HETATM    9  C5  UNL     1      24.366  48.692 -15.856  1.00  0.00    -0.057 A 
HETATM   10  C4  UNL     1      24.808  49.492 -16.883  1.00  0.00     0.010 A 
HETATM   11  C3  UNL     1      24.123  49.601 -18.092  1.00  0.00     0.037 A 
HETATM   12  C2  UNL     1      22.959  48.902 -18.309  1.00  0.00     0.068 A 
HETATM   13  C15 UNL     1      22.493  48.090 -17.292  1.00  0.00     0.037 A 
HETATM   14  C14 UNL     1      23.176  47.991 -16.106  1.00  0.00     0.010 A 
BRANCH  12  15
HETATM   15  O1  UNL     1      22.254  48.999 -19.518  1.00  0.00    -0.356 OA
HETATM   16  C1  UNL     1      21.814  50.284 -19.904  1.00  0.00     0.210 C 
ENDBRANCH  12  15
ENDBRANCH   8   9
ENDBRANCH   1   8
BRANCH   7  17
HETATM   17  O5  UNL     1      25.418  46.615 -12.310  1.00  0.00    -0.378 OA
ATOM     18  H5  UNL     1      24.922  46.018 -11.762  1.00  0.00     0.211 HD
ENDBRANCH   7  17
BRANCH   7  19
HETATM   19  C13 UNL     1      25.902  48.876 -11.882  1.00  0.00     0.210 C 
HETATM   20  O6  UNL     1      27.102  48.601 -12.100  1.00  0.00    -0.646 OA
HETATM   21  O7  UNL     1      25.591  50.120 -11.368  1.00  0.00    -0.646 OA
ENDBRANCH   7  19
BRANCH   4  22
HETATM   22  O3  UNL     1      20.744  48.235 -13.043  1.00  0.00    -0.385 OA
ATOM     23  H3  UNL     1      20.446  47.352 -12.853  1.00  0.00     0.210 HD
ENDBRANCH   4  22
BRANCH   5  24
HETATM   24  O4  UNL     1      21.657  47.113 -10.479  1.00  0.00    -0.392 OA
ATOM     25  H4  UNL     1      22.215  46.938  -9.730  1.00  0.00     0.210 HD
ENDBRANCH   5  24
TORSDOF 7
ENDMDL
