MODEL 13
REMARK VINA RESULT: -6.973710521      1.999      6.547
REMARK  7 active torsions:
REMARK  status: ('A' for Active; 'I' for Inactive)
REMARK    1  A    between atoms: O1_2  and  C2_3 
REMARK    2  A    between atoms: C5_6  and  C6_7 
REMARK    3  A    between atoms: C6_7  and  C7_8 
REMARK    4  A    between atoms: C9_11  and  O3_12 
REMARK    5  A    between atoms: C10_14  and  O4_15 
REMARK    6  A    between atoms: C12_18  and  O5_19 
REMARK    7  A    between atoms: C12_18  and  C13_21 
ROOT
HETATM    1  C7  UNL     1      24.437  49.345 -17.488  1.00  0.00     0.108 C 
HETATM    2  C8  UNL     1      23.077  48.883 -17.709  1.00  0.00     0.165 C 
HETATM    3  O2  UNL     1      22.694  47.766 -17.638  1.00  0.00    -0.294 OA
HETATM    4  C9  UNL     1      22.055  49.942 -18.066  1.00  0.00     0.216 C 
HETATM    5  C10 UNL     1      22.849  51.147 -18.510  1.00  0.00     0.157 C 
HETATM    6  C11 UNL     1      23.913  50.698 -19.468  1.00  0.00     0.084 C 
HETATM    7  C12 UNL     1      25.044  49.965 -18.741  1.00  0.00     0.158 C 
ENDROOT
BRANCH   1   8
HETATM    8  C6  UNL     1      25.382  48.402 -16.859  1.00  0.00     0.054 C 
BRANCH   8   9
HETATM    9  C5  UNL     1      25.233  48.333 -15.388  1.00  0.00    -0.057 A 
HETATM   10  C4  UNL     1      24.337  47.529 -14.722  1.00  0.00     0.010 A 
HETATM   11  C3  UNL     1      24.229  47.522 -13.333  1.00  0.00     0.037 A 
HETATM   12  C2  UNL     1      25.028  48.330 -12.559  1.00  0.00     0.068 A 
HETATM   13  C15 UNL     1      25.939  49.148 -13.203  1.00  0.00     0.037 A 
HETATM   14  C14 UNL     1      26.035  49.146 -14.572  1.00  0.00     0.010 A 
BRANCH  12  15
HETATM   15  O1  UNL     1      24.935  48.338 -11.159  1.00  0.00    -0.356 OA
HETATM   16  C1  UNL     1      23.867  49.067 -10.591  1.00  0.00     0.210 C 
ENDBRANCH  12  15
ENDBRANCH   8   9
ENDBRANCH   1   8
BRANCH   7  17
HETATM   17  O5  UNL     1      25.969  50.921 -18.334  1.00  0.00    -0.378 OA
ATOM     18  H5  UNL     1      26.803  50.483 -18.212  1.00  0.00     0.211 HD
ENDBRANCH   7  17
BRANCH   7  19
HETATM   19  C13 UNL     1      25.691  48.962 -19.603  1.00  0.00     0.210 C 
HETATM   20  O6  UNL     1      24.993  48.217 -20.326  1.00  0.00    -0.646 OA
HETATM   21  O7  UNL     1      27.063  48.817 -19.636  1.00  0.00    -0.646 OA
ENDBRANCH   7  19
BRANCH   4  22
HETATM   22  O3  UNL     1      21.198  50.198 -17.025  1.00  0.00    -0.385 OA
ATOM     23  H3  UNL     1      21.519  50.896 -16.464  1.00  0.00     0.210 HD
ENDBRANCH   4  22
BRANCH   5  24
HETATM   24  O4  UNL     1      21.994  52.007 -19.207  1.00  0.00    -0.392 OA
ATOM     25  H4  UNL     1      21.191  51.537 -19.402  1.00  0.00     0.210 HD
ENDBRANCH   5  24
TORSDOF 7
ENDMDL
