MODEL 17
REMARK VINA RESULT: -6.300795209      2.653      3.342
REMARK  7 active torsions:
REMARK  status: ('A' for Active; 'I' for Inactive)
REMARK    1  A    between atoms: O1_2  and  C2_3 
REMARK    2  A    between atoms: C5_6  and  C6_7 
REMARK    3  A    between atoms: C6_7  and  C7_8 
REMARK    4  A    between atoms: C9_11  and  O3_12 
REMARK    5  A    between atoms: C10_14  and  O4_15 
REMARK    6  A    between atoms: C12_18  and  O5_19 
REMARK    7  A    between atoms: C12_18  and  C13_21 
ROOT
HETATM    1  C7  UNL     1      23.475  48.744 -15.626  1.00  0.00     0.108 C 
HETATM    2  C8  UNL     1      24.738  48.051 -15.817  1.00  0.00     0.165 C 
HETATM    3  O2  UNL     1      24.952  47.181 -16.589  1.00  0.00    -0.294 OA
HETATM    4  C9  UNL     1      25.888  48.491 -14.936  1.00  0.00     0.216 C 
HETATM    5  C10 UNL     1      25.263  49.256 -13.795  1.00  0.00     0.157 C 
HETATM    6  C11 UNL     1      24.099  48.471 -13.268  1.00  0.00     0.084 C 
HETATM    7  C12 UNL     1      22.908  48.528 -14.227  1.00  0.00     0.158 C 
ENDROOT
BRANCH   1   8
HETATM    8  C6  UNL     1      22.431  48.551 -16.651  1.00  0.00     0.054 C 
BRANCH   8   9
HETATM    9  C5  UNL     1      22.108  49.796 -17.384  1.00  0.00    -0.057 A 
HETATM   10  C4  UNL     1      22.775  50.252 -18.497  1.00  0.00     0.010 A 
HETATM   11  C3  UNL     1      22.436  51.445 -19.134  1.00  0.00     0.037 A 
HETATM   12  C2  UNL     1      21.404  52.224 -18.668  1.00  0.00     0.068 A 
HETATM   13  C15 UNL     1      20.716  51.788 -17.551  1.00  0.00     0.037 A 
HETATM   14  C14 UNL     1      21.060  50.613 -16.932  1.00  0.00     0.010 A 
BRANCH  12  15
HETATM   15  O1  UNL     1      21.047  53.428 -19.295  1.00  0.00    -0.356 OA
HETATM   16  C1  UNL     1      21.246  54.618 -18.560  1.00  0.00     0.210 C 
ENDBRANCH  12  15
ENDBRANCH   8   9
ENDBRANCH   1   8
BRANCH   7  17
HETATM   17  O5  UNL     1      22.157  49.652 -13.897  1.00  0.00    -0.378 OA
ATOM     18  H5  UNL     1      21.972  49.613 -12.966  1.00  0.00     0.211 HD
ENDBRANCH   7  17
BRANCH   7  19
HETATM   19  C13 UNL     1      22.077  47.315 -14.143  1.00  0.00     0.210 C 
HETATM   20  O6  UNL     1      21.045  47.313 -13.436  1.00  0.00    -0.646 OA
HETATM   21  O7  UNL     1      22.409  46.165 -14.831  1.00  0.00    -0.646 OA
ENDBRANCH   7  19
BRANCH   4  22
HETATM   22  O3  UNL     1      26.824  49.211 -15.637  1.00  0.00    -0.385 OA
ATOM     23  H3  UNL     1      26.648  50.145 -15.609  1.00  0.00     0.210 HD
ENDBRANCH   4  22
BRANCH   5  24
HETATM   24  O4  UNL     1      26.203  49.356 -12.763  1.00  0.00    -0.392 OA
ATOM     25  H4  UNL     1      25.741  49.550 -11.956  1.00  0.00     0.210 HD
ENDBRANCH   5  24
TORSDOF 7
ENDMDL
