MODEL 7
REMARK VINA RESULT: -8.292095610      1.189      3.520
REMARK  7 active torsions:
REMARK  status: ('A' for Active; 'I' for Inactive)
REMARK    1  A    between atoms: O1_2  and  C2_3 
REMARK    2  A    between atoms: C5_6  and  C6_7 
REMARK    3  A    between atoms: C6_7  and  C7_8 
REMARK    4  A    between atoms: C9_11  and  O3_12 
REMARK    5  A    between atoms: C10_14  and  O4_15 
REMARK    6  A    between atoms: C12_18  and  O5_19 
REMARK    7  A    between atoms: C12_18  and  C13_21 
ROOT
HETATM    1  C7  UNL     1      24.435  48.481 -13.473  1.00  0.00     0.108 C 
HETATM    2  C8  UNL     1      23.345  49.442 -13.451  1.00  0.00     0.165 C 
HETATM    3  O2  UNL     1      23.425  50.600 -13.680  1.00  0.00    -0.294 OA
HETATM    4  C9  UNL     1      21.976  48.901 -13.096  1.00  0.00     0.216 C 
HETATM    5  C10 UNL     1      22.219  47.562 -12.444  1.00  0.00     0.157 C 
HETATM    6  C11 UNL     1      23.314  47.711 -11.429  1.00  0.00     0.084 C 
HETATM    7  C12 UNL     1      24.681  47.860 -12.102  1.00  0.00     0.158 C 
ENDROOT
BRANCH   1   8
HETATM    8  C6  UNL     1      25.706  48.906 -14.091  1.00  0.00     0.054 C 
BRANCH   8   9
HETATM    9  C5  UNL     1      25.643  48.939 -15.570  1.00  0.00    -0.057 A 
HETATM   10  C4  UNL     1      26.704  49.221 -16.398  1.00  0.00     0.010 A 
HETATM   11  C3  UNL     1      26.578  49.257 -17.786  1.00  0.00     0.037 A 
HETATM   12  C2  UNL     1      25.370  49.005 -18.392  1.00  0.00     0.068 A 
HETATM   13  C15 UNL     1      24.287  48.718 -17.581  1.00  0.00     0.037 A 
HETATM   14  C14 UNL     1      24.423  48.687 -16.216  1.00  0.00     0.010 A 
BRANCH  12  15
HETATM   15  O1  UNL     1      25.223  49.037 -19.787  1.00  0.00    -0.356 OA
HETATM   16  C1  UNL     1      26.100  49.878 -20.507  1.00  0.00     0.210 C 
ENDBRANCH  12  15
ENDBRANCH   8   9
ENDBRANCH   1   8
BRANCH   7  17
HETATM   17  O5  UNL     1      25.191  46.581 -12.302  1.00  0.00    -0.378 OA
ATOM     18  H5  UNL     1      24.456  45.980 -12.345  1.00  0.00     0.211 HD
ENDBRANCH   7  17
BRANCH   7  19
HETATM   19  C13 UNL     1      25.610  48.660 -11.286  1.00  0.00     0.210 C 
HETATM   20  O6  UNL     1      26.812  48.327 -11.203  1.00  0.00    -0.646 OA
HETATM   21  O7  UNL     1      25.185  49.780 -10.599  1.00  0.00    -0.646 OA
ENDBRANCH   7  19
BRANCH   4  22
HETATM   22  O3  UNL     1      21.150  48.840 -14.192  1.00  0.00    -0.385 OA
ATOM     23  H3  UNL     1      20.306  49.243 -14.023  1.00  0.00     0.210 HD
ENDBRANCH   4  22
BRANCH   5  24
HETATM   24  O4  UNL     1      21.059  47.189 -11.757  1.00  0.00    -0.392 OA
ATOM     25  H4  UNL     1      20.562  46.595 -12.307  1.00  0.00     0.210 HD
ENDBRANCH   5  24
TORSDOF 7
ENDMDL
