MODEL 9
REMARK VINA RESULT: -7.888432425      1.450      3.415
REMARK  7 active torsions:
REMARK  status: ('A' for Active; 'I' for Inactive)
REMARK    1  A    between atoms: O1_2  and  C2_3 
REMARK    2  A    between atoms: C5_6  and  C6_7 
REMARK    3  A    between atoms: C6_7  and  C7_8 
REMARK    4  A    between atoms: C9_11  and  O3_12 
REMARK    5  A    between atoms: C10_14  and  O4_15 
REMARK    6  A    between atoms: C12_18  and  O5_19 
REMARK    7  A    between atoms: C12_18  and  C13_21 
ROOT
HETATM    1  C7  UNL     1      24.080  47.957 -12.968  1.00  0.00     0.108 C 
HETATM    2  C8  UNL     1      23.299  49.040 -13.541  1.00  0.00     0.165 C 
HETATM    3  O2  UNL     1      23.679  49.843 -14.322  1.00  0.00    -0.294 OA
HETATM    4  C9  UNL     1      21.858  49.144 -13.089  1.00  0.00     0.216 C 
HETATM    5  C10 UNL     1      21.763  48.325 -11.825  1.00  0.00     0.157 C 
HETATM    6  C11 UNL     1      22.915  48.680 -10.932  1.00  0.00     0.084 C 
HETATM    7  C12 UNL     1      24.228  48.093 -11.456  1.00  0.00     0.158 C 
ENDROOT
BRANCH   1   8
HETATM    8  C6  UNL     1      25.379  47.647 -13.595  1.00  0.00     0.054 C 
BRANCH   8   9
HETATM    9  C5  UNL     1      25.412  47.969 -15.040  1.00  0.00    -0.057 A 
HETATM   10  C4  UNL     1      24.588  47.414 -15.991  1.00  0.00     0.010 A 
HETATM   11  C3  UNL     1      24.679  47.743 -17.343  1.00  0.00     0.037 A 
HETATM   12  C2  UNL     1      25.612  48.651 -17.785  1.00  0.00     0.068 A 
HETATM   13  C15 UNL     1      26.452  49.224 -16.850  1.00  0.00     0.037 A 
HETATM   14  C14 UNL     1      26.353  48.892 -15.522  1.00  0.00     0.010 A 
BRANCH  12  15
HETATM   15  O1  UNL     1      25.720  48.996 -19.141  1.00  0.00    -0.356 OA
HETATM   16  C1  UNL     1      26.636  50.019 -19.473  1.00  0.00     0.210 C 
ENDBRANCH  12  15
ENDBRANCH   8   9
ENDBRANCH   1   8
BRANCH   7  17
HETATM   17  O5  UNL     1      24.355  46.812 -10.927  1.00  0.00    -0.378 OA
ATOM     18  H5  UNL     1      25.119  46.410 -11.325  1.00  0.00     0.211 HD
ENDBRANCH   7  17
BRANCH   7  19
HETATM   19  C13 UNL     1      25.387  48.920 -11.081  1.00  0.00     0.210 C 
HETATM   20  O6  UNL     1      26.544  48.457 -11.189  1.00  0.00    -0.646 OA
HETATM   21  O7  UNL     1      25.232  50.207 -10.607  1.00  0.00    -0.646 OA
ENDBRANCH   7  19
BRANCH   4  22
HETATM   22  O3  UNL     1      20.983  48.748 -14.071  1.00  0.00    -0.385 OA
ATOM     23  H3  UNL     1      20.832  47.810 -14.054  1.00  0.00     0.210 HD
ENDBRANCH   4  22
BRANCH   5  24
HETATM   24  O4  UNL     1      20.588  48.683 -11.154  1.00  0.00    -0.392 OA
ATOM     25  H4  UNL     1      20.804  49.337 -10.499  1.00  0.00     0.210 HD
ENDBRANCH   5  24
TORSDOF 7
ENDMDL
