MODEL 6
REMARK VINA RESULT: -8.338810684      1.633      3.644
REMARK  7 active torsions:
REMARK  status: ('A' for Active; 'I' for Inactive)
REMARK    1  A    between atoms: O1_2  and  C2_3 
REMARK    2  A    between atoms: C5_6  and  C6_7 
REMARK    3  A    between atoms: C6_7  and  C7_8 
REMARK    4  A    between atoms: C9_11  and  O3_12 
REMARK    5  A    between atoms: C10_14  and  O4_15 
REMARK    6  A    between atoms: C12_18  and  O5_19 
REMARK    7  A    between atoms: C12_18  and  C13_21 
ROOT
HETATM    1  C7  UNL     1      24.068  48.175 -13.420  1.00  0.00     0.108 C 
HETATM    2  C8  UNL     1      22.959  49.070 -13.137  1.00  0.00     0.165 C 
HETATM    3  O2  UNL     1      22.799  50.153 -13.583  1.00  0.00    -0.294 OA
HETATM    4  C9  UNL     1      21.909  48.557 -12.173  1.00  0.00     0.216 C 
HETATM    5  C10 UNL     1      22.549  47.401 -11.444  1.00  0.00     0.157 C 
HETATM    6  C11 UNL     1      23.921  47.812 -10.997  1.00  0.00     0.084 C 
HETATM    7  C12 UNL     1      24.896  47.874 -12.175  1.00  0.00     0.158 C 
ENDROOT
BRANCH   1   8
HETATM    8  C6  UNL     1      24.942  48.512 -14.560  1.00  0.00     0.054 C 
BRANCH   8   9
HETATM    9  C5  UNL     1      24.202  48.626 -15.838  1.00  0.00    -0.057 A 
HETATM   10  C4  UNL     1      23.045  47.948 -16.143  1.00  0.00     0.010 A 
HETATM   11  C3  UNL     1      22.404  48.081 -17.373  1.00  0.00     0.037 A 
HETATM   12  C2  UNL     1      22.910  48.910 -18.346  1.00  0.00     0.068 A 
HETATM   13  C15 UNL     1      24.072  49.604 -18.065  1.00  0.00     0.037 A 
HETATM   14  C14 UNL     1      24.695  49.463 -16.850  1.00  0.00     0.010 A 
BRANCH  12  15
HETATM   15  O1  UNL     1      22.280  49.058 -19.591  1.00  0.00    -0.356 OA
HETATM   16  C1  UNL     1      21.773  50.338 -19.907  1.00  0.00     0.210 C 
ENDBRANCH  12  15
ENDBRANCH   8   9
ENDBRANCH   1   8
BRANCH   7  17
HETATM   17  O5  UNL     1      25.447  46.606 -12.329  1.00  0.00    -0.378 OA
ATOM     18  H5  UNL     1      26.095  46.487 -11.645  1.00  0.00     0.211 HD
ENDBRANCH   7  17
BRANCH   7  19
HETATM   19  C13 UNL     1      25.958  48.870 -11.957  1.00  0.00     0.210 C 
HETATM   20  O6  UNL     1      27.148  48.579 -12.208  1.00  0.00    -0.646 OA
HETATM   21  O7  UNL     1      25.674  50.133 -11.475  1.00  0.00    -0.646 OA
ENDBRANCH   7  19
BRANCH   4  22
HETATM   22  O3  UNL     1      20.741  48.226 -12.816  1.00  0.00    -0.385 OA
ATOM     23  H3  UNL     1      20.556  48.816 -13.539  1.00  0.00     0.210 HD
ENDBRANCH   4  22
BRANCH   5  24
HETATM   24  O4  UNL     1      21.797  47.133 -10.294  1.00  0.00    -0.392 OA
ATOM     25  H4  UNL     1      20.969  46.750 -10.561  1.00  0.00     0.210 HD
ENDBRANCH   5  24
TORSDOF 7
ENDMDL
