MODEL 5
REMARK VINA RESULT: -8.467748897      1.177      3.388
REMARK  7 active torsions:
REMARK  status: ('A' for Active; 'I' for Inactive)
REMARK    1  A    between atoms: O1_2  and  C2_3 
REMARK    2  A    between atoms: C5_6  and  C6_7 
REMARK    3  A    between atoms: C6_7  and  C7_8 
REMARK    4  A    between atoms: C9_11  and  O3_12 
REMARK    5  A    between atoms: C10_14  and  O4_15 
REMARK    6  A    between atoms: C12_18  and  O5_19 
REMARK    7  A    between atoms: C12_18  and  C13_21 
ROOT
HETATM    1  C7  UNL     1      24.425  48.442 -13.508  1.00  0.00     0.108 C 
HETATM    2  C8  UNL     1      23.327  49.393 -13.471  1.00  0.00     0.165 C 
HETATM    3  O2  UNL     1      23.383  50.543 -13.739  1.00  0.00    -0.294 OA
HETATM    4  C9  UNL     1      21.979  48.848 -13.045  1.00  0.00     0.216 C 
HETATM    5  C10 UNL     1      22.264  47.532 -12.363  1.00  0.00     0.157 C 
HETATM    6  C11 UNL     1      23.397  47.724 -11.399  1.00  0.00     0.084 C 
HETATM    7  C12 UNL     1      24.733  47.866 -12.130  1.00  0.00     0.158 C 
ENDROOT
BRANCH   1   8
HETATM    8  C6  UNL     1      25.665  48.861 -14.191  1.00  0.00     0.054 C 
BRANCH   8   9
HETATM    9  C5  UNL     1      25.522  48.914 -15.663  1.00  0.00    -0.057 A 
HETATM   10  C4  UNL     1      24.369  48.625 -16.355  1.00  0.00     0.010 A 
HETATM   11  C3  UNL     1      24.301  48.673 -17.747  1.00  0.00     0.037 A 
HETATM   12  C2  UNL     1      25.402  49.019 -18.494  1.00  0.00     0.068 A 
HETATM   13  C15 UNL     1      26.574  49.315 -17.823  1.00  0.00     0.037 A 
HETATM   14  C14 UNL     1      26.628  49.263 -16.453  1.00  0.00     0.010 A 
BRANCH  12  15
HETATM   15  O1  UNL     1      25.354  49.073 -19.896  1.00  0.00    -0.356 OA
HETATM   16  C1  UNL     1      26.154  50.050 -20.529  1.00  0.00     0.210 C 
ENDBRANCH  12  15
ENDBRANCH   8   9
ENDBRANCH   1   8
BRANCH   7  17
HETATM   17  O5  UNL     1      25.250  46.587 -12.313  1.00  0.00    -0.378 OA
ATOM     18  H5  UNL     1      26.074  46.539 -11.842  1.00  0.00     0.211 HD
ENDBRANCH   7  17
BRANCH   7  19
HETATM   19  C13 UNL     1      25.685  48.700 -11.377  1.00  0.00     0.210 C 
HETATM   20  O6  UNL     1      26.892  48.377 -11.326  1.00  0.00    -0.646 OA
HETATM   21  O7  UNL     1      25.277  49.842 -10.717  1.00  0.00    -0.646 OA
ENDBRANCH   7  19
BRANCH   4  22
HETATM   22  O3  UNL     1      21.110  48.746 -14.104  1.00  0.00    -0.385 OA
ATOM     23  H3  UNL     1      20.258  49.114 -13.900  1.00  0.00     0.210 HD
ENDBRANCH   4  22
BRANCH   5  24
HETATM   24  O4  UNL     1      21.136  47.169 -11.618  1.00  0.00    -0.392 OA
ATOM     25  H4  UNL     1      20.365  47.302 -12.157  1.00  0.00     0.210 HD
ENDBRANCH   5  24
TORSDOF 7
ENDMDL
