MODEL 19
REMARK VINA RESULT: -6.030886698      2.663      3.942
REMARK  6 active torsions:
REMARK  status: ('A' for Active; 'I' for Inactive)
REMARK    1  A    between atoms: C2_3  and  O2_4 
REMARK    2  A    between atoms: C3_6  and  O3_7 
REMARK    3  A    between atoms: C5_10  and  O4_11 
REMARK    4  A    between atoms: C5_10  and  C6_13 
REMARK    5  A    between atoms: C7_16  and  C8_17 
REMARK    6  A    between atoms: C8_17  and  C9_18 
ROOT
HETATM    1  O1  UNL     1      24.827  47.404 -18.404  1.00  0.00    -0.294 OA
HETATM    2  C1  UNL     1      24.763  48.170 -17.467  1.00  0.00     0.165 C 
HETATM    3  C2  UNL     1      25.932  48.416 -16.549  1.00  0.00     0.216 C 
HETATM    4  C3  UNL     1      25.475  49.313 -15.443  1.00  0.00     0.157 C 
HETATM    5  C4  UNL     1      24.224  48.839 -14.768  1.00  0.00     0.084 C 
HETATM    6  C5  UNL     1      23.118  48.470 -15.755  1.00  0.00     0.158 C 
HETATM    7  C7  UNL     1      23.531  48.955 -17.110  1.00  0.00     0.108 C 
ENDROOT
BRANCH   7   8
HETATM    8  C8  UNL     1      22.484  48.844 -18.163  1.00  0.00     0.061 C 
BRANCH   8   9
HETATM    9  C9  UNL     1      22.350  50.054 -19.000  1.00  0.00     0.026 A 
HETATM   10  C10 UNL     1      21.249  50.901 -18.871  1.00  0.00     0.167 A 
HETATM   11  F1  UNL     1      20.289  50.598 -17.968  1.00  0.00    -0.202 F 
HETATM   12  C11 UNL     1      21.113  52.037 -19.637  1.00  0.00     0.197 A 
HETATM   13  F2  UNL     1      20.019  52.849 -19.485  1.00  0.00    -0.199 F 
HETATM   14  C12 UNL     1      22.066  52.371 -20.556  1.00  0.00     0.199 A 
HETATM   15  F3  UNL     1      21.973  53.487 -21.336  1.00  0.00    -0.199 F 
HETATM   16  C13 UNL     1      23.173  51.570 -20.724  1.00  0.00     0.197 A 
HETATM   17  F4  UNL     1      24.147  51.866 -21.630  1.00  0.00    -0.199 F 
HETATM   18  C14 UNL     1      23.277  50.444 -19.944  1.00  0.00     0.167 A 
HETATM   19  F5  UNL     1      24.389  49.668 -20.121  1.00  0.00    -0.202 F 
ENDBRANCH   8   9
ENDBRANCH   7   8
BRANCH   6  20
HETATM   20  O4  UNL     1      21.916  49.044 -15.354  1.00  0.00    -0.378 OA
ATOM     21  H4  UNL     1      21.617  49.660 -16.013  1.00  0.00     0.211 HD
ENDBRANCH   6  20
BRANCH   6  22
HETATM   22  C6  UNL     1      22.987  47.002 -15.725  1.00  0.00     0.210 C 
HETATM   23  O5  UNL     1      22.293  46.421 -16.595  1.00  0.00    -0.646 OA
HETATM   24  O6  UNL     1      23.588  46.187 -14.785  1.00  0.00    -0.646 OA
ENDBRANCH   6  22
BRANCH   3  25
HETATM   25  O2  UNL     1      26.873  49.128 -17.313  1.00  0.00    -0.385 OA
ATOM     26  H2  UNL     1      26.419  49.903 -17.624  1.00  0.00     0.210 HD
ENDBRANCH   3  25
BRANCH   4  27
HETATM   27  O3  UNL     1      26.483  49.351 -14.469  1.00  0.00    -0.392 OA
ATOM     28  H3  UNL     1      26.840  50.231 -14.449  1.00  0.00     0.210 HD
ENDBRANCH   4  27
TORSDOF 6
ENDMDL
