MODEL 12
REMARK VINA RESULT: -7.312331136      1.253      3.467
REMARK  6 active torsions:
REMARK  status: ('A' for Active; 'I' for Inactive)
REMARK    1  A    between atoms: C2_3  and  O2_4 
REMARK    2  A    between atoms: C3_6  and  O3_7 
REMARK    3  A    between atoms: C5_10  and  O4_11 
REMARK    4  A    between atoms: C5_10  and  C6_13 
REMARK    5  A    between atoms: C7_16  and  C8_17 
REMARK    6  A    between atoms: C8_17  and  C9_18 
ROOT
HETATM    1  O1  UNL     1      24.357  49.906 -14.691  1.00  0.00    -0.294 OA
HETATM    2  C1  UNL     1      23.703  49.066 -14.114  1.00  0.00     0.165 C 
HETATM    3  C2  UNL     1      22.445  49.406 -13.357  1.00  0.00     0.216 C 
HETATM    4  C3  UNL     1      21.962  48.166 -12.674  1.00  0.00     0.157 C 
HETATM    5  C4  UNL     1      23.022  47.477 -11.869  1.00  0.00     0.084 C 
HETATM    6  C5  UNL     1      24.325  47.284 -12.643  1.00  0.00     0.158 C 
HETATM    7  C7  UNL     1      24.057  47.605 -14.080  1.00  0.00     0.108 C 
ENDROOT
BRANCH   7   8
HETATM    8  C8  UNL     1      25.175  47.289 -15.012  1.00  0.00     0.061 C 
BRANCH   8   9
HETATM    9  C9  UNL     1      25.011  47.875 -16.360  1.00  0.00     0.026 A 
HETATM   10  C10 UNL     1      26.065  48.534 -16.992  1.00  0.00     0.167 A 
HETATM   11  F1  UNL     1      27.251  48.642 -16.353  1.00  0.00    -0.202 F 
HETATM   12  C11 UNL     1      25.931  49.077 -18.251  1.00  0.00     0.197 A 
HETATM   13  F2  UNL     1      26.987  49.718 -18.844  1.00  0.00    -0.199 F 
HETATM   14  C12 UNL     1      24.746  48.985 -18.923  1.00  0.00     0.199 A 
HETATM   15  F3  UNL     1      24.568  49.507 -20.170  1.00  0.00    -0.199 F 
HETATM   16  C13 UNL     1      23.673  48.345 -18.344  1.00  0.00     0.197 A 
HETATM   17  F4  UNL     1      22.473  48.230 -18.980  1.00  0.00    -0.199 F 
HETATM   18  C14 UNL     1      23.841  47.814 -17.089  1.00  0.00     0.167 A 
HETATM   19  F5  UNL     1      22.765  47.174 -16.537  1.00  0.00    -0.202 F 
ENDBRANCH   8   9
ENDBRANCH   7   8
BRANCH   6  20
HETATM   20  O4  UNL     1      24.775  45.976 -12.490  1.00  0.00    -0.378 OA
ATOM     21  H4  UNL     1      25.220  45.883 -11.655  1.00  0.00     0.211 HD
ENDBRANCH   6  20
BRANCH   6  22
HETATM   22  C6  UNL     1      25.314  48.208 -12.059  1.00  0.00     0.210 C 
HETATM   23  O5  UNL     1      25.101  48.718 -10.932  1.00  0.00    -0.646 OA
HETATM   24  O6  UNL     1      26.497  48.569 -12.675  1.00  0.00    -0.646 OA
ENDBRANCH   6  22
BRANCH   3  25
HETATM   25  O2  UNL     1      21.494  49.750 -14.334  1.00  0.00    -0.385 OA
ATOM     26  H2  UNL     1      20.888  49.019 -14.373  1.00  0.00     0.210 HD
ENDBRANCH   3  25
BRANCH   4  27
HETATM   27  O3  UNL     1      20.938  48.529 -11.787  1.00  0.00    -0.392 OA
ATOM     28  H3  UNL     1      20.712  47.765 -11.270  1.00  0.00     0.210 HD
ENDBRANCH   4  27
TORSDOF 6
ENDMDL
