MODEL 14
REMARK VINA RESULT: -7.147980232      1.633      3.400
REMARK  6 active torsions:
REMARK  status: ('A' for Active; 'I' for Inactive)
REMARK    1  A    between atoms: C2_3  and  O2_4 
REMARK    2  A    between atoms: C3_6  and  O3_7 
REMARK    3  A    between atoms: C5_10  and  O4_11 
REMARK    4  A    between atoms: C5_10  and  C6_13 
REMARK    5  A    between atoms: C7_16  and  C8_17 
REMARK    6  A    between atoms: C8_17  and  C9_18 
ROOT
HETATM    1  O1  UNL     1      22.061  50.542 -12.020  1.00  0.00    -0.294 OA
HETATM    2  C1  UNL     1      22.365  49.373 -11.935  1.00  0.00     0.165 C 
HETATM    3  C2  UNL     1      21.613  48.407 -11.056  1.00  0.00     0.216 C 
HETATM    4  C3  UNL     1      22.321  47.091 -11.097  1.00  0.00     0.157 C 
HETATM    5  C4  UNL     1      23.789  47.194 -10.818  1.00  0.00     0.084 C 
HETATM    6  C5  UNL     1      24.475  48.285 -11.637  1.00  0.00     0.158 C 
HETATM    7  C7  UNL     1      23.511  48.749 -12.683  1.00  0.00     0.108 C 
ENDROOT
BRANCH   7   8
HETATM    8  C8  UNL     1      24.081  49.684 -13.693  1.00  0.00     0.061 C 
BRANCH   8   9
HETATM    9  C9  UNL     1      24.238  49.087 -15.036  1.00  0.00     0.026 A 
HETATM   10  C10 UNL     1      23.126  48.719 -15.794  1.00  0.00     0.167 A 
HETATM   11  F1  UNL     1      21.889  48.907 -15.282  1.00  0.00    -0.202 F 
HETATM   12  C11 UNL     1      23.254  48.170 -17.051  1.00  0.00     0.197 A 
HETATM   13  F2  UNL     1      22.141  47.820 -17.770  1.00  0.00    -0.199 F 
HETATM   14  C12 UNL     1      24.489  47.968 -17.596  1.00  0.00     0.199 A 
HETATM   15  F3  UNL     1      24.663  47.428 -18.837  1.00  0.00    -0.199 F 
HETATM   16  C13 UNL     1      25.620  48.313 -16.890  1.00  0.00     0.197 A 
HETATM   17  F4  UNL     1      26.872  48.129 -17.397  1.00  0.00    -0.199 F 
HETATM   18  C14 UNL     1      25.457  48.858 -15.640  1.00  0.00     0.167 A 
HETATM   19  F5  UNL     1      26.593  49.203 -14.960  1.00  0.00    -0.202 F 
ENDBRANCH   8   9
ENDBRANCH   7   8
BRANCH   6  20
HETATM   20  O4  UNL     1      25.642  47.785 -12.207  1.00  0.00    -0.378 OA
ATOM     21  H4  UNL     1      26.373  48.356 -12.001  1.00  0.00     0.211 HD
ENDBRANCH   6  20
BRANCH   6  22
HETATM   22  C6  UNL     1      24.821  49.372 -10.703  1.00  0.00     0.210 C 
HETATM   23  O5  UNL     1      25.727  50.188 -11.003  1.00  0.00    -0.646 OA
HETATM   24  O6  UNL     1      24.205  49.572  -9.482  1.00  0.00    -0.646 OA
ENDBRANCH   6  22
BRANCH   3  25
HETATM   25  O2  UNL     1      20.358  48.234 -11.667  1.00  0.00    -0.385 OA
ATOM     26  H2  UNL     1      20.531  48.181 -12.600  1.00  0.00     0.210 HD
ENDBRANCH   3  25
BRANCH   4  27
HETATM   27  O3  UNL     1      21.767  46.268 -10.106  1.00  0.00    -0.392 OA
ATOM     28  H3  UNL     1      22.390  46.207  -9.392  1.00  0.00     0.210 HD
ENDBRANCH   4  27
TORSDOF 6
ENDMDL
