MODEL 11
REMARK VINA RESULT: -7.710523753      1.559      3.658
REMARK  6 active torsions:
REMARK  status: ('A' for Active; 'I' for Inactive)
REMARK    1  A    between atoms: C2_3  and  O2_4 
REMARK    2  A    between atoms: C3_6  and  O3_7 
REMARK    3  A    between atoms: C5_10  and  O4_11 
REMARK    4  A    between atoms: C5_10  and  C6_13 
REMARK    5  A    between atoms: C7_16  and  C8_17 
REMARK    6  A    between atoms: C8_17  and  C9_18 
ROOT
HETATM    1  O1  UNL     1      23.024  50.031 -13.588  1.00  0.00    -0.294 OA
HETATM    2  C1  UNL     1      23.162  49.027 -12.925  1.00  0.00     0.165 C 
HETATM    3  C2  UNL     1      22.126  48.570 -11.931  1.00  0.00     0.216 C 
HETATM    4  C3  UNL     1      22.666  47.377 -11.209  1.00  0.00     0.157 C 
HETATM    5  C4  UNL     1      24.038  47.591 -10.646  1.00  0.00     0.084 C 
HETATM    6  C5  UNL     1      25.012  48.186 -11.660  1.00  0.00     0.158 C 
HETATM    7  C7  UNL     1      24.364  48.127 -13.009  1.00  0.00     0.108 C 
ENDROOT
BRANCH   7   8
HETATM    8  C8  UNL     1      25.249  48.497 -14.147  1.00  0.00     0.061 C 
BRANCH   8   9
HETATM    9  C9  UNL     1      24.628  48.298 -15.474  1.00  0.00     0.026 A 
HETATM   10  C10 UNL     1      25.117  48.955 -16.603  1.00  0.00     0.167 A 
HETATM   11  F1  UNL     1      26.171  49.792 -16.474  1.00  0.00    -0.202 F 
HETATM   12  C11 UNL     1      24.555  48.774 -17.848  1.00  0.00     0.197 A 
HETATM   13  F2  UNL     1      25.059  49.435 -18.938  1.00  0.00    -0.199 F 
HETATM   14  C12 UNL     1      23.490  47.936 -18.012  1.00  0.00     0.199 A 
HETATM   15  F3  UNL     1      22.903  47.726 -19.226  1.00  0.00    -0.199 F 
HETATM   16  C13 UNL     1      22.969  47.263 -16.930  1.00  0.00     0.197 A 
HETATM   17  F4  UNL     1      21.907  46.416 -17.050  1.00  0.00    -0.199 F 
HETATM   18  C14 UNL     1      23.552  47.466 -15.704  1.00  0.00     0.167 A 
HETATM   19  F5  UNL     1      23.025  46.780 -14.644  1.00  0.00    -0.202 F 
ENDBRANCH   8   9
ENDBRANCH   7   8
BRANCH   6  20
HETATM   20  O4  UNL     1      26.209  47.477 -11.640  1.00  0.00    -0.378 OA
ATOM     21  H4  UNL     1      26.918  48.047 -11.367  1.00  0.00     0.211 HD
ENDBRANCH   6  20
BRANCH   6  22
HETATM   22  C6  UNL     1      25.268  49.578 -11.246  1.00  0.00     0.210 C 
HETATM   23  O5  UNL     1      24.894  49.970 -10.113  1.00  0.00    -0.646 OA
HETATM   24  O6  UNL     1      25.908  50.516 -12.032  1.00  0.00    -0.646 OA
ENDBRANCH   6  22
BRANCH   3  25
HETATM   25  O2  UNL     1      21.027  48.144 -12.695  1.00  0.00    -0.385 OA
ATOM     26  H2  UNL     1      20.667  47.395 -12.234  1.00  0.00     0.210 HD
ENDBRANCH   3  25
BRANCH   4  27
HETATM   27  O3  UNL     1      21.814  47.098 -10.131  1.00  0.00    -0.392 OA
ATOM     28  H3  UNL     1      21.585  46.177 -10.167  1.00  0.00     0.210 HD
ENDBRANCH   4  27
TORSDOF 6
ENDMDL
