MODEL 4
REMARK VINA RESULT: -9.882054495      1.411      3.105
REMARK  6 active torsions:
REMARK  status: ('A' for Active; 'I' for Inactive)
REMARK    1  A    between atoms: C2_3  and  O2_4 
REMARK    2  A    between atoms: C3_6  and  O3_7 
REMARK    3  A    between atoms: C5_10  and  O4_11 
REMARK    4  A    between atoms: C5_10  and  C6_13 
REMARK    5  A    between atoms: C7_16  and  C8_17 
REMARK    6  A    between atoms: C8_17  and  C9_18 
ROOT
HETATM    1  O1  UNL     1      24.073  50.858 -13.074  1.00  0.00    -0.294 OA
HETATM    2  C1  UNL     1      23.560  49.761 -13.031  1.00  0.00     0.165 C 
HETATM    3  C2  UNL     1      22.175  49.541 -12.481  1.00  0.00     0.216 C 
HETATM    4  C3  UNL     1      21.907  48.070 -12.469  1.00  0.00     0.157 C 
HETATM    5  C4  UNL     1      22.989  47.271 -11.807  1.00  0.00     0.084 C 
HETATM    6  C5  UNL     1      24.386  47.636 -12.305  1.00  0.00     0.158 C 
HETATM    7  C7  UNL     1      24.231  48.505 -13.514  1.00  0.00     0.108 C 
ENDROOT
BRANCH   7   8
HETATM    8  C8  UNL     1      25.497  48.802 -14.240  1.00  0.00     0.061 C 
BRANCH   8   9
HETATM    9  C9  UNL     1      25.355  48.797 -15.712  1.00  0.00     0.026 A 
HETATM   10  C10 UNL     1      24.143  48.467 -16.317  1.00  0.00     0.167 A 
HETATM   11  F1  UNL     1      23.087  48.138 -15.539  1.00  0.00    -0.202 F 
HETATM   12  C11 UNL     1      23.991  48.467 -17.686  1.00  0.00     0.197 A 
HETATM   13  F2  UNL     1      22.786  48.137 -18.249  1.00  0.00    -0.199 F 
HETATM   14  C12 UNL     1      25.038  48.795 -18.499  1.00  0.00     0.199 A 
HETATM   15  F3  UNL     1      24.933  48.808 -19.859  1.00  0.00    -0.199 F 
HETATM   16  C13 UNL     1      26.257  49.129 -17.953  1.00  0.00     0.197 A 
HETATM   17  F4  UNL     1      27.327  49.463 -18.728  1.00  0.00    -0.199 F 
HETATM   18  C14 UNL     1      26.374  49.119 -16.585  1.00  0.00     0.167 A 
HETATM   19  F5  UNL     1      27.590  49.464 -16.063  1.00  0.00    -0.202 F 
ENDBRANCH   8   9
ENDBRANCH   7   8
BRANCH   6  20
HETATM   20  O4  UNL     1      25.100  46.479 -12.599  1.00  0.00    -0.378 OA
ATOM     21  H4  UNL     1      25.475  46.119 -11.803  1.00  0.00     0.211 HD
ENDBRANCH   6  20
BRANCH   6  22
HETATM   22  C6  UNL     1      25.060  48.355 -11.208  1.00  0.00     0.210 C 
HETATM   23  O5  UNL     1      26.313  48.428 -11.189  1.00  0.00    -0.646 OA
HETATM   24  O6  UNL     1      24.399  48.975 -10.166  1.00  0.00    -0.646 OA
ENDBRANCH   6  22
BRANCH   3  25
HETATM   25  O2  UNL     1      21.299  50.125 -13.412  1.00  0.00    -0.385 OA
ATOM     26  H2  UNL     1      21.804  50.797 -13.854  1.00  0.00     0.210 HD
ENDBRANCH   3  25
BRANCH   4  27
HETATM   27  O3  UNL     1      20.727  47.849 -11.745  1.00  0.00    -0.392 OA
ATOM     28  H3  UNL     1      20.290  47.093 -12.118  1.00  0.00     0.210 HD
ENDBRANCH   4  27
TORSDOF 6
ENDMDL
