MODEL 3
REMARK VINA RESULT: -9.969858956      1.398      3.603
REMARK  6 active torsions:
REMARK  status: ('A' for Active; 'I' for Inactive)
REMARK    1  A    between atoms: C2_3  and  O2_4 
REMARK    2  A    between atoms: C3_6  and  O3_7 
REMARK    3  A    between atoms: C5_10  and  O4_11 
REMARK    4  A    between atoms: C5_10  and  C6_13 
REMARK    5  A    between atoms: C7_16  and  C8_17 
REMARK    6  A    between atoms: C8_17  and  C9_18 
ROOT
HETATM    1  O1  UNL     1      24.017  50.850 -13.074  1.00  0.00    -0.294 OA
HETATM    2  C1  UNL     1      23.513  49.749 -13.020  1.00  0.00     0.165 C 
HETATM    3  C2  UNL     1      22.133  49.523 -12.460  1.00  0.00     0.216 C 
HETATM    4  C3  UNL     1      21.876  48.050 -12.434  1.00  0.00     0.157 C 
HETATM    5  C4  UNL     1      22.968  47.266 -11.771  1.00  0.00     0.084 C 
HETATM    6  C5  UNL     1      24.359  47.637 -12.280  1.00  0.00     0.158 C 
HETATM    7  C7  UNL     1      24.191  48.494 -13.495  1.00  0.00     0.108 C 
ENDROOT
BRANCH   7   8
HETATM    8  C8  UNL     1      25.451  48.794 -14.231  1.00  0.00     0.061 C 
BRANCH   8   9
HETATM    9  C9  UNL     1      25.296  48.795 -15.701  1.00  0.00     0.026 A 
HETATM   10  C10 UNL     1      26.374  49.084 -16.538  1.00  0.00     0.167 A 
HETATM   11  F1  UNL     1      27.574  49.376 -15.988  1.00  0.00    -0.202 F 
HETATM   12  C11 UNL     1      26.249  49.081 -17.910  1.00  0.00     0.197 A 
HETATM   13  F2  UNL     1      27.328  49.369 -18.704  1.00  0.00    -0.199 F 
HETATM   14  C12 UNL     1      25.051  48.790 -18.496  1.00  0.00     0.199 A 
HETATM   15  F3  UNL     1      24.882  48.774 -19.849  1.00  0.00    -0.199 F 
HETATM   16  C13 UNL     1      23.955  48.497 -17.715  1.00  0.00     0.197 A 
HETATM   17  F4  UNL     1      22.740  48.201 -18.260  1.00  0.00    -0.199 F 
HETATM   18  C14 UNL     1      24.114  48.510 -16.352  1.00  0.00     0.167 A 
HETATM   19  F5  UNL     1      23.014  48.206 -15.596  1.00  0.00    -0.202 F 
ENDBRANCH   8   9
ENDBRANCH   7   8
BRANCH   6  20
HETATM   20  O4  UNL     1      25.080  46.482 -12.568  1.00  0.00    -0.378 OA
ATOM     21  H4  UNL     1      25.069  46.319 -13.503  1.00  0.00     0.211 HD
ENDBRANCH   6  20
BRANCH   6  22
HETATM   22  C6  UNL     1      25.034  48.370 -11.193  1.00  0.00     0.210 C 
HETATM   23  O5  UNL     1      26.286  48.462 -11.187  1.00  0.00    -0.646 OA
HETATM   24  O6  UNL     1      24.374  48.985 -10.146  1.00  0.00    -0.646 OA
ENDBRANCH   6  22
BRANCH   3  25
HETATM   25  O2  UNL     1      21.247  50.092 -13.391  1.00  0.00    -0.385 OA
ATOM     26  H2  UNL     1      20.942  50.901 -12.995  1.00  0.00     0.210 HD
ENDBRANCH   3  25
BRANCH   4  27
HETATM   27  O3  UNL     1      20.702  47.826 -11.701  1.00  0.00    -0.392 OA
ATOM     28  H3  UNL     1      20.352  46.981 -11.956  1.00  0.00     0.210 HD
ENDBRANCH   4  27
TORSDOF 6
ENDMDL
