MODEL 8
REMARK VINA RESULT: -7.402954619      3.819      7.942
REMARK  8 active torsions:
REMARK  status: ('A' for Active; 'I' for Inactive)
REMARK    1  A    between atoms: C2_2  and  C3_3 
REMARK    2  A    between atoms: C3_3  and  N1_4 
REMARK    3  A    between atoms: C3_3  and  C8_12 
REMARK    4  A    between atoms: N1_4  and  C4_6 
REMARK    5  A    between atoms: C4_6  and  C6_8 
REMARK    6  A    between atoms: C6_8  and  C7_9 
REMARK    7  A    between atoms: C12_17  and  O2_18 
REMARK    8  A    between atoms: O2_18  and  C13_19 
ROOT
HETATM    1  C8  UNL     1      -0.584  13.210 -42.949  1.00  0.00     0.006 A 
HETATM    2  C9  UNL     1      -1.161  11.986 -42.842  1.00  0.00     0.014 A 
HETATM    3  C10 UNL     1      -1.259  11.126 -43.955  1.00  0.00     0.027 A 
HETATM    4  C11 UNL     1      -0.788  11.476 -45.198  1.00  0.00     0.071 A 
HETATM    5 CL1  UNL     1      -0.890  10.405 -46.593  1.00  0.00    -0.081 Cl
HETATM    6  C12 UNL     1      -0.210  12.715 -45.304  1.00  0.00     0.137 A 
HETATM    7  C19 UNL     1      -0.104  13.551 -44.229  1.00  0.00     0.160 A 
HETATM    8  F1  UNL     1       0.470  14.795 -44.302  1.00  0.00    -0.202 F 
ENDROOT
BRANCH   1   9
HETATM    9  C3  UNL     1      -0.344  14.119 -41.824  1.00  0.00     0.113 C 
BRANCH   9  10
HETATM   10  C2  UNL     1      -1.506  14.112 -40.836  1.00  0.00     0.025 C 
HETATM   11  C1  UNL     1      -1.042  13.546 -39.530  1.00  0.00     0.007 C 
ENDBRANCH   9  10
BRANCH   9  12
HETATM   12  N1  UNL     1       0.908  13.931 -41.130  1.00  0.00    -0.409 N 
ATOM     13  H1  UNL     1       1.015  13.205 -40.422  1.00  0.00     0.154 HD
BRANCH  12  14
HETATM   14  C4  UNL     1       1.984  14.792 -41.468  1.00  0.00     0.081 C 
HETATM   15  C5  UNL     1       1.580  16.278 -41.474  1.00  0.00     0.032 C 
BRANCH  14  16
HETATM   16  C6  UNL     1       3.021  14.718 -40.324  1.00  0.00     0.123 C 
BRANCH  16  17
HETATM   17  C7  UNL     1       4.330  15.266 -40.747  1.00  0.00     0.233 C 
HETATM   18  N2  UNL     1       4.806  16.421 -40.025  1.00  0.00    -0.062 NA
HETATM   19  O1  UNL     1       5.009  14.774 -41.678  1.00  0.00    -0.277 OA
ENDBRANCH  16  17
ENDBRANCH  14  16
ENDBRANCH  12  14
ENDBRANCH   9  12
ENDBRANCH   1   9
BRANCH   6  20
HETATM   20  O2  UNL     1       0.285  13.187 -46.571  1.00  0.00    -0.306 OA
BRANCH  20  21
HETATM   21  C13 UNL     1      -0.659  14.024 -47.240  1.00  0.00     0.076 A 
HETATM   22  C14 UNL     1      -1.793  13.511 -47.724  1.00  0.00     0.037 A 
HETATM   23  C15 UNL     1      -2.693  14.357 -48.383  1.00  0.00     0.003 A 
HETATM   24  C16 UNL     1      -2.402  15.719 -48.530  1.00  0.00     0.000 A 
HETATM   25  C17 UNL     1      -1.238  16.218 -48.029  1.00  0.00     0.003 A 
HETATM   26  C18 UNL     1      -0.358  15.375 -47.379  1.00  0.00     0.037 A 
ENDBRANCH  20  21
ENDBRANCH   6  20
TORSDOF 8
ENDMDL
