MODEL 9
REMARK VINA RESULT: -7.175937101      3.922      8.035
REMARK  8 active torsions:
REMARK  status: ('A' for Active; 'I' for Inactive)
REMARK    1  A    between atoms: C2_2  and  C3_3 
REMARK    2  A    between atoms: C3_3  and  N1_4 
REMARK    3  A    between atoms: C3_3  and  C8_12 
REMARK    4  A    between atoms: N1_4  and  C4_6 
REMARK    5  A    between atoms: C4_6  and  C6_8 
REMARK    6  A    between atoms: C6_8  and  C7_9 
REMARK    7  A    between atoms: C12_17  and  O2_18 
REMARK    8  A    between atoms: O2_18  and  C13_19 
ROOT
HETATM    1  C8  UNL     1      -0.426  13.029 -43.094  1.00  0.00     0.006 A 
HETATM    2  C9  UNL     1      -1.170  11.895 -43.053  1.00  0.00     0.014 A 
HETATM    3  C10 UNL     1      -1.445  11.159 -44.224  1.00  0.00     0.027 A 
HETATM    4  C11 UNL     1      -0.986  11.547 -45.460  1.00  0.00     0.071 A 
HETATM    5 CL1  UNL     1      -1.309  10.629 -46.928  1.00  0.00    -0.081 Cl
HETATM    6  C12 UNL     1      -0.239  12.697 -45.500  1.00  0.00     0.137 A 
HETATM    7  C19 UNL     1       0.038  13.411 -44.368  1.00  0.00     0.160 A 
HETATM    8  F1  UNL     1       0.783  14.563 -44.374  1.00  0.00    -0.202 F 
ENDROOT
BRANCH   1   9
HETATM    9  C3  UNL     1      -0.004  13.792 -41.915  1.00  0.00     0.113 C 
BRANCH   9  10
HETATM   10  C2  UNL     1      -0.881  13.491 -40.705  1.00  0.00     0.025 C 
HETATM   11  C1  UNL     1      -1.804  14.644 -40.463  1.00  0.00     0.007 C 
ENDBRANCH   9  10
BRANCH   9  12
HETATM   12  N1  UNL     1       1.392  13.674 -41.567  1.00  0.00    -0.409 N 
ATOM     13  H1  UNL     1       1.784  12.787 -41.250  1.00  0.00     0.154 HD
BRANCH  12  14
HETATM   14  C4  UNL     1       2.200  14.835 -41.681  1.00  0.00     0.081 C 
HETATM   15  C5  UNL     1       1.398  16.139 -41.515  1.00  0.00     0.032 C 
BRANCH  14  16
HETATM   16  C6  UNL     1       3.158  14.860 -40.468  1.00  0.00     0.123 C 
BRANCH  16  17
HETATM   17  C7  UNL     1       4.425  15.553 -40.797  1.00  0.00     0.233 C 
HETATM   18  N2  UNL     1       5.389  14.801 -41.564  1.00  0.00    -0.062 NA
HETATM   19  O1  UNL     1       4.675  16.728 -40.440  1.00  0.00    -0.277 OA
ENDBRANCH  16  17
ENDBRANCH  14  16
ENDBRANCH  12  14
ENDBRANCH   9  12
ENDBRANCH   1   9
BRANCH   6  20
HETATM   20  O2  UNL     1       0.259  13.204 -46.751  1.00  0.00    -0.306 OA
BRANCH  20  21
HETATM   21  C13 UNL     1      -0.646  14.128 -47.356  1.00  0.00     0.076 A 
HETATM   22  C14 UNL     1      -0.361  15.433 -47.386  1.00  0.00     0.037 A 
HETATM   23  C15 UNL     1      -1.272  16.313 -47.979  1.00  0.00     0.003 A 
HETATM   24  C16 UNL     1      -2.465  15.828 -48.530  1.00  0.00     0.000 A 
HETATM   25  C17 UNL     1      -2.733  14.493 -48.487  1.00  0.00     0.003 A 
HETATM   26  C18 UNL     1      -1.826  13.633 -47.901  1.00  0.00     0.037 A 
ENDBRANCH  20  21
ENDBRANCH   6  20
TORSDOF 8
ENDMDL
