MODEL 6
REMARK VINA RESULT: -7.505518067      1.096      1.335
REMARK  8 active torsions:
REMARK  status: ('A' for Active; 'I' for Inactive)
REMARK    1  A    between atoms: C2_2  and  C3_3 
REMARK    2  A    between atoms: C3_3  and  N1_4 
REMARK    3  A    between atoms: C3_3  and  C8_12 
REMARK    4  A    between atoms: N1_4  and  C4_6 
REMARK    5  A    between atoms: C4_6  and  C6_8 
REMARK    6  A    between atoms: C6_8  and  C7_9 
REMARK    7  A    between atoms: C12_17  and  O2_18 
REMARK    8  A    between atoms: O2_18  and  C13_19 
ROOT
HETATM    1  C8  UNL     1       1.408  14.893 -41.559  1.00  0.00     0.006 A 
HETATM    2  C9  UNL     1       1.353  16.210 -41.236  1.00  0.00     0.014 A 
HETATM    3  C10 UNL     1       2.522  16.934 -40.921  1.00  0.00     0.027 A 
HETATM    4  C11 UNL     1       3.767  16.353 -40.916  1.00  0.00     0.071 A 
HETATM    5 CL1  UNL     1       5.236  17.249 -40.540  1.00  0.00    -0.081 Cl
HETATM    6  C12 UNL     1       3.820  15.021 -41.238  1.00  0.00     0.137 A 
HETATM    7  C19 UNL     1       2.693  14.314 -41.552  1.00  0.00     0.160 A 
HETATM    8  F1  UNL     1       2.712  12.982 -41.879  1.00  0.00    -0.202 F 
ENDROOT
BRANCH   1   9
HETATM    9  C3  UNL     1       0.261  14.095 -42.002  1.00  0.00     0.113 C 
BRANCH   9  10
HETATM   10  C2  UNL     1       0.465  13.549 -43.411  1.00  0.00     0.025 C 
HETATM   11  C1  UNL     1       0.296  14.659 -44.401  1.00  0.00     0.007 C 
ENDBRANCH   9  10
BRANCH   9  12
HETATM   12  N1  UNL     1      -0.143  13.038 -41.106  1.00  0.00    -0.409 N 
ATOM     13  H1  UNL     1       0.499  12.288 -40.852  1.00  0.00     0.154 HD
BRANCH  12  14
HETATM   14  C4  UNL     1      -1.465  13.081 -40.591  1.00  0.00     0.081 C 
HETATM   15  C5  UNL     1      -1.630  12.256 -39.301  1.00  0.00     0.032 C 
BRANCH  14  16
HETATM   16  C6  UNL     1      -1.737  14.526 -40.117  1.00  0.00     0.123 C 
BRANCH  16  17
HETATM   17  C7  UNL     1      -3.168  14.881 -40.259  1.00  0.00     0.233 C 
HETATM   18  N2  UNL     1      -3.873  14.275 -41.364  1.00  0.00    -0.062 NA
HETATM   19  O1  UNL     1      -3.761  15.661 -39.478  1.00  0.00    -0.277 OA
ENDBRANCH  16  17
ENDBRANCH  14  16
ENDBRANCH  12  14
ENDBRANCH   9  12
ENDBRANCH   1   9
BRANCH   6  20
HETATM   20  O2  UNL     1       5.073  14.313 -41.229  1.00  0.00    -0.306 OA
BRANCH  20  21
HETATM   21  C13 UNL     1       5.661  14.274 -39.929  1.00  0.00     0.076 A 
HETATM   22  C14 UNL     1       4.891  14.204 -38.840  1.00  0.00     0.037 A 
HETATM   23  C15 UNL     1       5.498  14.176 -37.580  1.00  0.00     0.003 A 
HETATM   24  C16 UNL     1       6.893  14.224 -37.468  1.00  0.00     0.000 A 
HETATM   25  C17 UNL     1       7.658  14.297 -38.593  1.00  0.00     0.003 A 
HETATM   26  C18 UNL     1       7.049  14.322 -39.832  1.00  0.00     0.037 A 
ENDBRANCH  20  21
ENDBRANCH   6  20
TORSDOF 8
ENDMDL
