MODEL 5
REMARK VINA RESULT: -7.557580065      1.247      1.639
REMARK  8 active torsions:
REMARK  status: ('A' for Active; 'I' for Inactive)
REMARK    1  A    between atoms: C2_2  and  C3_3 
REMARK    2  A    between atoms: C3_3  and  N1_4 
REMARK    3  A    between atoms: C3_3  and  C8_12 
REMARK    4  A    between atoms: N1_4  and  C4_6 
REMARK    5  A    between atoms: C4_6  and  C6_8 
REMARK    6  A    between atoms: C6_8  and  C7_9 
REMARK    7  A    between atoms: C12_17  and  O2_18 
REMARK    8  A    between atoms: O2_18  and  C13_19 
ROOT
HETATM    1  C8  UNL     1       1.429  14.974 -41.574  1.00  0.00     0.006 A 
HETATM    2  C9  UNL     1       1.385  16.282 -41.216  1.00  0.00     0.014 A 
HETATM    3  C10 UNL     1       2.560  16.988 -40.884  1.00  0.00     0.027 A 
HETATM    4  C11 UNL     1       3.800  16.397 -40.898  1.00  0.00     0.071 A 
HETATM    5 CL1  UNL     1       5.277  17.272 -40.501  1.00  0.00    -0.081 Cl
HETATM    6  C12 UNL     1       3.842  15.074 -41.255  1.00  0.00     0.137 A 
HETATM    7  C19 UNL     1       2.709  14.385 -41.585  1.00  0.00     0.160 A 
HETATM    8  F1  UNL     1       2.717  13.062 -41.947  1.00  0.00    -0.202 F 
ENDROOT
BRANCH   1   9
HETATM    9  C3  UNL     1       0.274  14.197 -42.036  1.00  0.00     0.113 C 
BRANCH   9  10
HETATM   10  C2  UNL     1       0.466  13.698 -43.463  1.00  0.00     0.025 C 
HETATM   11  C1  UNL     1       0.346  14.850 -44.411  1.00  0.00     0.007 C 
ENDBRANCH   9  10
BRANCH   9  12
HETATM   12  N1  UNL     1      -0.129  13.112 -41.172  1.00  0.00    -0.409 N 
ATOM     13  H1  UNL     1       0.212  12.163 -41.322  1.00  0.00     0.154 HD
BRANCH  12  14
HETATM   14  C4  UNL     1      -1.018  13.414 -40.107  1.00  0.00     0.081 C 
HETATM   15  C5  UNL     1      -2.098  14.437 -40.503  1.00  0.00     0.032 C 
BRANCH  14  16
HETATM   16  C6  UNL     1      -1.838  12.139 -39.807  1.00  0.00     0.123 C 
BRANCH  16  17
HETATM   17  C7  UNL     1      -1.662  11.122 -40.869  1.00  0.00     0.233 C 
HETATM   18  N2  UNL     1      -2.653  11.110 -41.918  1.00  0.00    -0.062 NA
HETATM   19  O1  UNL     1      -0.714  10.303 -40.881  1.00  0.00    -0.277 OA
ENDBRANCH  16  17
ENDBRANCH  14  16
ENDBRANCH  12  14
ENDBRANCH   9  12
ENDBRANCH   1   9
BRANCH   6  20
HETATM   20  O2  UNL     1       5.089  14.357 -41.267  1.00  0.00    -0.306 OA
BRANCH  20  21
HETATM   21  C13 UNL     1       5.681  14.280 -39.970  1.00  0.00     0.076 A 
HETATM   22  C14 UNL     1       4.916  14.111 -38.887  1.00  0.00     0.037 A 
HETATM   23  C15 UNL     1       5.525  14.048 -37.629  1.00  0.00     0.003 A 
HETATM   24  C16 UNL     1       6.916  14.163 -37.512  1.00  0.00     0.000 A 
HETATM   25  C17 UNL     1       7.674  14.335 -38.631  1.00  0.00     0.003 A 
HETATM   26  C18 UNL     1       7.064  14.394 -39.868  1.00  0.00     0.037 A 
ENDBRANCH  20  21
ENDBRANCH   6  20
TORSDOF 8
ENDMDL
