MODEL 1
REMARK VINA RESULT: -7.921879924      0.000      0.000
REMARK  8 active torsions:
REMARK  status: ('A' for Active; 'I' for Inactive)
REMARK    1  A    between atoms: C2_2  and  C3_3 
REMARK    2  A    between atoms: C3_3  and  N1_4 
REMARK    3  A    between atoms: C3_3  and  C8_12 
REMARK    4  A    between atoms: N1_4  and  C4_6 
REMARK    5  A    between atoms: C4_6  and  C6_8 
REMARK    6  A    between atoms: C6_8  and  C7_9 
REMARK    7  A    between atoms: C12_17  and  O2_18 
REMARK    8  A    between atoms: O2_18  and  C13_19 
ROOT
HETATM    1  C8  UNL     1       1.361  14.874 -41.524  1.00  0.00     0.006 A 
HETATM    2  C9  UNL     1       1.300  16.193 -41.210  1.00  0.00     0.014 A 
HETATM    3  C10 UNL     1       2.467  16.928 -40.914  1.00  0.00     0.027 A 
HETATM    4  C11 UNL     1       3.716  16.356 -40.920  1.00  0.00     0.071 A 
HETATM    5 CL1  UNL     1       5.184  17.265 -40.568  1.00  0.00    -0.081 Cl
HETATM    6  C12 UNL     1       3.775  15.022 -41.233  1.00  0.00     0.137 A 
HETATM    7  C19 UNL     1       2.650  14.305 -41.528  1.00  0.00     0.160 A 
HETATM    8  F1  UNL     1       2.675  12.971 -41.847  1.00  0.00    -0.202 F 
ENDROOT
BRANCH   1   9
HETATM    9  C3  UNL     1       0.214  14.065 -41.948  1.00  0.00     0.113 C 
BRANCH   9  10
HETATM   10  C2  UNL     1       0.412  13.498 -43.349  1.00  0.00     0.025 C 
HETATM   11  C1  UNL     1       0.258  14.598 -44.354  1.00  0.00     0.007 C 
ENDBRANCH   9  10
BRANCH   9  12
HETATM   12  N1  UNL     1      -0.179  13.020 -41.032  1.00  0.00    -0.409 N 
ATOM     13  H1  UNL     1       0.269  12.919 -40.122  1.00  0.00     0.154 HD
BRANCH  12  14
HETATM   14  C4  UNL     1      -1.212  12.138 -41.445  1.00  0.00     0.081 C 
HETATM   15  C5  UNL     1      -0.787  10.659 -41.402  1.00  0.00     0.032 C 
BRANCH  14  16
HETATM   16  C6  UNL     1      -2.337  12.208 -40.387  1.00  0.00     0.123 C 
BRANCH  16  17
HETATM   17  C7  UNL     1      -1.984  13.132 -39.285  1.00  0.00     0.233 C 
HETATM   18  N2  UNL     1      -1.329  12.546 -38.140  1.00  0.00    -0.062 NA
HETATM   19  O1  UNL     1      -2.230  14.360 -39.317  1.00  0.00    -0.277 OA
ENDBRANCH  16  17
ENDBRANCH  14  16
ENDBRANCH  12  14
ENDBRANCH   9  12
ENDBRANCH   1   9
BRANCH   6  20
HETATM   20  O2  UNL     1       5.034  14.323 -41.235  1.00  0.00    -0.306 OA
BRANCH  20  21
HETATM   21  C13 UNL     1       5.631  14.285 -39.939  1.00  0.00     0.076 A 
HETATM   22  C14 UNL     1       4.868  14.223 -38.844  1.00  0.00     0.037 A 
HETATM   23  C15 UNL     1       5.484  14.195 -37.588  1.00  0.00     0.003 A 
HETATM   24  C16 UNL     1       6.880  14.236 -37.486  1.00  0.00     0.000 A 
HETATM   25  C17 UNL     1       7.637  14.302 -38.617  1.00  0.00     0.003 A 
HETATM   26  C18 UNL     1       7.019  14.326 -39.851  1.00  0.00     0.037 A 
ENDBRANCH  20  21
ENDBRANCH   6  20
TORSDOF 8
ENDMDL
