MODEL 7
REMARK VINA RESULT: -7.498517953      3.128      6.866
REMARK  8 active torsions:
REMARK  status: ('A' for Active; 'I' for Inactive)
REMARK    1  A    between atoms: C2_2  and  C3_3 
REMARK    2  A    between atoms: C3_3  and  N1_4 
REMARK    3  A    between atoms: C3_3  and  C8_12 
REMARK    4  A    between atoms: N1_4  and  C4_6 
REMARK    5  A    between atoms: C4_6  and  C6_8 
REMARK    6  A    between atoms: C6_8  and  C7_9 
REMARK    7  A    between atoms: C12_17  and  O2_18 
REMARK    8  A    between atoms: O2_18  and  C13_19 
ROOT
HETATM    1  C8  UNL     1       1.751  13.984 -41.702  1.00  0.00     0.006 A 
HETATM    2  C9  UNL     1       2.007  12.871 -42.434  1.00  0.00     0.014 A 
HETATM    3  C10 UNL     1       0.961  12.053 -42.910  1.00  0.00     0.027 A 
HETATM    4  C11 UNL     1      -0.361  12.331 -42.658  1.00  0.00     0.071 A 
HETATM    5 CL1  UNL     1      -1.677  11.327 -43.260  1.00  0.00    -0.081 Cl
HETATM    6  C12 UNL     1      -0.617  13.454 -41.914  1.00  0.00     0.137 A 
HETATM    7  C19 UNL     1       0.390  14.255 -41.455  1.00  0.00     0.160 A 
HETATM    8  F1  UNL     1       0.167  15.385 -40.711  1.00  0.00    -0.202 F 
ENDROOT
BRANCH   1   9
HETATM    9  C3  UNL     1       2.768  14.944 -41.262  1.00  0.00     0.113 C 
BRANCH   9  10
HETATM   10  C2  UNL     1       2.299  16.384 -41.441  1.00  0.00     0.025 C 
HETATM   11  C1  UNL     1       3.241  17.303 -40.728  1.00  0.00     0.007 C 
ENDBRANCH   9  10
BRANCH   9  12
HETATM   12  N1  UNL     1       3.274  14.741 -39.925  1.00  0.00    -0.409 N 
ATOM     13  H1  UNL     1       2.743  15.043 -39.108  1.00  0.00     0.154 HD
BRANCH  12  14
HETATM   14  C4  UNL     1       4.537  14.108 -39.788  1.00  0.00     0.081 C 
HETATM   15  C5  UNL     1       5.529  14.511 -40.894  1.00  0.00     0.032 C 
BRANCH  14  16
HETATM   16  C6  UNL     1       5.201  14.660 -38.506  1.00  0.00     0.123 C 
BRANCH  16  17
HETATM   17  C7  UNL     1       6.174  13.695 -37.944  1.00  0.00     0.233 C 
HETATM   18  N2  UNL     1       7.340  14.256 -37.305  1.00  0.00    -0.062 NA
HETATM   19  O1  UNL     1       6.019  12.453 -38.007  1.00  0.00    -0.277 OA
ENDBRANCH  16  17
ENDBRANCH  14  16
ENDBRANCH  12  14
ENDBRANCH   9  12
ENDBRANCH   1   9
BRANCH   6  20
HETATM   20  O2  UNL     1      -1.968  13.812 -41.568  1.00  0.00    -0.306 OA
BRANCH  20  21
HETATM   21  C13 UNL     1      -2.171  13.848 -40.155  1.00  0.00     0.076 A 
HETATM   22  C14 UNL     1      -1.676  12.882 -39.376  1.00  0.00     0.037 A 
HETATM   23  C15 UNL     1      -1.901  12.943 -37.996  1.00  0.00     0.003 A 
HETATM   24  C16 UNL     1      -2.635  14.001 -37.446  1.00  0.00     0.000 A 
HETATM   25  C17 UNL     1      -3.130  14.973 -38.262  1.00  0.00     0.003 A 
HETATM   26  C18 UNL     1      -2.902  14.905 -39.622  1.00  0.00     0.037 A 
ENDBRANCH  20  21
ENDBRANCH   6  20
TORSDOF 8
ENDMDL
