MODEL 3
REMARK VINA RESULT: -8.116703875      1.088      1.180
REMARK  11 active torsions:
REMARK  status: ('A' for Active; 'I' for Inactive)
REMARK    1  A    between atoms: C2_2  and  C3_3 
REMARK    2  A    between atoms: C3_3  and  N1_4 
REMARK    3  A    between atoms: C3_3  and  C10_19 
REMARK    4  A    between atoms: N1_4  and  C4_6 
REMARK    5  A    between atoms: C4_6  and  C6_8 
REMARK    6  A    between atoms: C6_8  and  C7_9 
REMARK       I    between atoms: C7_9  and  N2_11 
REMARK    7  A    between atoms: N2_11  and  C8_13 
REMARK    8  A    between atoms: C8_13  and  C9_14 
REMARK    9  A    between atoms: C9_14  and  N3_15 
REMARK   10  A    between atoms: C14_24  and  O2_25 
REMARK   11  A    between atoms: O2_25  and  C15_26 
ROOT
HETATM    1  C3  UNL     1       0.739  14.239 -41.405  1.00  0.00     0.113 C 
ENDROOT
BRANCH   1   2
HETATM    2  C2  UNL     1       1.195  13.904 -42.839  1.00  0.00     0.025 C 
HETATM    3  C1  UNL     1       0.545  14.839 -43.835  1.00  0.00     0.007 C 
ENDBRANCH   1   2
BRANCH   1   4
HETATM    4  N1  UNL     1       0.367  13.064 -40.693  1.00  0.00    -0.409 N 
ATOM      5  H1  UNL     1       0.961  12.682 -39.957  1.00  0.00     0.154 HD
BRANCH   4   6
HETATM    6  C4  UNL     1      -0.875  12.435 -41.047  1.00  0.00     0.081 C 
HETATM    7  C5  UNL     1      -0.739  10.947 -41.366  1.00  0.00     0.032 C 
BRANCH   6   8
HETATM    8  C6  UNL     1      -1.803  12.452 -39.843  1.00  0.00     0.127 C 
BRANCH   8   9
HETATM    9  C7  UNL     1      -2.390  13.834 -39.742  1.00  0.00     0.219 C 
HETATM   10  O1  UNL     1      -1.800  14.702 -39.071  1.00  0.00    -0.274 OA
HETATM   11  N2  UNL     1      -3.590  14.205 -40.390  1.00  0.00    -0.359 N 
ATOM     12  H2  UNL     1      -4.108  13.517 -40.937  1.00  0.00     0.162 HD
BRANCH  11  13
HETATM   13  C8  UNL     1      -4.085  15.561 -40.276  1.00  0.00     0.150 C 
BRANCH  13  14
HETATM   14  C9  UNL     1      -5.096  15.763 -39.198  1.00  0.00     0.249 C 
BRANCH  14  15
HETATM   15  N3  UNL     1      -4.513  15.756 -37.864  1.00  0.00    -0.078 N 
ATOM     16  H33 UNL     1      -3.604  15.293 -37.867  1.00  0.00     0.274 HD
ATOM     17  H32 UNL     1      -4.222  16.694 -37.589  1.00  0.00     0.274 HD
ATOM     18  H31 UNL     1      -5.129  15.345 -37.162  1.00  0.00     0.274 HD
ENDBRANCH  14  15
ENDBRANCH  13  14
ENDBRANCH  11  13
ENDBRANCH   8   9
ENDBRANCH   6   8
ENDBRANCH   4   6
ENDBRANCH   1   4
BRANCH   1  19
HETATM   19  C10 UNL     1       1.727  15.181 -40.911  1.00  0.00     0.006 A 
HETATM   20  C11 UNL     1       1.653  16.525 -40.723  1.00  0.00     0.014 A 
HETATM   21  C12 UNL     1       2.706  17.319 -40.257  1.00  0.00     0.027 A 
HETATM   22  C13 UNL     1       3.925  16.714 -39.955  1.00  0.00     0.071 A 
HETATM   23 CL1  UNL     1       5.203  17.755 -39.377  1.00  0.00    -0.081 Cl
HETATM   24  C14 UNL     1       4.070  15.349 -40.120  1.00  0.00     0.137 A 
HETATM   25  C21 UNL     1       2.973  14.610 -40.599  1.00  0.00     0.160 A 
HETATM   26  F1  UNL     1       3.190  13.263 -40.721  1.00  0.00    -0.202 F 
BRANCH  24  27
HETATM   27  O2  UNL     1       5.194  14.750 -39.824  1.00  0.00    -0.306 OA
BRANCH  27  28
HETATM   28  C15 UNL     1       6.083  14.204 -39.041  1.00  0.00     0.076 A 
HETATM   29  C16 UNL     1       7.426  14.072 -39.393  1.00  0.00     0.037 A 
HETATM   30  C17 UNL     1       8.299  13.490 -38.522  1.00  0.00     0.003 A 
HETATM   31  C18 UNL     1       7.914  13.008 -37.279  1.00  0.00     0.000 A 
HETATM   32  C19 UNL     1       6.588  13.141 -36.942  1.00  0.00     0.003 A 
HETATM   33  C20 UNL     1       5.703  13.722 -37.797  1.00  0.00     0.037 A 
ENDBRANCH  27  28
ENDBRANCH  24  27
ENDBRANCH   1  19
TORSDOF 11
ENDMDL
