MODEL 5
REMARK VINA RESULT: -7.840048281      2.836      5.014
REMARK  11 active torsions:
REMARK  status: ('A' for Active; 'I' for Inactive)
REMARK    1  A    between atoms: C2_2  and  C3_3 
REMARK    2  A    between atoms: C3_3  and  N1_4 
REMARK    3  A    between atoms: C3_3  and  C10_19 
REMARK    4  A    between atoms: N1_4  and  C4_6 
REMARK    5  A    between atoms: C4_6  and  C6_8 
REMARK    6  A    between atoms: C6_8  and  C7_9 
REMARK       I    between atoms: C7_9  and  N2_11 
REMARK    7  A    between atoms: N2_11  and  C8_13 
REMARK    8  A    between atoms: C8_13  and  C9_14 
REMARK    9  A    between atoms: C9_14  and  N3_15 
REMARK   10  A    between atoms: C14_24  and  O2_25 
REMARK   11  A    between atoms: O2_25  and  C15_26 
ROOT
HETATM    1  C3  UNL     1       1.102  13.635 -41.590  1.00  0.00     0.113 C 
ENDROOT
BRANCH   1   2
HETATM    2  C2  UNL     1      -0.323  13.906 -41.066  1.00  0.00     0.025 C 
HETATM    3  C1  UNL     1      -0.989  12.613 -40.646  1.00  0.00     0.007 C 
ENDBRANCH   1   2
BRANCH   1   4
HETATM    4  N1  UNL     1       1.090  13.304 -42.974  1.00  0.00    -0.409 N 
ATOM      5  H1  UNL     1       1.694  12.571 -43.347  1.00  0.00     0.154 HD
BRANCH   4   6
HETATM    6  C4  UNL     1       0.198  14.036 -43.828  1.00  0.00     0.081 C 
HETATM    7  C5  UNL     1       0.680  15.450 -44.149  1.00  0.00     0.032 C 
BRANCH   6   8
HETATM    8  C6  UNL     1       0.148  13.366 -45.191  1.00  0.00     0.127 C 
BRANCH   8   9
HETATM    9  C7  UNL     1      -0.130  11.903 -44.966  1.00  0.00     0.219 C 
HETATM   10  O1  UNL     1      -1.050  11.568 -44.195  1.00  0.00    -0.274 OA
HETATM   11  N2  UNL     1       0.603  10.877 -45.603  1.00  0.00    -0.359 N 
ATOM     12  H2  UNL     1       1.371  11.114 -46.230  1.00  0.00     0.162 HD
BRANCH  11  13
HETATM   13  C8  UNL     1       0.264   9.490 -45.365  1.00  0.00     0.150 C 
BRANCH  13  14
HETATM   14  C9  UNL     1      -0.562   8.862 -46.437  1.00  0.00     0.249 C 
BRANCH  14  15
HETATM   15  N3  UNL     1      -0.386   9.496 -47.736  1.00  0.00    -0.078 N 
ATOM     16  H33 UNL     1       0.042  10.416 -47.636  1.00  0.00     0.274 HD
ATOM     17  H32 UNL     1       0.344   9.029 -48.273  1.00  0.00     0.274 HD
ATOM     18  H31 UNL     1      -1.253   9.553 -48.272  1.00  0.00     0.274 HD
ENDBRANCH  14  15
ENDBRANCH  13  14
ENDBRANCH  11  13
ENDBRANCH   8   9
ENDBRANCH   6   8
ENDBRANCH   4   6
ENDBRANCH   1   4
BRANCH   1  19
HETATM   19  C10 UNL     1       1.909  14.711 -41.042  1.00  0.00     0.006 A 
HETATM   20  C11 UNL     1       1.635  16.032 -40.885  1.00  0.00     0.014 A 
HETATM   21  C12 UNL     1       2.529  16.970 -40.357  1.00  0.00     0.027 A 
HETATM   22  C13 UNL     1       3.793  16.544 -39.953  1.00  0.00     0.071 A 
HETATM   23 CL1  UNL     1       4.867  17.757 -39.300  1.00  0.00    -0.081 Cl
HETATM   24  C14 UNL     1       4.138  15.211 -40.082  1.00  0.00     0.137 A 
HETATM   25  C21 UNL     1       3.195  14.322 -40.627  1.00  0.00     0.160 A 
HETATM   26  F1  UNL     1       3.605  13.017 -40.708  1.00  0.00    -0.202 F 
BRANCH  24  27
HETATM   27  O2  UNL     1       5.309  14.777 -39.691  1.00  0.00    -0.306 OA
BRANCH  27  28
HETATM   28  C15 UNL     1       6.210  14.390 -38.831  1.00  0.00     0.076 A 
HETATM   29  C16 UNL     1       7.450  13.875 -39.210  1.00  0.00     0.037 A 
HETATM   30  C17 UNL     1       8.342  13.490 -38.255  1.00  0.00     0.003 A 
HETATM   31  C18 UNL     1       8.077  13.581 -36.896  1.00  0.00     0.000 A 
HETATM   32  C19 UNL     1       6.852  14.088 -36.531  1.00  0.00     0.003 A 
HETATM   33  C20 UNL     1       5.950  14.479 -37.472  1.00  0.00     0.037 A 
ENDBRANCH  27  28
ENDBRANCH  24  27
ENDBRANCH   1  19
TORSDOF 11
ENDMDL
