MODEL 1
REMARK VINA RESULT: -8.546445825      0.000      0.000
REMARK  11 active torsions:
REMARK  status: ('A' for Active; 'I' for Inactive)
REMARK    1  A    between atoms: C2_2  and  C3_3 
REMARK    2  A    between atoms: C3_3  and  N1_4 
REMARK    3  A    between atoms: C3_3  and  C10_19 
REMARK    4  A    between atoms: N1_4  and  C4_6 
REMARK    5  A    between atoms: C4_6  and  C6_8 
REMARK    6  A    between atoms: C6_8  and  C7_9 
REMARK       I    between atoms: C7_9  and  N2_11 
REMARK    7  A    between atoms: N2_11  and  C8_13 
REMARK    8  A    between atoms: C8_13  and  C9_14 
REMARK    9  A    between atoms: C9_14  and  N3_15 
REMARK   10  A    between atoms: C14_24  and  O2_25 
REMARK   11  A    between atoms: O2_25  and  C15_26 
ROOT
HETATM    1  C3  UNL     1       0.643  14.118 -41.563  1.00  0.00     0.113 C 
ENDROOT
BRANCH   1   2
HETATM    2  C2  UNL     1       1.104  13.869 -43.013  1.00  0.00     0.025 C 
HETATM    3  C1  UNL     1       0.423  14.833 -43.960  1.00  0.00     0.007 C 
ENDBRANCH   1   2
BRANCH   1   4
HETATM    4  N1  UNL     1       0.298  12.900 -40.913  1.00  0.00    -0.409 N 
ATOM      5  H1  UNL     1       1.014  12.293 -40.515  1.00  0.00     0.154 HD
BRANCH   4   6
HETATM    6  C4  UNL     1      -1.094  12.556 -40.836  1.00  0.00     0.081 C 
HETATM    7  C5  UNL     1      -1.499  11.429 -41.785  1.00  0.00     0.032 C 
BRANCH   6   8
HETATM    8  C6  UNL     1      -1.390  11.979 -39.461  1.00  0.00     0.127 C 
BRANCH   8   9
HETATM    9  C7  UNL     1      -1.574  13.136 -38.515  1.00  0.00     0.219 C 
HETATM   10  O1  UNL     1      -0.673  13.990 -38.412  1.00  0.00    -0.274 OA
HETATM   11  N2  UNL     1      -2.739  13.309 -37.735  1.00  0.00    -0.359 N 
ATOM     12  H2  UNL     1      -3.492  12.622 -37.784  1.00  0.00     0.162 HD
BRANCH  11  13
HETATM   13  C8  UNL     1      -2.865  14.460 -36.866  1.00  0.00     0.150 C 
BRANCH  13  14
HETATM   14  C9  UNL     1      -3.680  15.575 -37.429  1.00  0.00     0.249 C 
BRANCH  14  15
HETATM   15  N3  UNL     1      -3.850  16.681 -36.497  1.00  0.00    -0.078 N 
ATOM     16  H33 UNL     1      -4.709  16.575 -35.958  1.00  0.00     0.274 HD
ATOM     17  H32 UNL     1      -3.170  16.627 -35.739  1.00  0.00     0.274 HD
ATOM     18  H31 UNL     1      -3.815  17.594 -36.952  1.00  0.00     0.274 HD
ENDBRANCH  14  15
ENDBRANCH  13  14
ENDBRANCH  11  13
ENDBRANCH   8   9
ENDBRANCH   6   8
ENDBRANCH   4   6
ENDBRANCH   1   4
BRANCH   1  19
HETATM   19  C10 UNL     1       1.610  15.056 -41.022  1.00  0.00     0.006 A 
HETATM   20  C11 UNL     1       1.529  16.398 -40.823  1.00  0.00     0.014 A 
HETATM   21  C12 UNL     1       2.562  17.187 -40.308  1.00  0.00     0.027 A 
HETATM   22  C13 UNL     1       3.768  16.580 -39.964  1.00  0.00     0.071 A 
HETATM   23 CL1  UNL     1       5.023  17.614 -39.326  1.00  0.00    -0.081 Cl
HETATM   24  C14 UNL     1       3.920  15.216 -40.137  1.00  0.00     0.137 A 
HETATM   25  C21 UNL     1       2.844  14.481 -40.666  1.00  0.00     0.160 A 
HETATM   26  F1  UNL     1       3.065  13.136 -40.793  1.00  0.00    -0.202 F 
BRANCH  24  27
HETATM   27  O2  UNL     1       5.032  14.614 -39.804  1.00  0.00    -0.306 OA
BRANCH  27  28
HETATM   28  C15 UNL     1       5.975  14.216 -38.994  1.00  0.00     0.076 A 
HETATM   29  C16 UNL     1       7.271  13.928 -39.422  1.00  0.00     0.037 A 
HETATM   30  C17 UNL     1       8.205  13.517 -38.519  1.00  0.00     0.003 A 
HETATM   31  C18 UNL     1       7.929  13.362 -37.168  1.00  0.00     0.000 A 
HETATM   32  C19 UNL     1       6.649  13.646 -36.755  1.00  0.00     0.003 A 
HETATM   33  C20 UNL     1       5.704  14.060 -37.643  1.00  0.00     0.037 A 
ENDBRANCH  27  28
ENDBRANCH  24  27
ENDBRANCH   1  19
TORSDOF 11
ENDMDL
