MODEL 9
REMARK VINA RESULT: -7.678588314      2.997      5.021
REMARK  11 active torsions:
REMARK  status: ('A' for Active; 'I' for Inactive)
REMARK    1  A    between atoms: C2_2  and  C3_3 
REMARK    2  A    between atoms: C3_3  and  N1_4 
REMARK    3  A    between atoms: C3_3  and  C10_19 
REMARK    4  A    between atoms: N1_4  and  C4_6 
REMARK    5  A    between atoms: C4_6  and  C6_8 
REMARK    6  A    between atoms: C6_8  and  C7_9 
REMARK       I    between atoms: C7_9  and  N2_11 
REMARK    7  A    between atoms: N2_11  and  C8_13 
REMARK    8  A    between atoms: C8_13  and  C9_14 
REMARK    9  A    between atoms: C9_14  and  N3_15 
REMARK   10  A    between atoms: C14_24  and  O2_25 
REMARK   11  A    between atoms: O2_25  and  C15_26 
ROOT
HETATM    1  C3  UNL     1       1.035  14.135 -41.250  1.00  0.00     0.113 C 
ENDROOT
BRANCH   1   2
HETATM    2  C2  UNL     1      -0.358  14.627 -40.808  1.00  0.00     0.025 C 
HETATM    3  C1  UNL     1      -0.717  14.056 -39.453  1.00  0.00     0.007 C 
ENDBRANCH   1   2
BRANCH   1   4
HETATM    4  N1  UNL     1       1.015  13.662 -42.592  1.00  0.00    -0.409 N 
ATOM      5  H1  UNL     1       1.063  14.308 -43.380  1.00  0.00     0.154 HD
BRANCH   4   6
HETATM    6  C4  UNL     1       0.924  12.244 -42.799  1.00  0.00     0.081 C 
HETATM    7  C5  UNL     1       1.051  11.428 -41.513  1.00  0.00     0.032 C 
BRANCH   6   8
HETATM    8  C6  UNL     1      -0.471  11.900 -43.294  1.00  0.00     0.127 C 
BRANCH   8   9
HETATM    9  C7  UNL     1      -0.418  11.850 -44.798  1.00  0.00     0.219 C 
HETATM   10  O1  UNL     1       0.484  12.465 -45.399  1.00  0.00    -0.274 OA
HETATM   11  N2  UNL     1      -1.346  11.119 -45.573  1.00  0.00    -0.359 N 
ATOM     12  H2  UNL     1      -2.105  10.613 -45.116  1.00  0.00     0.162 HD
BRANCH  11  13
HETATM   13  C8  UNL     1      -1.220  11.088 -47.015  1.00  0.00     0.150 C 
BRANCH  13  14
HETATM   14  C9  UNL     1      -1.081   9.721 -47.595  1.00  0.00     0.249 C 
BRANCH  14  15
HETATM   15  N3  UNL     1      -0.476   9.725 -48.920  1.00  0.00    -0.078 N 
ATOM     16  H33 UNL     1      -0.140   8.796 -49.170  1.00  0.00     0.274 HD
ATOM     17  H32 UNL     1      -1.185   9.846 -49.643  1.00  0.00     0.274 HD
ATOM     18  H31 UNL     1       0.265  10.420 -49.017  1.00  0.00     0.274 HD
ENDBRANCH  14  15
ENDBRANCH  13  14
ENDBRANCH  11  13
ENDBRANCH   8   9
ENDBRANCH   6   8
ENDBRANCH   4   6
ENDBRANCH   1   4
BRANCH   1  19
HETATM   19  C10 UNL     1       1.955  15.158 -40.787  1.00  0.00     0.006 A 
HETATM   20  C11 UNL     1       1.798  16.503 -40.669  1.00  0.00     0.014 A 
HETATM   21  C12 UNL     1       2.791  17.381 -40.224  1.00  0.00     0.027 A 
HETATM   22  C13 UNL     1       4.037  16.867 -39.868  1.00  0.00     0.071 A 
HETATM   23 CL1  UNL     1       5.239  18.009 -39.320  1.00  0.00    -0.081 Cl
HETATM   24  C14 UNL     1       4.266  15.506 -39.961  1.00  0.00     0.137 A 
HETATM   25  C21 UNL     1       3.226  14.679 -40.423  1.00  0.00     0.160 A 
HETATM   26  F1  UNL     1       3.524  13.343 -40.472  1.00  0.00    -0.202 F 
BRANCH  24  27
HETATM   27  O2  UNL     1       5.417  14.991 -39.614  1.00  0.00    -0.306 OA
BRANCH  27  28
HETATM   28  C15 UNL     1       6.297  14.486 -38.795  1.00  0.00     0.076 A 
HETATM   29  C16 UNL     1       7.500  13.925 -39.225  1.00  0.00     0.037 A 
HETATM   30  C17 UNL     1       8.373  13.415 -38.310  1.00  0.00     0.003 A 
HETATM   31  C18 UNL     1       8.123  13.421 -36.945  1.00  0.00     0.000 A 
HETATM   32  C19 UNL     1       6.934  13.974 -36.531  1.00  0.00     0.003 A 
HETATM   33  C20 UNL     1       6.052  14.490 -37.430  1.00  0.00     0.037 A 
ENDBRANCH  27  28
ENDBRANCH  24  27
ENDBRANCH   1  19
TORSDOF 11
ENDMDL
