MODEL 2
REMARK VINA RESULT: -8.128867455      2.639      4.752
REMARK  11 active torsions:
REMARK  status: ('A' for Active; 'I' for Inactive)
REMARK    1  A    between atoms: C2_2  and  C3_3 
REMARK    2  A    between atoms: C3_3  and  N1_4 
REMARK    3  A    between atoms: C3_3  and  C10_19 
REMARK    4  A    between atoms: N1_4  and  C4_6 
REMARK    5  A    between atoms: C4_6  and  C6_8 
REMARK    6  A    between atoms: C6_8  and  C7_9 
REMARK       I    between atoms: C7_9  and  N2_11 
REMARK    7  A    between atoms: N2_11  and  C8_13 
REMARK    8  A    between atoms: C8_13  and  C9_14 
REMARK    9  A    between atoms: C9_14  and  N3_15 
REMARK   10  A    between atoms: C14_24  and  O2_25 
REMARK   11  A    between atoms: O2_25  and  C15_26 
ROOT
HETATM    1  C3  UNL     1       0.836  14.175 -41.112  1.00  0.00     0.113 C 
ENDROOT
BRANCH   1   2
HETATM    2  C2  UNL     1      -0.322  14.317 -40.103  1.00  0.00     0.025 C 
HETATM    3  C1  UNL     1      -1.649  14.044 -40.778  1.00  0.00     0.007 C 
ENDBRANCH   1   2
BRANCH   1   4
HETATM    4  N1  UNL     1       0.350  14.061 -42.444  1.00  0.00    -0.409 N 
ATOM      5  H1  UNL     1      -0.275  14.762 -42.840  1.00  0.00     0.154 HD
BRANCH   4   6
HETATM    6  C4  UNL     1       0.772  12.923 -43.213  1.00  0.00     0.081 C 
HETATM    7  C5  UNL     1       0.670  11.600 -42.455  1.00  0.00     0.032 C 
BRANCH   6   8
HETATM    8  C6  UNL     1      -0.179  12.731 -44.382  1.00  0.00     0.127 C 
BRANCH   8   9
HETATM    9  C7  UNL     1       0.183  13.747 -45.432  1.00  0.00     0.219 C 
HETATM   10  O1  UNL     1       0.848  14.750 -45.108  1.00  0.00    -0.274 OA
HETATM   11  N2  UNL     1      -0.190  13.614 -46.788  1.00  0.00    -0.359 N 
ATOM     12  H2  UNL     1      -0.746  12.812 -47.087  1.00  0.00     0.162 HD
BRANCH  11  13
HETATM   13  C8  UNL     1       0.215  14.613 -47.753  1.00  0.00     0.150 C 
BRANCH  13  14
HETATM   14  C9  UNL     1      -0.753  15.735 -47.928  1.00  0.00     0.249 C 
BRANCH  14  15
HETATM   15  N3  UNL     1      -0.402  16.914 -47.149  1.00  0.00    -0.078 N 
ATOM     16  H33 UNL     1       0.278  17.490 -47.646  1.00  0.00     0.274 HD
ATOM     17  H32 UNL     1      -1.181  17.571 -47.112  1.00  0.00     0.274 HD
ATOM     18  H31 UNL     1      -0.072  16.688 -46.210  1.00  0.00     0.274 HD
ENDBRANCH  14  15
ENDBRANCH  13  14
ENDBRANCH  11  13
ENDBRANCH   8   9
ENDBRANCH   6   8
ENDBRANCH   4   6
ENDBRANCH   1   4
BRANCH   1  19
HETATM   19  C10 UNL     1       1.805  15.179 -40.707  1.00  0.00     0.006 A 
HETATM   20  C11 UNL     1       1.689  16.528 -40.597  1.00  0.00     0.014 A 
HETATM   21  C12 UNL     1       2.726  17.384 -40.213  1.00  0.00     0.027 A 
HETATM   22  C13 UNL     1       3.974  16.841 -39.915  1.00  0.00     0.071 A 
HETATM   23 CL1  UNL     1       5.231  17.956 -39.441  1.00  0.00    -0.081 Cl
HETATM   24  C14 UNL     1       4.162  15.473 -40.003  1.00  0.00     0.137 A 
HETATM   25  C21 UNL     1       3.079  14.670 -40.402  1.00  0.00     0.160 A 
HETATM   26  F1  UNL     1       3.340  13.326 -40.451  1.00  0.00    -0.202 F 
BRANCH  24  27
HETATM   27  O2  UNL     1       5.316  14.932 -39.708  1.00  0.00    -0.306 OA
BRANCH  27  28
HETATM   28  C15 UNL     1       6.179  14.299 -38.963  1.00  0.00     0.076 A 
HETATM   29  C16 UNL     1       7.515  14.128 -39.326  1.00  0.00     0.037 A 
HETATM   30  C17 UNL     1       8.360  13.454 -38.496  1.00  0.00     0.003 A 
HETATM   31  C18 UNL     1       7.954  12.915 -37.284  1.00  0.00     0.000 A 
HETATM   32  C19 UNL     1       6.635  13.087 -36.934  1.00  0.00     0.003 A 
HETATM   33  C20 UNL     1       5.778  13.758 -37.750  1.00  0.00     0.037 A 
ENDBRANCH  27  28
ENDBRANCH  24  27
ENDBRANCH   1  19
TORSDOF 11
ENDMDL
