MODEL 4
REMARK VINA RESULT: -7.919750994      1.322      1.783
REMARK  11 active torsions:
REMARK  status: ('A' for Active; 'I' for Inactive)
REMARK    1  A    between atoms: C2_2  and  C3_3 
REMARK    2  A    between atoms: C3_3  and  N1_4 
REMARK    3  A    between atoms: C3_3  and  C10_19 
REMARK    4  A    between atoms: N1_4  and  C4_6 
REMARK    5  A    between atoms: C4_6  and  C6_8 
REMARK    6  A    between atoms: C6_8  and  C7_9 
REMARK       I    between atoms: C7_9  and  N2_11 
REMARK    7  A    between atoms: N2_11  and  C8_13 
REMARK    8  A    between atoms: C8_13  and  C9_14 
REMARK    9  A    between atoms: C9_14  and  N3_15 
REMARK   10  A    between atoms: C14_24  and  O2_25 
REMARK   11  A    between atoms: O2_25  and  C15_26 
ROOT
HETATM    1  C3  UNL     1       0.565  14.300 -41.388  1.00  0.00     0.113 C 
ENDROOT
BRANCH   1   2
HETATM    2  C2  UNL     1       1.031  13.894 -42.801  1.00  0.00     0.025 C 
HETATM    3  C1  UNL     1       0.720  14.989 -43.798  1.00  0.00     0.007 C 
ENDBRANCH   1   2
BRANCH   1   4
HETATM    4  N1  UNL     1       0.120  13.171 -40.646  1.00  0.00    -0.409 N 
ATOM      5  H1  UNL     1       0.696  12.333 -40.564  1.00  0.00     0.154 HD
BRANCH   4   6
HETATM    6  C4  UNL     1      -1.168  13.251 -40.016  1.00  0.00     0.081 C 
HETATM    7  C5  UNL     1      -1.768  11.889 -39.673  1.00  0.00     0.032 C 
BRANCH   6   8
HETATM    8  C6  UNL     1      -1.019  13.920 -38.660  1.00  0.00     0.127 C 
BRANCH   8   9
HETATM    9  C7  UNL     1      -2.354  14.516 -38.300  1.00  0.00     0.219 C 
HETATM   10  O1  UNL     1      -2.765  14.432 -37.126  1.00  0.00    -0.274 OA
HETATM   11  N2  UNL     1      -3.172  15.185 -39.237  1.00  0.00    -0.359 N 
ATOM     12  H2  UNL     1      -2.875  15.261 -40.210  1.00  0.00     0.162 HD
BRANCH  11  13
HETATM   13  C8  UNL     1      -4.432  15.762 -38.819  1.00  0.00     0.150 C 
BRANCH  13  14
HETATM   14  C9  UNL     1      -5.446  15.892 -39.905  1.00  0.00     0.249 C 
BRANCH  14  15
HETATM   15  N3  UNL     1      -6.033  14.616 -40.291  1.00  0.00    -0.078 N 
ATOM     16  H33 UNL     1      -5.590  13.846 -39.789  1.00  0.00     0.274 HD
ATOM     17  H32 UNL     1      -6.982  14.527 -39.929  1.00  0.00     0.274 HD
ATOM     18  H31 UNL     1      -6.011  14.455 -41.298  1.00  0.00     0.274 HD
ENDBRANCH  14  15
ENDBRANCH  13  14
ENDBRANCH  11  13
ENDBRANCH   8   9
ENDBRANCH   6   8
ENDBRANCH   4   6
ENDBRANCH   1   4
BRANCH   1  19
HETATM   19  C10 UNL     1       1.590  15.209 -40.906  1.00  0.00     0.006 A 
HETATM   20  C11 UNL     1       1.569  16.556 -40.733  1.00  0.00     0.014 A 
HETATM   21  C12 UNL     1       2.653  17.313 -40.277  1.00  0.00     0.027 A 
HETATM   22  C13 UNL     1       3.848  16.664 -39.968  1.00  0.00     0.071 A 
HETATM   23 CL1  UNL     1       5.167  17.659 -39.403  1.00  0.00    -0.081 Cl
HETATM   24  C14 UNL     1       3.938  15.292 -40.119  1.00  0.00     0.137 A 
HETATM   25  C21 UNL     1       2.813  14.592 -40.589  1.00  0.00     0.160 A 
HETATM   26  F1  UNL     1       2.976  13.236 -40.696  1.00  0.00    -0.202 F 
BRANCH  24  27
HETATM   27  O2  UNL     1       5.039  14.653 -39.817  1.00  0.00    -0.306 OA
BRANCH  27  28
HETATM   28  C15 UNL     1       5.951  14.160 -39.026  1.00  0.00     0.076 A 
HETATM   29  C16 UNL     1       5.677  13.724 -37.729  1.00  0.00     0.037 A 
HETATM   30  C17 UNL     1       6.682  13.220 -36.959  1.00  0.00     0.003 A 
HETATM   31  C18 UNL     1       7.993  13.119 -37.402  1.00  0.00     0.000 A 
HETATM   32  C19 UNL     1       8.254  13.554 -38.681  1.00  0.00     0.003 A 
HETATM   33  C20 UNL     1       7.263  14.057 -39.464  1.00  0.00     0.037 A 
ENDBRANCH  27  28
ENDBRANCH  24  27
ENDBRANCH   1  19
TORSDOF 11
ENDMDL
