MODEL 4
REMARK VINA RESULT: -6.470973009      2.446      5.454
REMARK  4 active torsions:
REMARK  status: ('A' for Active; 'I' for Inactive)
REMARK    1  A    between atoms: N1_1  and  C1_5 
REMARK    2  A    between atoms: C1_5  and  C2_6 
REMARK    3  A    between atoms: C6_11  and  O1_12 
REMARK    4  A    between atoms: O1_12  and  C7_13 
ROOT
HETATM    1  C2  UNL     1       4.494  15.194 -40.462  1.00  0.00     0.009 A 
HETATM    2  C3  UNL     1       4.216  16.542 -40.437  1.00  0.00     0.015 A 
HETATM    3  C4  UNL     1       3.164  17.093 -41.129  1.00  0.00     0.046 A 
HETATM    4  C5  UNL     1       2.351  16.277 -41.879  1.00  0.00     0.153 A 
HETATM    5  F1  UNL     1       1.288  16.763 -42.591  1.00  0.00    -0.203 F 
HETATM    6  C6  UNL     1       2.608  14.921 -41.922  1.00  0.00     0.153 A 
HETATM    7  C13 UNL     1       3.675  14.385 -41.216  1.00  0.00     0.161 A 
HETATM    8  F2  UNL     1       3.903  13.041 -41.278  1.00  0.00    -0.202 F 
ENDROOT
BRANCH   6   9
HETATM    9  O1  UNL     1       1.789  14.119 -42.674  1.00  0.00    -0.304 OA
BRANCH   9  10
HETATM   10  C7  UNL     1       0.676  13.467 -42.140  1.00  0.00     0.076 A 
HETATM   11  C8  UNL     1       0.335  12.219 -42.615  1.00  0.00     0.037 A 
HETATM   12  C9  UNL     1      -0.760  11.540 -42.111  1.00  0.00     0.003 A 
HETATM   13  C10 UNL     1      -1.549  12.084 -41.119  1.00  0.00     0.000 A 
HETATM   14  C11 UNL     1      -1.196  13.338 -40.649  1.00  0.00     0.003 A 
HETATM   15  C12 UNL     1      -0.105  14.017 -41.150  1.00  0.00     0.037 A 
ENDBRANCH   9  10
ENDBRANCH   6   9
BRANCH   1  16
HETATM   16  C1  UNL     1       5.649  14.622 -39.696  1.00  0.00     0.271 C 
BRANCH  16  17
HETATM   17  N1  UNL     1       5.256  14.440 -38.295  1.00  0.00    -0.075 N 
ATOM     18  H13 UNL     1       5.332  15.302 -37.756  1.00  0.00     0.274 HD
ATOM     19  H12 UNL     1       4.252  14.293 -38.191  1.00  0.00     0.274 HD
ATOM     20  H11 UNL     1       5.802  13.680 -37.889  1.00  0.00     0.274 HD
ENDBRANCH  16  17
ENDBRANCH   1  16
TORSDOF 4
ENDMDL
