MODEL 3
REMARK VINA RESULT: -6.484047203      3.002      4.467
REMARK  4 active torsions:
REMARK  status: ('A' for Active; 'I' for Inactive)
REMARK    1  A    between atoms: N1_1  and  C1_5 
REMARK    2  A    between atoms: C1_5  and  C2_6 
REMARK    3  A    between atoms: C6_11  and  O1_12 
REMARK    4  A    between atoms: O1_12  and  C7_13 
ROOT
HETATM    1  C2  UNL     1      -0.999  12.597 -41.917  1.00  0.00     0.009 A 
HETATM    2  C3  UNL     1      -0.938  12.475 -43.286  1.00  0.00     0.015 A 
HETATM    3  C4  UNL     1      -0.274  13.380 -44.080  1.00  0.00     0.046 A 
HETATM    4  C5  UNL     1       0.358  14.451 -43.496  1.00  0.00     0.153 A 
HETATM    5  F1  UNL     1       1.035  15.387 -44.230  1.00  0.00    -0.203 F 
HETATM    6  C6  UNL     1       0.312  14.597 -42.124  1.00  0.00     0.153 A 
HETATM    7  C13 UNL     1      -0.363  13.673 -41.340  1.00  0.00     0.161 A 
HETATM    8  F2  UNL     1      -0.390  13.845 -39.987  1.00  0.00    -0.202 F 
ENDROOT
BRANCH   6   9
HETATM    9  O1  UNL     1       0.947  15.671 -41.554  1.00  0.00    -0.304 OA
BRANCH   9  10
HETATM   10  C7  UNL     1       2.298  15.647 -41.203  1.00  0.00     0.076 A 
HETATM   11  C8  UNL     1       3.031  16.812 -41.272  1.00  0.00     0.037 A 
HETATM   12  C9  UNL     1       4.372  16.831 -40.932  1.00  0.00     0.003 A 
HETATM   13  C10 UNL     1       5.023  15.690 -40.512  1.00  0.00     0.000 A 
HETATM   14  C11 UNL     1       4.277  14.526 -40.445  1.00  0.00     0.003 A 
HETATM   15  C12 UNL     1       2.939  14.505 -40.784  1.00  0.00     0.037 A 
ENDBRANCH   9  10
ENDBRANCH   6   9
BRANCH   1  16
HETATM   16  C1  UNL     1      -1.731  11.594 -41.076  1.00  0.00     0.271 C 
BRANCH  16  17
HETATM   17  N1  UNL     1      -3.044  12.138 -40.712  1.00  0.00    -0.075 N 
ATOM     18  H13 UNL     1      -3.034  12.593 -39.799  1.00  0.00     0.274 HD
ATOM     19  H12 UNL     1      -3.297  12.950 -41.275  1.00  0.00     0.274 HD
ATOM     20  H11 UNL     1      -3.741  11.396 -40.767  1.00  0.00     0.274 HD
ENDBRANCH  16  17
ENDBRANCH   1  16
TORSDOF 4
ENDMDL
