MODEL 2
REMARK VINA RESULT: -6.643574867      2.878      4.708
REMARK  4 active torsions:
REMARK  status: ('A' for Active; 'I' for Inactive)
REMARK    1  A    between atoms: N1_1  and  C1_5 
REMARK    2  A    between atoms: C1_5  and  C2_6 
REMARK    3  A    between atoms: C6_11  and  O1_12 
REMARK    4  A    between atoms: O1_12  and  C7_13 
ROOT
HETATM    1  C2  UNL     1      -1.485  13.683 -40.992  1.00  0.00     0.009 A 
HETATM    2  C3  UNL     1      -1.615  12.426 -41.537  1.00  0.00     0.015 A 
HETATM    3  C4  UNL     1      -0.722  11.921 -42.452  1.00  0.00     0.046 A 
HETATM    4  C5  UNL     1       0.345  12.692 -42.846  1.00  0.00     0.153 A 
HETATM    5  F1  UNL     1       1.269  12.247 -43.754  1.00  0.00    -0.203 F 
HETATM    6  C6  UNL     1       0.499  13.957 -42.316  1.00  0.00     0.153 A 
HETATM    7  C13 UNL     1      -0.413  14.448 -41.393  1.00  0.00     0.161 A 
HETATM    8  F2  UNL     1      -0.233  15.702 -40.886  1.00  0.00    -0.202 F 
ENDROOT
BRANCH   6   9
HETATM    9  O1  UNL     1       1.569  14.714 -42.718  1.00  0.00    -0.304 OA
BRANCH   9  10
HETATM   10  C7  UNL     1       2.658  14.982 -41.886  1.00  0.00     0.076 A 
HETATM   11  C8  UNL     1       3.000  16.291 -41.627  1.00  0.00     0.037 A 
HETATM   12  C9  UNL     1       4.071  16.599 -40.807  1.00  0.00     0.003 A 
HETATM   13  C10 UNL     1       4.834  15.611 -40.221  1.00  0.00     0.000 A 
HETATM   14  C11 UNL     1       4.481  14.299 -40.487  1.00  0.00     0.003 A 
HETATM   15  C12 UNL     1       3.413  13.990 -41.305  1.00  0.00     0.037 A 
ENDBRANCH   9  10
ENDBRANCH   6   9
BRANCH   1  16
HETATM   16  C1  UNL     1      -2.475  14.208 -39.996  1.00  0.00     0.271 C 
BRANCH  16  17
HETATM   17  N1  UNL     1      -3.590  14.839 -40.710  1.00  0.00    -0.075 N 
ATOM     18  H13 UNL     1      -4.492  14.629 -40.283  1.00  0.00     0.274 HD
ATOM     19  H12 UNL     1      -3.604  15.852 -40.588  1.00  0.00     0.274 HD
ATOM     20  H11 UNL     1      -3.555  14.568 -41.693  1.00  0.00     0.274 HD
ENDBRANCH  16  17
ENDBRANCH   1  16
TORSDOF 4
ENDMDL
