MODEL 1
REMARK VINA RESULT: -7.034157333      0.000      0.000
REMARK  4 active torsions:
REMARK  status: ('A' for Active; 'I' for Inactive)
REMARK    1  A    between atoms: N1_1  and  C1_5 
REMARK    2  A    between atoms: C1_5  and  C2_6 
REMARK    3  A    between atoms: C6_11  and  O1_12 
REMARK    4  A    between atoms: O1_12  and  C7_13 
ROOT
HETATM    1  C2  UNL     1       2.035  14.771 -41.667  1.00  0.00     0.009 A 
HETATM    2  C3  UNL     1       1.747  16.108 -41.516  1.00  0.00     0.015 A 
HETATM    3  C4  UNL     1       2.721  17.052 -41.292  1.00  0.00     0.046 A 
HETATM    4  C5  UNL     1       4.035  16.658 -41.214  1.00  0.00     0.153 A 
HETATM    5  F1  UNL     1       5.051  17.548 -40.992  1.00  0.00    -0.203 F 
HETATM    6  C6  UNL     1       4.350  15.322 -41.361  1.00  0.00     0.153 A 
HETATM    7  C13 UNL     1       3.353  14.385 -41.586  1.00  0.00     0.161 A 
HETATM    8  F2  UNL     1       3.696  13.072 -41.728  1.00  0.00    -0.202 F 
ENDROOT
BRANCH   6   9
HETATM    9  O1  UNL     1       5.666  14.943 -41.280  1.00  0.00    -0.304 OA
BRANCH   9  10
HETATM   10  C7  UNL     1       6.244  14.478 -40.097  1.00  0.00     0.076 A 
HETATM   11  C8  UNL     1       7.530  13.983 -40.127  1.00  0.00     0.037 A 
HETATM   12  C9  UNL     1       8.140  13.514 -38.977  1.00  0.00     0.003 A 
HETATM   13  C10 UNL     1       7.486  13.523 -37.763  1.00  0.00     0.000 A 
HETATM   14  C11 UNL     1       6.195  14.023 -37.744  1.00  0.00     0.003 A 
HETATM   15  C12 UNL     1       5.586  14.492 -38.890  1.00  0.00     0.037 A 
ENDBRANCH   9  10
ENDBRANCH   6   9
BRANCH   1  16
HETATM   16  C1  UNL     1       0.951  13.763 -41.910  1.00  0.00     0.271 C 
BRANCH  16  17
HETATM   17  N1  UNL     1       0.032  13.757 -40.767  1.00  0.00    -0.075 N 
ATOM     18  H13 UNL     1      -0.288  14.694 -40.522  1.00  0.00     0.274 HD
ATOM     19  H12 UNL     1      -0.874  13.351 -41.000  1.00  0.00     0.274 HD
ATOM     20  H11 UNL     1       0.477  13.283 -39.981  1.00  0.00     0.274 HD
ENDBRANCH  16  17
ENDBRANCH   1  16
TORSDOF 4
ENDMDL
