MODEL 4
REMARK VINA RESULT: -6.246780463      2.645      4.829
REMARK  7 active torsions:
REMARK  status: ('A' for Active; 'I' for Inactive)
REMARK    1  A    between atoms: C2_2  and  C3_3 
REMARK    2  A    between atoms: C3_3  and  C4_4 
REMARK    3  A    between atoms: C3_3  and  O1_6 
REMARK    4  A    between atoms: O1_6  and  C6_7 
REMARK    5  A    between atoms: C8_9  and  C9_10 
REMARK    6  A    between atoms: C11_14  and  N1_15 
REMARK    7  A    between atoms: C12_19  and  N2_20 
REMARK       I    between atoms: N2_20  and  C13_22 
ROOT
HETATM    1  C6  UNL     1      28.977  -8.586  13.536  1.00  0.00     0.147 C 
HETATM    2  C7  UNL     1      27.583  -8.288  14.133  1.00  0.00     0.049 C 
HETATM    3  C8  UNL     1      27.275  -9.181  15.299  1.00  0.00     0.091 C 
HETATM    4  C10 UNL     1      28.166 -10.401  15.189  1.00  0.00     0.050 C 
HETATM    5  C11 UNL     1      29.557  -9.934  15.566  1.00  0.00     0.209 C 
HETATM    6  C12 UNL     1      29.981  -8.830  14.602  1.00  0.00     0.143 C 
ENDROOT
BRANCH   1   7
HETATM    7  O1  UNL     1      29.282  -7.439  12.831  1.00  0.00    -0.379 OA
BRANCH   7   8
HETATM    8  C3  UNL     1      28.377  -7.142  11.804  1.00  0.00     0.121 C 
BRANCH   8   9
HETATM    9  C2  UNL     1      28.545  -8.141  10.727  1.00  0.00     0.027 C 
HETATM   10  C1  UNL     1      27.307  -8.750  10.166  1.00  0.00     0.007 C 
ENDBRANCH   8   9
BRANCH   8  11
HETATM   11  C4  UNL     1      28.487  -5.697  11.392  1.00  0.00     0.027 C 
HETATM   12  C5  UNL     1      29.249  -5.422  10.154  1.00  0.00     0.007 C 
ENDBRANCH   8  11
ENDBRANCH   7   8
ENDBRANCH   1   7
BRANCH   6  13
HETATM   13  N2  UNL     1      31.218  -9.272  14.016  1.00  0.00    -0.352 N 
HETATM   14  C13 UNL     1      32.452  -9.064  14.721  1.00  0.00     0.214 C 
HETATM   15  C14 UNL     1      33.762  -9.488  14.187  1.00  0.00     0.117 C 
HETATM   16  O4  UNL     1      32.423  -8.490  15.853  1.00  0.00    -0.274 OA
ATOM     17  H2  UNL     1      31.219  -9.730  13.105  1.00  0.00     0.163 HD
ENDBRANCH   6  13
BRANCH   3  18
HETATM   18  C9  UNL     1      25.842  -9.545  15.315  1.00  0.00     0.177 C 
HETATM   19  O2  UNL     1      25.538 -10.761  15.391  1.00  0.00    -0.648 OA
HETATM   20  O3  UNL     1      24.820  -8.624  15.251  1.00  0.00    -0.648 OA
ENDBRANCH   3  18
BRANCH   5  21
HETATM   21  N1  UNL     1      29.523  -9.428  16.918  1.00  0.00    -0.073 N 
ATOM     22  H13 UNL     1      28.822  -9.896  17.492  1.00  0.00     0.274 HD
ATOM     23  H12 UNL     1      30.346  -9.695  17.457  1.00  0.00     0.274 HD
ATOM     24  H11 UNL     1      29.390  -8.417  16.884  1.00  0.00     0.274 HD
ENDBRANCH   5  21
TORSDOF 7
ENDMDL
