MODEL 3
REMARK VINA RESULT: -6.257269422      2.119      5.071
REMARK  7 active torsions:
REMARK  status: ('A' for Active; 'I' for Inactive)
REMARK    1  A    between atoms: C2_2  and  C3_3 
REMARK    2  A    between atoms: C3_3  and  C4_4 
REMARK    3  A    between atoms: C3_3  and  O1_6 
REMARK    4  A    between atoms: O1_6  and  C6_7 
REMARK    5  A    between atoms: C8_9  and  C9_10 
REMARK    6  A    between atoms: C11_14  and  N1_15 
REMARK    7  A    between atoms: C12_19  and  N2_20 
REMARK       I    between atoms: N2_20  and  C13_22 
ROOT
HETATM    1  C6  UNL     1      29.175  -9.671  13.069  1.00  0.00     0.147 C 
HETATM    2  C7  UNL     1      29.139 -10.522  14.358  1.00  0.00     0.049 C 
HETATM    3  C8  UNL     1      30.352 -10.290  15.211  1.00  0.00     0.091 C 
HETATM    4  C10 UNL     1      31.437  -9.725  14.320  1.00  0.00     0.050 C 
HETATM    5  C11 UNL     1      31.033  -8.294  14.030  1.00  0.00     0.209 C 
HETATM    6  C12 UNL     1      29.674  -8.299  13.340  1.00  0.00     0.143 C 
ENDROOT
BRANCH   1   7
HETATM    7  O1  UNL     1      27.857  -9.640  12.661  1.00  0.00    -0.379 OA
BRANCH   7   8
HETATM    8  C3  UNL     1      26.939  -9.970  13.667  1.00  0.00     0.121 C 
BRANCH   8   9
HETATM    9  C2  UNL     1      26.108 -11.097  13.192  1.00  0.00     0.027 C 
HETATM   10  C1  UNL     1      25.883 -11.204  11.724  1.00  0.00     0.007 C 
ENDBRANCH   8   9
BRANCH   8  11
HETATM   11  C4  UNL     1      26.195  -8.748  14.137  1.00  0.00     0.027 C 
HETATM   12  C5  UNL     1      26.111  -8.551  15.600  1.00  0.00     0.007 C 
ENDBRANCH   8  11
ENDBRANCH   7   8
ENDBRANCH   1   7
BRANCH   6  13
HETATM   13  N2  UNL     1      29.859  -7.593  12.100  1.00  0.00    -0.352 N 
HETATM   14  C13 UNL     1      28.965  -6.524  11.752  1.00  0.00     0.214 C 
HETATM   15  C14 UNL     1      29.089  -5.751  10.499  1.00  0.00     0.117 C 
HETATM   16  O4  UNL     1      28.025  -6.224  12.550  1.00  0.00    -0.274 OA
ATOM     17  H2  UNL     1      30.620  -7.849  11.472  1.00  0.00     0.163 HD
ENDBRANCH   6  13
BRANCH   3  18
HETATM   18  C9  UNL     1      30.777 -11.546  15.868  1.00  0.00     0.177 C 
HETATM   19  O2  UNL     1      31.398 -11.467  16.956  1.00  0.00    -0.648 OA
HETATM   20  O3  UNL     1      30.528 -12.799  15.352  1.00  0.00    -0.648 OA
ENDBRANCH   3  18
BRANCH   5  21
HETATM   21  N1  UNL     1      30.954  -7.576  15.282  1.00  0.00    -0.073 N 
ATOM     22  H13 UNL     1      30.446  -8.095  15.998  1.00  0.00     0.274 HD
ATOM     23  H12 UNL     1      31.853  -7.522  15.759  1.00  0.00     0.274 HD
ATOM     24  H11 UNL     1      30.550  -6.656  15.103  1.00  0.00     0.274 HD
ENDBRANCH   5  21
TORSDOF 7
ENDMDL
