MODEL 5
REMARK VINA RESULT: -6.239484296      0.690      1.736
REMARK  7 active torsions:
REMARK  status: ('A' for Active; 'I' for Inactive)
REMARK    1  A    between atoms: C2_2  and  C3_3 
REMARK    2  A    between atoms: C3_3  and  C4_4 
REMARK    3  A    between atoms: C3_3  and  O1_6 
REMARK    4  A    between atoms: O1_6  and  C6_7 
REMARK    5  A    between atoms: C8_9  and  C9_10 
REMARK    6  A    between atoms: C11_14  and  N1_15 
REMARK    7  A    between atoms: C12_19  and  N2_20 
REMARK       I    between atoms: N2_20  and  C13_22 
ROOT
HETATM    1  C6  UNL     1      29.219 -10.510  13.991  1.00  0.00     0.147 C 
HETATM    2  C7  UNL     1      28.262 -10.924  12.850  1.00  0.00     0.049 C 
HETATM    3  C8  UNL     1      27.079 -10.005  12.754  1.00  0.00     0.091 C 
HETATM    4  C10 UNL     1      26.929  -9.313  14.092  1.00  0.00     0.050 C 
HETATM    5  C11 UNL     1      28.054  -8.299  14.163  1.00  0.00     0.209 C 
HETATM    6  C12 UNL     1      29.384  -9.036  14.049  1.00  0.00     0.143 C 
ENDROOT
BRANCH   1   7
HETATM    7  O1  UNL     1      30.409 -11.122  13.657  1.00  0.00    -0.379 OA
BRANCH   7   8
HETATM    8  C3  UNL     1      30.915 -11.970  14.652  1.00  0.00     0.121 C 
BRANCH   8   9
HETATM    9  C2  UNL     1      29.813 -12.321  15.574  1.00  0.00     0.027 C 
HETATM   10  C1  UNL     1      29.727 -13.739  16.021  1.00  0.00     0.007 C 
ENDBRANCH   8   9
BRANCH   8  11
HETATM   11  C4  UNL     1      32.147 -11.381  15.285  1.00  0.00     0.027 C 
HETATM   12  C5  UNL     1      33.060 -10.641  14.387  1.00  0.00     0.007 C 
ENDBRANCH   8  11
ENDBRANCH   7   8
ENDBRANCH   1   7
BRANCH   6  13
HETATM   13  N2  UNL     1      30.136  -8.674  15.221  1.00  0.00    -0.352 N 
HETATM   14  C13 UNL     1      31.196  -7.711  15.115  1.00  0.00     0.214 C 
HETATM   15  C14 UNL     1      32.014  -7.288  16.271  1.00  0.00     0.117 C 
HETATM   16  O4  UNL     1      31.448  -7.197  13.982  1.00  0.00    -0.274 OA
ATOM     17  H2  UNL     1      29.918  -9.100  16.122  1.00  0.00     0.163 HD
ENDBRANCH   6  13
BRANCH   3  18
HETATM   18  C9  UNL     1      25.861 -10.758  12.384  1.00  0.00     0.177 C 
HETATM   19  O2  UNL     1      25.917 -12.012  12.375  1.00  0.00    -0.648 OA
HETATM   20  O3  UNL     1      24.666 -10.159  12.048  1.00  0.00    -0.648 OA
ENDBRANCH   3  18
BRANCH   5  21
HETATM   21  N1  UNL     1      27.904  -7.368  13.069  1.00  0.00    -0.073 N 
ATOM     22  H13 UNL     1      27.608  -7.824  12.206  1.00  0.00     0.274 HD
ATOM     23  H12 UNL     1      27.099  -6.753  13.186  1.00  0.00     0.274 HD
ATOM     24  H11 UNL     1      28.777  -6.852  12.959  1.00  0.00     0.274 HD
ENDBRANCH   5  21
TORSDOF 7
ENDMDL
