MODEL 12
REMARK VINA RESULT: -7.828970449      1.691      2.537
REMARK  8 active torsions:
REMARK  status: ('A' for Active; 'I' for Inactive)
REMARK    1  A    between atoms: C4_5  and  N2_6 
REMARK       I    between atoms: N2_6  and  C5_8 
REMARK    2  A    between atoms: C5_8  and  C6_10 
REMARK    3  A    between atoms: C8_12  and  C9_13 
REMARK    4  A    between atoms: C10_14  and  O2_15 
REMARK    5  A    between atoms: C12_18  and  O3_19 
REMARK    6  A    between atoms: C14_22  and  O4_23 
REMARK    7  A    between atoms: O4_23  and  C15_24 
REMARK    8  A    between atoms: C18_27  and  N3_28 
ROOT
HETATM    1  C9  UNL     1       4.092   3.679  10.973  1.00  0.00     0.067 A 
HETATM    2  C10 UNL     1       5.032   4.238  11.797  1.00  0.00     0.084 A 
HETATM    3  C11 UNL     1       6.360   3.793  11.776  1.00  0.00     0.074 A 
HETATM    4  C12 UNL     1       6.782   2.786  10.936  1.00  0.00     0.071 A 
HETATM    5  C13 UNL     1       5.830   2.228  10.108  1.00  0.00     0.074 A 
HETATM    6  C14 UNL     1       4.517   2.657  10.121  1.00  0.00     0.094 A 
ENDROOT
BRANCH   1   7
HETATM    7  C8  UNL     1       2.685   4.080  10.929  1.00  0.00     0.117 A 
HETATM    8  C7  UNL     1       1.587   3.346  11.284  1.00  0.00     0.077 A 
HETATM    9  C6  UNL     1       0.468   4.156  11.064  1.00  0.00     0.125 A 
HETATM   10  N4  UNL     1       0.931   5.314  10.599  1.00  0.00    -0.255 N 
HETATM   11  O7  UNL     1       2.211   5.240  10.532  1.00  0.00    -0.236 OA
ATOM     12  H4  UNL     1       0.364   6.121  10.339  1.00  0.00     0.195 HD
BRANCH   9  13
HETATM   13  C5  UNL     1      -0.908   3.785  11.304  1.00  0.00     0.270 C 
HETATM   14  N2  UNL     1      -1.988   4.710  11.244  1.00  0.00    -0.351 N 
ATOM     15  H2  UNL     1      -1.804   5.688  11.023  1.00  0.00     0.163 HD
HETATM   16  O1  UNL     1      -1.192   2.580  11.584  1.00  0.00    -0.266 OA
BRANCH  14  17
HETATM   17  C4  UNL     1      -3.328   4.281  11.493  1.00  0.00     0.088 C 
HETATM   18  C3  UNL     1      -4.090   5.231  12.399  1.00  0.00     0.055 C 
HETATM   19  C2  UNL     1      -5.266   4.419  12.957  1.00  0.00     0.274 C 
HETATM   20  N1  UNL     1      -5.757   3.508  11.966  1.00  0.00     0.084 N 
HETATM   21  C1  UNL     1      -7.155   3.173  12.142  1.00  0.00     0.309 C 
HETATM   22  C22 UNL     1      -5.609   4.128  10.663  1.00  0.00     0.274 C 
HETATM   23  C21 UNL     1      -4.149   4.148  10.223  1.00  0.00     0.055 C 
ENDBRANCH  14  17
ENDBRANCH   9  13
ENDBRANCH   1   7
BRANCH   2  24
HETATM   24  O2  UNL     1       4.676   5.254  12.666  1.00  0.00    -0.360 OA
ATOM     25  H2  UNL     1       4.044   5.091  13.357  1.00  0.00     0.217 HD
ENDBRANCH   2  24
BRANCH   6  26
HETATM   26  O4  UNL     1       3.560   2.092   9.285  1.00  0.00    -0.310 OA
BRANCH  26  27
HETATM   27  C15 UNL     1       3.784   1.023   8.464  1.00  0.00     0.076 A 
HETATM   28  C16 UNL     1       4.032   1.116   7.116  1.00  0.00     0.040 A 
HETATM   29  C17 UNL     1       4.249  -0.018   6.351  1.00  0.00     0.039 A 
HETATM   30  C18 UNL     1       4.230  -1.278   6.896  1.00  0.00     0.103 A 
HETATM   31  C19 UNL     1       3.982  -1.377   8.256  1.00  0.00     0.039 A 
HETATM   32  C20 UNL     1       3.764  -0.241   9.018  1.00  0.00     0.040 A 
BRANCH  30  33
HETATM   33  N3  UNL     1       4.452  -2.441   6.120  1.00  0.00    -0.116 N 
HETATM   34  O5  UNL     1       5.308  -2.434   5.219  1.00  0.00    -0.532 OA
HETATM   35  O6  UNL     1       3.743  -3.593   6.334  1.00  0.00    -0.532 OA
ENDBRANCH  30  33
ENDBRANCH  26  27
ENDBRANCH   6  26
BRANCH   4  36
HETATM   36  O3  UNL     1       8.105   2.365  10.935  1.00  0.00    -0.361 OA
ATOM     37  H3  UNL     1       8.521   2.065  10.135  1.00  0.00     0.217 HD
ENDBRANCH   4  36
TORSDOF 8
ENDMDL
