MODEL 6
REMARK VINA RESULT: -8.288931244      1.644      2.173
REMARK  8 active torsions:
REMARK  status: ('A' for Active; 'I' for Inactive)
REMARK    1  A    between atoms: C4_5  and  N2_6 
REMARK       I    between atoms: N2_6  and  C5_8 
REMARK    2  A    between atoms: C5_8  and  C6_10 
REMARK    3  A    between atoms: C8_12  and  C9_13 
REMARK    4  A    between atoms: C10_14  and  O2_15 
REMARK    5  A    between atoms: C12_18  and  O3_19 
REMARK    6  A    between atoms: C14_22  and  O4_23 
REMARK    7  A    between atoms: O4_23  and  C15_24 
REMARK    8  A    between atoms: C18_27  and  N3_28 
ROOT
HETATM    1  C9  UNL     1       4.543   3.676  10.759  1.00  0.00     0.067 A 
HETATM    2  C10 UNL     1       5.484   4.204  11.602  1.00  0.00     0.084 A 
HETATM    3  C11 UNL     1       6.794   3.708  11.615  1.00  0.00     0.074 A 
HETATM    4  C12 UNL     1       7.196   2.681  10.790  1.00  0.00     0.071 A 
HETATM    5  C13 UNL     1       6.244   2.154   9.943  1.00  0.00     0.074 A 
HETATM    6  C14 UNL     1       4.948   2.635   9.921  1.00  0.00     0.094 A 
ENDROOT
BRANCH   1   7
HETATM    7  C8  UNL     1       3.154   4.131  10.679  1.00  0.00     0.117 A 
HETATM    8  C7  UNL     1       2.072   3.668  11.377  1.00  0.00     0.077 A 
HETATM    9  C6  UNL     1       0.966   4.413  10.955  1.00  0.00     0.125 A 
HETATM   10  N4  UNL     1       1.419   5.272  10.045  1.00  0.00    -0.255 N 
HETATM   11  O7  UNL     1       2.683   5.086   9.907  1.00  0.00    -0.236 OA
ATOM     12  H4  UNL     1       0.859   5.959   9.542  1.00  0.00     0.195 HD
BRANCH   9  13
HETATM   13  C5  UNL     1      -0.390   4.261  11.430  1.00  0.00     0.270 C 
HETATM   14  N2  UNL     1      -1.276   5.357  11.627  1.00  0.00    -0.351 N 
ATOM     15  H2  UNL     1      -0.959   6.305  11.428  1.00  0.00     0.163 HD
HETATM   16  O1  UNL     1      -0.835   3.102  11.692  1.00  0.00    -0.266 OA
BRANCH  14  17
HETATM   17  C4  UNL     1      -2.606   5.140  12.100  1.00  0.00     0.088 C 
HETATM   18  C3  UNL     1      -3.109   6.274  12.975  1.00  0.00     0.055 C 
HETATM   19  C2  UNL     1      -4.280   5.692  13.778  1.00  0.00     0.274 C 
HETATM   20  N1  UNL     1      -5.015   4.756  12.980  1.00  0.00     0.084 N 
HETATM   21  C1  UNL     1      -6.401   4.633  13.379  1.00  0.00     0.309 C 
HETATM   22  C22 UNL     1      -4.987   5.210  11.604  1.00  0.00     0.274 C 
HETATM   23  C21 UNL     1      -3.614   4.987  10.976  1.00  0.00     0.055 C 
ENDBRANCH  14  17
ENDBRANCH   9  13
ENDBRANCH   1   7
BRANCH   2  24
HETATM   24  O2  UNL     1       5.147   5.238  12.457  1.00  0.00    -0.360 OA
ATOM     25  H2  UNL     1       5.353   5.176  13.383  1.00  0.00     0.217 HD
ENDBRANCH   2  24
BRANCH   6  26
HETATM   26  O4  UNL     1       3.990   2.102   9.066  1.00  0.00    -0.310 OA
BRANCH  26  27
HETATM   27  C15 UNL     1       4.141   0.940   8.364  1.00  0.00     0.076 A 
HETATM   28  C16 UNL     1       4.338  -0.295   8.935  1.00  0.00     0.040 A 
HETATM   29  C17 UNL     1       4.482  -1.428   8.151  1.00  0.00     0.039 A 
HETATM   30  C18 UNL     1       4.435  -1.375   6.780  1.00  0.00     0.103 A 
HETATM   31  C19 UNL     1       4.236  -0.133   6.199  1.00  0.00     0.039 A 
HETATM   32  C20 UNL     1       4.092   0.998   6.986  1.00  0.00     0.040 A 
BRANCH  30  33
HETATM   33  N3  UNL     1       4.581  -2.530   5.974  1.00  0.00    -0.116 N 
HETATM   34  O5  UNL     1       3.862  -3.523   6.174  1.00  0.00    -0.532 OA
HETATM   35  O6  UNL     1       5.504  -2.588   4.964  1.00  0.00    -0.532 OA
ENDBRANCH  30  33
ENDBRANCH  26  27
ENDBRANCH   6  26
BRANCH   4  36
HETATM   36  O3  UNL     1       8.502   2.208  10.822  1.00  0.00    -0.361 OA
ATOM     37  H3  UNL     1       8.944   1.939  10.026  1.00  0.00     0.217 HD
ENDBRANCH   4  36
TORSDOF 8
ENDMDL
