MODEL 3
REMARK VINA RESULT: -8.484133121      1.039      1.557
REMARK  8 active torsions:
REMARK  status: ('A' for Active; 'I' for Inactive)
REMARK    1  A    between atoms: C4_5  and  N2_6 
REMARK       I    between atoms: N2_6  and  C5_8 
REMARK    2  A    between atoms: C5_8  and  C6_10 
REMARK    3  A    between atoms: C8_12  and  C9_13 
REMARK    4  A    between atoms: C10_14  and  O2_15 
REMARK    5  A    between atoms: C12_18  and  O3_19 
REMARK    6  A    between atoms: C14_22  and  O4_23 
REMARK    7  A    between atoms: O4_23  and  C15_24 
REMARK    8  A    between atoms: C18_27  and  N3_28 
ROOT
HETATM    1  C9  UNL     1       6.033   3.365  11.047  1.00  0.00     0.067 A 
HETATM    2  C10 UNL     1       7.105   4.211  10.948  1.00  0.00     0.084 A 
HETATM    3  C11 UNL     1       8.385   3.718  10.668  1.00  0.00     0.074 A 
HETATM    4  C12 UNL     1       8.626   2.375  10.477  1.00  0.00     0.071 A 
HETATM    5  C13 UNL     1       7.542   1.528  10.577  1.00  0.00     0.074 A 
HETATM    6  C14 UNL     1       6.275   2.003  10.855  1.00  0.00     0.094 A 
ENDROOT
BRANCH   1   7
HETATM    7  C8  UNL     1       4.663   3.793  11.338  1.00  0.00     0.117 A 
HETATM    8  C7  UNL     1       3.556   3.676  10.542  1.00  0.00     0.077 A 
HETATM    9  C6  UNL     1       2.485   4.228  11.253  1.00  0.00     0.125 A 
HETATM   10  N4  UNL     1       2.982   4.643  12.415  1.00  0.00    -0.255 N 
HETATM   11  O7  UNL     1       4.239   4.378  12.436  1.00  0.00    -0.236 OA
ATOM     12  H4  UNL     1       2.454   5.094  13.163  1.00  0.00     0.195 HD
BRANCH   9  13
HETATM   13  C5  UNL     1       1.118   4.319  10.792  1.00  0.00     0.270 C 
HETATM   14  N2  UNL     1       0.213   3.221  10.812  1.00  0.00    -0.351 N 
ATOM     15  H2  UNL     1       0.523   2.317  11.166  1.00  0.00     0.163 HD
HETATM   16  O1  UNL     1       0.681   5.422  10.342  1.00  0.00    -0.266 OA
BRANCH  14  17
HETATM   17  C4  UNL     1      -1.127   3.375  10.341  1.00  0.00     0.088 C 
HETATM   18  C3  UNL     1      -1.532   2.289   9.360  1.00  0.00     0.055 C 
HETATM   19  C2  UNL     1      -2.739   2.849   8.596  1.00  0.00     0.274 C 
HETATM   20  N1  UNL     1      -3.552   3.648   9.465  1.00  0.00     0.084 N 
HETATM   21  C1  UNL     1      -4.940   3.697   9.059  1.00  0.00     0.309 C 
HETATM   22  C22 UNL     1      -3.497   3.074  10.795  1.00  0.00     0.274 C 
HETATM   23  C21 UNL     1      -2.152   3.346  11.460  1.00  0.00     0.055 C 
ENDBRANCH  14  17
ENDBRANCH   9  13
ENDBRANCH   1   7
BRANCH   2  24
HETATM   24  O2  UNL     1       6.933   5.573  11.129  1.00  0.00    -0.360 OA
ATOM     25  H2  UNL     1       6.870   5.933  12.006  1.00  0.00     0.217 HD
ENDBRANCH   2  24
BRANCH   6  26
HETATM   26  O4  UNL     1       5.184   1.147  10.955  1.00  0.00    -0.310 OA
BRANCH  26  27
HETATM   27  C15 UNL     1       4.711   0.374   9.933  1.00  0.00     0.076 A 
HETATM   28  C16 UNL     1       5.224   0.370   8.658  1.00  0.00     0.040 A 
HETATM   29  C17 UNL     1       4.686  -0.445   7.676  1.00  0.00     0.039 A 
HETATM   30  C18 UNL     1       3.626  -1.280   7.923  1.00  0.00     0.103 A 
HETATM   31  C19 UNL     1       3.105  -1.280   9.208  1.00  0.00     0.039 A 
HETATM   32  C20 UNL     1       3.645  -0.464  10.188  1.00  0.00     0.040 A 
BRANCH  30  33
HETATM   33  N3  UNL     1       3.071  -2.115   6.924  1.00  0.00    -0.116 N 
HETATM   34  O5  UNL     1       2.419  -1.618   5.990  1.00  0.00    -0.532 OA
HETATM   35  O6  UNL     1       3.233  -3.475   6.953  1.00  0.00    -0.532 OA
ENDBRANCH  30  33
ENDBRANCH  26  27
ENDBRANCH   6  26
BRANCH   4  36
HETATM   36  O3  UNL     1       9.906   1.912  10.198  1.00  0.00    -0.361 OA
ATOM     37  H3  UNL     1      10.087   0.981  10.146  1.00  0.00     0.217 HD
ENDBRANCH   4  36
TORSDOF 8
ENDMDL
