MODEL 5
REMARK VINA RESULT: -8.316009937      1.747      2.165
REMARK  8 active torsions:
REMARK  status: ('A' for Active; 'I' for Inactive)
REMARK    1  A    between atoms: C4_5  and  N2_6 
REMARK       I    between atoms: N2_6  and  C5_8 
REMARK    2  A    between atoms: C5_8  and  C6_10 
REMARK    3  A    between atoms: C8_12  and  C9_13 
REMARK    4  A    between atoms: C10_14  and  O2_15 
REMARK    5  A    between atoms: C12_18  and  O3_19 
REMARK    6  A    between atoms: C14_22  and  O4_23 
REMARK    7  A    between atoms: O4_23  and  C15_24 
REMARK    8  A    between atoms: C18_27  and  N3_28 
ROOT
HETATM    1  C9  UNL     1       5.895   2.882  10.278  1.00  0.00     0.067 A 
HETATM    2  C10 UNL     1       7.067   3.462  10.683  1.00  0.00     0.084 A 
HETATM    3  C11 UNL     1       8.262   2.731  10.693  1.00  0.00     0.074 A 
HETATM    4  C12 UNL     1       8.317   1.412  10.300  1.00  0.00     0.071 A 
HETATM    5  C13 UNL     1       7.133   0.835   9.893  1.00  0.00     0.074 A 
HETATM    6  C14 UNL     1       5.947   1.545   9.879  1.00  0.00     0.094 A 
ENDROOT
BRANCH   1   7
HETATM    7  C8  UNL     1       4.602   3.568  10.236  1.00  0.00     0.117 A 
HETATM    8  C7  UNL     1       3.648   3.633  11.215  1.00  0.00     0.077 A 
HETATM    9  C6  UNL     1       2.595   4.399  10.705  1.00  0.00     0.125 A 
HETATM   10  N4  UNL     1       2.951   4.753   9.474  1.00  0.00    -0.255 N 
HETATM   11  O7  UNL     1       4.112   4.261   9.231  1.00  0.00    -0.236 OA
ATOM     12  H4  UNL     1       2.397   5.319   8.831  1.00  0.00     0.195 HD
BRANCH   9  13
HETATM   13  C5  UNL     1       1.371   4.727  11.401  1.00  0.00     0.270 C 
HETATM   14  N2  UNL     1       0.081   4.354  10.930  1.00  0.00    -0.351 N 
ATOM     15  H2  UNL     1      -0.007   3.828  10.061  1.00  0.00     0.163 HD
HETATM   16  O1  UNL     1       1.424   5.380  12.488  1.00  0.00    -0.266 OA
BRANCH  14  17
HETATM   17  C4  UNL     1      -1.092   4.709  11.664  1.00  0.00     0.088 C 
HETATM   18  C3  UNL     1      -1.615   6.087  11.302  1.00  0.00     0.055 C 
HETATM   19  C2  UNL     1      -2.515   6.510  12.471  1.00  0.00     0.274 C 
HETATM   20  N1  UNL     1      -3.213   5.375  12.999  1.00  0.00     0.084 N 
HETATM   21  C1  UNL     1      -4.469   5.722  13.630  1.00  0.00     0.309 C 
HETATM   22  C22 UNL     1      -3.500   4.467  11.905  1.00  0.00     0.274 C 
HETATM   23  C21 UNL     1      -2.241   3.742  11.443  1.00  0.00     0.055 C 
ENDBRANCH  14  17
ENDBRANCH   9  13
ENDBRANCH   1   7
BRANCH   2  24
HETATM   24  O2  UNL     1       7.083   4.784  11.091  1.00  0.00    -0.360 OA
ATOM     25  H2  UNL     1       6.270   5.223  11.316  1.00  0.00     0.217 HD
ENDBRANCH   2  24
BRANCH   6  26
HETATM   26  O4  UNL     1       4.756   0.960   9.468  1.00  0.00    -0.310 OA
BRANCH  26  27
HETATM   27  C15 UNL     1       4.495   0.551   8.191  1.00  0.00     0.076 A 
HETATM   28  C16 UNL     1       4.884  -0.659   7.666  1.00  0.00     0.040 A 
HETATM   29  C17 UNL     1       4.579  -1.000   6.359  1.00  0.00     0.039 A 
HETATM   30  C18 UNL     1       3.881  -0.157   5.531  1.00  0.00     0.103 A 
HETATM   31  C19 UNL     1       3.485   1.064   6.055  1.00  0.00     0.039 A 
HETATM   32  C20 UNL     1       3.792   1.402   7.363  1.00  0.00     0.040 A 
BRANCH  30  33
HETATM   33  N3  UNL     1       3.567  -0.499   4.193  1.00  0.00    -0.116 N 
HETATM   34  O5  UNL     1       4.439  -0.426   3.312  1.00  0.00    -0.532 OA
HETATM   35  O6  UNL     1       2.312  -0.915   3.834  1.00  0.00    -0.532 OA
ENDBRANCH  30  33
ENDBRANCH  26  27
ENDBRANCH   6  26
BRANCH   4  36
HETATM   36  O3  UNL     1       9.516   0.711  10.319  1.00  0.00    -0.361 OA
ATOM     37  H3  UNL     1       9.529  -0.236  10.246  1.00  0.00     0.217 HD
ENDBRANCH   4  36
TORSDOF 8
ENDMDL
