MODEL 7
REMARK VINA RESULT: -8.129743277      2.228      5.167
REMARK  8 active torsions:
REMARK  status: ('A' for Active; 'I' for Inactive)
REMARK    1  A    between atoms: C4_5  and  N2_6 
REMARK       I    between atoms: N2_6  and  C5_8 
REMARK    2  A    between atoms: C5_8  and  C6_10 
REMARK    3  A    between atoms: C8_12  and  C9_13 
REMARK    4  A    between atoms: C10_14  and  O2_15 
REMARK    5  A    between atoms: C12_18  and  O3_19 
REMARK    6  A    between atoms: C14_22  and  O4_23 
REMARK    7  A    between atoms: O4_23  and  C15_24 
REMARK    8  A    between atoms: C18_27  and  N3_28 
ROOT
HETATM    1  C9  UNL     1       3.512   1.601   7.919  1.00  0.00     0.067 A 
HETATM    2  C10 UNL     1       3.141   1.280   6.641  1.00  0.00     0.084 A 
HETATM    3  C11 UNL     1       3.754   0.221   5.961  1.00  0.00     0.074 A 
HETATM    4  C12 UNL     1       4.746  -0.543   6.537  1.00  0.00     0.071 A 
HETATM    5  C13 UNL     1       5.114  -0.215   7.825  1.00  0.00     0.074 A 
HETATM    6  C14 UNL     1       4.517   0.829   8.506  1.00  0.00     0.094 A 
ENDROOT
BRANCH   1   7
HETATM    7  C8  UNL     1       2.927   2.690   8.703  1.00  0.00     0.117 A 
HETATM    8  C7  UNL     1       1.806   2.659   9.487  1.00  0.00     0.077 A 
HETATM    9  C6  UNL     1       1.652   3.939  10.029  1.00  0.00     0.125 A 
HETATM   10  N4  UNL     1       2.662   4.667   9.560  1.00  0.00    -0.255 N 
HETATM   11  O7  UNL     1       3.380   3.921   8.799  1.00  0.00    -0.236 OA
ATOM     12  H4  UNL     1       2.837   5.650   9.769  1.00  0.00     0.195 HD
BRANCH   9  13
HETATM   13  C5  UNL     1       0.596   4.362  10.920  1.00  0.00     0.270 C 
HETATM   14  N2  UNL     1      -0.783   4.120  10.666  1.00  0.00    -0.351 N 
ATOM     15  H2  UNL     1      -1.062   3.625   9.820  1.00  0.00     0.163 HD
HETATM   16  O1  UNL     1       0.888   4.982  11.988  1.00  0.00    -0.266 OA
BRANCH  14  17
HETATM   17  C4  UNL     1      -1.781   4.565  11.587  1.00  0.00     0.088 C 
HETATM   18  C3  UNL     1      -2.199   6.004  11.349  1.00  0.00     0.055 C 
HETATM   19  C2  UNL     1      -2.853   6.469  12.657  1.00  0.00     0.274 C 
HETATM   20  N1  UNL     1      -3.581   5.392  13.260  1.00  0.00     0.084 N 
HETATM   21  C1  UNL     1      -4.677   5.841  14.092  1.00  0.00     0.309 C 
HETATM   22  C22 UNL     1      -4.134   4.567  12.204  1.00  0.00     0.274 C 
HETATM   23  C21 UNL     1      -3.050   3.734  11.528  1.00  0.00     0.055 C 
ENDBRANCH  14  17
ENDBRANCH   9  13
ENDBRANCH   1   7
BRANCH   2  24
HETATM   24  O2  UNL     1       2.151   2.007   6.003  1.00  0.00    -0.360 OA
ATOM     25  H2  UNL     1       2.359   2.517   5.229  1.00  0.00     0.217 HD
ENDBRANCH   2  24
BRANCH   6  26
HETATM   26  O4  UNL     1       4.891   1.158   9.803  1.00  0.00    -0.310 OA
BRANCH  26  27
HETATM   27  C15 UNL     1       6.103   1.683  10.150  1.00  0.00     0.076 A 
HETATM   28  C16 UNL     1       7.279   0.972  10.184  1.00  0.00     0.040 A 
HETATM   29  C17 UNL     1       8.470   1.580  10.547  1.00  0.00     0.039 A 
HETATM   30  C18 UNL     1       8.535   2.908  10.886  1.00  0.00     0.103 A 
HETATM   31  C19 UNL     1       7.352   3.630  10.853  1.00  0.00     0.039 A 
HETATM   32  C20 UNL     1       6.163   3.019  10.490  1.00  0.00     0.040 A 
BRANCH  30  33
HETATM   33  N3  UNL     1       9.748   3.535  11.258  1.00  0.00    -0.116 N 
HETATM   34  O5  UNL     1       9.796   4.239  12.282  1.00  0.00    -0.532 OA
HETATM   35  O6  UNL     1      10.890   3.389  10.515  1.00  0.00    -0.532 OA
ENDBRANCH  30  33
ENDBRANCH  26  27
ENDBRANCH   6  26
BRANCH   4  36
HETATM   36  O3  UNL     1       5.337  -1.589   5.840  1.00  0.00    -0.361 OA
ATOM     37  H3  UNL     1       5.816  -2.271   6.297  1.00  0.00     0.217 HD
ENDBRANCH   4  36
TORSDOF 8
ENDMDL
