MODEL 1
REMARK VINA RESULT: -9.603735744      0.000      0.000
REMARK  8 active torsions:
REMARK  status: ('A' for Active; 'I' for Inactive)
REMARK    1  A    between atoms: C4_5  and  N2_6 
REMARK       I    between atoms: N2_6  and  C5_8 
REMARK    2  A    between atoms: C5_8  and  C6_10 
REMARK    3  A    between atoms: C8_12  and  C9_13 
REMARK    4  A    between atoms: C10_14  and  O2_15 
REMARK    5  A    between atoms: C12_18  and  O3_19 
REMARK    6  A    between atoms: C14_22  and  O4_23 
REMARK    7  A    between atoms: O4_23  and  C15_24 
REMARK    8  A    between atoms: C18_27  and  N3_28 
ROOT
HETATM    1  C9  UNL     1       6.025   3.376  11.071  1.00  0.00     0.067 A 
HETATM    2  C10 UNL     1       7.159   4.133  10.951  1.00  0.00     0.084 A 
HETATM    3  C11 UNL     1       8.381   3.545  10.600  1.00  0.00     0.074 A 
HETATM    4  C12 UNL     1       8.500   2.194  10.358  1.00  0.00     0.071 A 
HETATM    5  C13 UNL     1       7.353   1.437  10.479  1.00  0.00     0.074 A 
HETATM    6  C14 UNL     1       6.143   2.006  10.827  1.00  0.00     0.094 A 
ENDROOT
BRANCH   1   7
HETATM    7  C8  UNL     1       4.709   3.905  11.433  1.00  0.00     0.117 A 
HETATM    8  C7  UNL     1       3.556   3.879  10.697  1.00  0.00     0.077 A 
HETATM    9  C6  UNL     1       2.570   4.507  11.463  1.00  0.00     0.125 A 
HETATM   10  N4  UNL     1       3.157   4.875  12.599  1.00  0.00    -0.255 N 
HETATM   11  O7  UNL     1       4.389   4.515  12.554  1.00  0.00    -0.236 OA
ATOM     12  H4  UNL     1       2.705   5.360  13.374  1.00  0.00     0.195 HD
BRANCH   9  13
HETATM   13  C5  UNL     1       1.192   4.705  11.075  1.00  0.00     0.270 C 
HETATM   14  N2  UNL     1       0.121   4.788  12.008  1.00  0.00    -0.351 N 
ATOM     15  H2  UNL     1       0.314   4.706  13.006  1.00  0.00     0.163 HD
HETATM   16  O1  UNL     1       0.898   4.814   9.845  1.00  0.00    -0.266 OA
BRANCH  14  17
HETATM   17  C4  UNL     1      -1.221   4.984  11.560  1.00  0.00     0.088 C 
HETATM   18  C3  UNL     1      -2.016   3.692  11.507  1.00  0.00     0.055 C 
HETATM   19  C2  UNL     1      -3.201   3.971  10.572  1.00  0.00     0.274 C 
HETATM   20  N1  UNL     1      -3.656   5.321  10.734  1.00  0.00     0.084 N 
HETATM   21  C1  UNL     1      -5.054   5.493  10.404  1.00  0.00     0.309 C 
HETATM   22  C22 UNL     1      -3.477   5.698  12.123  1.00  0.00     0.274 C 
HETATM   23  C21 UNL     1      -2.005   5.934  12.447  1.00  0.00     0.055 C 
ENDBRANCH  14  17
ENDBRANCH   9  13
ENDBRANCH   1   7
BRANCH   2  24
HETATM   24  O2  UNL     1       7.110   5.497  11.180  1.00  0.00    -0.360 OA
ATOM     25  H2  UNL     1       7.898   5.967  11.429  1.00  0.00     0.217 HD
ENDBRANCH   2  24
BRANCH   6  26
HETATM   26  O4  UNL     1       4.989   1.240  10.948  1.00  0.00    -0.310 OA
BRANCH  26  27
HETATM   27  C15 UNL     1       4.504   0.411   9.976  1.00  0.00     0.076 A 
HETATM   28  C16 UNL     1       3.541  -0.548  10.180  1.00  0.00     0.040 A 
HETATM   29  C17 UNL     1       3.102  -1.349   9.139  1.00  0.00     0.039 A 
HETATM   30  C18 UNL     1       3.600  -1.227   7.866  1.00  0.00     0.103 A 
HETATM   31  C19 UNL     1       4.571  -0.261   7.655  1.00  0.00     0.039 A 
HETATM   32  C20 UNL     1       5.008   0.539   8.698  1.00  0.00     0.040 A 
BRANCH  30  33
HETATM   33  N3  UNL     1       3.156  -2.043   6.798  1.00  0.00    -0.116 N 
HETATM   34  O5  UNL     1       3.147  -3.280   6.923  1.00  0.00    -0.532 OA
HETATM   35  O6  UNL     1       2.728  -1.506   5.613  1.00  0.00    -0.532 OA
ENDBRANCH  30  33
ENDBRANCH  26  27
ENDBRANCH   6  26
BRANCH   4  36
HETATM   36  O3  UNL     1       9.723   1.636  10.010  1.00  0.00    -0.361 OA
ATOM     37  H3  UNL     1      10.024   0.830  10.413  1.00  0.00     0.217 HD
ENDBRANCH   4  36
TORSDOF 8
ENDMDL
