MODEL 10
REMARK VINA RESULT: -7.944770629      3.002      7.137
REMARK  8 active torsions:
REMARK  status: ('A' for Active; 'I' for Inactive)
REMARK    1  A    between atoms: C4_5  and  N2_6 
REMARK       I    between atoms: N2_6  and  C5_8 
REMARK    2  A    between atoms: C5_8  and  C6_10 
REMARK    3  A    between atoms: C8_12  and  C9_13 
REMARK    4  A    between atoms: C10_14  and  O2_15 
REMARK    5  A    between atoms: C12_18  and  O3_19 
REMARK    6  A    between atoms: C14_22  and  O4_23 
REMARK    7  A    between atoms: O4_23  and  C15_24 
REMARK    8  A    between atoms: C18_27  and  N3_28 
ROOT
HETATM    1  C9  UNL     1       5.705   1.861  10.172  1.00  0.00     0.067 A 
HETATM    2  C10 UNL     1       6.750   1.259  10.820  1.00  0.00     0.084 A 
HETATM    3  C11 UNL     1       7.776   2.022  11.390  1.00  0.00     0.074 A 
HETATM    4  C12 UNL     1       7.785   3.399  11.330  1.00  0.00     0.071 A 
HETATM    5  C13 UNL     1       6.729   3.999  10.676  1.00  0.00     0.074 A 
HETATM    6  C14 UNL     1       5.711   3.256  10.109  1.00  0.00     0.094 A 
ENDROOT
BRANCH   1   7
HETATM    7  C8  UNL     1       4.592   1.142   9.549  1.00  0.00     0.117 A 
HETATM    8  C7  UNL     1       4.413   0.849   8.224  1.00  0.00     0.077 A 
HETATM    9  C6  UNL     1       3.204   0.154   8.122  1.00  0.00     0.125 A 
HETATM   10  N4  UNL     1       2.720   0.060   9.358  1.00  0.00    -0.255 N 
HETATM   11  O7  UNL     1       3.542   0.639  10.159  1.00  0.00    -0.236 OA
ATOM     12  H4  UNL     1       1.846  -0.393   9.624  1.00  0.00     0.195 HD
BRANCH   9  13
HETATM   13  C5  UNL     1       2.617  -0.353   6.902  1.00  0.00     0.270 C 
HETATM   14  N2  UNL     1       2.521   0.411   5.706  1.00  0.00    -0.351 N 
ATOM     15  H2  UNL     1       2.877   1.366   5.686  1.00  0.00     0.163 HD
HETATM   16  O1  UNL     1       2.158  -1.536   6.873  1.00  0.00    -0.266 OA
BRANCH  14  17
HETATM   17  C4  UNL     1       1.929  -0.148   4.532  1.00  0.00     0.088 C 
HETATM   18  C3  UNL     1       0.572   0.456   4.215  1.00  0.00     0.055 C 
HETATM   19  C2  UNL     1      -0.122  -0.548   3.285  1.00  0.00     0.274 C 
HETATM   20  N1  UNL     1       0.833  -1.162   2.412  1.00  0.00     0.084 N 
HETATM   21  C1  UNL     1       0.256  -1.612   1.163  1.00  0.00     0.309 C 
HETATM   22  C22 UNL     1       1.860  -0.186   2.101  1.00  0.00     0.274 C 
HETATM   23  C21 UNL     1       2.783   0.043   3.292  1.00  0.00     0.055 C 
ENDBRANCH  14  17
ENDBRANCH   9  13
ENDBRANCH   1   7
BRANCH   2  24
HETATM   24  O2  UNL     1       6.804  -0.121  10.917  1.00  0.00    -0.360 OA
ATOM     25  H2  UNL     1       7.605  -0.547  11.199  1.00  0.00     0.217 HD
ENDBRANCH   2  24
BRANCH   6  26
HETATM   26  O4  UNL     1       4.648   3.863   9.451  1.00  0.00    -0.310 OA
BRANCH  26  27
HETATM   27  C15 UNL     1       3.430   4.117  10.018  1.00  0.00     0.076 A 
HETATM   28  C16 UNL     1       3.247   4.537  11.313  1.00  0.00     0.040 A 
HETATM   29  C17 UNL     1       1.977   4.773  11.813  1.00  0.00     0.039 A 
HETATM   30  C18 UNL     1       0.850   4.602  11.048  1.00  0.00     0.103 A 
HETATM   31  C19 UNL     1       1.030   4.180   9.740  1.00  0.00     0.039 A 
HETATM   32  C20 UNL     1       2.301   3.944   9.244  1.00  0.00     0.040 A 
BRANCH  30  33
HETATM   33  N3  UNL     1      -0.450   4.842  11.553  1.00  0.00    -0.116 N 
HETATM   34  O5  UNL     1      -1.145   5.753  11.073  1.00  0.00    -0.532 OA
HETATM   35  O6  UNL     1      -0.976   4.089  12.570  1.00  0.00    -0.532 OA
ENDBRANCH  30  33
ENDBRANCH  26  27
ENDBRANCH   6  26
BRANCH   4  36
HETATM   36  O3  UNL     1       8.815   4.132  11.904  1.00  0.00    -0.361 OA
ATOM     37  H3  UNL     1       9.073   4.974  11.546  1.00  0.00     0.217 HD
ENDBRANCH   4  36
TORSDOF 8
ENDMDL
