MODEL 8
REMARK VINA RESULT: -8.113049467      3.152      5.956
REMARK  8 active torsions:
REMARK  status: ('A' for Active; 'I' for Inactive)
REMARK    1  A    between atoms: C4_5  and  N2_6 
REMARK       I    between atoms: N2_6  and  C5_8 
REMARK    2  A    between atoms: C5_8  and  C6_10 
REMARK    3  A    between atoms: C8_12  and  C9_13 
REMARK    4  A    between atoms: C10_14  and  O2_15 
REMARK    5  A    between atoms: C12_18  and  O3_19 
REMARK    6  A    between atoms: C14_22  and  O4_23 
REMARK    7  A    between atoms: O4_23  and  C15_24 
REMARK    8  A    between atoms: C18_27  and  N3_28 
ROOT
HETATM    1  C9  UNL     1       7.651   1.504  10.398  1.00  0.00     0.067 A 
HETATM    2  C10 UNL     1       8.814   1.145   9.771  1.00  0.00     0.084 A 
HETATM    3  C11 UNL     1       9.966   1.932   9.891  1.00  0.00     0.074 A 
HETATM    4  C12 UNL     1       9.988   3.089  10.638  1.00  0.00     0.071 A 
HETATM    5  C13 UNL     1       8.813   3.445  11.267  1.00  0.00     0.074 A 
HETATM    6  C14 UNL     1       7.669   2.677  11.155  1.00  0.00     0.094 A 
ENDROOT
BRANCH   1   7
HETATM    7  C8  UNL     1       6.402   0.743  10.327  1.00  0.00     0.117 A 
HETATM    8  C7  UNL     1       5.550   0.616   9.265  1.00  0.00     0.077 A 
HETATM    9  C6  UNL     1       4.499  -0.207   9.682  1.00  0.00     0.125 A 
HETATM   10  N4  UNL     1       4.759  -0.532  10.946  1.00  0.00    -0.255 N 
HETATM   11  O7  UNL     1       5.861   0.029  11.290  1.00  0.00    -0.236 OA
ATOM     12  H4  UNL     1       4.180  -1.126  11.540  1.00  0.00     0.195 HD
BRANCH   9  13
HETATM   13  C5  UNL     1       3.367  -0.610   8.879  1.00  0.00     0.270 C 
HETATM   14  N2  UNL     1       2.479   0.314   8.261  1.00  0.00    -0.351 N 
ATOM     15  H2  UNL     1       2.631   1.315   8.377  1.00  0.00     0.163 HD
HETATM   16  O1  UNL     1       3.133  -1.845   8.702  1.00  0.00    -0.266 OA
BRANCH  14  17
HETATM   17  C4  UNL     1       1.377  -0.148   7.480  1.00  0.00     0.088 C 
HETATM   18  C3  UNL     1       0.112   0.657   7.716  1.00  0.00     0.055 C 
HETATM   19  C2  UNL     1      -1.042  -0.230   7.228  1.00  0.00     0.274 C 
HETATM   20  N1  UNL     1      -0.639  -0.985   6.079  1.00  0.00     0.084 N 
HETATM   21  C1  UNL     1      -1.745  -1.343   5.216  1.00  0.00     0.309 C 
HETATM   22  C22 UNL     1       0.286  -0.179   5.306  1.00  0.00     0.274 C 
HETATM   23  C21 UNL     1       1.648  -0.093   5.987  1.00  0.00     0.055 C 
ENDBRANCH  14  17
ENDBRANCH   9  13
ENDBRANCH   1   7
BRANCH   2  24
HETATM   24  O2  UNL     1       8.862  -0.007   9.005  1.00  0.00    -0.360 OA
ATOM     25  H2  UNL     1       8.528  -0.002   8.116  1.00  0.00     0.217 HD
ENDBRANCH   2  24
BRANCH   6  26
HETATM   26  O4  UNL     1       6.487   3.038  11.791  1.00  0.00    -0.310 OA
BRANCH  26  27
HETATM   27  C15 UNL     1       5.399   3.567  11.158  1.00  0.00     0.076 A 
HETATM   28  C16 UNL     1       5.353   3.883   9.821  1.00  0.00     0.040 A 
HETATM   29  C17 UNL     1       4.208   4.417   9.253  1.00  0.00     0.039 A 
HETATM   30  C18 UNL     1       3.074   4.656   9.989  1.00  0.00     0.103 A 
HETATM   31  C19 UNL     1       3.115   4.339  11.338  1.00  0.00     0.039 A 
HETATM   32  C20 UNL     1       4.261   3.805  11.902  1.00  0.00     0.040 A 
BRANCH  30  33
HETATM   33  N3  UNL     1       1.901   5.202   9.414  1.00  0.00    -0.116 N 
HETATM   34  O5  UNL     1       1.959   5.782   8.317  1.00  0.00    -0.532 OA
HETATM   35  O6  UNL     1       0.686   5.111  10.040  1.00  0.00    -0.532 OA
ENDBRANCH  30  33
ENDBRANCH  26  27
ENDBRANCH   6  26
BRANCH   4  36
HETATM   36  O3  UNL     1      11.144   3.851  10.741  1.00  0.00    -0.361 OA
ATOM     37  H3  UNL     1      11.515   4.064  11.589  1.00  0.00     0.217 HD
ENDBRANCH   4  36
TORSDOF 8
ENDMDL
