MODEL 8
REMARK VINA RESULT: -6.118351581      2.704      4.963
REMARK  7 active torsions:
REMARK  status: ('A' for Active; 'I' for Inactive)
REMARK    1  A    between atoms: C2_2  and  C3_3 
REMARK    2  A    between atoms: C3_3  and  C4_4 
REMARK    3  A    between atoms: C3_3  and  O1_6 
REMARK    4  A    between atoms: O1_6  and  C6_7 
REMARK    5  A    between atoms: C8_9  and  C9_10 
REMARK    6  A    between atoms: C11_14  and  N1_15 
REMARK    7  A    between atoms: C12_19  and  N2_20 
REMARK       I    between atoms: N2_20  and  C13_22 
ROOT
HETATM    1  C6  UNL     1      22.768  21.370 -42.477  1.00  0.00     0.147 C 
HETATM    2  C7  UNL     1      22.040  20.059 -42.693  1.00  0.00     0.049 C 
HETATM    3  C8  UNL     1      21.370  19.512 -41.480  1.00  0.00     0.091 C 
HETATM    4  C10 UNL     1      20.398  20.586 -41.000  1.00  0.00     0.050 C 
HETATM    5  C11 UNL     1      21.274  21.714 -40.499  1.00  0.00     0.209 C 
HETATM    6  C12 UNL     1      22.027  22.347 -41.654  1.00  0.00     0.143 C 
ENDROOT
BRANCH   1   7
HETATM    7  O1  UNL     1      22.982  21.883 -43.753  1.00  0.00    -0.379 OA
BRANCH   7   8
HETATM    8  C3  UNL     1      24.194  21.433 -44.320  1.00  0.00     0.121 C 
BRANCH   8   9
HETATM    9  C2  UNL     1      25.297  21.850 -43.422  1.00  0.00     0.027 C 
HETATM   10  C1  UNL     1      25.886  23.201 -43.678  1.00  0.00     0.007 C 
ENDBRANCH   8   9
BRANCH   8  11
HETATM   11  C4  UNL     1      24.280  21.852 -45.741  1.00  0.00     0.027 C 
HETATM   12  C5  UNL     1      23.210  22.730 -46.263  1.00  0.00     0.007 C 
ENDBRANCH   8  11
ENDBRANCH   7   8
ENDBRANCH   1   7
BRANCH   6  13
HETATM   13  N2  UNL     1      22.975  23.277 -41.051  1.00  0.00    -0.352 N 
HETATM   14  C13 UNL     1      23.088  24.597 -41.610  1.00  0.00     0.214 C 
HETATM   15  C14 UNL     1      24.064  25.524 -40.974  1.00  0.00     0.117 C 
HETATM   16  O4  UNL     1      22.375  24.908 -42.589  1.00  0.00    -0.274 OA
ATOM     17  H2  UNL     1      23.545  22.998 -40.252  1.00  0.00     0.163 HD
ENDBRANCH   6  13
BRANCH   3  18
HETATM   18  C9  UNL     1      20.656  18.276 -41.871  1.00  0.00     0.177 C 
HETATM   19  O2  UNL     1      19.796  18.238 -42.795  1.00  0.00    -0.648 OA
HETATM   20  O3  UNL     1      20.900  17.056 -41.221  1.00  0.00    -0.648 OA
ENDBRANCH   3  18
BRANCH   5  21
HETATM   21  N1  UNL     1      20.406  22.696 -39.886  1.00  0.00    -0.073 N 
ATOM     22  H13 UNL     1      19.484  22.324 -39.655  1.00  0.00     0.274 HD
ATOM     23  H12 UNL     1      20.691  22.941 -38.937  1.00  0.00     0.274 HD
ATOM     24  H11 UNL     1      20.366  23.500 -40.511  1.00  0.00     0.274 HD
ENDBRANCH   5  21
TORSDOF 7
ENDMDL
