MODEL 10
REMARK VINA RESULT: -6.061339191      2.400      4.406
REMARK  7 active torsions:
REMARK  status: ('A' for Active; 'I' for Inactive)
REMARK    1  A    between atoms: C2_2  and  C3_3 
REMARK    2  A    between atoms: C3_3  and  C4_4 
REMARK    3  A    between atoms: C3_3  and  O1_6 
REMARK    4  A    between atoms: O1_6  and  C6_7 
REMARK    5  A    between atoms: C8_9  and  C9_10 
REMARK    6  A    between atoms: C11_14  and  N1_15 
REMARK    7  A    between atoms: C12_19  and  N2_20 
REMARK       I    between atoms: N2_20  and  C13_22 
ROOT
HETATM    1  C6  UNL     1      24.795  21.922 -41.507  1.00  0.00     0.147 C 
HETATM    2  C7  UNL     1      26.159  21.278 -41.640  1.00  0.00     0.049 C 
HETATM    3  C8  UNL     1      26.396  20.126 -40.724  1.00  0.00     0.091 C 
HETATM    4  C10 UNL     1      25.298  19.108 -41.015  1.00  0.00     0.050 C 
HETATM    5  C11 UNL     1      24.021  19.755 -40.523  1.00  0.00     0.209 C 
HETATM    6  C12 UNL     1      23.680  20.962 -41.377  1.00  0.00     0.143 C 
ENDROOT
BRANCH   1   7
HETATM    7  O1  UNL     1      24.638  22.686 -42.660  1.00  0.00    -0.379 OA
BRANCH   7   8
HETATM    8  C3  UNL     1      25.105  24.008 -42.501  1.00  0.00     0.121 C 
BRANCH   8   9
HETATM    9  C2  UNL     1      23.942  24.863 -42.166  1.00  0.00     0.027 C 
HETATM   10  C1  UNL     1      23.745  25.179 -40.718  1.00  0.00     0.007 C 
ENDBRANCH   8   9
BRANCH   8  11
HETATM   11  C4  UNL     1      25.925  24.406 -43.672  1.00  0.00     0.027 C 
HETATM   12  C5  UNL     1      25.737  23.649 -44.929  1.00  0.00     0.007 C 
ENDBRANCH   8  11
ENDBRANCH   7   8
ENDBRANCH   1   7
BRANCH   6  13
HETATM   13  N2  UNL     1      22.562  21.620 -40.711  1.00  0.00    -0.352 N 
HETATM   14  C13 UNL     1      21.407  21.966 -41.496  1.00  0.00     0.214 C 
HETATM   15  C14 UNL     1      20.281  22.637 -40.789  1.00  0.00     0.117 C 
HETATM   16  O4  UNL     1      21.395  21.695 -42.716  1.00  0.00    -0.274 OA
ATOM     17  H2  UNL     1      22.597  21.830 -39.713  1.00  0.00     0.163 HD
ENDBRANCH   6  13
BRANCH   3  18
HETATM   18  C9  UNL     1      27.736  19.572 -41.024  1.00  0.00     0.177 C 
HETATM   19  O2  UNL     1      28.784  20.275 -41.048  1.00  0.00    -0.648 OA
HETATM   20  O3  UNL     1      27.914  18.208 -41.304  1.00  0.00    -0.648 OA
ENDBRANCH   3  18
BRANCH   5  21
HETATM   21  N1  UNL     1      22.967  18.770 -40.629  1.00  0.00    -0.073 N 
ATOM     22  H13 UNL     1      22.516  18.572 -39.735  1.00  0.00     0.274 HD
ATOM     23  H12 UNL     1      22.143  19.119 -41.118  1.00  0.00     0.274 HD
ATOM     24  H11 UNL     1      23.368  17.940 -41.065  1.00  0.00     0.274 HD
ENDBRANCH   5  21
TORSDOF 7
ENDMDL
