MODEL 7
REMARK VINA RESULT: -6.158478532      2.012      4.179
REMARK  7 active torsions:
REMARK  status: ('A' for Active; 'I' for Inactive)
REMARK    1  A    between atoms: C2_2  and  C3_3 
REMARK    2  A    between atoms: C3_3  and  C4_4 
REMARK    3  A    between atoms: C3_3  and  O1_6 
REMARK    4  A    between atoms: O1_6  and  C6_7 
REMARK    5  A    between atoms: C8_9  and  C9_10 
REMARK    6  A    between atoms: C11_14  and  N1_15 
REMARK    7  A    between atoms: C12_19  and  N2_20 
REMARK       I    between atoms: N2_20  and  C13_22 
ROOT
HETATM    1  C6  UNL     1      23.846  21.759 -42.366  1.00  0.00     0.147 C 
HETATM    2  C7  UNL     1      25.315  21.530 -42.081  1.00  0.00     0.049 C 
HETATM    3  C8  UNL     1      25.598  20.822 -40.801  1.00  0.00     0.091 C 
HETATM    4  C10 UNL     1      24.856  19.490 -40.868  1.00  0.00     0.050 C 
HETATM    5  C11 UNL     1      23.388  19.854 -40.809  1.00  0.00     0.209 C 
HETATM    6  C12 UNL     1      22.980  20.601 -42.065  1.00  0.00     0.143 C 
ENDROOT
BRANCH   1   7
HETATM    7  O1  UNL     1      23.780  22.067 -43.722  1.00  0.00    -0.379 OA
BRANCH   7   8
HETATM    8  C3  UNL     1      23.915  23.450 -43.970  1.00  0.00     0.121 C 
BRANCH   8   9
HETATM    9  C2  UNL     1      22.556  24.040 -44.002  1.00  0.00     0.027 C 
HETATM   10  C1  UNL     1      21.587  23.422 -44.959  1.00  0.00     0.007 C 
ENDBRANCH   8   9
BRANCH   8  11
HETATM   11  C4  UNL     1      24.781  23.676 -45.154  1.00  0.00     0.027 C 
HETATM   12  C5  UNL     1      26.196  24.033 -44.909  1.00  0.00     0.007 C 
ENDBRANCH   8  11
ENDBRANCH   7   8
ENDBRANCH   1   7
BRANCH   6  13
HETATM   13  N2  UNL     1      21.621  21.072 -41.828  1.00  0.00    -0.352 N 
HETATM   14  C13 UNL     1      20.591  20.687 -42.756  1.00  0.00     0.214 C 
HETATM   15  C14 UNL     1      19.214  21.183 -42.487  1.00  0.00     0.117 C 
HETATM   16  O4  UNL     1      20.889  19.965 -43.732  1.00  0.00    -0.274 OA
ATOM     17  H2  UNL     1      21.404  21.660 -41.023  1.00  0.00     0.163 HD
ENDBRANCH   6  13
BRANCH   3  18
HETATM   18  C9  UNL     1      27.061  20.618 -40.705  1.00  0.00     0.177 C 
HETATM   19  O2  UNL     1      27.903  21.511 -40.999  1.00  0.00    -0.648 OA
HETATM   20  O3  UNL     1      27.599  19.395 -40.275  1.00  0.00    -0.648 OA
ENDBRANCH   3  18
BRANCH   5  21
HETATM   21  N1  UNL     1      22.639  18.621 -40.711  1.00  0.00    -0.073 N 
ATOM     22  H13 UNL     1      22.243  18.322 -41.602  1.00  0.00     0.274 HD
ATOM     23  H12 UNL     1      23.233  17.807 -40.550  1.00  0.00     0.274 HD
ATOM     24  H11 UNL     1      21.934  18.749 -39.985  1.00  0.00     0.274 HD
ENDBRANCH   5  21
TORSDOF 7
ENDMDL
