MODEL 5
REMARK VINA RESULT: -6.230233199      2.348      5.398
REMARK  7 active torsions:
REMARK  status: ('A' for Active; 'I' for Inactive)
REMARK    1  A    between atoms: C2_2  and  C3_3 
REMARK    2  A    between atoms: C3_3  and  C4_4 
REMARK    3  A    between atoms: C3_3  and  O1_6 
REMARK    4  A    between atoms: O1_6  and  C6_7 
REMARK    5  A    between atoms: C8_9  and  C9_10 
REMARK    6  A    between atoms: C11_14  and  N1_15 
REMARK    7  A    between atoms: C12_19  and  N2_20 
REMARK       I    between atoms: N2_20  and  C13_22 
ROOT
HETATM    1  C6  UNL     1      23.356  21.462 -42.667  1.00  0.00     0.147 C 
HETATM    2  C7  UNL     1      21.843  21.518 -42.622  1.00  0.00     0.049 C 
HETATM    3  C8  UNL     1      21.189  20.275 -42.123  1.00  0.00     0.091 C 
HETATM    4  C10 UNL     1      21.752  20.018 -40.729  1.00  0.00     0.050 C 
HETATM    5  C11 UNL     1      23.202  19.645 -40.953  1.00  0.00     0.209 C 
HETATM    6  C12 UNL     1      23.976  20.838 -41.481  1.00  0.00     0.143 C 
ENDROOT
BRANCH   1   7
HETATM    7  O1  UNL     1      23.768  22.787 -42.782  1.00  0.00    -0.379 OA
BRANCH   7   8
HETATM    8  C3  UNL     1      22.687  23.693 -42.754  1.00  0.00     0.121 C 
BRANCH   8   9
HETATM    9  C2  UNL     1      22.782  24.550 -43.960  1.00  0.00     0.027 C 
HETATM   10  C1  UNL     1      21.837  24.235 -45.075  1.00  0.00     0.007 C 
ENDBRANCH   8   9
BRANCH   8  11
HETATM   11  C4  UNL     1      22.626  24.377 -41.439  1.00  0.00     0.027 C 
HETATM   12  C5  UNL     1      23.857  25.036 -40.951  1.00  0.00     0.007 C 
ENDBRANCH   8  11
ENDBRANCH   7   8
ENDBRANCH   1   7
BRANCH   6  13
HETATM   13  N2  UNL     1      25.294  20.330 -41.845  1.00  0.00    -0.352 N 
HETATM   14  C13 UNL     1      26.453  20.963 -41.274  1.00  0.00     0.214 C 
HETATM   15  C14 UNL     1      27.784  20.422 -41.664  1.00  0.00     0.117 C 
HETATM   16  O4  UNL     1      26.298  21.922 -40.488  1.00  0.00    -0.274 OA
ATOM     17  H2  UNL     1      25.392  19.545 -42.489  1.00  0.00     0.163 HD
ENDBRANCH   6  13
BRANCH   3  18
HETATM   18  C9  UNL     1      19.729  20.515 -42.077  1.00  0.00     0.177 C 
HETATM   19  O2  UNL     1      18.892  19.802 -42.697  1.00  0.00    -0.648 OA
HETATM   20  O3  UNL     1      19.187  21.572 -41.328  1.00  0.00    -0.648 OA
ENDBRANCH   3  18
BRANCH   5  21
HETATM   21  N1  UNL     1      23.746  19.236 -39.677  1.00  0.00    -0.073 N 
ATOM     22  H13 UNL     1      23.133  18.598 -39.168  1.00  0.00     0.274 HD
ATOM     23  H12 UNL     1      24.545  18.607 -39.767  1.00  0.00     0.274 HD
ATOM     24  H11 UNL     1      23.963  20.083 -39.152  1.00  0.00     0.274 HD
ENDBRANCH   5  21
TORSDOF 7
ENDMDL
