MODEL 3
REMARK VINA RESULT: -6.271620990      2.009      4.087
REMARK  7 active torsions:
REMARK  status: ('A' for Active; 'I' for Inactive)
REMARK    1  A    between atoms: C2_2  and  C3_3 
REMARK    2  A    between atoms: C3_3  and  C4_4 
REMARK    3  A    between atoms: C3_3  and  O1_6 
REMARK    4  A    between atoms: O1_6  and  C6_7 
REMARK    5  A    between atoms: C8_9  and  C9_10 
REMARK    6  A    between atoms: C11_14  and  N1_15 
REMARK    7  A    between atoms: C12_19  and  N2_20 
REMARK       I    between atoms: N2_20  and  C13_22 
ROOT
HETATM    1  C6  UNL     1      23.863  22.116 -41.935  1.00  0.00     0.147 C 
HETATM    2  C7  UNL     1      25.335  21.834 -41.722  1.00  0.00     0.049 C 
HETATM    3  C8  UNL     1      25.633  20.862 -40.633  1.00  0.00     0.091 C 
HETATM    4  C10 UNL     1      24.892  19.575 -40.986  1.00  0.00     0.050 C 
HETATM    5  C11 UNL     1      23.424  19.912 -40.834  1.00  0.00     0.209 C 
HETATM    6  C12 UNL     1      23.003  20.916 -41.889  1.00  0.00     0.143 C 
ENDROOT
BRANCH   1   7
HETATM    7  O1  UNL     1      23.783  22.715 -43.189  1.00  0.00    -0.379 OA
BRANCH   7   8
HETATM    8  C3  UNL     1      23.318  24.046 -43.122  1.00  0.00     0.121 C 
BRANCH   8   9
HETATM    9  C2  UNL     1      22.509  24.305 -44.336  1.00  0.00     0.027 C 
HETATM   10  C1  UNL     1      21.556  23.226 -44.741  1.00  0.00     0.007 C 
ENDBRANCH   8   9
BRANCH   8  11
HETATM   11  C4  UNL     1      24.448  24.970 -42.850  1.00  0.00     0.027 C 
HETATM   12  C5  UNL     1      24.483  25.640 -41.531  1.00  0.00     0.007 C 
ENDBRANCH   8  11
ENDBRANCH   7   8
ENDBRANCH   1   7
BRANCH   6  13
HETATM   13  N2  UNL     1      21.645  21.317 -41.540  1.00  0.00    -0.352 N 
HETATM   14  C13 UNL     1      20.558  20.825 -42.344  1.00  0.00     0.214 C 
HETATM   15  C14 UNL     1      19.184  21.252 -41.963  1.00  0.00     0.117 C 
HETATM   16  O4  UNL     1      20.806  20.073 -43.311  1.00  0.00    -0.274 OA
ATOM     17  H2  UNL     1      21.469  21.932 -40.745  1.00  0.00     0.163 HD
ENDBRANCH   6  13
BRANCH   3  18
HETATM   18  C9  UNL     1      27.097  20.648 -40.599  1.00  0.00     0.177 C 
HETATM   19  O2  UNL     1      27.932  21.532 -40.937  1.00  0.00    -0.648 OA
HETATM   20  O3  UNL     1      27.645  19.424 -40.182  1.00  0.00    -0.648 OA
ENDBRANCH   3  18
BRANCH   5  21
HETATM   21  N1  UNL     1      22.679  18.684 -41.003  1.00  0.00    -0.073 N 
ATOM     22  H13 UNL     1      22.612  18.390 -41.977  1.00  0.00     0.274 HD
ATOM     23  H12 UNL     1      23.176  17.865 -40.651  1.00  0.00     0.274 HD
ATOM     24  H11 UNL     1      21.768  18.816 -40.563  1.00  0.00     0.274 HD
ENDBRANCH   5  21
TORSDOF 7
ENDMDL
