MODEL 2
REMARK VINA RESULT: -6.408823301      2.563      5.896
REMARK  7 active torsions:
REMARK  status: ('A' for Active; 'I' for Inactive)
REMARK    1  A    between atoms: C2_2  and  C3_3 
REMARK    2  A    between atoms: C3_3  and  C4_4 
REMARK    3  A    between atoms: C3_3  and  O1_6 
REMARK    4  A    between atoms: O1_6  and  C6_7 
REMARK    5  A    between atoms: C8_9  and  C9_10 
REMARK    6  A    between atoms: C11_14  and  N1_15 
REMARK    7  A    between atoms: C12_19  and  N2_20 
REMARK       I    between atoms: N2_20  and  C13_22 
ROOT
HETATM    1  C6  UNL     1      24.240  22.013 -41.827  1.00  0.00     0.147 C 
HETATM    2  C7  UNL     1      22.751  22.239 -41.665  1.00  0.00     0.049 C 
HETATM    3  C8  UNL     1      21.929  20.996 -41.663  1.00  0.00     0.091 C 
HETATM    4  C10 UNL     1      22.460  20.127 -40.526  1.00  0.00     0.050 C 
HETATM    5  C11 UNL     1      23.840  19.695 -40.973  1.00  0.00     0.209 C 
HETATM    6  C12 UNL     1      24.773  20.889 -41.030  1.00  0.00     0.143 C 
ENDROOT
BRANCH   1   7
HETATM    7  O1  UNL     1      24.836  23.207 -41.430  1.00  0.00    -0.379 OA
BRANCH   7   8
HETATM    8  C3  UNL     1      24.817  24.185 -42.448  1.00  0.00     0.121 C 
BRANCH   8   9
HETATM    9  C2  UNL     1      26.060  24.039 -43.240  1.00  0.00     0.027 C 
HETATM   10  C1  UNL     1      25.905  24.049 -44.727  1.00  0.00     0.007 C 
ENDBRANCH   8   9
BRANCH   8  11
HETATM   11  C4  UNL     1      24.534  25.521 -41.867  1.00  0.00     0.027 C 
HETATM   12  C5  UNL     1      23.926  25.568 -40.519  1.00  0.00     0.007 C 
ENDBRANCH   8  11
ENDBRANCH   7   8
ENDBRANCH   1   7
BRANCH   6  13
HETATM   13  N2  UNL     1      26.002  20.408 -41.651  1.00  0.00    -0.352 N 
HETATM   14  C13 UNL     1      27.256  20.718 -41.017  1.00  0.00     0.214 C 
HETATM   15  C14 UNL     1      28.492  20.212 -41.674  1.00  0.00     0.117 C 
HETATM   16  O4  UNL     1      27.256  21.385 -39.960  1.00  0.00    -0.274 OA
ATOM     17  H2  UNL     1      25.974  19.864 -42.514  1.00  0.00     0.163 HD
ENDBRANCH   6  13
BRANCH   3  18
HETATM   18  C9  UNL     1      20.519  21.381 -41.431  1.00  0.00     0.177 C 
HETATM   19  O2  UNL     1      20.177  22.508 -40.974  1.00  0.00    -0.648 OA
HETATM   20  O3  UNL     1      19.466  20.496 -41.711  1.00  0.00    -0.648 OA
ENDBRANCH   3  18
BRANCH   5  21
HETATM   21  N1  UNL     1      24.330  18.739 -40.004  1.00  0.00    -0.073 N 
ATOM     22  H13 UNL     1      24.746  19.181 -39.184  1.00  0.00     0.274 HD
ATOM     23  H12 UNL     1      23.581  18.243 -39.521  1.00  0.00     0.274 HD
ATOM     24  H11 UNL     1      24.973  18.114 -40.490  1.00  0.00     0.274 HD
ENDBRANCH   5  21
TORSDOF 7
ENDMDL
