MODEL 4
REMARK VINA RESULT: -6.244822442      1.962      4.094
REMARK  7 active torsions:
REMARK  status: ('A' for Active; 'I' for Inactive)
REMARK    1  A    between atoms: C2_2  and  C3_3 
REMARK    2  A    between atoms: C3_3  and  C4_4 
REMARK    3  A    between atoms: C3_3  and  O1_6 
REMARK    4  A    between atoms: O1_6  and  C6_7 
REMARK    5  A    between atoms: C8_9  and  C9_10 
REMARK    6  A    between atoms: C11_14  and  N1_15 
REMARK    7  A    between atoms: C12_19  and  N2_20 
REMARK       I    between atoms: N2_20  and  C13_22 
ROOT
HETATM    1  C6  UNL     1      23.961  22.110 -42.149  1.00  0.00     0.147 C 
HETATM    2  C7  UNL     1      25.427  21.834 -41.885  1.00  0.00     0.049 C 
HETATM    3  C8  UNL     1      25.693  20.955 -40.711  1.00  0.00     0.091 C 
HETATM    4  C10 UNL     1      24.945  19.650 -40.969  1.00  0.00     0.050 C 
HETATM    5  C11 UNL     1      23.478  20.012 -40.873  1.00  0.00     0.209 C 
HETATM    6  C12 UNL     1      23.087  20.927 -42.018  1.00  0.00     0.143 C 
ENDROOT
BRANCH   1   7
HETATM    7  O1  UNL     1      23.911  22.602 -43.450  1.00  0.00    -0.379 OA
BRANCH   7   8
HETATM    8  C3  UNL     1      23.555  23.967 -43.498  1.00  0.00     0.121 C 
BRANCH   8   9
HETATM    9  C2  UNL     1      23.601  24.496 -42.115  1.00  0.00     0.027 C 
HETATM   10  C1  UNL     1      24.535  25.639 -41.872  1.00  0.00     0.007 C 
ENDBRANCH   8   9
BRANCH   8  11
HETATM   11  C4  UNL     1      22.286  24.139 -44.249  1.00  0.00     0.027 C 
HETATM   12  C5  UNL     1      21.901  23.071 -45.197  1.00  0.00     0.007 C 
ENDBRANCH   8  11
ENDBRANCH   7   8
ENDBRANCH   1   7
BRANCH   6  13
HETATM   13  N2  UNL     1      21.728  21.370 -41.730  1.00  0.00    -0.352 N 
HETATM   14  C13 UNL     1      20.657  20.870 -42.551  1.00  0.00     0.214 C 
HETATM   15  C14 UNL     1      19.281  21.340 -42.233  1.00  0.00     0.117 C 
HETATM   16  O4  UNL     1      20.921  20.076 -43.480  1.00  0.00    -0.274 OA
ATOM     17  H2  UNL     1      21.540  22.018 -40.965  1.00  0.00     0.163 HD
ENDBRANCH   6  13
BRANCH   3  18
HETATM   18  C9  UNL     1      27.154  20.730 -40.631  1.00  0.00     0.177 C 
HETATM   19  O2  UNL     1      28.004  21.549 -41.078  1.00  0.00    -0.648 OA
HETATM   20  O3  UNL     1      27.681  19.569 -40.044  1.00  0.00    -0.648 OA
ENDBRANCH   3  18
BRANCH   5  21
HETATM   21  N1  UNL     1      22.722  18.781 -40.952  1.00  0.00    -0.073 N 
ATOM     22  H13 UNL     1      22.713  18.262 -40.074  1.00  0.00     0.274 HD
ATOM     23  H12 UNL     1      21.716  18.936 -41.025  1.00  0.00     0.274 HD
ATOM     24  H11 UNL     1      23.100  18.241 -41.730  1.00  0.00     0.274 HD
ENDBRANCH   5  21
TORSDOF 7
ENDMDL
