MODEL 2
REMARK VINA RESULT: -7.414668032      2.364      3.728
REMARK  6 active torsions:
REMARK  status: ('A' for Active; 'I' for Inactive)
REMARK    1  A    between atoms: C4_7  and  C5_8 
REMARK    2  A    between atoms: C8_11  and  C9_12 
REMARK    3  A    between atoms: C9_12  and  N2_13 
REMARK       I    between atoms: N2_13  and  C10_15 
REMARK    4  A    between atoms: C10_15  and  C11_17 
REMARK    5  A    between atoms: C13_19  and  O2_20 
REMARK       I    between atoms: N3_23  and  C15_24 
REMARK    6  A    between atoms: C15_24  and  C16_26 
ROOT
HETATM    1  N2  UNL     1      -6.768  34.589   4.091  1.00  0.00    -0.355 N 
ATOM      2  H2  UNL     1      -6.344  35.371   3.591  1.00  0.00     0.162 HD
HETATM    3  C10 UNL     1      -6.650  34.522   5.494  1.00  0.00     0.241 C 
HETATM    4  O1  UNL     1      -7.168  33.560   6.117  1.00  0.00    -0.271 OA
ENDROOT
BRANCH   3   5
HETATM    5  C11 UNL     1      -5.930  35.547   6.303  1.00  0.00     0.182 C 
HETATM    6  C12 UNL     1      -6.200  36.939   5.775  1.00  0.00     0.068 C 
HETATM    7  C13 UNL     1      -4.828  37.539   5.646  1.00  0.00     0.138 C 
HETATM    8  C14 UNL     1      -3.981  36.325   5.248  1.00  0.00     0.159 C 
HETATM    9  N3  UNL     1      -4.493  35.364   6.221  1.00  0.00    -0.332 N 
HETATM   10  C15 UNL     1      -3.719  34.440   6.946  1.00  0.00     0.255 C 
HETATM   11  O3  UNL     1      -2.457  34.429   6.739  1.00  0.00    -0.267 OA
BRANCH   7  12
HETATM   12  O2  UNL     1      -4.316  38.026   6.822  1.00  0.00    -0.394 OA
ATOM     13  H2  UNL     1      -3.989  38.917   6.763  1.00  0.00     0.210 HD
ENDBRANCH   7  12
BRANCH  10  14
HETATM   14  C16 UNL     1      -4.276  33.499   7.917  1.00  0.00     0.040 A 
HETATM   15  C17 UNL     1      -4.921  32.369   7.481  1.00  0.00     0.018 A 
HETATM   16  C18 UNL     1      -5.453  31.460   8.401  1.00  0.00     0.003 A 
HETATM   17  C19 UNL     1      -5.333  31.693   9.769  1.00  0.00     0.027 A 
HETATM   18  C20 UNL     1      -4.686  32.828  10.210  1.00  0.00     0.053 A 
HETATM   19  N4  UNL     1      -4.550  33.089  11.617  1.00  0.00    -0.102 NA
HETATM   20  C21 UNL     1      -4.172  33.705   9.278  1.00  0.00    -0.022 A 
HETATM   21  C22 UNL     1      -3.472  34.927   9.748  1.00  0.00     0.051 C 
ENDBRANCH  10  14
ENDBRANCH   3   5
BRANCH   1  22
HETATM   22  C9  UNL     1      -7.476  33.577   3.347  1.00  0.00     0.161 C 
BRANCH  22  23
HETATM   23  C8  UNL     1      -7.423  33.767   1.902  1.00  0.00    -0.040 A 
HETATM   24  C7  UNL     1      -6.817  34.845   1.309  1.00  0.00     0.010 A 
HETATM   25  C6  UNL     1      -6.773  35.003  -0.055  1.00  0.00     0.013 A 
HETATM   26  C5  UNL     1      -7.349  34.062  -0.909  1.00  0.00    -0.017 A 
HETATM   27  C24 UNL     1      -7.949  32.997  -0.331  1.00  0.00     0.013 A 
HETATM   28  C23 UNL     1      -7.986  32.849   1.056  1.00  0.00     0.010 A 
BRANCH  26  29
HETATM   29  C4  UNL     1      -7.275  34.306  -2.357  1.00  0.00     0.038 A 
HETATM   30  C2  UNL     1      -6.321  34.156  -3.306  1.00  0.00     0.023 A 
HETATM   31  C1  UNL     1      -4.926  33.623  -3.010  1.00  0.00     0.069 C 
HETATM   32  N1  UNL     1      -6.628  34.501  -4.529  1.00  0.00    -0.362 N 
HETATM   33  C3  UNL     1      -7.815  34.975  -4.829  1.00  0.00     0.139 A 
ATOM     34  H1  UNL     1      -5.931  34.399  -5.267  1.00  0.00     0.165 HD
HETATM   35  S1  UNL     1      -8.585  34.952  -3.317  1.00  0.00    -0.082 SA
ENDBRANCH  26  29
ENDBRANCH  22  23
ENDBRANCH   1  22
TORSDOF 6
ENDMDL
