MODEL 3
REMARK VINA RESULT: -7.172638652      5.656      9.180
REMARK  6 active torsions:
REMARK  status: ('A' for Active; 'I' for Inactive)
REMARK    1  A    between atoms: C4_7  and  C5_8 
REMARK    2  A    between atoms: C8_11  and  C9_12 
REMARK    3  A    between atoms: C9_12  and  N2_13 
REMARK       I    between atoms: N2_13  and  C10_15 
REMARK    4  A    between atoms: C10_15  and  C11_17 
REMARK    5  A    between atoms: C13_19  and  O2_20 
REMARK       I    between atoms: N3_23  and  C15_24 
REMARK    6  A    between atoms: C15_24  and  C16_26 
ROOT
HETATM    1  N2  UNL     1      -8.272  34.079  -1.946  1.00  0.00    -0.355 N 
ATOM      2  H2  UNL     1      -9.117  34.171  -1.383  1.00  0.00     0.162 HD
HETATM    3  C10 UNL     1      -7.036  33.858  -1.306  1.00  0.00     0.241 C 
HETATM    4  O1  UNL     1      -5.989  33.746  -1.994  1.00  0.00    -0.271 OA
ENDROOT
BRANCH   3   5
HETATM    5  C11 UNL     1      -6.891  33.747   0.174  1.00  0.00     0.182 C 
HETATM    6  C12 UNL     1      -7.688  32.577   0.709  1.00  0.00     0.068 C 
HETATM    7  C13 UNL     1      -8.473  33.175   1.842  1.00  0.00     0.138 C 
HETATM    8  C14 UNL     1      -8.753  34.592   1.330  1.00  0.00     0.159 C 
HETATM    9  N3  UNL     1      -7.417  34.923   0.841  1.00  0.00    -0.332 N 
HETATM   10  C15 UNL     1      -6.768  36.160   1.003  1.00  0.00     0.255 C 
HETATM   11  O3  UNL     1      -7.395  37.083   1.628  1.00  0.00    -0.267 OA
BRANCH   7  12
HETATM   12  O2  UNL     1      -7.765  33.295   3.012  1.00  0.00    -0.394 OA
ATOM     13  H2  UNL     1      -7.670  34.190   3.317  1.00  0.00     0.210 HD
ENDBRANCH   7  12
BRANCH  10  14
HETATM   14  C16 UNL     1      -5.424  36.444   0.502  1.00  0.00     0.040 A 
HETATM   15  C17 UNL     1      -5.264  37.037  -0.725  1.00  0.00     0.018 A 
HETATM   16  C18 UNL     1      -3.984  37.318  -1.213  1.00  0.00     0.003 A 
HETATM   17  C19 UNL     1      -2.858  36.998  -0.458  1.00  0.00     0.027 A 
HETATM   18  C20 UNL     1      -3.015  36.401   0.776  1.00  0.00     0.053 A 
HETATM   19  N4  UNL     1      -1.869  36.062   1.573  1.00  0.00    -0.102 NA
HETATM   20  C21 UNL     1      -4.291  36.137   1.229  1.00  0.00    -0.022 A 
HETATM   21  C22 UNL     1      -4.465  35.496   2.557  1.00  0.00     0.051 C 
ENDBRANCH  10  14
ENDBRANCH   3   5
BRANCH   1  22
HETATM   22  C9  UNL     1      -8.368  34.178  -3.382  1.00  0.00     0.161 C 
BRANCH  22  23
HETATM   23  C8  UNL     1      -8.892  35.456  -3.847  1.00  0.00    -0.040 A 
HETATM   24  C7  UNL     1     -10.166  35.613  -4.332  1.00  0.00     0.010 A 
HETATM   25  C6  UNL     1     -10.644  36.828  -4.760  1.00  0.00     0.013 A 
HETATM   26  C5  UNL     1      -9.844  37.971  -4.721  1.00  0.00    -0.017 A 
HETATM   27  C24 UNL     1      -8.588  37.824  -4.245  1.00  0.00     0.013 A 
HETATM   28  C23 UNL     1      -8.116  36.584  -3.813  1.00  0.00     0.010 A 
BRANCH  26  29
HETATM   29  C4  UNL     1     -10.420  39.233  -5.210  1.00  0.00     0.038 A 
HETATM   30  C2  UNL     1     -10.292  39.970  -6.339  1.00  0.00     0.023 A 
HETATM   31  C1  UNL     1      -9.388  39.571  -7.498  1.00  0.00     0.069 C 
HETATM   32  N1  UNL     1     -10.980  41.079  -6.415  1.00  0.00    -0.362 N 
HETATM   33  C3  UNL     1     -11.764  41.467  -5.437  1.00  0.00     0.139 A 
ATOM     34  H1  UNL     1     -10.906  41.656  -7.253  1.00  0.00     0.165 HD
HETATM   35  S1  UNL     1     -11.551  40.215  -4.310  1.00  0.00    -0.082 SA
ENDBRANCH  26  29
ENDBRANCH  22  23
ENDBRANCH   1  22
TORSDOF 6
ENDMDL
