MODEL 1
REMARK VINA RESULT: -7.422686430      0.000      0.000
REMARK  6 active torsions:
REMARK  status: ('A' for Active; 'I' for Inactive)
REMARK    1  A    between atoms: C4_7  and  C5_8 
REMARK    2  A    between atoms: C8_11  and  C9_12 
REMARK    3  A    between atoms: C9_12  and  N2_13 
REMARK       I    between atoms: N2_13  and  C10_15 
REMARK    4  A    between atoms: C10_15  and  C11_17 
REMARK    5  A    between atoms: C13_19  and  O2_20 
REMARK       I    between atoms: N3_23  and  C15_24 
REMARK    6  A    between atoms: C15_24  and  C16_26 
ROOT
HETATM    1  N2  UNL     1      -5.128  38.190   6.254  1.00  0.00    -0.355 N 
ATOM      2  H2  UNL     1      -4.120  38.172   6.094  1.00  0.00     0.162 HD
HETATM    3  C10 UNL     1      -5.635  37.774   7.502  1.00  0.00     0.241 C 
HETATM    4  O1  UNL     1      -6.876  37.790   7.706  1.00  0.00    -0.271 OA
ENDROOT
BRANCH   3   5
HETATM    5  C11 UNL     1      -4.769  37.305   8.621  1.00  0.00     0.182 C 
HETATM    6  C12 UNL     1      -4.351  38.462   9.502  1.00  0.00     0.068 C 
HETATM    7  C13 UNL     1      -2.861  38.296   9.618  1.00  0.00     0.138 C 
HETATM    8  C14 UNL     1      -2.491  37.734   8.241  1.00  0.00     0.159 C 
HETATM    9  N3  UNL     1      -3.538  36.722   8.120  1.00  0.00    -0.332 N 
HETATM   10  C15 UNL     1      -3.366  35.421   7.617  1.00  0.00     0.255 C 
HETATM   11  O3  UNL     1      -2.196  35.084   7.224  1.00  0.00    -0.267 OA
BRANCH   7  12
HETATM   12  O2  UNL     1      -2.472  37.372  10.554  1.00  0.00    -0.394 OA
ATOM     13  H2  UNL     1      -1.647  37.575  10.980  1.00  0.00     0.210 HD
ENDBRANCH   7  12
BRANCH  10  14
HETATM   14  C16 UNL     1      -4.444  34.437   7.522  1.00  0.00     0.040 A 
HETATM   15  C17 UNL     1      -5.323  34.487   6.469  1.00  0.00     0.018 A 
HETATM   16  C18 UNL     1      -6.355  33.549   6.366  1.00  0.00     0.003 A 
HETATM   17  C19 UNL     1      -6.501  32.555   7.330  1.00  0.00     0.027 A 
HETATM   18  C20 UNL     1      -5.620  32.503   8.391  1.00  0.00     0.053 A 
HETATM   19  N4  UNL     1      -5.751  31.487   9.398  1.00  0.00    -0.102 NA
HETATM   20  C21 UNL     1      -4.613  33.443   8.465  1.00  0.00    -0.022 A 
HETATM   21  C22 UNL     1      -3.661  33.389   9.602  1.00  0.00     0.051 C 
ENDBRANCH  10  14
ENDBRANCH   3   5
BRANCH   1  22
HETATM   22  C9  UNL     1      -6.002  38.639   5.199  1.00  0.00     0.161 C 
BRANCH  22  23
HETATM   23  C8  UNL     1      -6.150  37.678   4.112  1.00  0.00    -0.040 A 
HETATM   24  C7  UNL     1      -5.593  36.425   4.136  1.00  0.00     0.010 A 
HETATM   25  C6  UNL     1      -5.749  35.532   3.104  1.00  0.00     0.013 A 
HETATM   26  C5  UNL     1      -6.491  35.865   1.970  1.00  0.00    -0.017 A 
HETATM   27  C24 UNL     1      -7.042  37.098   1.938  1.00  0.00     0.013 A 
HETATM   28  C23 UNL     1      -6.876  37.994   2.994  1.00  0.00     0.010 A 
BRANCH  26  29
HETATM   29  C4  UNL     1      -6.601  34.862   0.899  1.00  0.00     0.038 A 
HETATM   30  C2  UNL     1      -7.351  33.752   0.700  1.00  0.00     0.023 A 
HETATM   31  C1  UNL     1      -8.383  33.252   1.701  1.00  0.00     0.069 C 
HETATM   32  N1  UNL     1      -7.158  33.086  -0.408  1.00  0.00    -0.362 N 
HETATM   33  C3  UNL     1      -6.271  33.474  -1.294  1.00  0.00     0.139 A 
ATOM     34  H1  UNL     1      -7.708  32.246  -0.588  1.00  0.00     0.165 HD
HETATM   35  S1  UNL     1      -5.642  34.870  -0.562  1.00  0.00    -0.082 SA
ENDBRANCH  26  29
ENDBRANCH  22  23
ENDBRANCH   1  22
TORSDOF 6
ENDMDL
