MODEL 9
REMARK VINA RESULT: -8.075214932      2.867      7.652
REMARK  9 active torsions:
REMARK  status: ('A' for Active; 'I' for Inactive)
REMARK    1  A    between atoms: C1_2  and  C2_6 
REMARK    2  A    between atoms: C5_9  and  C6_10 
REMARK    3  A    between atoms: C6_10  and  N3_11 
REMARK       I    between atoms: N3_11  and  C7_13 
REMARK    4  A    between atoms: C7_13  and  C8_15 
REMARK       I    between atoms: N4_18  and  C11_19 
REMARK    5  A    between atoms: C11_19  and  C12_21 
REMARK    6  A    between atoms: C12_21  and  N5_22 
REMARK    7  A    between atoms: C12_21  and  C15_29 
REMARK    8  A    between atoms: N5_22  and  C13_25 
REMARK    9  A    between atoms: C13_25  and  C14_26 
ROOT
HETATM    1  C8  UNL     1      13.848 -15.977  21.607  1.00  0.00     0.180 C 
HETATM    2  C9  UNL     1      13.262 -16.929  20.583  1.00  0.00     0.055 C 
HETATM    3  C10 UNL     1      14.480 -16.513  19.786  1.00  0.00     0.129 C 
HETATM    4  N4  UNL     1      14.432 -15.248  20.508  1.00  0.00    -0.337 N 
HETATM    5  C11 UNL     1      14.813 -13.932  20.179  1.00  0.00     0.251 C 
HETATM    6  O2  UNL     1      15.321 -13.732  19.021  1.00  0.00    -0.271 OA
ENDROOT
BRANCH   1   7
HETATM    7  C7  UNL     1      14.834 -16.716  22.454  1.00  0.00     0.240 C 
HETATM    8  N3  UNL     1      16.113 -16.198  22.750  1.00  0.00    -0.355 N 
ATOM      9  H3  UNL     1      16.356 -15.285  22.366  1.00  0.00     0.162 HD
HETATM   10  O1  UNL     1      14.529 -17.823  22.919  1.00  0.00    -0.271 OA
BRANCH   8  11
HETATM   11  C6  UNL     1      17.108 -16.879  23.564  1.00  0.00     0.161 C 
BRANCH  11  12
HETATM   12  C5  UNL     1      18.298 -16.070  23.800  1.00  0.00    -0.040 A 
HETATM   13  C4  UNL     1      19.438 -16.269  23.061  1.00  0.00     0.010 A 
HETATM   14  C3  UNL     1      20.583 -15.528  23.241  1.00  0.00     0.015 A 
HETATM   15  C2  UNL     1      20.633 -14.527  24.201  1.00  0.00     0.004 A 
HETATM   16  C22 UNL     1      19.504 -14.308  24.954  1.00  0.00     0.015 A 
HETATM   17  C21 UNL     1      18.349 -15.078  24.750  1.00  0.00     0.010 A 
BRANCH  15  18
HETATM   18  C1  UNL     1      21.843 -13.750  24.384  1.00  0.00     0.120 C 
HETATM   19  N1  UNL     1      22.952 -13.985  23.527  1.00  0.00    -0.082 NA
HETATM   20  N2  UNL     1      21.960 -12.859  25.286  1.00  0.00    -0.387 N 
ATOM     21  H22 UNL     1      22.812 -12.313  25.414  1.00  0.00     0.157 HD
ATOM     22  H21 UNL     1      21.165 -12.692  25.900  1.00  0.00     0.157 HD
ENDBRANCH  15  18
ENDBRANCH  11  12
ENDBRANCH   8  11
ENDBRANCH   1   7
BRANCH   5  23
HETATM   23  C12 UNL     1      14.668 -12.746  21.089  1.00  0.00     0.281 C 
BRANCH  23  24
HETATM   24  N5  UNL     1      13.673 -11.837  20.570  1.00  0.00    -0.052 N 
ATOM     25  H52 UNL     1      14.088 -11.143  19.949  1.00  0.00     0.278 HD
ATOM     26  H51 UNL     1      13.057 -12.299  19.902  1.00  0.00     0.278 HD
BRANCH  24  27
HETATM   27  C13 UNL     1      12.913 -11.203  21.651  1.00  0.00     0.345 C 
BRANCH  27  28
HETATM   28  C14 UNL     1      13.238  -9.756  21.768  1.00  0.00     0.199 C 
HETATM   29  O3  UNL     1      12.704  -9.109  22.679  1.00  0.00    -0.647 OA
HETATM   30  O4  UNL     1      14.108  -9.109  20.902  1.00  0.00    -0.647 OA
ENDBRANCH  27  28
ENDBRANCH  24  27
ENDBRANCH  23  24
BRANCH  23  31
HETATM   31  C15 UNL     1      16.008 -12.161  21.343  1.00  0.00     0.026 C 
HETATM   32  C16 UNL     1      16.691 -11.545  20.153  1.00  0.00     0.007 C 
HETATM   33  C17 UNL     1      18.158 -11.359  20.526  1.00  0.00     0.000 C 
HETATM   34  C18 UNL     1      18.896 -12.661  20.550  1.00  0.00     0.000 C 
HETATM   35  C19 UNL     1      17.931 -13.748  20.993  1.00  0.00     0.000 C 
HETATM   36  C20 UNL     1      16.982 -13.110  21.989  1.00  0.00     0.007 C 
ENDBRANCH  23  31
ENDBRANCH   5  23
TORSDOF 9
ENDMDL
