MODEL 13
REMARK VINA RESULT: -7.910500144      2.459      4.594
REMARK  9 active torsions:
REMARK  status: ('A' for Active; 'I' for Inactive)
REMARK    1  A    between atoms: C1_2  and  C2_6 
REMARK    2  A    between atoms: C5_9  and  C6_10 
REMARK    3  A    between atoms: C6_10  and  N3_11 
REMARK       I    between atoms: N3_11  and  C7_13 
REMARK    4  A    between atoms: C7_13  and  C8_15 
REMARK       I    between atoms: N4_18  and  C11_19 
REMARK    5  A    between atoms: C11_19  and  C12_21 
REMARK    6  A    between atoms: C12_21  and  N5_22 
REMARK    7  A    between atoms: C12_21  and  C15_29 
REMARK    8  A    between atoms: N5_22  and  C13_25 
REMARK    9  A    between atoms: C13_25  and  C14_26 
ROOT
HETATM    1  C8  UNL     1      17.341 -17.499  22.126  1.00  0.00     0.180 C 
HETATM    2  C9  UNL     1      16.954 -18.573  23.122  1.00  0.00     0.055 C 
HETATM    3  C10 UNL     1      16.651 -17.378  24.000  1.00  0.00     0.129 C 
HETATM    4  N4  UNL     1      17.674 -16.659  23.251  1.00  0.00    -0.337 N 
HETATM    5  C11 UNL     1      18.557 -15.613  23.580  1.00  0.00     0.251 C 
HETATM    6  O2  UNL     1      18.502 -15.140  24.769  1.00  0.00    -0.271 OA
ENDROOT
BRANCH   1   7
HETATM    7  C7  UNL     1      16.123 -17.070  21.371  1.00  0.00     0.240 C 
HETATM    8  N3  UNL     1      16.118 -15.939  20.526  1.00  0.00    -0.355 N 
ATOM      9  H3  UNL     1      16.984 -15.409  20.437  1.00  0.00     0.162 HD
HETATM   10  O1  UNL     1      15.076 -17.722  21.482  1.00  0.00    -0.271 OA
BRANCH   8  11
HETATM   11  C6  UNL     1      14.960 -15.479  19.775  1.00  0.00     0.161 C 
BRANCH  11  12
HETATM   12  C5  UNL     1      14.596 -14.101  20.081  1.00  0.00    -0.040 A 
HETATM   13  C4  UNL     1      14.130 -13.759  21.326  1.00  0.00     0.010 A 
HETATM   14  C3  UNL     1      13.779 -12.473  21.666  1.00  0.00     0.015 A 
HETATM   15  C2  UNL     1      13.885 -11.444  20.739  1.00  0.00     0.004 A 
HETATM   16  C22 UNL     1      14.351 -11.761  19.485  1.00  0.00     0.015 A 
HETATM   17  C21 UNL     1      14.701 -13.081  19.165  1.00  0.00     0.010 A 
BRANCH  15  18
HETATM   18  C1  UNL     1      13.515 -10.092  21.105  1.00  0.00     0.120 C 
HETATM   19  N1  UNL     1      12.248  -9.859  21.706  1.00  0.00    -0.082 NA
HETATM   20  N2  UNL     1      14.279  -9.092  20.911  1.00  0.00    -0.387 N 
ATOM     21  H22 UNL     1      14.018  -8.140  21.168  1.00  0.00     0.157 HD
ATOM     22  H21 UNL     1      15.187  -9.259  20.480  1.00  0.00     0.157 HD
ENDBRANCH  15  18
ENDBRANCH  11  12
ENDBRANCH   8  11
ENDBRANCH   1   7
BRANCH   5  23
HETATM   23  C12 UNL     1      19.559 -15.009  22.637  1.00  0.00     0.281 C 
BRANCH  23  24
HETATM   24  N5  UNL     1      20.900 -15.222  23.128  1.00  0.00    -0.052 N 
ATOM     25  H52 UNL     1      21.576 -14.643  22.632  1.00  0.00     0.278 HD
ATOM     26  H51 UNL     1      21.020 -14.838  24.065  1.00  0.00     0.278 HD
BRANCH  24  27
HETATM   27  C13 UNL     1      21.268 -16.640  23.078  1.00  0.00     0.345 C 
BRANCH  27  28
HETATM   28  C14 UNL     1      22.665 -16.855  23.546  1.00  0.00     0.199 C 
HETATM   29  O3  UNL     1      22.836 -17.248  24.708  1.00  0.00    -0.647 OA
HETATM   30  O4  UNL     1      23.770 -16.632  22.739  1.00  0.00    -0.647 OA
ENDBRANCH  27  28
ENDBRANCH  24  27
ENDBRANCH  23  24
BRANCH  23  31
HETATM   31  C15 UNL     1      19.186 -13.597  22.369  1.00  0.00     0.026 C 
HETATM   32  C16 UNL     1      17.797 -13.377  21.834  1.00  0.00     0.007 C 
HETATM   33  C17 UNL     1      17.752 -11.956  21.280  1.00  0.00     0.000 C 
HETATM   34  C18 UNL     1      18.503 -11.837  19.991  1.00  0.00     0.000 C 
HETATM   35  C19 UNL     1      19.671 -12.807  20.028  1.00  0.00     0.000 C 
HETATM   36  C20 UNL     1      20.145 -12.866  21.468  1.00  0.00     0.007 C 
ENDBRANCH  23  31
ENDBRANCH   5  23
TORSDOF 9
ENDMDL
