MODEL 1
REMARK VINA RESULT: -8.924384133      0.000      0.000
REMARK  9 active torsions:
REMARK  status: ('A' for Active; 'I' for Inactive)
REMARK    1  A    between atoms: C1_2  and  C2_6 
REMARK    2  A    between atoms: C5_9  and  C6_10 
REMARK    3  A    between atoms: C6_10  and  N3_11 
REMARK       I    between atoms: N3_11  and  C7_13 
REMARK    4  A    between atoms: C7_13  and  C8_15 
REMARK       I    between atoms: N4_18  and  C11_19 
REMARK    5  A    between atoms: C11_19  and  C12_21 
REMARK    6  A    between atoms: C12_21  and  N5_22 
REMARK    7  A    between atoms: C12_21  and  C15_29 
REMARK    8  A    between atoms: N5_22  and  C13_25 
REMARK    9  A    between atoms: C13_25  and  C14_26 
ROOT
HETATM    1  C8  UNL     1      18.717 -12.363  21.330  1.00  0.00     0.180 C 
HETATM    2  C9  UNL     1      19.663 -11.653  20.382  1.00  0.00     0.055 C 
HETATM    3  C10 UNL     1      19.774 -13.032  19.768  1.00  0.00     0.129 C 
HETATM    4  N4  UNL     1      19.476 -13.566  21.092  1.00  0.00    -0.337 N 
HETATM    5  C11 UNL     1      19.832 -14.756  21.757  1.00  0.00     0.251 C 
HETATM    6  O2  UNL     1      20.566 -15.594  21.124  1.00  0.00    -0.271 OA
ENDROOT
BRANCH   1   7
HETATM    7  C7  UNL     1      17.344 -12.369  20.738  1.00  0.00     0.240 C 
HETATM    8  N3  UNL     1      16.719 -11.194  20.267  1.00  0.00    -0.355 N 
ATOM      9  H3  UNL     1      17.238 -10.319  20.339  1.00  0.00     0.162 HD
HETATM   10  O1  UNL     1      16.722 -13.437  20.651  1.00  0.00    -0.271 OA
BRANCH   8  11
HETATM   11  C6  UNL     1      15.386 -11.147  19.687  1.00  0.00     0.161 C 
BRANCH  11  12
HETATM   12  C5  UNL     1      14.335 -11.027  20.691  1.00  0.00    -0.040 A 
HETATM   13  C4  UNL     1      13.720 -12.145  21.198  1.00  0.00     0.010 A 
HETATM   14  C3  UNL     1      12.728 -12.084  22.150  1.00  0.00     0.015 A 
HETATM   15  C2  UNL     1      12.299 -10.861  22.647  1.00  0.00     0.004 A 
HETATM   16  C22 UNL     1      12.901  -9.727  22.155  1.00  0.00     0.015 A 
HETATM   17  C21 UNL     1      13.910  -9.817  21.184  1.00  0.00     0.010 A 
BRANCH  15  18
HETATM   18  C1  UNL     1      11.255 -10.806  23.650  1.00  0.00     0.120 C 
HETATM   19  N1  UNL     1      11.130  -9.642  24.457  1.00  0.00    -0.082 NA
HETATM   20  N2  UNL     1      10.436 -11.761  23.845  1.00  0.00    -0.387 N 
ATOM     21  H22 UNL     1       9.701 -11.722  24.552  1.00  0.00     0.157 HD
ATOM     22  H21 UNL     1      10.526 -12.595  23.267  1.00  0.00     0.157 HD
ENDBRANCH  15  18
ENDBRANCH  11  12
ENDBRANCH   8  11
ENDBRANCH   1   7
BRANCH   5  23
HETATM   23  C12 UNL     1      19.413 -15.114  23.154  1.00  0.00     0.281 C 
BRANCH  23  24
HETATM   24  N5  UNL     1      18.109 -15.735  23.141  1.00  0.00    -0.052 N 
ATOM     25  H52 UNL     1      17.480 -15.296  23.812  1.00  0.00     0.278 HD
ATOM     26  H51 UNL     1      17.601 -15.518  22.283  1.00  0.00     0.278 HD
BRANCH  24  27
HETATM   27  C13 UNL     1      18.202 -17.181  23.359  1.00  0.00     0.345 C 
BRANCH  27  28
HETATM   28  C14 UNL     1      17.607 -17.573  24.665  1.00  0.00     0.199 C 
HETATM   29  O3  UNL     1      16.416 -17.912  24.684  1.00  0.00    -0.647 OA
HETATM   30  O4  UNL     1      18.327 -17.571  25.850  1.00  0.00    -0.647 OA
ENDBRANCH  27  28
ENDBRANCH  24  27
ENDBRANCH  23  24
BRANCH  23  31
HETATM   31  C15 UNL     1      19.552 -13.921  24.025  1.00  0.00     0.026 C 
HETATM   32  C16 UNL     1      20.945 -13.370  24.164  1.00  0.00     0.007 C 
HETATM   33  C17 UNL     1      20.935 -12.424  25.361  1.00  0.00     0.000 C 
HETATM   34  C18 UNL     1      20.865 -13.167  26.657  1.00  0.00     0.000 C 
HETATM   35  C19 UNL     1      20.055 -14.434  26.438  1.00  0.00     0.000 C 
HETATM   36  C20 UNL     1      18.991 -14.100  25.410  1.00  0.00     0.007 C 
ENDBRANCH  23  31
ENDBRANCH   5  23
TORSDOF 9
ENDMDL
