MODEL 4
REMARK VINA RESULT: -8.243065887      2.419      4.653
REMARK  9 active torsions:
REMARK  status: ('A' for Active; 'I' for Inactive)
REMARK    1  A    between atoms: C1_2  and  C2_6 
REMARK    2  A    between atoms: C5_9  and  C6_10 
REMARK    3  A    between atoms: C6_10  and  N3_11 
REMARK       I    between atoms: N3_11  and  C7_13 
REMARK    4  A    between atoms: C7_13  and  C8_15 
REMARK       I    between atoms: N4_18  and  C11_19 
REMARK    5  A    between atoms: C11_19  and  C12_21 
REMARK    6  A    between atoms: C12_21  and  N5_22 
REMARK    7  A    between atoms: C12_21  and  C15_29 
REMARK    8  A    between atoms: N5_22  and  C13_25 
REMARK    9  A    between atoms: C13_25  and  C14_26 
ROOT
HETATM    1  C8  UNL     1      16.662 -17.611  22.241  1.00  0.00     0.180 C 
HETATM    2  C9  UNL     1      16.431 -18.719  23.250  1.00  0.00     0.055 C 
HETATM    3  C10 UNL     1      16.437 -17.564  24.229  1.00  0.00     0.129 C 
HETATM    4  N4  UNL     1      17.313 -16.870  23.293  1.00  0.00    -0.337 N 
HETATM    5  C11 UNL     1      18.330 -15.908  23.453  1.00  0.00     0.251 C 
HETATM    6  O2  UNL     1      18.590 -15.510  24.642  1.00  0.00    -0.271 OA
ENDROOT
BRANCH   1   7
HETATM    7  C7  UNL     1      15.341 -17.054  21.816  1.00  0.00     0.240 C 
HETATM    8  N3  UNL     1      15.210 -16.180  20.715  1.00  0.00    -0.355 N 
ATOM      9  H3  UNL     1      16.055 -15.932  20.202  1.00  0.00     0.162 HD
HETATM   10  O1  UNL     1      14.318 -17.363  22.442  1.00  0.00    -0.271 OA
BRANCH   8  11
HETATM   11  C6  UNL     1      13.950 -15.608  20.265  1.00  0.00     0.161 C 
BRANCH  11  12
HETATM   12  C5  UNL     1      13.852 -14.177  20.523  1.00  0.00    -0.040 A 
HETATM   13  C4  UNL     1      13.453 -13.712  21.751  1.00  0.00     0.010 A 
HETATM   14  C3  UNL     1      13.350 -12.371  22.045  1.00  0.00     0.015 A 
HETATM   15  C2  UNL     1      13.653 -11.412  21.088  1.00  0.00     0.004 A 
HETATM   16  C22 UNL     1      14.056 -11.854  19.850  1.00  0.00     0.015 A 
HETATM   17  C21 UNL     1      14.152 -13.226  19.576  1.00  0.00     0.010 A 
BRANCH  15  18
HETATM   18  C1  UNL     1      13.544 -10.003  21.406  1.00  0.00     0.120 C 
HETATM   19  N1  UNL     1      12.587  -9.583  22.370  1.00  0.00    -0.082 NA
HETATM   20  N2  UNL     1      14.273  -9.115  20.858  1.00  0.00    -0.387 N 
ATOM     21  H22 UNL     1      14.195  -8.123  21.082  1.00  0.00     0.157 HD
ATOM     22  H21 UNL     1      14.959  -9.417  20.167  1.00  0.00     0.157 HD
ENDBRANCH  15  18
ENDBRANCH  11  12
ENDBRANCH   8  11
ENDBRANCH   1   7
BRANCH   5  23
HETATM   23  C12 UNL     1      19.131 -15.315  22.329  1.00  0.00     0.281 C 
BRANCH  23  24
HETATM   24  N5  UNL     1      20.532 -15.618  22.500  1.00  0.00    -0.052 N 
ATOM     25  H52 UNL     1      21.114 -15.055  21.880  1.00  0.00     0.278 HD
ATOM     26  H51 UNL     1      20.882 -15.281  23.396  1.00  0.00     0.278 HD
BRANCH  24  27
HETATM   27  C13 UNL     1      20.794 -17.050  22.327  1.00  0.00     0.345 C 
BRANCH  27  28
HETATM   28  C14 UNL     1      20.708 -17.450  20.897  1.00  0.00     0.199 C 
HETATM   29  O3  UNL     1      21.597 -17.059  20.128  1.00  0.00    -0.647 OA
HETATM   30  O4  UNL     1      19.679 -18.234  20.396  1.00  0.00    -0.647 OA
ENDBRANCH  27  28
ENDBRANCH  24  27
ENDBRANCH  23  24
BRANCH  23  31
HETATM   31  C15 UNL     1      18.793 -13.875  22.198  1.00  0.00     0.026 C 
HETATM   32  C16 UNL     1      17.525 -13.565  21.450  1.00  0.00     0.007 C 
HETATM   33  C17 UNL     1      17.563 -12.080  21.103  1.00  0.00     0.000 C 
HETATM   34  C18 UNL     1      18.539 -11.789  20.007  1.00  0.00     0.000 C 
HETATM   35  C19 UNL     1      19.694 -12.768  20.124  1.00  0.00     0.000 C 
HETATM   36  C20 UNL     1      19.892 -13.035  21.604  1.00  0.00     0.007 C 
ENDBRANCH  23  31
ENDBRANCH   5  23
TORSDOF 9
ENDMDL
