MODEL 11
REMARK VINA RESULT: -7.901393070      2.434      4.238
REMARK  11 active torsions:
REMARK  status: ('A' for Active; 'I' for Inactive)
REMARK    1  A    between atoms: C2_2  and  C3_3 
REMARK    2  A    between atoms: C3_3  and  N1_4 
REMARK       I    between atoms: N1_4  and  C4_6 
REMARK    3  A    between atoms: C4_6  and  C5_8 
REMARK    4  A    between atoms: C5_8  and  N2_9 
REMARK    5  A    between atoms: N2_9  and  C6_11 
REMARK    6  A    between atoms: C6_11  and  C7_12 
REMARK    7  A    between atoms: C6_11  and  C20_34 
REMARK       I    between atoms: C7_12  and  N3_14 
REMARK    8  A    between atoms: C10_17  and  C11_18 
REMARK       I    between atoms: C11_18  and  N4_20 
REMARK    9  A    between atoms: N4_20  and  C12_22 
REMARK   10  A    between atoms: C12_22  and  C13_23 
REMARK   11  A    between atoms: C16_26  and  C17_27 
ROOT
HETATM    1  C7  UNL     1      18.252 -13.412  22.265  1.00  0.00     0.243 C 
HETATM    2  O2  UNL     1      16.982 -13.242  22.246  1.00  0.00    -0.271 OA
HETATM    3  N3  UNL     1      19.005 -12.591  21.391  1.00  0.00    -0.337 N 
HETATM    4  C8  UNL     1      20.426 -12.420  21.012  1.00  0.00     0.129 C 
HETATM    5  C9  UNL     1      19.915 -12.037  19.626  1.00  0.00     0.055 C 
HETATM    6  C10 UNL     1      18.754 -11.504  20.445  1.00  0.00     0.180 C 
ENDROOT
BRANCH   1   7
HETATM    7  C6  UNL     1      18.855 -14.437  23.181  1.00  0.00     0.177 C 
BRANCH   7   8
HETATM    8  N2  UNL     1      18.314 -15.724  23.072  1.00  0.00    -0.381 N 
ATOM      9  H2  UNL     1      17.479 -15.947  23.614  1.00  0.00     0.160 HD
BRANCH   8  10
HETATM   10  C5  UNL     1      18.864 -16.721  22.254  1.00  0.00     0.158 C 
BRANCH  10  11
HETATM   11  C4  UNL     1      20.375 -16.639  22.265  1.00  0.00     0.256 C 
HETATM   12  N1  UNL     1      21.147 -17.073  23.374  1.00  0.00    -0.356 N 
ATOM     13  H1  UNL     1      20.712 -17.463  24.210  1.00  0.00     0.162 HD
HETATM   14  O1  UNL     1      20.912 -16.165  21.241  1.00  0.00    -0.267 OA
BRANCH  12  15
HETATM   15  C3  UNL     1      22.581 -16.936  23.257  1.00  0.00     0.122 C 
BRANCH  15  16
HETATM   16  C2  UNL     1      23.225 -16.287  24.441  1.00  0.00     0.015 C 
HETATM   17  C1  UNL     1      23.649 -14.884  24.023  1.00  0.00     0.006 C 
ENDBRANCH  15  16
ENDBRANCH  12  15
ENDBRANCH  10  11
ENDBRANCH   8  10
ENDBRANCH   7   8
BRANCH   7  18
HETATM   18  C20 UNL     1      18.949 -13.858  24.603  1.00  0.00     0.017 C 
HETATM   19  C21 UNL     1      20.307 -13.187  24.646  1.00  0.00     0.007 C 
HETATM   20  C22 UNL     1      20.764 -12.950  26.070  1.00  0.00     0.000 C 
HETATM   21  C23 UNL     1      21.032 -14.357  26.611  1.00  0.00     0.000 C 
HETATM   22  C24 UNL     1      19.716 -15.031  26.731  1.00  0.00     0.000 C 
HETATM   23  C25 UNL     1      18.800 -14.972  25.566  1.00  0.00     0.007 C 
ENDBRANCH   7  18
ENDBRANCH   1   7
BRANCH   6  24
HETATM   24  C11 UNL     1      17.502 -11.543  19.701  1.00  0.00     0.240 C 
HETATM   25  O3  UNL     1      17.376 -11.721  18.450  1.00  0.00    -0.271 OA
HETATM   26  N4  UNL     1      16.246 -11.374  20.384  1.00  0.00    -0.355 N 
ATOM     27  H4  UNL     1      16.254 -11.213  21.392  1.00  0.00     0.162 HD
BRANCH  26  28
HETATM   28  C12 UNL     1      14.978 -11.423  19.701  1.00  0.00     0.161 C 
BRANCH  28  29
HETATM   29  C13 UNL     1      14.380 -12.771  19.894  1.00  0.00    -0.040 A 
HETATM   30  C14 UNL     1      14.976 -13.936  19.472  1.00  0.00     0.010 A 
HETATM   31  C15 UNL     1      14.363 -15.170  19.710  1.00  0.00     0.015 A 
HETATM   32  C16 UNL     1      13.162 -15.288  20.361  1.00  0.00     0.004 A 
HETATM   33  C18 UNL     1      12.582 -14.083  20.778  1.00  0.00     0.015 A 
HETATM   34  C19 UNL     1      13.171 -12.862  20.552  1.00  0.00     0.010 A 
BRANCH  32  35
HETATM   35  C17 UNL     1      12.486 -16.544  20.628  1.00  0.00     0.120 C 
HETATM   36  N5  UNL     1      13.124 -17.525  21.430  1.00  0.00    -0.082 NA
HETATM   37  N6  UNL     1      11.328 -16.805  20.156  1.00  0.00    -0.387 N 
ATOM     38  H62 UNL     1      10.870 -16.100  19.579  1.00  0.00     0.157 HD
ATOM     39  H61 UNL     1      10.853 -17.689  20.343  1.00  0.00     0.157 HD
ENDBRANCH  32  35
ENDBRANCH  28  29
ENDBRANCH  26  28
ENDBRANCH   6  24
TORSDOF 11
ENDMDL
