MODEL 1
REMARK VINA RESULT: -9.218637617      0.000      0.000
REMARK  11 active torsions:
REMARK  status: ('A' for Active; 'I' for Inactive)
REMARK    1  A    between atoms: C2_2  and  C3_3 
REMARK    2  A    between atoms: C3_3  and  N1_4 
REMARK       I    between atoms: N1_4  and  C4_6 
REMARK    3  A    between atoms: C4_6  and  C5_8 
REMARK    4  A    between atoms: C5_8  and  N2_9 
REMARK    5  A    between atoms: N2_9  and  C6_11 
REMARK    6  A    between atoms: C6_11  and  C7_12 
REMARK    7  A    between atoms: C6_11  and  C20_34 
REMARK       I    between atoms: C7_12  and  N3_14 
REMARK    8  A    between atoms: C10_17  and  C11_18 
REMARK       I    between atoms: C11_18  and  N4_20 
REMARK    9  A    between atoms: N4_20  and  C12_22 
REMARK   10  A    between atoms: C12_22  and  C13_23 
REMARK   11  A    between atoms: C16_26  and  C17_27 
ROOT
HETATM    1  C7  UNL     1      18.708 -13.085  22.196  1.00  0.00     0.243 C 
HETATM    2  O2  UNL     1      17.475 -13.111  22.544  1.00  0.00    -0.271 OA
HETATM    3  N3  UNL     1      19.005 -12.381  21.004  1.00  0.00    -0.337 N 
HETATM    4  C8  UNL     1      20.201 -12.094  20.179  1.00  0.00     0.129 C 
HETATM    5  C9  UNL     1      19.261 -12.110  18.976  1.00  0.00     0.055 C 
HETATM    6  C10 UNL     1      18.286 -11.583  20.013  1.00  0.00     0.180 C 
ENDROOT
BRANCH   1   7
HETATM    7  C6  UNL     1      19.737 -13.779  23.039  1.00  0.00     0.177 C 
BRANCH   7   8
HETATM    8  N2  UNL     1      19.920 -15.138  22.758  1.00  0.00    -0.381 N 
ATOM      9  H2  UNL     1      20.412 -15.713  23.442  1.00  0.00     0.160 HD
BRANCH   8  10
HETATM   10  C5  UNL     1      19.461 -15.747  21.582  1.00  0.00     0.158 C 
BRANCH  10  11
HETATM   11  C4  UNL     1      18.080 -16.329  21.792  1.00  0.00     0.256 C 
HETATM   12  N1  UNL     1      16.940 -15.834  21.107  1.00  0.00    -0.356 N 
ATOM     13  H1  UNL     1      17.007 -15.066  20.439  1.00  0.00     0.162 HD
HETATM   14  O1  UNL     1      17.994 -17.272  22.608  1.00  0.00    -0.267 OA
BRANCH  12  15
HETATM   15  C3  UNL     1      15.679 -16.475  21.403  1.00  0.00     0.122 C 
BRANCH  15  16
HETATM   16  C2  UNL     1      14.525 -15.528  21.494  1.00  0.00     0.015 C 
HETATM   17  C1  UNL     1      13.884 -15.448  20.114  1.00  0.00     0.006 C 
ENDBRANCH  15  16
ENDBRANCH  12  15
ENDBRANCH  10  11
ENDBRANCH   8  10
ENDBRANCH   7   8
BRANCH   7  18
HETATM   18  C20 UNL     1      19.515 -13.416  24.518  1.00  0.00     0.017 C 
HETATM   19  C21 UNL     1      20.801 -12.730  24.933  1.00  0.00     0.007 C 
HETATM   20  C22 UNL     1      20.950 -12.698  26.440  1.00  0.00     0.000 C 
HETATM   21  C23 UNL     1      21.176 -14.163  26.820  1.00  0.00     0.000 C 
HETATM   22  C24 UNL     1      19.898 -14.876  26.570  1.00  0.00     0.000 C 
HETATM   23  C25 UNL     1      19.233 -14.663  25.262  1.00  0.00     0.007 C 
ENDBRANCH   7  18
ENDBRANCH   1   7
BRANCH   6  24
HETATM   24  C11 UNL     1      16.913 -11.970  19.713  1.00  0.00     0.240 C 
HETATM   25  O3  UNL     1      16.475 -13.157  19.601  1.00  0.00    -0.271 OA
HETATM   26  N4  UNL     1      15.903 -10.964  19.514  1.00  0.00    -0.355 N 
ATOM     27  H4  UNL     1      16.171  -9.982  19.573  1.00  0.00     0.162 HD
BRANCH  26  28
HETATM   28  C12 UNL     1      14.527 -11.291  19.234  1.00  0.00     0.161 C 
BRANCH  28  29
HETATM   29  C13 UNL     1      13.711 -11.012  20.446  1.00  0.00    -0.040 A 
HETATM   30  C14 UNL     1      12.885 -11.939  21.038  1.00  0.00     0.010 A 
HETATM   31  C15 UNL     1      12.165 -11.610  22.190  1.00  0.00     0.015 A 
HETATM   32  C16 UNL     1      12.239 -10.375  22.783  1.00  0.00     0.004 A 
HETATM   33  C18 UNL     1      13.089  -9.456  22.156  1.00  0.00     0.015 A 
HETATM   34  C19 UNL     1      13.803  -9.763  21.022  1.00  0.00     0.010 A 
BRANCH  32  35
HETATM   35  C17 UNL     1      11.509  -9.987  23.975  1.00  0.00     0.120 C 
HETATM   36  N5  UNL     1      11.519  -8.630  24.390  1.00  0.00    -0.082 NA
HETATM   37  N6  UNL     1      10.856 -10.831  24.677  1.00  0.00    -0.387 N 
ATOM     38  H62 UNL     1      10.849 -11.807  24.378  1.00  0.00     0.157 HD
ATOM     39  H61 UNL     1      10.343 -10.558  25.516  1.00  0.00     0.157 HD
ENDBRANCH  32  35
ENDBRANCH  28  29
ENDBRANCH  26  28
ENDBRANCH   6  24
TORSDOF 11
ENDMDL
