MODEL 12
REMARK VINA RESULT: -7.898126739      1.962      3.929
REMARK  11 active torsions:
REMARK  status: ('A' for Active; 'I' for Inactive)
REMARK    1  A    between atoms: C2_2  and  C3_3 
REMARK    2  A    between atoms: C3_3  and  N1_4 
REMARK       I    between atoms: N1_4  and  C4_6 
REMARK    3  A    between atoms: C4_6  and  C5_8 
REMARK    4  A    between atoms: C5_8  and  N2_9 
REMARK    5  A    between atoms: N2_9  and  C6_11 
REMARK    6  A    between atoms: C6_11  and  C7_12 
REMARK    7  A    between atoms: C6_11  and  C20_34 
REMARK       I    between atoms: C7_12  and  N3_14 
REMARK    8  A    between atoms: C10_17  and  C11_18 
REMARK       I    between atoms: C11_18  and  N4_20 
REMARK    9  A    between atoms: N4_20  and  C12_22 
REMARK   10  A    between atoms: C12_22  and  C13_23 
REMARK   11  A    between atoms: C16_26  and  C17_27 
ROOT
HETATM    1  C7  UNL     1      18.836 -14.101  21.766  1.00  0.00     0.243 C 
HETATM    2  O2  UNL     1      19.058 -13.008  21.134  1.00  0.00    -0.271 OA
HETATM    3  N3  UNL     1      17.663 -14.805  21.402  1.00  0.00    -0.337 N 
HETATM    4  C8  UNL     1      16.956 -16.036  21.826  1.00  0.00     0.129 C 
HETATM    5  C9  UNL     1      15.665 -15.312  21.451  1.00  0.00     0.055 C 
HETATM    6  C10 UNL     1      16.583 -14.673  20.425  1.00  0.00     0.180 C 
ENDROOT
BRANCH   1   7
HETATM    7  C6  UNL     1      19.798 -14.562  22.822  1.00  0.00     0.177 C 
BRANCH   7   8
HETATM    8  N2  UNL     1      19.936 -15.951  22.935  1.00  0.00    -0.381 N 
ATOM      9  H2  UNL     1      19.304 -16.452  23.560  1.00  0.00     0.160 HD
BRANCH   8  10
HETATM   10  C5  UNL     1      20.901 -16.686  22.233  1.00  0.00     0.158 C 
BRANCH  10  11
HETATM   11  C4  UNL     1      22.164 -16.821  23.054  1.00  0.00     0.256 C 
HETATM   12  N1  UNL     1      22.151 -16.776  24.473  1.00  0.00    -0.356 N 
ATOM     13  H1  UNL     1      21.285 -16.653  24.997  1.00  0.00     0.162 HD
HETATM   14  O1  UNL     1      23.228 -16.974  22.415  1.00  0.00    -0.267 OA
BRANCH  12  15
HETATM   15  C3  UNL     1      23.428 -16.912  25.136  1.00  0.00     0.122 C 
BRANCH  15  16
HETATM   16  C2  UNL     1      23.325 -17.058  26.621  1.00  0.00     0.015 C 
HETATM   17  C1  UNL     1      22.863 -18.480  26.914  1.00  0.00     0.006 C 
ENDBRANCH  15  16
ENDBRANCH  12  15
ENDBRANCH  10  11
ENDBRANCH   8  10
ENDBRANCH   7   8
BRANCH   7  18
HETATM   18  C20 UNL     1      19.526 -13.798  24.129  1.00  0.00     0.017 C 
HETATM   19  C21 UNL     1      20.802 -13.022  24.383  1.00  0.00     0.007 C 
HETATM   20  C22 UNL     1      20.897 -12.567  25.824  1.00  0.00     0.000 C 
HETATM   21  C23 UNL     1      21.095 -13.866  26.609  1.00  0.00     0.000 C 
HETATM   22  C24 UNL     1      19.820 -14.621  26.522  1.00  0.00     0.000 C 
HETATM   23  C25 UNL     1      19.205 -14.785  25.183  1.00  0.00     0.007 C 
ENDBRANCH   7  18
ENDBRANCH   1   7
BRANCH   6  24
HETATM   24  C11 UNL     1      16.156 -13.323  20.081  1.00  0.00     0.240 C 
HETATM   25  O3  UNL     1      16.883 -12.282  20.081  1.00  0.00    -0.271 OA
HETATM   26  N4  UNL     1      14.793 -13.071  19.690  1.00  0.00    -0.355 N 
ATOM     27  H4  UNL     1      14.136 -13.851  19.674  1.00  0.00     0.162 HD
BRANCH  26  28
HETATM   28  C12 UNL     1      14.322 -11.760  19.321  1.00  0.00     0.161 C 
BRANCH  28  29
HETATM   29  C13 UNL     1      13.673 -11.133  20.504  1.00  0.00    -0.040 A 
HETATM   30  C14 UNL     1      13.895  -9.833  20.893  1.00  0.00     0.010 A 
HETATM   31  C15 UNL     1      13.229  -9.304  22.004  1.00  0.00     0.015 A 
HETATM   32  C16 UNL     1      12.338 -10.034  22.750  1.00  0.00     0.004 A 
HETATM   33  C18 UNL     1      12.135 -11.353  22.326  1.00  0.00     0.015 A 
HETATM   34  C19 UNL     1      12.781 -11.887  21.237  1.00  0.00     0.010 A 
BRANCH  32  35
HETATM   35  C17 UNL     1      11.628  -9.531  23.910  1.00  0.00     0.120 C 
HETATM   36  N5  UNL     1      11.815  -8.185  24.317  1.00  0.00    -0.082 NA
HETATM   37  N6  UNL     1      10.834 -10.265  24.592  1.00  0.00    -0.387 N 
ATOM     38  H62 UNL     1      10.700 -11.234  24.299  1.00  0.00     0.157 HD
ATOM     39  H61 UNL     1      10.335  -9.912  25.408  1.00  0.00     0.157 HD
ENDBRANCH  32  35
ENDBRANCH  28  29
ENDBRANCH  26  28
ENDBRANCH   6  24
TORSDOF 11
ENDMDL
