MODEL 4
REMARK VINA RESULT: -8.936789453      1.143      1.557
REMARK  11 active torsions:
REMARK  status: ('A' for Active; 'I' for Inactive)
REMARK    1  A    between atoms: C2_2  and  C3_3 
REMARK    2  A    between atoms: C3_3  and  N1_4 
REMARK       I    between atoms: N1_4  and  C4_6 
REMARK    3  A    between atoms: C4_6  and  C5_8 
REMARK    4  A    between atoms: C5_8  and  N2_9 
REMARK    5  A    between atoms: N2_9  and  C6_11 
REMARK    6  A    between atoms: C6_11  and  C7_12 
REMARK    7  A    between atoms: C6_11  and  C20_34 
REMARK       I    between atoms: C7_12  and  N3_14 
REMARK    8  A    between atoms: C10_17  and  C11_18 
REMARK       I    between atoms: C11_18  and  N4_20 
REMARK    9  A    between atoms: N4_20  and  C12_22 
REMARK   10  A    between atoms: C12_22  and  C13_23 
REMARK   11  A    between atoms: C16_26  and  C17_27 
ROOT
HETATM    1  C7  UNL     1      18.174 -13.359  22.402  1.00  0.00     0.243 C 
HETATM    2  O2  UNL     1      16.972 -12.913  22.426  1.00  0.00    -0.271 OA
HETATM    3  N3  UNL     1      19.043 -12.759  21.458  1.00  0.00    -0.337 N 
HETATM    4  C8  UNL     1      20.446 -12.921  21.014  1.00  0.00     0.129 C 
HETATM    5  C9  UNL     1      19.962 -12.489  19.632  1.00  0.00     0.055 C 
HETATM    6  C10 UNL     1      18.988 -11.681  20.471  1.00  0.00     0.180 C 
ENDROOT
BRANCH   1   7
HETATM    7  C6  UNL     1      18.584 -14.454  23.341  1.00  0.00     0.177 C 
BRANCH   7   8
HETATM    8  N2  UNL     1      17.789 -15.606  23.295  1.00  0.00    -0.381 N 
ATOM      9  H2  UNL     1      17.532 -16.054  24.175  1.00  0.00     0.160 HD
BRANCH   8  10
HETATM   10  C5  UNL     1      17.330 -16.175  22.099  1.00  0.00     0.158 C 
BRANCH  10  11
HETATM   11  C4  UNL     1      15.819 -16.254  22.098  1.00  0.00     0.256 C 
HETATM   12  N1  UNL     1      15.004 -15.135  21.785  1.00  0.00    -0.356 N 
ATOM     13  H1  UNL     1      15.407 -14.229  21.544  1.00  0.00     0.162 HD
HETATM   14  O1  UNL     1      15.322 -17.363  22.390  1.00  0.00    -0.267 OA
BRANCH  12  15
HETATM   15  C3  UNL     1      13.575 -15.344  21.825  1.00  0.00     0.122 C 
BRANCH  15  16
HETATM   16  C2  UNL     1      12.907 -15.214  20.494  1.00  0.00     0.015 C 
HETATM   17  C1  UNL     1      12.009 -16.432  20.308  1.00  0.00     0.006 C 
ENDBRANCH  15  16
ENDBRANCH  12  15
ENDBRANCH  10  11
ENDBRANCH   8  10
ENDBRANCH   7   8
BRANCH   7  18
HETATM   18  C20 UNL     1      18.838 -13.861  24.738  1.00  0.00     0.017 C 
HETATM   19  C21 UNL     1      20.203 -13.212  24.627  1.00  0.00     0.007 C 
HETATM   20  C22 UNL     1      20.813 -12.967  25.991  1.00  0.00     0.000 C 
HETATM   21  C23 UNL     1      21.116 -14.372  26.518  1.00  0.00     0.000 C 
HETATM   22  C24 UNL     1      19.810 -15.023  26.787  1.00  0.00     0.000 C 
HETATM   23  C25 UNL     1      18.776 -14.961  25.725  1.00  0.00     0.007 C 
ENDBRANCH   7  18
ENDBRANCH   1   7
BRANCH   6  24
HETATM   24  C11 UNL     1      17.722 -11.472  19.781  1.00  0.00     0.240 C 
HETATM   25  O3  UNL     1      17.472 -11.750  18.567  1.00  0.00    -0.271 OA
HETATM   26  N4  UNL     1      16.600 -10.902  20.481  1.00  0.00    -0.355 N 
ATOM     27  H4  UNL     1      16.716 -10.638  21.460  1.00  0.00     0.162 HD
BRANCH  26  28
HETATM   28  C12 UNL     1      15.320 -10.692  19.854  1.00  0.00     0.161 C 
BRANCH  28  29
HETATM   29  C13 UNL     1      14.283 -10.551  20.912  1.00  0.00    -0.040 A 
HETATM   30  C14 UNL     1      13.827  -9.338  21.374  1.00  0.00     0.010 A 
HETATM   31  C15 UNL     1      12.833  -9.285  22.356  1.00  0.00     0.015 A 
HETATM   32  C16 UNL     1      12.269 -10.411  22.901  1.00  0.00     0.004 A 
HETATM   33  C18 UNL     1      12.756 -11.628  22.408  1.00  0.00     0.015 A 
HETATM   34  C19 UNL     1      13.732 -11.697  21.444  1.00  0.00     0.010 A 
BRANCH  32  35
HETATM   35  C17 UNL     1      11.239 -10.406  23.923  1.00  0.00     0.120 C 
HETATM   36  N5  UNL     1      10.936  -9.199  24.605  1.00  0.00    -0.082 NA
HETATM   37  N6  UNL     1      10.591 -11.461  24.239  1.00  0.00    -0.387 N 
ATOM     38  H62 UNL     1      10.809 -12.328  23.748  1.00  0.00     0.157 HD
ATOM     39  H61 UNL     1       9.867 -11.458  24.958  1.00  0.00     0.157 HD
ENDBRANCH  32  35
ENDBRANCH  28  29
ENDBRANCH  26  28
ENDBRANCH   6  24
TORSDOF 11
ENDMDL
