MODEL 10
REMARK VINA RESULT: -7.950142190      1.550      1.867
REMARK  11 active torsions:
REMARK  status: ('A' for Active; 'I' for Inactive)
REMARK    1  A    between atoms: C2_2  and  C3_3 
REMARK    2  A    between atoms: C3_3  and  N1_4 
REMARK       I    between atoms: N1_4  and  C4_6 
REMARK    3  A    between atoms: C4_6  and  C5_8 
REMARK    4  A    between atoms: C5_8  and  N2_9 
REMARK    5  A    between atoms: N2_9  and  C6_11 
REMARK    6  A    between atoms: C6_11  and  C7_12 
REMARK    7  A    between atoms: C6_11  and  C20_34 
REMARK       I    between atoms: C7_12  and  N3_14 
REMARK    8  A    between atoms: C10_17  and  C11_18 
REMARK       I    between atoms: C11_18  and  N4_20 
REMARK    9  A    between atoms: N4_20  and  C12_22 
REMARK   10  A    between atoms: C12_22  and  C13_23 
REMARK   11  A    between atoms: C16_26  and  C17_27 
ROOT
HETATM    1  C7  UNL     1      18.229 -13.339  22.402  1.00  0.00     0.243 C 
HETATM    2  O2  UNL     1      16.994 -13.063  22.603  1.00  0.00    -0.271 OA
HETATM    3  N3  UNL     1      18.859 -12.644  21.340  1.00  0.00    -0.337 N 
HETATM    4  C8  UNL     1      20.191 -12.621  20.694  1.00  0.00     0.129 C 
HETATM    5  C9  UNL     1      19.455 -12.286  19.399  1.00  0.00     0.055 C 
HETATM    6  C10 UNL     1      18.512 -11.604  20.374  1.00  0.00     0.180 C 
ENDROOT
BRANCH   1   7
HETATM    7  C6  UNL     1      18.920 -14.350  23.269  1.00  0.00     0.177 C 
BRANCH   7   8
HETATM    8  N2  UNL     1      18.454 -15.664  23.139  1.00  0.00    -0.381 N 
ATOM      9  H2  UNL     1      19.099 -16.429  23.336  1.00  0.00     0.160 HD
BRANCH   8  10
HETATM   10  C5  UNL     1      17.145 -15.980  22.751  1.00  0.00     0.158 C 
BRANCH  10  11
HETATM   11  C4  UNL     1      17.139 -16.606  21.373  1.00  0.00     0.256 C 
HETATM   12  N1  UNL     1      17.518 -17.956  21.156  1.00  0.00    -0.356 N 
ATOM     13  H1  UNL     1      17.809 -18.562  21.924  1.00  0.00     0.162 HD
HETATM   14  O1  UNL     1      16.782 -15.868  20.430  1.00  0.00    -0.267 OA
BRANCH  12  15
HETATM   15  C3  UNL     1      17.473 -18.430  19.791  1.00  0.00     0.122 C 
BRANCH  15  16
HETATM   16  C2  UNL     1      16.174 -19.068  19.416  1.00  0.00     0.015 C 
HETATM   17  C1  UNL     1      15.680 -18.393  18.142  1.00  0.00     0.006 C 
ENDBRANCH  15  16
ENDBRANCH  12  15
ENDBRANCH  10  11
ENDBRANCH   8  10
ENDBRANCH   7   8
BRANCH   7  18
HETATM   18  C20 UNL     1      19.023 -13.806  24.704  1.00  0.00     0.017 C 
HETATM   19  C21 UNL     1      20.326 -13.032  24.720  1.00  0.00     0.007 C 
HETATM   20  C22 UNL     1      20.817 -12.801  26.133  1.00  0.00     0.000 C 
HETATM   21  C23 UNL     1      21.213 -14.197  26.621  1.00  0.00     0.000 C 
HETATM   22  C24 UNL     1      19.958 -14.975  26.766  1.00  0.00     0.000 C 
HETATM   23  C25 UNL     1      18.996 -14.954  25.637  1.00  0.00     0.007 C 
ENDBRANCH   7  18
ENDBRANCH   1   7
BRANCH   6  24
HETATM   24  C11 UNL     1      17.142 -11.584  19.878  1.00  0.00     0.240 C 
HETATM   25  O3  UNL     1      16.531 -10.580  19.397  1.00  0.00    -0.271 OA
HETATM   26  N4  UNL     1      16.344 -12.782  19.904  1.00  0.00    -0.355 N 
ATOM     27  H4  UNL     1      16.752 -13.635  20.287  1.00  0.00     0.162 HD
BRANCH  26  28
HETATM   28  C12 UNL     1      14.991 -12.824  19.410  1.00  0.00     0.161 C 
BRANCH  28  29
HETATM   29  C13 UNL     1      14.079 -12.295  20.459  1.00  0.00    -0.040 A 
HETATM   30  C14 UNL     1      13.570 -11.017  20.452  1.00  0.00     0.010 A 
HETATM   31  C15 UNL     1      12.699 -10.598  21.462  1.00  0.00     0.015 A 
HETATM   32  C16 UNL     1      12.311 -11.416  22.493  1.00  0.00     0.004 A 
HETATM   33  C18 UNL     1      12.847 -12.709  22.470  1.00  0.00     0.015 A 
HETATM   34  C19 UNL     1      13.704 -13.137  21.485  1.00  0.00     0.010 A 
BRANCH  32  35
HETATM   35  C17 UNL     1      11.414 -11.025  23.564  1.00  0.00     0.120 C 
HETATM   36  N5  UNL     1      11.488  -9.712  24.095  1.00  0.00    -0.082 NA
HETATM   37  N6  UNL     1      10.553 -11.831  24.057  1.00  0.00    -0.387 N 
ATOM     38  H62 UNL     1      10.500 -12.775  23.675  1.00  0.00     0.157 HD
ATOM     39  H61 UNL     1       9.922 -11.556  24.810  1.00  0.00     0.157 HD
ENDBRANCH  32  35
ENDBRANCH  28  29
ENDBRANCH  26  28
ENDBRANCH   6  24
TORSDOF 11
ENDMDL
