MODEL 7
REMARK VINA RESULT: -8.581554651      1.332      1.608
REMARK  11 active torsions:
REMARK  status: ('A' for Active; 'I' for Inactive)
REMARK    1  A    between atoms: C2_2  and  C3_3 
REMARK    2  A    between atoms: C3_3  and  N1_4 
REMARK       I    between atoms: N1_4  and  C4_6 
REMARK    3  A    between atoms: C4_6  and  C5_8 
REMARK    4  A    between atoms: C5_8  and  N2_9 
REMARK    5  A    between atoms: N2_9  and  C6_11 
REMARK    6  A    between atoms: C6_11  and  C7_12 
REMARK    7  A    between atoms: C6_11  and  C20_34 
REMARK       I    between atoms: C7_12  and  N3_14 
REMARK    8  A    between atoms: C10_17  and  C11_18 
REMARK       I    between atoms: C11_18  and  N4_20 
REMARK    9  A    between atoms: N4_20  and  C12_22 
REMARK   10  A    between atoms: C12_22  and  C13_23 
REMARK   11  A    between atoms: C16_26  and  C17_27 
ROOT
HETATM    1  C7  UNL     1      18.121 -13.343  22.429  1.00  0.00     0.243 C 
HETATM    2  O2  UNL     1      16.896 -13.021  22.626  1.00  0.00    -0.271 OA
HETATM    3  N3  UNL     1      18.781 -12.670  21.372  1.00  0.00    -0.337 N 
HETATM    4  C8  UNL     1      20.117 -12.695  20.732  1.00  0.00     0.129 C 
HETATM    5  C9  UNL     1      19.399 -12.330  19.435  1.00  0.00     0.055 C 
HETATM    6  C10 UNL     1      18.478 -11.615  20.406  1.00  0.00     0.180 C 
ENDROOT
BRANCH   1   7
HETATM    7  C6  UNL     1      18.769 -14.381  23.298  1.00  0.00     0.177 C 
BRANCH   7   8
HETATM    8  N2  UNL     1      18.202 -15.658  23.224  1.00  0.00    -0.381 N 
ATOM      9  H2  UNL     1      17.879 -16.096  24.086  1.00  0.00     0.160 HD
BRANCH   8  10
HETATM   10  C5  UNL     1      18.056 -16.365  22.022  1.00  0.00     0.158 C 
BRANCH  10  11
HETATM   11  C4  UNL     1      16.621 -16.307  21.546  1.00  0.00     0.256 C 
HETATM   12  N1  UNL     1      15.549 -16.837  22.311  1.00  0.00    -0.356 N 
ATOM     13  H1  UNL     1      15.704 -17.276  23.219  1.00  0.00     0.162 HD
HETATM   14  O1  UNL     1      16.426 -15.767  20.435  1.00  0.00    -0.267 OA
BRANCH  12  15
HETATM   15  C3  UNL     1      14.227 -16.721  21.739  1.00  0.00     0.122 C 
BRANCH  15  16
HETATM   16  C2  UNL     1      13.665 -18.017  21.248  1.00  0.00     0.015 C 
HETATM   17  C1  UNL     1      12.520 -17.691  20.296  1.00  0.00     0.006 C 
ENDBRANCH  15  16
ENDBRANCH  12  15
ENDBRANCH  10  11
ENDBRANCH   8  10
ENDBRANCH   7   8
BRANCH   7  18
HETATM   18  C20 UNL     1      18.973 -13.809  24.711  1.00  0.00     0.017 C 
HETATM   19  C21 UNL     1      20.282 -13.051  24.625  1.00  0.00     0.007 C 
HETATM   20  C22 UNL     1      20.868 -12.798  25.999  1.00  0.00     0.000 C 
HETATM   21  C23 UNL     1      21.279 -14.189  26.488  1.00  0.00     0.000 C 
HETATM   22  C24 UNL     1      20.027 -14.948  26.732  1.00  0.00     0.000 C 
HETATM   23  C25 UNL     1      18.994 -14.937  25.668  1.00  0.00     0.007 C 
ENDBRANCH   7  18
ENDBRANCH   1   7
BRANCH   6  24
HETATM   24  C11 UNL     1      17.111 -11.543  19.905  1.00  0.00     0.240 C 
HETATM   25  O3  UNL     1      16.535 -10.512  19.440  1.00  0.00    -0.271 OA
HETATM   26  N4  UNL     1      16.276 -12.716  19.903  1.00  0.00    -0.355 N 
ATOM     27  H4  UNL     1      16.656 -13.588  20.272  1.00  0.00     0.162 HD
BRANCH  26  28
HETATM   28  C12 UNL     1      14.926 -12.706  19.402  1.00  0.00     0.161 C 
BRANCH  28  29
HETATM   29  C13 UNL     1      14.020 -12.203  20.470  1.00  0.00    -0.040 A 
HETATM   30  C14 UNL     1      13.517 -10.924  20.501  1.00  0.00     0.010 A 
HETATM   31  C15 UNL     1      12.651 -10.530  21.526  1.00  0.00     0.015 A 
HETATM   32  C16 UNL     1      12.263 -11.375  22.534  1.00  0.00     0.004 A 
HETATM   33  C18 UNL     1      12.792 -12.670  22.472  1.00  0.00     0.015 A 
HETATM   34  C19 UNL     1      13.644 -13.073  21.471  1.00  0.00     0.010 A 
BRANCH  32  35
HETATM   35  C17 UNL     1      11.371 -11.011  23.619  1.00  0.00     0.120 C 
HETATM   36  N5  UNL     1      11.438  -9.706  24.172  1.00  0.00    -0.082 NA
HETATM   37  N6  UNL     1      10.522 -11.833  24.105  1.00  0.00    -0.387 N 
ATOM     38  H62 UNL     1      10.474 -12.772  23.707  1.00  0.00     0.157 HD
ATOM     39  H61 UNL     1       9.895 -11.578  24.868  1.00  0.00     0.157 HD
ENDBRANCH  32  35
ENDBRANCH  28  29
ENDBRANCH  26  28
ENDBRANCH   6  24
TORSDOF 11
ENDMDL
