MODEL 8
REMARK VINA RESULT: -8.069352860      2.153      3.987
REMARK  11 active torsions:
REMARK  status: ('A' for Active; 'I' for Inactive)
REMARK    1  A    between atoms: C2_2  and  C3_3 
REMARK    2  A    between atoms: C3_3  and  N1_4 
REMARK       I    between atoms: N1_4  and  C4_6 
REMARK    3  A    between atoms: C4_6  and  C5_8 
REMARK    4  A    between atoms: C5_8  and  N2_9 
REMARK    5  A    between atoms: N2_9  and  C6_11 
REMARK    6  A    between atoms: C6_11  and  C7_12 
REMARK    7  A    between atoms: C6_11  and  C20_34 
REMARK       I    between atoms: C7_12  and  N3_14 
REMARK    8  A    between atoms: C10_17  and  C11_18 
REMARK       I    between atoms: C11_18  and  N4_20 
REMARK    9  A    between atoms: N4_20  and  C12_22 
REMARK   10  A    between atoms: C12_22  and  C13_23 
REMARK   11  A    between atoms: C16_26  and  C17_27 
ROOT
HETATM    1  C7  UNL     1      18.693 -13.975  21.837  1.00  0.00     0.243 C 
HETATM    2  O2  UNL     1      18.915 -12.829  21.309  1.00  0.00    -0.271 OA
HETATM    3  N3  UNL     1      17.539 -14.659  21.383  1.00  0.00    -0.337 N 
HETATM    4  C8  UNL     1      16.840 -15.930  21.680  1.00  0.00     0.129 C 
HETATM    5  C9  UNL     1      15.548 -15.193  21.336  1.00  0.00     0.055 C 
HETATM    6  C10 UNL     1      16.482 -14.456  20.394  1.00  0.00     0.180 C 
ENDROOT
BRANCH   1   7
HETATM    7  C6  UNL     1      19.635 -14.515  22.873  1.00  0.00     0.177 C 
BRANCH   7   8
HETATM    8  N2  UNL     1      19.657 -15.910  22.989  1.00  0.00    -0.381 N 
ATOM      9  H2  UNL     1      18.850 -16.375  23.406  1.00  0.00     0.160 HD
BRANCH   8  10
HETATM   10  C5  UNL     1      20.733 -16.699  22.559  1.00  0.00     0.158 C 
BRANCH  10  11
HETATM   11  C4  UNL     1      21.878 -16.613  23.544  1.00  0.00     0.256 C 
HETATM   12  N1  UNL     1      23.066 -15.890  23.259  1.00  0.00    -0.356 N 
ATOM     13  H1  UNL     1      23.194 -15.395  22.376  1.00  0.00     0.162 HD
HETATM   14  O1  UNL     1      21.725 -17.216  24.628  1.00  0.00    -0.267 OA
BRANCH  12  15
HETATM   15  C3  UNL     1      24.085 -15.891  24.284  1.00  0.00     0.122 C 
BRANCH  15  16
HETATM   16  C2  UNL     1      25.261 -16.759  23.967  1.00  0.00     0.015 C 
HETATM   17  C1  UNL     1      25.484 -16.700  22.460  1.00  0.00     0.006 C 
ENDBRANCH  15  16
ENDBRANCH  12  15
ENDBRANCH  10  11
ENDBRANCH   8  10
ENDBRANCH   7   8
BRANCH   7  18
HETATM   18  C20 UNL     1      19.458 -13.728  24.183  1.00  0.00     0.017 C 
HETATM   19  C21 UNL     1      20.777 -13.005  24.368  1.00  0.00     0.007 C 
HETATM   20  C22 UNL     1      20.960 -12.542  25.798  1.00  0.00     0.000 C 
HETATM   21  C23 UNL     1      21.139 -13.841  26.588  1.00  0.00     0.000 C 
HETATM   22  C24 UNL     1      19.830 -14.541  26.569  1.00  0.00     0.000 C 
HETATM   23  C25 UNL     1      19.145 -14.691  25.262  1.00  0.00     0.007 C 
ENDBRANCH   7  18
ENDBRANCH   1   7
BRANCH   6  24
HETATM   24  C11 UNL     1      16.044 -13.086  20.157  1.00  0.00     0.240 C 
HETATM   25  O3  UNL     1      16.689 -12.030  20.443  1.00  0.00    -0.271 OA
HETATM   26  N4  UNL     1      14.768 -12.828  19.541  1.00  0.00    -0.355 N 
ATOM     27  H4  UNL     1      14.177 -13.621  19.289  1.00  0.00     0.162 HD
BRANCH  26  28
HETATM   28  C12 UNL     1      14.294 -11.496  19.267  1.00  0.00     0.161 C 
BRANCH  28  29
HETATM   29  C13 UNL     1      13.636 -10.959  20.488  1.00  0.00    -0.040 A 
HETATM   30  C14 UNL     1      13.846  -9.688  20.970  1.00  0.00     0.010 A 
HETATM   31  C15 UNL     1      13.172  -9.245  22.112  1.00  0.00     0.015 A 
HETATM   32  C16 UNL     1      12.285 -10.032  22.801  1.00  0.00     0.004 A 
HETATM   33  C18 UNL     1      12.094 -11.319  22.284  1.00  0.00     0.015 A 
HETATM   34  C19 UNL     1      12.748 -11.770  21.162  1.00  0.00     0.010 A 
BRANCH  32  35
HETATM   35  C17 UNL     1      11.566  -9.619  23.992  1.00  0.00     0.120 C 
HETATM   36  N5  UNL     1      11.653  -8.272  24.429  1.00  0.00    -0.082 NA
HETATM   37  N6  UNL     1      10.854 -10.433  24.672  1.00  0.00    -0.387 N 
ATOM     38  H62 UNL     1      10.791 -11.401  24.357  1.00  0.00     0.157 HD
ATOM     39  H61 UNL     1      10.348 -10.142  25.510  1.00  0.00     0.157 HD
ENDBRANCH  32  35
ENDBRANCH  28  29
ENDBRANCH  26  28
ENDBRANCH   6  24
TORSDOF 11
ENDMDL
