MODEL 10
REMARK VINA RESULT: -8.146669601      2.380      7.512
REMARK  11 active torsions:
REMARK  status: ('A' for Active; 'I' for Inactive)
REMARK    1  A    between atoms: N1_2  and  C3_4 
REMARK    2  A    between atoms: C3_4  and  O1_5 
REMARK    3  A    between atoms: C3_4  and  C4_7 
REMARK    4  A    between atoms: C4_7  and  N2_8 
REMARK    5  A    between atoms: N2_8  and  C5_10 
REMARK    6  A    between atoms: C5_10  and  C6_11 
REMARK    7  A    between atoms: C5_10  and  C19_33 
REMARK       I    between atoms: C6_11  and  N3_13 
REMARK    8  A    between atoms: C9_16  and  C10_17 
REMARK       I    between atoms: C10_17  and  N4_19 
REMARK    9  A    between atoms: N4_19  and  C11_21 
REMARK   10  A    between atoms: C11_21  and  C12_22 
REMARK   11  A    between atoms: C15_25  and  C16_26 
ROOT
HETATM    1  C6  UNL     1      14.942 -14.355  19.692  1.00  0.00     0.267 C 
HETATM    2  O2  UNL     1      14.845 -14.271  18.403  1.00  0.00    -0.266 OA
HETATM    3  N3  UNL     1      14.394 -15.504  20.272  1.00  0.00    -0.333 N 
HETATM    4  C7  UNL     1      13.681 -16.671  19.701  1.00  0.00     0.129 C 
HETATM    5  C8  UNL     1      13.274 -17.170  21.038  1.00  0.00     0.055 C 
HETATM    6  C9  UNL     1      14.278 -16.121  21.540  1.00  0.00     0.181 C 
ENDROOT
BRANCH   1   7
HETATM    7  C5  UNL     1      15.612 -13.242  20.373  1.00  0.00     0.078 C 
BRANCH   7   8
HETATM    8  N2  UNL     1      14.875 -12.014  20.414  1.00  0.00    -0.381 N 
ATOM      9  H2  UNL     1      15.338 -11.108  20.340  1.00  0.00     0.160 HD
BRANCH   8  10
HETATM   10  C4  UNL     1      13.468 -12.122  20.563  1.00  0.00     0.203 C 
BRANCH  10  11
HETATM   11  C3  UNL     1      12.927 -11.911  21.909  1.00  0.00     0.130 C 
BRANCH  11  12
HETATM   12  N1  UNL     1      12.297 -10.860  22.527  1.00  0.00    -0.373 N 
HETATM   13  C1  UNL     1      11.588 -10.867  23.765  1.00  0.00     0.150 C 
HETATM   14  C2  UNL     1      12.344  -9.535  21.847  1.00  0.00     0.150 C 
ENDBRANCH  11  12
BRANCH  11  15
HETATM   15  O1  UNL     1      13.088 -12.973  22.678  1.00  0.00    -0.348 OA
ATOM     16  H1  UNL     1      12.851 -13.794  22.262  1.00  0.00     0.219 HD
ENDBRANCH  11  15
ENDBRANCH  10  11
ENDBRANCH   8  10
ENDBRANCH   7   8
BRANCH   7  17
HETATM   17  C19 UNL     1      17.070 -13.166  20.115  1.00  0.00     0.041 C 
HETATM   18  C20 UNL     1      17.850 -13.829  21.239  1.00  0.00     0.011 C 
HETATM   19  C21 UNL     1      19.305 -13.805  20.851  1.00  0.00     0.001 C 
HETATM   20  C22 UNL     1      19.801 -12.389  20.823  1.00  0.00     0.000 C 
HETATM   21  C23 UNL     1      18.693 -11.363  20.659  1.00  0.00     0.001 C 
HETATM   22  C24 UNL     1      17.656 -11.894  19.653  1.00  0.00     0.011 C 
ENDBRANCH   7  17
ENDBRANCH   1   7
BRANCH   6  23
HETATM   23  C10 UNL     1      15.513 -16.880  21.955  1.00  0.00     0.241 C 
HETATM   24  O3  UNL     1      15.982 -17.696  21.143  1.00  0.00    -0.271 OA
HETATM   25  N4  UNL     1      16.119 -16.686  23.200  1.00  0.00    -0.355 N 
ATOM     26  H4  UNL     1      15.688 -16.004  23.824  1.00  0.00     0.162 HD
BRANCH  25  27
HETATM   27  C11 UNL     1      17.286 -17.356  23.678  1.00  0.00     0.161 C 
BRANCH  27  28
HETATM   28  C12 UNL     1      18.445 -16.442  23.856  1.00  0.00    -0.040 A 
HETATM   29  C13 UNL     1      18.358 -15.273  24.574  1.00  0.00     0.010 A 
HETATM   30  C14 UNL     1      19.457 -14.428  24.737  1.00  0.00     0.015 A 
HETATM   31  C15 UNL     1      20.677 -14.725  24.186  1.00  0.00     0.004 A 
HETATM   32  C17 UNL     1      20.762 -15.917  23.455  1.00  0.00     0.015 A 
HETATM   33  C18 UNL     1      19.670 -16.742  23.301  1.00  0.00     0.010 A 
BRANCH  31  34
HETATM   34  C16 UNL     1      21.870 -13.888  24.323  1.00  0.00     0.120 C 
HETATM   35  N5  UNL     1      22.992 -14.102  23.475  1.00  0.00    -0.082 NA
HETATM   36  N6  UNL     1      21.936 -12.955  25.195  1.00  0.00    -0.387 N 
ATOM     37  H62 UNL     1      21.132 -12.802  25.802  1.00  0.00     0.157 HD
ATOM     38  H61 UNL     1      22.767 -12.372  25.290  1.00  0.00     0.157 HD
ENDBRANCH  31  34
ENDBRANCH  27  28
ENDBRANCH  25  27
ENDBRANCH   6  23
TORSDOF 11
ENDMDL
