MODEL 4
REMARK VINA RESULT: -8.382130731      2.223      5.325
REMARK  11 active torsions:
REMARK  status: ('A' for Active; 'I' for Inactive)
REMARK    1  A    between atoms: N1_2  and  C3_4 
REMARK    2  A    between atoms: C3_4  and  O1_5 
REMARK    3  A    between atoms: C3_4  and  C4_7 
REMARK    4  A    between atoms: C4_7  and  N2_8 
REMARK    5  A    between atoms: N2_8  and  C5_10 
REMARK    6  A    between atoms: C5_10  and  C6_11 
REMARK    7  A    between atoms: C5_10  and  C19_33 
REMARK       I    between atoms: C6_11  and  N3_13 
REMARK    8  A    between atoms: C9_16  and  C10_17 
REMARK       I    between atoms: C10_17  and  N4_19 
REMARK    9  A    between atoms: N4_19  and  C11_21 
REMARK   10  A    between atoms: C11_21  and  C12_22 
REMARK   11  A    between atoms: C15_25  and  C16_26 
ROOT
HETATM    1  C6  UNL     1      18.445 -15.636  23.292  1.00  0.00     0.267 C 
HETATM    2  O2  UNL     1      18.312 -15.005  24.416  1.00  0.00    -0.266 OA
HETATM    3  N3  UNL     1      17.667 -16.789  23.143  1.00  0.00    -0.333 N 
HETATM    4  C7  UNL     1      16.709 -17.473  24.043  1.00  0.00     0.129 C 
HETATM    5  C8  UNL     1      16.629 -18.670  23.170  1.00  0.00     0.055 C 
HETATM    6  C9  UNL     1      17.371 -17.771  22.168  1.00  0.00     0.181 C 
ENDROOT
BRANCH   1   7
HETATM    7  C5  UNL     1      19.387 -15.062  22.325  1.00  0.00     0.078 C 
BRANCH   7   8
HETATM    8  N2  UNL     1      20.748 -15.488  22.466  1.00  0.00    -0.381 N 
ATOM      9  H2  UNL     1      21.352 -15.633  21.657  1.00  0.00     0.160 HD
BRANCH   8  10
HETATM   10  C4  UNL     1      21.213 -15.700  23.791  1.00  0.00     0.203 C 
BRANCH  10  11
HETATM   11  C3  UNL     1      21.766 -14.537  24.491  1.00  0.00     0.130 C 
BRANCH  11  12
HETATM   12  N1  UNL     1      21.247 -13.620  25.371  1.00  0.00    -0.373 N 
HETATM   13  C1  UNL     1      21.010 -12.231  25.153  1.00  0.00     0.150 C 
HETATM   14  C2  UNL     1      20.872 -14.107  26.729  1.00  0.00     0.150 C 
ENDBRANCH  11  12
BRANCH  11  15
HETATM   15  O1  UNL     1      23.041 -14.347  24.201  1.00  0.00    -0.348 OA
ATOM     16  H1  UNL     1      23.564 -15.140  24.211  1.00  0.00     0.219 HD
ENDBRANCH  11  15
ENDBRANCH  10  11
ENDBRANCH   8  10
ENDBRANCH   7   8
BRANCH   7  17
HETATM   17  C19 UNL     1      19.138 -13.634  22.014  1.00  0.00     0.041 C 
HETATM   18  C20 UNL     1      17.782 -13.458  21.350  1.00  0.00     0.011 C 
HETATM   19  C21 UNL     1      17.562 -11.979  21.165  1.00  0.00     0.001 C 
HETATM   20  C22 UNL     1      18.549 -11.436  20.174  1.00  0.00     0.000 C 
HETATM   21  C23 UNL     1      19.787 -12.302  20.017  1.00  0.00     0.001 C 
HETATM   22  C24 UNL     1      20.212 -12.832  21.398  1.00  0.00     0.011 C 
ENDBRANCH   7  17
ENDBRANCH   1   7
BRANCH   6  23
HETATM   23  C10 UNL     1      16.345 -17.326  21.158  1.00  0.00     0.241 C 
HETATM   24  O3  UNL     1      16.333 -17.909  20.060  1.00  0.00    -0.271 OA
HETATM   25  N4  UNL     1      15.434 -16.300  21.428  1.00  0.00    -0.355 N 
ATOM     26  H4  UNL     1      15.493 -15.859  22.346  1.00  0.00     0.162 HD
BRANCH  25  27
HETATM   27  C11 UNL     1      14.430 -15.813  20.537  1.00  0.00     0.161 C 
BRANCH  27  28
HETATM   28  C12 UNL     1      14.253 -14.339  20.617  1.00  0.00    -0.040 A 
HETATM   29  C13 UNL     1      14.403 -13.518  19.526  1.00  0.00     0.010 A 
HETATM   30  C14 UNL     1      14.227 -12.136  19.616  1.00  0.00     0.015 A 
HETATM   31  C15 UNL     1      13.895 -11.532  20.803  1.00  0.00     0.004 A 
HETATM   32  C17 UNL     1      13.744 -12.373  21.913  1.00  0.00     0.015 A 
HETATM   33  C18 UNL     1      13.921 -13.735  21.810  1.00  0.00     0.010 A 
BRANCH  31  34
HETATM   34  C16 UNL     1      13.691 -10.093  20.966  1.00  0.00     0.120 C 
HETATM   35  N5  UNL     1      12.514  -9.608  21.602  1.00  0.00    -0.082 NA
HETATM   36  N6  UNL     1      14.549  -9.243  20.549  1.00  0.00    -0.387 N 
ATOM     37  H62 UNL     1      15.392  -9.590  20.093  1.00  0.00     0.157 HD
ATOM     38  H61 UNL     1      14.406  -8.240  20.663  1.00  0.00     0.157 HD
ENDBRANCH  31  34
ENDBRANCH  27  28
ENDBRANCH  25  27
ENDBRANCH   6  23
TORSDOF 11
ENDMDL
