MODEL 2
REMARK VINA RESULT: -9.339933431      1.092      1.255
REMARK  11 active torsions:
REMARK  status: ('A' for Active; 'I' for Inactive)
REMARK    1  A    between atoms: N1_2  and  C3_4 
REMARK    2  A    between atoms: C3_4  and  O1_5 
REMARK    3  A    between atoms: C3_4  and  C4_7 
REMARK    4  A    between atoms: C4_7  and  N2_8 
REMARK    5  A    between atoms: N2_8  and  C5_10 
REMARK    6  A    between atoms: C5_10  and  C6_11 
REMARK    7  A    between atoms: C5_10  and  C19_33 
REMARK       I    between atoms: C6_11  and  N3_13 
REMARK    8  A    between atoms: C9_16  and  C10_17 
REMARK       I    between atoms: C10_17  and  N4_19 
REMARK    9  A    between atoms: N4_19  and  C11_21 
REMARK   10  A    between atoms: C11_21  and  C12_22 
REMARK   11  A    between atoms: C15_25  and  C16_26 
ROOT
HETATM    1  C6  UNL     1      19.501 -14.503  21.879  1.00  0.00     0.267 C 
HETATM    2  O2  UNL     1      20.239 -15.381  21.279  1.00  0.00    -0.266 OA
HETATM    3  N3  UNL     1      19.313 -13.295  21.199  1.00  0.00    -0.333 N 
HETATM    4  C7  UNL     1      19.822 -12.787  19.903  1.00  0.00     0.129 C 
HETATM    5  C8  UNL     1      19.344 -11.408  20.172  1.00  0.00     0.055 C 
HETATM    6  C9  UNL     1      18.596 -12.082  21.332  1.00  0.00     0.181 C 
ENDROOT
BRANCH   1   7
HETATM    7  C5  UNL     1      18.955 -14.886  23.186  1.00  0.00     0.078 C 
BRANCH   7   8
HETATM    8  N2  UNL     1      17.621 -15.409  23.165  1.00  0.00    -0.381 N 
ATOM      9  H2  UNL     1      16.868 -14.980  23.704  1.00  0.00     0.160 HD
BRANCH   8  10
HETATM   10  C4  UNL     1      17.400 -16.554  22.355  1.00  0.00     0.203 C 
BRANCH  10  11
HETATM   11  C3  UNL     1      16.264 -16.500  21.430  1.00  0.00     0.130 C 
BRANCH  11  12
HETATM   12  N1  UNL     1      14.925 -16.778  21.551  1.00  0.00    -0.373 N 
HETATM   13  C1  UNL     1      14.303 -18.054  21.692  1.00  0.00     0.150 C 
HETATM   14  C2  UNL     1      13.980 -15.626  21.539  1.00  0.00     0.150 C 
ENDBRANCH  11  12
BRANCH  11  15
HETATM   15  O1  UNL     1      16.625 -16.093  20.226  1.00  0.00    -0.348 OA
ATOM     16  H1  UNL     1      16.534 -15.157  20.089  1.00  0.00     0.219 HD
ENDBRANCH  11  15
ENDBRANCH  10  11
ENDBRANCH   8  10
ENDBRANCH   7   8
BRANCH   7  17
HETATM   17  C19 UNL     1      19.319 -13.964  24.287  1.00  0.00     0.041 C 
HETATM   18  C20 UNL     1      20.733 -13.436  24.101  1.00  0.00     0.011 C 
HETATM   19  C21 UNL     1      20.985 -12.430  25.194  1.00  0.00     0.001 C 
HETATM   20  C22 UNL     1      21.005 -13.120  26.526  1.00  0.00     0.000 C 
HETATM   21  C23 UNL     1      20.281 -14.456  26.527  1.00  0.00     0.001 C 
HETATM   22  C24 UNL     1      19.003 -14.339  25.679  1.00  0.00     0.011 C 
ENDBRANCH   7  17
ENDBRANCH   1   7
BRANCH   6  23
HETATM   23  C10 UNL     1      17.154 -12.186  20.904  1.00  0.00     0.241 C 
HETATM   24  O3  UNL     1      16.527 -13.203  21.247  1.00  0.00    -0.271 OA
HETATM   25  N4  UNL     1      16.531 -11.187  20.151  1.00  0.00    -0.355 N 
ATOM     26  H4  UNL     1      17.096 -10.376  19.899  1.00  0.00     0.162 HD
BRANCH  25  27
HETATM   27  C11 UNL     1      15.175 -11.197  19.702  1.00  0.00     0.161 C 
BRANCH  27  28
HETATM   28  C12 UNL     1      14.207 -10.869  20.781  1.00  0.00    -0.040 A 
HETATM   29  C13 UNL     1      13.395 -11.818  21.356  1.00  0.00     0.010 A 
HETATM   30  C14 UNL     1      12.495 -11.495  22.374  1.00  0.00     0.015 A 
HETATM   31  C15 UNL     1      12.379 -10.213  22.848  1.00  0.00     0.004 A 
HETATM   32  C17 UNL     1      13.208  -9.249  22.259  1.00  0.00     0.015 A 
HETATM   33  C18 UNL     1      14.092  -9.581  21.256  1.00  0.00     0.010 A 
BRANCH  31  34
HETATM   34  C16 UNL     1      11.462  -9.807  23.914  1.00  0.00     0.120 C 
HETATM   35  N5  UNL     1      11.347  -8.435  24.270  1.00  0.00    -0.082 NA
HETATM   36  N6  UNL     1      10.751 -10.661  24.545  1.00  0.00    -0.387 N 
ATOM     37  H62 UNL     1      10.834 -11.644  24.290  1.00  0.00     0.157 HD
ATOM     38  H61 UNL     1      10.113 -10.378  25.288  1.00  0.00     0.157 HD
ENDBRANCH  31  34
ENDBRANCH  27  28
ENDBRANCH  25  27
ENDBRANCH   6  23
TORSDOF 11
ENDMDL
