MODEL 7
REMARK VINA RESULT: -8.176293681      2.470      7.642
REMARK  11 active torsions:
REMARK  status: ('A' for Active; 'I' for Inactive)
REMARK    1  A    between atoms: N1_2  and  C3_4 
REMARK    2  A    between atoms: C3_4  and  O1_5 
REMARK    3  A    between atoms: C3_4  and  C4_7 
REMARK    4  A    between atoms: C4_7  and  N2_8 
REMARK    5  A    between atoms: N2_8  and  C5_10 
REMARK    6  A    between atoms: C5_10  and  C6_11 
REMARK    7  A    between atoms: C5_10  and  C19_33 
REMARK       I    between atoms: C6_11  and  N3_13 
REMARK    8  A    between atoms: C9_16  and  C10_17 
REMARK       I    between atoms: C10_17  and  N4_19 
REMARK    9  A    between atoms: N4_19  and  C11_21 
REMARK   10  A    between atoms: C11_21  and  C12_22 
REMARK   11  A    between atoms: C15_25  and  C16_26 
ROOT
HETATM    1  C6  UNL     1      14.896 -13.675  19.525  1.00  0.00     0.267 C 
HETATM    2  O2  UNL     1      14.656 -13.601  18.254  1.00  0.00    -0.266 OA
HETATM    3  N3  UNL     1      14.317 -14.758  20.194  1.00  0.00    -0.333 N 
HETATM    4  C7  UNL     1      13.436 -15.860  19.740  1.00  0.00     0.129 C 
HETATM    5  C8  UNL     1      13.145 -16.299  21.128  1.00  0.00     0.055 C 
HETATM    6  C9  UNL     1      14.295 -15.343  21.483  1.00  0.00     0.181 C 
ENDROOT
BRANCH   1   7
HETATM    7  C5  UNL     1      15.743 -12.622  20.095  1.00  0.00     0.078 C 
BRANCH   7   8
HETATM    8  N2  UNL     1      15.284 -11.281  19.881  1.00  0.00    -0.381 N 
ATOM      9  H2  UNL     1      15.917 -10.537  19.586  1.00  0.00     0.160 HD
BRANCH   8  10
HETATM   10  C4  UNL     1      13.902 -11.041  20.100  1.00  0.00     0.203 C 
BRANCH  10  11
HETATM   11  C3  UNL     1      13.549 -10.216  21.259  1.00  0.00     0.130 C 
BRANCH  11  12
HETATM   12  N1  UNL     1      12.633 -10.343  22.273  1.00  0.00    -0.373 N 
HETATM   13  C1  UNL     1      11.934 -11.518  22.683  1.00  0.00     0.150 C 
HETATM   14  C2  UNL     1      12.308  -9.122  23.063  1.00  0.00     0.150 C 
ENDBRANCH  11  12
BRANCH  11  15
HETATM   15  O1  UNL     1      14.284  -9.121  21.328  1.00  0.00    -0.348 OA
ATOM     16  H1  UNL     1      14.471  -8.724  20.485  1.00  0.00     0.219 HD
ENDBRANCH  11  15
ENDBRANCH  10  11
ENDBRANCH   8  10
ENDBRANCH   7   8
BRANCH   7  17
HETATM   17  C19 UNL     1      17.197 -12.882  19.972  1.00  0.00     0.041 C 
HETATM   18  C20 UNL     1      17.726 -13.576  21.217  1.00  0.00     0.011 C 
HETATM   19  C21 UNL     1      19.176 -13.900  20.969  1.00  0.00     0.001 C 
HETATM   20  C22 UNL     1      19.971 -12.632  20.869  1.00  0.00     0.000 C 
HETATM   21  C23 UNL     1      19.131 -11.417  20.514  1.00  0.00     0.001 C 
HETATM   22  C24 UNL     1      18.082 -11.817  19.463  1.00  0.00     0.011 C 
ENDBRANCH   7  17
ENDBRANCH   1   7
BRANCH   6  23
HETATM   23  C10 UNL     1      15.494 -16.210  21.770  1.00  0.00     0.241 C 
HETATM   24  O3  UNL     1      16.030 -16.783  20.805  1.00  0.00    -0.271 OA
HETATM   25  N4  UNL     1      15.997 -16.375  23.063  1.00  0.00    -0.355 N 
ATOM     26  H4  UNL     1      15.515 -15.881  23.814  1.00  0.00     0.162 HD
BRANCH  25  27
HETATM   27  C11 UNL     1      17.124 -17.173  23.430  1.00  0.00     0.161 C 
BRANCH  27  28
HETATM   28  C12 UNL     1      18.345 -16.364  23.684  1.00  0.00    -0.040 A 
HETATM   29  C13 UNL     1      18.320 -15.199  24.412  1.00  0.00     0.010 A 
HETATM   30  C14 UNL     1      19.477 -14.454  24.646  1.00  0.00     0.015 A 
HETATM   31  C15 UNL     1      20.697 -14.852  24.159  1.00  0.00     0.004 A 
HETATM   32  C17 UNL     1      20.718 -16.040  23.417  1.00  0.00     0.015 A 
HETATM   33  C18 UNL     1      19.569 -16.765  23.193  1.00  0.00     0.010 A 
BRANCH  31  34
HETATM   34  C16 UNL     1      21.947 -14.123  24.373  1.00  0.00     0.120 C 
HETATM   35  N5  UNL     1      23.102 -14.452  23.610  1.00  0.00    -0.082 NA
HETATM   36  N6  UNL     1      22.037 -13.186  25.237  1.00  0.00    -0.387 N 
ATOM     37  H62 UNL     1      21.209 -12.950  25.783  1.00  0.00     0.157 HD
ATOM     38  H61 UNL     1      22.908 -12.678  25.385  1.00  0.00     0.157 HD
ENDBRANCH  31  34
ENDBRANCH  27  28
ENDBRANCH  25  27
ENDBRANCH   6  23
TORSDOF 11
ENDMDL
