MODEL 11
REMARK VINA RESULT: -7.793178906      2.834      4.697
REMARK  9 active torsions:
REMARK  status: ('A' for Active; 'I' for Inactive)
REMARK       I    between atoms: N1_2  and  C2_4 
REMARK    1  A    between atoms: C2_4  and  C3_6 
REMARK    2  A    between atoms: C3_6  and  N2_7 
REMARK    3  A    between atoms: N2_7  and  C4_9 
REMARK    4  A    between atoms: C4_9  and  C5_10 
REMARK    5  A    between atoms: C4_9  and  C18_32 
REMARK       I    between atoms: C5_10  and  N3_12 
REMARK    6  A    between atoms: C8_15  and  C9_16 
REMARK       I    between atoms: C9_16  and  N4_18 
REMARK    7  A    between atoms: N4_18  and  C10_20 
REMARK    8  A    between atoms: C10_20  and  C11_21 
REMARK    9  A    between atoms: C14_24  and  C15_25 
ROOT
HETATM    1  C5  UNL     1      21.019 -16.369  23.534  1.00  0.00     0.267 C 
HETATM    2  O2  UNL     1      21.299 -16.050  22.320  1.00  0.00    -0.266 OA
HETATM    3  N3  UNL     1      20.299 -17.565  23.771  1.00  0.00    -0.333 N 
HETATM    4  C6  UNL     1      19.788 -18.337  24.857  1.00  0.00     0.129 C 
HETATM    5  C7  UNL     1      20.035 -19.564  23.993  1.00  0.00     0.055 C 
HETATM    6  C8  UNL     1      19.745 -18.579  22.891  1.00  0.00     0.181 C 
ENDROOT
BRANCH   1   7
HETATM    7  C4  UNL     1      21.481 -15.455  24.584  1.00  0.00     0.078 C 
BRANCH   7   8
HETATM    8  N2  UNL     1      22.815 -15.798  25.038  1.00  0.00    -0.380 N 
ATOM      9  H2  UNL     1      22.991 -16.394  25.846  1.00  0.00     0.160 HD
BRANCH   8  10
HETATM   10  C3  UNL     1      23.875 -15.217  24.238  1.00  0.00     0.222 C 
BRANCH  10  11
HETATM   11  C2  UNL     1      24.746 -16.186  23.588  1.00  0.00     0.234 C 
HETATM   12  N1  UNL     1      25.494 -17.101  24.369  1.00  0.00    -0.364 N 
HETATM   13  C1  UNL     1      26.368 -18.073  23.733  1.00  0.00     0.149 C 
ATOM     14  H1  UNL     1      25.419 -17.078  25.386  1.00  0.00     0.161 HD
HETATM   15  O1  UNL     1      24.863 -16.245  22.346  1.00  0.00    -0.272 OA
ENDBRANCH  10  11
ENDBRANCH   8  10
ENDBRANCH   7   8
BRANCH   7  16
HETATM   16  C18 UNL     1      20.557 -15.062  25.654  1.00  0.00     0.041 C 
HETATM   17  C19 UNL     1      19.466 -14.134  25.193  1.00  0.00     0.011 C 
HETATM   18  C20 UNL     1      20.025 -12.926  24.484  1.00  0.00     0.001 C 
HETATM   19  C21 UNL     1      20.972 -12.215  25.410  1.00  0.00     0.000 C 
HETATM   20  C22 UNL     1      20.942 -12.845  26.761  1.00  0.00     0.001 C 
HETATM   21  C23 UNL     1      21.260 -14.321  26.785  1.00  0.00     0.011 C 
ENDBRANCH   7  16
ENDBRANCH   1   7
BRANCH   6  22
HETATM   22  C9  UNL     1      18.283 -18.381  22.625  1.00  0.00     0.241 C 
HETATM   23  O3  UNL     1      17.445 -19.316  22.633  1.00  0.00    -0.271 OA
HETATM   24  N4  UNL     1      17.769 -17.077  22.341  1.00  0.00    -0.355 N 
ATOM     25  H4  UNL     1      18.425 -16.296  22.326  1.00  0.00     0.162 HD
BRANCH  24  26
HETATM   26  C10 UNL     1      16.374 -16.797  22.075  1.00  0.00     0.161 C 
BRANCH  26  27
HETATM   27  C11 UNL     1      16.288 -15.408  21.584  1.00  0.00    -0.040 A 
HETATM   28  C12 UNL     1      17.417 -14.715  21.234  1.00  0.00     0.010 A 
HETATM   29  C13 UNL     1      17.318 -13.423  20.778  1.00  0.00     0.015 A 
HETATM   30  C14 UNL     1      16.090 -12.761  20.647  1.00  0.00     0.004 A 
HETATM   31  C16 UNL     1      14.980 -13.490  21.008  1.00  0.00     0.015 A 
HETATM   32  C17 UNL     1      15.069 -14.805  21.474  1.00  0.00     0.010 A 
BRANCH  30  33
HETATM   33  C15 UNL     1      16.047 -11.389  20.157  1.00  0.00     0.120 C 
HETATM   34  N5  UNL     1      16.782 -11.063  18.987  1.00  0.00    -0.082 NA
HETATM   35  N6  UNL     1      15.379 -10.488  20.743  1.00  0.00    -0.387 N 
ATOM     36  H62 UNL     1      14.851 -10.721  21.585  1.00  0.00     0.157 HD
ATOM     37  H61 UNL     1      15.349  -9.527  20.401  1.00  0.00     0.157 HD
ENDBRANCH  30  33
ENDBRANCH  26  27
ENDBRANCH  24  26
ENDBRANCH   6  22
TORSDOF 9
ENDMDL
