MODEL 13
REMARK VINA RESULT: -7.666671522      2.284      4.089
REMARK  9 active torsions:
REMARK  status: ('A' for Active; 'I' for Inactive)
REMARK       I    between atoms: N1_2  and  C2_4 
REMARK    1  A    between atoms: C2_4  and  C3_6 
REMARK    2  A    between atoms: C3_6  and  N2_7 
REMARK    3  A    between atoms: N2_7  and  C4_9 
REMARK    4  A    between atoms: C4_9  and  C5_10 
REMARK    5  A    between atoms: C4_9  and  C18_32 
REMARK       I    between atoms: C5_10  and  N3_12 
REMARK    6  A    between atoms: C8_15  and  C9_16 
REMARK       I    between atoms: C9_16  and  N4_18 
REMARK    7  A    between atoms: N4_18  and  C10_20 
REMARK    8  A    between atoms: C10_20  and  C11_21 
REMARK    9  A    between atoms: C14_24  and  C15_25 
ROOT
HETATM    1  C5  UNL     1      20.545 -16.211  22.993  1.00  0.00     0.267 C 
HETATM    2  O2  UNL     1      20.650 -15.556  21.890  1.00  0.00    -0.266 OA
HETATM    3  N3  UNL     1      19.942 -17.492  22.965  1.00  0.00    -0.333 N 
HETATM    4  C6  UNL     1      19.624 -18.569  23.844  1.00  0.00     0.129 C 
HETATM    5  C7  UNL     1      19.842 -19.494  22.657  1.00  0.00     0.055 C 
HETATM    6  C8  UNL     1      19.352 -18.286  21.902  1.00  0.00     0.181 C 
ENDROOT
BRANCH   1   7
HETATM    7  C4  UNL     1      21.073 -15.566  24.200  1.00  0.00     0.078 C 
BRANCH   7   8
HETATM    8  N2  UNL     1      22.277 -16.223  24.670  1.00  0.00    -0.380 N 
ATOM      9  H2  UNL     1      22.262 -17.047  25.271  1.00  0.00     0.160 HD
BRANCH   8  10
HETATM   10  C3  UNL     1      23.503 -15.604  24.208  1.00  0.00     0.222 C 
BRANCH  10  11
HETATM   11  C2  UNL     1      24.283 -16.415  23.283  1.00  0.00     0.234 C 
HETATM   12  N1  UNL     1      25.690 -16.494  23.424  1.00  0.00    -0.364 N 
HETATM   13  C1  UNL     1      26.481 -17.299  22.507  1.00  0.00     0.149 C 
ATOM     14  H1  UNL     1      26.153 -15.981  24.174  1.00  0.00     0.161 HD
HETATM   15  O1  UNL     1      23.751 -17.058  22.354  1.00  0.00    -0.272 OA
ENDBRANCH  10  11
ENDBRANCH   8  10
ENDBRANCH   7   8
BRANCH   7  16
HETATM   16  C18 UNL     1      20.146 -15.161  25.262  1.00  0.00     0.041 C 
HETATM   17  C19 UNL     1      19.270 -13.998  24.883  1.00  0.00     0.011 C 
HETATM   18  C20 UNL     1      20.082 -12.826  24.390  1.00  0.00     0.001 C 
HETATM   19  C21 UNL     1      21.058 -12.428  25.461  1.00  0.00     0.000 C 
HETATM   20  C22 UNL     1      20.813 -13.219  26.702  1.00  0.00     0.001 C 
HETATM   21  C23 UNL     1      20.872 -14.717  26.527  1.00  0.00     0.011 C 
ENDBRANCH   7  16
ENDBRANCH   1   7
BRANCH   6  22
HETATM   22  C9  UNL     1      17.858 -18.169  21.851  1.00  0.00     0.241 C 
HETATM   23  O3  UNL     1      17.084 -19.156  21.904  1.00  0.00    -0.271 OA
HETATM   24  N4  UNL     1      17.236 -16.887  21.736  1.00  0.00    -0.355 N 
ATOM     25  H4  UNL     1      17.838 -16.065  21.689  1.00  0.00     0.162 HD
BRANCH  24  26
HETATM   26  C10 UNL     1      15.803 -16.683  21.683  1.00  0.00     0.161 C 
BRANCH  26  27
HETATM   27  C11 UNL     1      15.568 -15.233  21.540  1.00  0.00    -0.040 A 
HETATM   28  C12 UNL     1      14.307 -14.744  21.323  1.00  0.00     0.010 A 
HETATM   29  C13 UNL     1      14.106 -13.391  21.193  1.00  0.00     0.015 A 
HETATM   30  C14 UNL     1      15.152 -12.462  21.274  1.00  0.00     0.004 A 
HETATM   31  C16 UNL     1      16.403 -12.992  21.492  1.00  0.00     0.015 A 
HETATM   32  C17 UNL     1      16.619 -14.367  21.626  1.00  0.00     0.010 A 
BRANCH  30  33
HETATM   33  C15 UNL     1      14.878 -11.038  21.127  1.00  0.00     0.120 C 
HETATM   34  N5  UNL     1      13.678 -10.518  21.678  1.00  0.00    -0.082 NA
HETATM   35  N6  UNL     1      15.676 -10.260  20.526  1.00  0.00    -0.387 N 
ATOM     36  H62 UNL     1      16.538 -10.634  20.130  1.00  0.00     0.157 HD
ATOM     37  H61 UNL     1      15.484  -9.263  20.423  1.00  0.00     0.157 HD
ENDBRANCH  30  33
ENDBRANCH  26  27
ENDBRANCH  24  26
ENDBRANCH   6  22
TORSDOF 9
ENDMDL
