MODEL 10
REMARK VINA RESULT: -7.824550808      1.857      3.342
REMARK  9 active torsions:
REMARK  status: ('A' for Active; 'I' for Inactive)
REMARK       I    between atoms: N1_2  and  C2_4 
REMARK    1  A    between atoms: C2_4  and  C3_6 
REMARK    2  A    between atoms: C3_6  and  N2_7 
REMARK    3  A    between atoms: N2_7  and  C4_9 
REMARK    4  A    between atoms: C4_9  and  C5_10 
REMARK    5  A    between atoms: C4_9  and  C18_32 
REMARK       I    between atoms: C5_10  and  N3_12 
REMARK    6  A    between atoms: C8_15  and  C9_16 
REMARK       I    between atoms: C9_16  and  N4_18 
REMARK    7  A    between atoms: N4_18  and  C10_20 
REMARK    8  A    between atoms: C10_20  and  C11_21 
REMARK    9  A    between atoms: C14_24  and  C15_25 
ROOT
HETATM    1  C5  UNL     1      19.263 -13.997  23.324  1.00  0.00     0.267 C 
HETATM    2  O2  UNL     1      18.721 -13.317  24.273  1.00  0.00    -0.266 OA
HETATM    3  N3  UNL     1      19.263 -13.452  22.017  1.00  0.00    -0.333 N 
HETATM    4  C6  UNL     1      19.721 -13.764  20.702  1.00  0.00     0.129 C 
HETATM    5  C7  UNL     1      19.893 -12.267  20.496  1.00  0.00     0.055 C 
HETATM    6  C8  UNL     1      18.735 -12.220  21.456  1.00  0.00     0.181 C 
ENDROOT
BRANCH   1   7
HETATM    7  C4  UNL     1      19.846 -15.293  23.684  1.00  0.00     0.078 C 
BRANCH   7   8
HETATM    8  N2  UNL     1      19.064 -16.393  23.156  1.00  0.00    -0.380 N 
ATOM      9  H2  UNL     1      19.463 -17.128  22.572  1.00  0.00     0.160 HD
BRANCH   8  10
HETATM   10  C3  UNL     1      17.665 -16.354  23.533  1.00  0.00     0.222 C 
BRANCH  10  11
HETATM   11  C2  UNL     1      16.734 -16.576  22.436  1.00  0.00     0.234 C 
HETATM   12  N1  UNL     1      15.523 -15.844  22.377  1.00  0.00    -0.364 N 
HETATM   13  C1  UNL     1      14.583 -16.055  21.288  1.00  0.00     0.149 C 
ATOM     14  H1  UNL     1      15.307 -15.163  23.105  1.00  0.00     0.161 HD
HETATM   15  O1  UNL     1      16.964 -17.399  21.526  1.00  0.00    -0.272 OA
ENDBRANCH  10  11
ENDBRANCH   8  10
ENDBRANCH   7   8
BRANCH   7  16
HETATM   16  C18 UNL     1      20.347 -15.501  25.048  1.00  0.00     0.041 C 
HETATM   17  C19 UNL     1      21.578 -14.696  25.364  1.00  0.00     0.011 C 
HETATM   18  C20 UNL     1      22.666 -14.917  24.343  1.00  0.00     0.001 C 
HETATM   19  C21 UNL     1      22.990 -16.383  24.289  1.00  0.00     0.000 C 
HETATM   20  C22 UNL     1      22.242 -17.116  25.351  1.00  0.00     0.001 C 
HETATM   21  C23 UNL     1      20.743 -16.951  25.305  1.00  0.00     0.011 C 
ENDBRANCH   7  16
ENDBRANCH   1   7
BRANCH   6  22
HETATM   22  C9  UNL     1      17.398 -12.407  20.803  1.00  0.00     0.241 C 
HETATM   23  O3  UNL     1      16.857 -13.529  20.641  1.00  0.00    -0.271 OA
HETATM   24  N4  UNL     1      16.662 -11.278  20.325  1.00  0.00    -0.355 N 
ATOM     25  H4  UNL     1      17.076 -10.353  20.440  1.00  0.00     0.162 HD
BRANCH  24  26
HETATM   26  C10 UNL     1      15.366 -11.368  19.685  1.00  0.00     0.161 C 
BRANCH  26  27
HETATM   27  C11 UNL     1      14.344 -11.146  20.726  1.00  0.00    -0.040 A 
HETATM   28  C12 UNL     1      14.098  -9.889  21.213  1.00  0.00     0.010 A 
HETATM   29  C13 UNL     1      13.142  -9.702  22.182  1.00  0.00     0.015 A 
HETATM   30  C14 UNL     1      12.385 -10.756  22.709  1.00  0.00     0.004 A 
HETATM   31  C16 UNL     1      12.661 -12.002  22.195  1.00  0.00     0.015 A 
HETATM   32  C17 UNL     1      13.631 -12.205  21.209  1.00  0.00     0.010 A 
BRANCH  30  33
HETATM   33  C15 UNL     1      11.384 -10.495  23.737  1.00  0.00     0.120 C 
HETATM   34  N5  UNL     1      11.299  -9.189  24.285  1.00  0.00    -0.082 NA
HETATM   35  N6  UNL     1      10.596 -11.396  24.149  1.00  0.00    -0.387 N 
ATOM     36  H62 UNL     1      10.657 -12.335  23.755  1.00  0.00     0.157 HD
ATOM     37  H61 UNL     1       9.895 -11.214  24.868  1.00  0.00     0.157 HD
ENDBRANCH  30  33
ENDBRANCH  26  27
ENDBRANCH  24  26
ENDBRANCH   6  22
TORSDOF 9
ENDMDL
