MODEL 6
REMARK VINA RESULT: -8.047538046      2.263      3.770
REMARK  9 active torsions:
REMARK  status: ('A' for Active; 'I' for Inactive)
REMARK       I    between atoms: N1_2  and  C2_4 
REMARK    1  A    between atoms: C2_4  and  C3_6 
REMARK    2  A    between atoms: C3_6  and  N2_7 
REMARK    3  A    between atoms: N2_7  and  C4_9 
REMARK    4  A    between atoms: C4_9  and  C5_10 
REMARK    5  A    between atoms: C4_9  and  C18_32 
REMARK       I    between atoms: C5_10  and  N3_12 
REMARK    6  A    between atoms: C8_15  and  C9_16 
REMARK       I    between atoms: C9_16  and  N4_18 
REMARK    7  A    between atoms: N4_18  and  C10_20 
REMARK    8  A    between atoms: C10_20  and  C11_21 
REMARK    9  A    between atoms: C14_24  and  C15_25 
ROOT
HETATM    1  C5  UNL     1      18.611 -14.312  23.770  1.00  0.00     0.267 C 
HETATM    2  O2  UNL     1      18.224 -13.338  24.518  1.00  0.00    -0.266 OA
HETATM    3  N3  UNL     1      18.837 -14.061  22.395  1.00  0.00    -0.333 N 
HETATM    4  C6  UNL     1      19.267 -14.739  21.216  1.00  0.00     0.129 C 
HETATM    5  C7  UNL     1      19.858 -13.412  20.767  1.00  0.00     0.055 C 
HETATM    6  C8  UNL     1      18.703 -12.873  21.570  1.00  0.00     0.181 C 
ENDROOT
BRANCH   1   7
HETATM    7  C4  UNL     1      18.791 -15.615  24.418  1.00  0.00     0.078 C 
BRANCH   7   8
HETATM    8  N2  UNL     1      17.527 -16.304  24.589  1.00  0.00    -0.380 N 
ATOM      9  H2  UNL     1      16.947 -16.203  25.422  1.00  0.00     0.160 HD
BRANCH   8  10
HETATM   10  C3  UNL     1      17.162 -17.148  23.469  1.00  0.00     0.222 C 
BRANCH  10  11
HETATM   11  C2  UNL     1      15.773 -17.029  23.047  1.00  0.00     0.234 C 
HETATM   12  N1  UNL     1      15.378 -15.962  22.203  1.00  0.00    -0.364 N 
HETATM   13  C1  UNL     1      13.996 -15.831  21.775  1.00  0.00     0.149 C 
ATOM     14  H1  UNL     1      16.070 -15.280  21.893  1.00  0.00     0.161 HD
HETATM   15  O1  UNL     1      14.899 -17.847  23.404  1.00  0.00    -0.272 OA
ENDBRANCH  10  11
ENDBRANCH   8  10
ENDBRANCH   7   8
BRANCH   7  16
HETATM   16  C18 UNL     1      19.706 -15.729  25.560  1.00  0.00     0.041 C 
HETATM   17  C19 UNL     1      21.126 -16.027  25.163  1.00  0.00     0.011 C 
HETATM   18  C20 UNL     1      21.213 -17.240  24.271  1.00  0.00     0.001 C 
HETATM   19  C21 UNL     1      20.605 -18.413  24.986  1.00  0.00     0.000 C 
HETATM   20  C22 UNL     1      20.247 -18.036  26.383  1.00  0.00     0.001 C 
HETATM   21  C23 UNL     1      19.313 -16.857  26.508  1.00  0.00     0.011 C 
ENDBRANCH   7  16
ENDBRANCH   1   7
BRANCH   6  22
HETATM   22  C9  UNL     1      17.408 -12.833  20.817  1.00  0.00     0.241 C 
HETATM   23  O3  UNL     1      16.769 -13.862  20.483  1.00  0.00    -0.271 OA
HETATM   24  N4  UNL     1      16.830 -11.582  20.436  1.00  0.00    -0.355 N 
ATOM     25  H4  UNL     1      17.326 -10.728  20.691  1.00  0.00     0.162 HD
BRANCH  24  26
HETATM   26  C10 UNL     1      15.583 -11.453  19.711  1.00  0.00     0.161 C 
BRANCH  26  27
HETATM   27  C11 UNL     1      14.512 -11.247  20.706  1.00  0.00    -0.040 A 
HETATM   28  C12 UNL     1      13.773 -12.302  21.171  1.00  0.00     0.010 A 
HETATM   29  C13 UNL     1      12.781 -12.090  22.098  1.00  0.00     0.015 A 
HETATM   30  C14 UNL     1      12.480 -10.820  22.605  1.00  0.00     0.004 A 
HETATM   31  C16 UNL     1      13.244  -9.786  22.113  1.00  0.00     0.015 A 
HETATM   32  C17 UNL     1      14.256  -9.989  21.170  1.00  0.00     0.010 A 
BRANCH  30  33
HETATM   33  C15 UNL     1      11.415 -10.657  23.588  1.00  0.00     0.120 C 
HETATM   34  N5  UNL     1      11.244  -9.388  24.199  1.00  0.00    -0.082 NA
HETATM   35  N6  UNL     1      10.645 -11.610  23.907  1.00  0.00    -0.387 N 
ATOM     36  H62 UNL     1      10.767 -12.523  23.468  1.00  0.00     0.157 HD
ATOM     37  H61 UNL     1       9.900 -11.496  24.594  1.00  0.00     0.157 HD
ENDBRANCH  30  33
ENDBRANCH  26  27
ENDBRANCH  24  26
ENDBRANCH   6  22
TORSDOF 9
ENDMDL
