MODEL 9
REMARK VINA RESULT: -7.917330849      2.677      4.309
REMARK  9 active torsions:
REMARK  status: ('A' for Active; 'I' for Inactive)
REMARK       I    between atoms: N1_2  and  C2_4 
REMARK    1  A    between atoms: C2_4  and  C3_6 
REMARK    2  A    between atoms: C3_6  and  N2_7 
REMARK    3  A    between atoms: N2_7  and  C4_9 
REMARK    4  A    between atoms: C4_9  and  C5_10 
REMARK    5  A    between atoms: C4_9  and  C18_32 
REMARK       I    between atoms: C5_10  and  N3_12 
REMARK    6  A    between atoms: C8_15  and  C9_16 
REMARK       I    between atoms: C9_16  and  N4_18 
REMARK    7  A    between atoms: N4_18  and  C10_20 
REMARK    8  A    between atoms: C10_20  and  C11_21 
REMARK    9  A    between atoms: C14_24  and  C15_25 
ROOT
HETATM    1  C5  UNL     1      19.272 -16.860  23.910  1.00  0.00     0.267 C 
HETATM    2  O2  UNL     1      19.558 -16.852  22.655  1.00  0.00    -0.266 OA
HETATM    3  N3  UNL     1      18.248 -17.725  24.365  1.00  0.00    -0.333 N 
HETATM    4  C6  UNL     1      17.600 -18.110  25.576  1.00  0.00     0.129 C 
HETATM    5  C7  UNL     1      17.422 -19.483  24.948  1.00  0.00     0.055 C 
HETATM    6  C8  UNL     1      17.368 -18.661  23.688  1.00  0.00     0.181 C 
ENDROOT
BRANCH   1   7
HETATM    7  C4  UNL     1      20.046 -15.961  24.773  1.00  0.00     0.078 C 
BRANCH   7   8
HETATM    8  N2  UNL     1      20.952 -16.699  25.631  1.00  0.00    -0.380 N 
ATOM      9  H2  UNL     1      20.875 -16.702  26.649  1.00  0.00     0.160 HD
BRANCH   8  10
HETATM   10  C3  UNL     1      21.976 -17.431  24.914  1.00  0.00     0.222 C 
BRANCH  10  11
HETATM   11  C2  UNL     1      22.845 -16.607  24.086  1.00  0.00     0.234 C 
HETATM   12  N1  UNL     1      23.730 -15.681  24.691  1.00  0.00    -0.364 N 
HETATM   13  C1  UNL     1      24.602 -14.851  23.876  1.00  0.00     0.149 C 
ATOM     14  H1  UNL     1      23.755 -15.595  25.707  1.00  0.00     0.161 HD
HETATM   15  O1  UNL     1      22.843 -16.684  22.839  1.00  0.00    -0.272 OA
ENDBRANCH  10  11
ENDBRANCH   8  10
ENDBRANCH   7   8
BRANCH   7  16
HETATM   16  C18 UNL     1      19.371 -14.834  25.426  1.00  0.00     0.041 C 
HETATM   17  C19 UNL     1      19.230 -13.625  24.541  1.00  0.00     0.011 C 
HETATM   18  C20 UNL     1      20.555 -13.204  23.956  1.00  0.00     0.001 C 
HETATM   19  C21 UNL     1      21.515 -12.930  25.079  1.00  0.00     0.000 C 
HETATM   20  C22 UNL     1      20.814 -13.024  26.391  1.00  0.00     0.001 C 
HETATM   21  C23 UNL     1      20.125 -14.340  26.656  1.00  0.00     0.011 C 
ENDBRANCH   7  16
ENDBRANCH   1   7
BRANCH   6  22
HETATM   22  C9  UNL     1      16.015 -18.081  23.400  1.00  0.00     0.241 C 
HETATM   23  O3  UNL     1      14.969 -18.433  24.000  1.00  0.00    -0.271 OA
HETATM   24  N4  UNL     1      15.858 -17.072  22.399  1.00  0.00    -0.355 N 
ATOM     25  H4  UNL     1      16.689 -16.766  21.893  1.00  0.00     0.162 HD
BRANCH  24  26
HETATM   26  C10 UNL     1      14.591 -16.458  22.060  1.00  0.00     0.161 C 
BRANCH  26  27
HETATM   27  C11 UNL     1      14.876 -15.091  21.584  1.00  0.00    -0.040 A 
HETATM   28  C12 UNL     1      16.118 -14.755  21.114  1.00  0.00     0.010 A 
HETATM   29  C13 UNL     1      16.365 -13.477  20.674  1.00  0.00     0.015 A 
HETATM   30  C14 UNL     1      15.387 -12.474  20.681  1.00  0.00     0.004 A 
HETATM   31  C16 UNL     1      14.153 -12.850  21.161  1.00  0.00     0.015 A 
HETATM   32  C17 UNL     1      13.890 -14.147  21.611  1.00  0.00     0.010 A 
BRANCH  30  33
HETATM   33  C15 UNL     1      15.708 -11.135  20.202  1.00  0.00     0.120 C 
HETATM   34  N5  UNL     1      16.619 -11.002  19.122  1.00  0.00    -0.082 NA
HETATM   35  N6  UNL     1      15.200 -10.098  20.720  1.00  0.00    -0.387 N 
ATOM     36  H62 UNL     1      14.546 -10.193  21.497  1.00  0.00     0.157 HD
ATOM     37  H61 UNL     1      15.425  -9.161  20.385  1.00  0.00     0.157 HD
ENDBRANCH  30  33
ENDBRANCH  26  27
ENDBRANCH  24  26
ENDBRANCH   6  22
TORSDOF 9
ENDMDL
