MODEL 3
REMARK VINA RESULT: -8.898371002      1.978      2.600
REMARK  11 active torsions:
REMARK  status: ('A' for Active; 'I' for Inactive)
REMARK    1  A    between atoms: C1_2  and  C2_6 
REMARK    2  A    between atoms: C5_9  and  C6_10 
REMARK    3  A    between atoms: C6_10  and  N3_11 
REMARK       I    between atoms: N3_11  and  C7_13 
REMARK    4  A    between atoms: C7_13  and  C8_15 
REMARK    5  A    between atoms: N4_18  and  C11_19 
REMARK    6  A    between atoms: C11_19  and  O2_20 
REMARK    7  A    between atoms: C11_19  and  C12_22 
REMARK    8  A    between atoms: C12_22  and  N5_23 
REMARK    9  A    between atoms: C12_22  and  C15_30 
REMARK   10  A    between atoms: N5_23  and  C13_26 
REMARK   11  A    between atoms: C13_26  and  C14_27 
ROOT
HETATM    1  C8  UNL     1      18.806 -12.524  21.178  1.00  0.00     0.179 C 
HETATM    2  C9  UNL     1      19.875 -11.979  20.200  1.00  0.00     0.055 C 
HETATM    3  C10 UNL     1      19.878 -13.423  19.773  1.00  0.00     0.128 C 
HETATM    4  N4  UNL     1      19.541 -13.750  21.142  1.00  0.00    -0.350 N 
ENDROOT
BRANCH   4   5
HETATM    5  C11 UNL     1      19.860 -14.808  22.007  1.00  0.00     0.146 C 
BRANCH   5   6
HETATM    6  O2  UNL     1      20.815 -15.597  21.603  1.00  0.00    -0.348 OA
ATOM      7  H2  UNL     1      21.112 -16.240  22.237  1.00  0.00     0.219 HD
ENDBRANCH   5   6
BRANCH   5   8
HETATM    8  C12 UNL     1      19.232 -15.117  23.309  1.00  0.00     0.264 C 
BRANCH   8   9
HETATM    9  N5  UNL     1      17.799 -15.201  23.236  1.00  0.00    -0.055 N 
ATOM     10  H52 UNL     1      17.362 -15.119  24.154  1.00  0.00     0.278 HD
ATOM     11  H51 UNL     1      17.388 -14.375  22.802  1.00  0.00     0.278 HD
BRANCH   9  12
HETATM   12  C13 UNL     1      17.404 -16.449  22.540  1.00  0.00     0.332 C 
BRANCH  12  13
HETATM   13  C14 UNL     1      16.345 -17.137  23.281  1.00  0.00     0.256 C 
HETATM   14  N6  UNL     1      15.024 -17.136  22.798  1.00  0.00    -0.061 NA
HETATM   15  O3  UNL     1      16.606 -17.738  24.360  1.00  0.00    -0.275 OA
ENDBRANCH  12  13
ENDBRANCH   9  12
ENDBRANCH   8   9
BRANCH   8  16
HETATM   16  C15 UNL     1      19.719 -14.290  24.440  1.00  0.00     0.024 C 
HETATM   17  C16 UNL     1      20.836 -13.333  24.126  1.00  0.00     0.007 C 
HETATM   18  C17 UNL     1      20.965 -12.437  25.354  1.00  0.00     0.000 C 
HETATM   19  C18 UNL     1      21.254 -13.181  26.611  1.00  0.00     0.000 C 
HETATM   20  C19 UNL     1      20.170 -14.204  26.844  1.00  0.00     0.000 C 
HETATM   21  C20 UNL     1      20.180 -15.117  25.612  1.00  0.00     0.007 C 
ENDBRANCH   8  16
ENDBRANCH   5   8
ENDBRANCH   4   5
BRANCH   1  22
HETATM   22  C7  UNL     1      17.442 -12.500  20.638  1.00  0.00     0.240 C 
HETATM   23  N3  UNL     1      16.874 -11.269  20.237  1.00  0.00    -0.355 N 
ATOM     24  H3  UNL     1      17.455 -10.437  20.341  1.00  0.00     0.162 HD
HETATM   25  O1  UNL     1      16.787 -13.546  20.536  1.00  0.00    -0.271 OA
BRANCH  23  26
HETATM   26  C6  UNL     1      15.558 -11.079  19.699  1.00  0.00     0.161 C 
BRANCH  26  27
HETATM   27  C5  UNL     1      14.498 -10.959  20.704  1.00  0.00    -0.040 A 
HETATM   28  C4  UNL     1      14.011  -9.770  21.187  1.00  0.00     0.010 A 
HETATM   29  C3  UNL     1      12.999  -9.730  22.115  1.00  0.00     0.015 A 
HETATM   30  C2  UNL     1      12.412 -10.884  22.617  1.00  0.00     0.004 A 
HETATM   31  C22 UNL     1      12.890 -12.087  22.142  1.00  0.00     0.015 A 
HETATM   32  C21 UNL     1      13.904 -12.107  21.212  1.00  0.00     0.010 A 
BRANCH  30  33
HETATM   33  C1  UNL     1      11.347 -10.790  23.590  1.00  0.00     0.120 C 
HETATM   34  N1  UNL     1      11.224  -9.594  24.359  1.00  0.00    -0.082 NA
HETATM   35  N2  UNL     1      10.516 -11.731  23.796  1.00  0.00    -0.387 N 
ATOM     36  H22 UNL     1       9.764 -11.665  24.483  1.00  0.00     0.157 HD
ATOM     37  H21 UNL     1      10.604 -12.586  23.247  1.00  0.00     0.157 HD
ENDBRANCH  30  33
ENDBRANCH  26  27
ENDBRANCH  23  26
ENDBRANCH   1  22
TORSDOF 11
ENDMDL
