MODEL 13
REMARK VINA RESULT: -8.278523258      2.679      5.174
REMARK  11 active torsions:
REMARK  status: ('A' for Active; 'I' for Inactive)
REMARK    1  A    between atoms: C1_2  and  C2_6 
REMARK    2  A    between atoms: C5_9  and  C6_10 
REMARK    3  A    between atoms: C6_10  and  N3_11 
REMARK       I    between atoms: N3_11  and  C7_13 
REMARK    4  A    between atoms: C7_13  and  C8_15 
REMARK    5  A    between atoms: N4_18  and  C11_19 
REMARK    6  A    between atoms: C11_19  and  O2_20 
REMARK    7  A    between atoms: C11_19  and  C12_22 
REMARK    8  A    between atoms: C12_22  and  N5_23 
REMARK    9  A    between atoms: C12_22  and  C15_30 
REMARK   10  A    between atoms: N5_23  and  C13_26 
REMARK   11  A    between atoms: C13_26  and  C14_27 
ROOT
HETATM    1  C8  UNL     1      21.015 -17.757  22.583  1.00  0.00     0.179 C 
HETATM    2  C9  UNL     1      20.957 -19.239  22.140  1.00  0.00     0.055 C 
HETATM    3  C10 UNL     1      19.483 -18.988  22.321  1.00  0.00     0.128 C 
HETATM    4  N4  UNL     1      19.848 -18.045  23.357  1.00  0.00    -0.350 N 
ENDROOT
BRANCH   4   5
HETATM    5  C11 UNL     1      19.277 -17.658  24.579  1.00  0.00     0.146 C 
BRANCH   5   6
HETATM    6  O2  UNL     1      19.324 -18.548  25.530  1.00  0.00    -0.348 OA
ATOM      7  H2  UNL     1      18.549 -18.607  26.076  1.00  0.00     0.219 HD
ENDBRANCH   5   6
BRANCH   5   8
HETATM    8  C12 UNL     1      18.635 -16.365  24.894  1.00  0.00     0.264 C 
BRANCH   8   9
HETATM    9  N5  UNL     1      17.539 -16.053  24.018  1.00  0.00    -0.055 N 
ATOM     10  H52 UNL     1      17.079 -15.180  24.275  1.00  0.00     0.278 HD
ATOM     11  H51 UNL     1      17.858 -15.783  23.087  1.00  0.00     0.278 HD
BRANCH   9  12
HETATM   12  C13 UNL     1      16.592 -17.191  23.974  1.00  0.00     0.332 C 
BRANCH  12  13
HETATM   13  C14 UNL     1      15.895 -17.230  22.686  1.00  0.00     0.256 C 
HETATM   14  N6  UNL     1      14.557 -16.809  22.590  1.00  0.00    -0.061 NA
HETATM   15  O3  UNL     1      16.488 -17.642  21.651  1.00  0.00    -0.275 OA
ENDBRANCH  12  13
ENDBRANCH   9  12
ENDBRANCH   8   9
BRANCH   8  16
HETATM   16  C15 UNL     1      19.581 -15.238  25.085  1.00  0.00     0.024 C 
HETATM   17  C16 UNL     1      19.944 -14.912  26.507  1.00  0.00     0.007 C 
HETATM   18  C17 UNL     1      21.102 -13.923  26.419  1.00  0.00     0.000 C 
HETATM   19  C18 UNL     1      20.774 -12.681  25.667  1.00  0.00     0.000 C 
HETATM   20  C19 UNL     1      20.315 -13.047  24.278  1.00  0.00     0.000 C 
HETATM   21  C20 UNL     1      19.093 -13.955  24.462  1.00  0.00     0.007 C 
ENDBRANCH   8  16
ENDBRANCH   5   8
ENDBRANCH   4   5
BRANCH   1  22
HETATM   22  C7  UNL     1      20.910 -16.803  21.473  1.00  0.00     0.240 C 
HETATM   23  N3  UNL     1      20.247 -15.571  21.675  1.00  0.00    -0.355 N 
ATOM     24  H3  UNL     1      19.869 -15.398  22.606  1.00  0.00     0.162 HD
HETATM   25  O1  UNL     1      21.392 -17.072  20.364  1.00  0.00    -0.271 OA
BRANCH  23  26
HETATM   26  C6  UNL     1      20.055 -14.542  20.695  1.00  0.00     0.161 C 
BRANCH  26  27
HETATM   27  C5  UNL     1      18.793 -13.807  20.818  1.00  0.00    -0.040 A 
HETATM   28  C4  UNL     1      17.576 -14.384  21.081  1.00  0.00     0.010 A 
HETATM   29  C3  UNL     1      16.434 -13.631  21.203  1.00  0.00     0.015 A 
HETATM   30  C2  UNL     1      16.442 -12.249  21.069  1.00  0.00     0.004 A 
HETATM   31  C22 UNL     1      17.658 -11.653  20.804  1.00  0.00     0.015 A 
HETATM   32  C21 UNL     1      18.791 -12.424  20.685  1.00  0.00     0.010 A 
BRANCH  30  33
HETATM   33  C1  UNL     1      15.214 -11.500  21.211  1.00  0.00     0.120 C 
HETATM   34  N1  UNL     1      14.141 -12.077  21.953  1.00  0.00    -0.082 NA
HETATM   35  N2  UNL     1      15.046 -10.348  20.697  1.00  0.00    -0.387 N 
ATOM     36  H22 UNL     1      14.178  -9.819  20.797  1.00  0.00     0.157 HD
ATOM     37  H21 UNL     1      15.813  -9.935  20.166  1.00  0.00     0.157 HD
ENDBRANCH  30  33
ENDBRANCH  26  27
ENDBRANCH  23  26
ENDBRANCH   1  22
TORSDOF 11
ENDMDL
