MODEL 8
REMARK VINA RESULT: -8.536990379      2.860      8.702
REMARK  11 active torsions:
REMARK  status: ('A' for Active; 'I' for Inactive)
REMARK    1  A    between atoms: C1_2  and  C2_6 
REMARK    2  A    between atoms: C5_9  and  C6_10 
REMARK    3  A    between atoms: C6_10  and  N3_11 
REMARK       I    between atoms: N3_11  and  C7_13 
REMARK    4  A    between atoms: C7_13  and  C8_15 
REMARK    5  A    between atoms: N4_18  and  C11_19 
REMARK    6  A    between atoms: C11_19  and  O2_20 
REMARK    7  A    between atoms: C11_19  and  C12_22 
REMARK    8  A    between atoms: C12_22  and  N5_23 
REMARK    9  A    between atoms: C12_22  and  C15_30 
REMARK   10  A    between atoms: N5_23  and  C13_26 
REMARK   11  A    between atoms: C13_26  and  C14_27 
ROOT
HETATM    1  C8  UNL     1      18.976 -13.294  21.017  1.00  0.00     0.179 C 
HETATM    2  C9  UNL     1      19.488 -12.329  19.919  1.00  0.00     0.055 C 
HETATM    3  C10 UNL     1      18.707 -11.347  20.751  1.00  0.00     0.128 C 
HETATM    4  N4  UNL     1      17.826 -12.446  21.085  1.00  0.00    -0.350 N 
ENDROOT
BRANCH   4   5
HETATM    5  C11 UNL     1      16.448 -12.564  21.323  1.00  0.00     0.146 C 
BRANCH   5   6
HETATM    6  O2  UNL     1      16.116 -13.267  22.369  1.00  0.00    -0.348 OA
ATOM      7  H2  UNL     1      15.377 -12.937  22.867  1.00  0.00     0.219 HD
ENDBRANCH   5   6
BRANCH   5   8
HETATM    8  C12 UNL     1      15.351 -11.982  20.522  1.00  0.00     0.264 C 
BRANCH   8   9
HETATM    9  N5  UNL     1      15.821 -11.171  19.431  1.00  0.00    -0.055 N 
ATOM     10  H52 UNL     1      15.221 -10.362  19.269  1.00  0.00     0.278 HD
ATOM     11  H51 UNL     1      16.679 -10.674  19.666  1.00  0.00     0.278 HD
BRANCH   9  12
HETATM   12  C13 UNL     1      15.974 -12.005  18.216  1.00  0.00     0.332 C 
BRANCH  12  13
HETATM   13  C14 UNL     1      15.936 -11.171  17.013  1.00  0.00     0.256 C 
HETATM   14  N6  UNL     1      17.116 -10.904  16.296  1.00  0.00    -0.061 NA
HETATM   15  O3  UNL     1      14.845 -10.683  16.607  1.00  0.00    -0.275 OA
ENDBRANCH  12  13
ENDBRANCH   9  12
ENDBRANCH   8   9
BRANCH   8  16
HETATM   16  C15 UNL     1      14.280 -11.337  21.320  1.00  0.00     0.024 C 
HETATM   17  C16 UNL     1      12.924 -11.986  21.255  1.00  0.00     0.007 C 
HETATM   18  C17 UNL     1      12.094 -11.312  22.341  1.00  0.00     0.000 C 
HETATM   19  C18 UNL     1      11.974  -9.837  22.177  1.00  0.00     0.000 C 
HETATM   20  C19 UNL     1      13.353  -9.227  22.143  1.00  0.00     0.000 C 
HETATM   21  C20 UNL     1      14.079  -9.887  20.964  1.00  0.00     0.007 C 
ENDBRANCH   8  16
ENDBRANCH   5   8
ENDBRANCH   4   5
BRANCH   1  22
HETATM   22  C7  UNL     1      19.859 -13.385  22.185  1.00  0.00     0.240 C 
HETATM   23  N3  UNL     1      19.294 -13.462  23.479  1.00  0.00    -0.355 N 
ATOM     24  H3  UNL     1      18.276 -13.457  23.539  1.00  0.00     0.162 HD
HETATM   25  O1  UNL     1      21.089 -13.388  22.046  1.00  0.00    -0.271 OA
BRANCH  23  26
HETATM   26  C6  UNL     1      20.017 -13.548  24.714  1.00  0.00     0.161 C 
BRANCH  26  27
HETATM   27  C5  UNL     1      20.064 -14.889  25.304  1.00  0.00    -0.040 A 
HETATM   28  C4  UNL     1      19.021 -15.487  25.967  1.00  0.00     0.010 A 
HETATM   29  C3  UNL     1      19.127 -16.757  26.478  1.00  0.00     0.015 A 
HETATM   30  C2  UNL     1      20.289 -17.508  26.356  1.00  0.00     0.004 A 
HETATM   31  C22 UNL     1      21.347 -16.921  25.693  1.00  0.00     0.015 A 
HETATM   32  C21 UNL     1      21.221 -15.648  25.188  1.00  0.00     0.010 A 
BRANCH  30  33
HETATM   33  C1  UNL     1      20.350 -18.843  26.908  1.00  0.00     0.120 C 
HETATM   34  N1  UNL     1      21.431 -19.694  26.527  1.00  0.00    -0.082 NA
HETATM   35  N2  UNL     1      19.478 -19.296  27.715  1.00  0.00    -0.387 N 
ATOM     36  H22 UNL     1      19.521 -20.238  28.105  1.00  0.00     0.157 HD
ATOM     37  H21 UNL     1      18.705 -18.688  27.987  1.00  0.00     0.157 HD
ENDBRANCH  30  33
ENDBRANCH  26  27
ENDBRANCH  23  26
ENDBRANCH   1  22
TORSDOF 11
ENDMDL
