MODEL 4
REMARK VINA RESULT: -8.877414057      1.756      2.605
REMARK  11 active torsions:
REMARK  status: ('A' for Active; 'I' for Inactive)
REMARK    1  A    between atoms: C1_2  and  C2_6 
REMARK    2  A    between atoms: C5_9  and  C6_10 
REMARK    3  A    between atoms: C6_10  and  N3_11 
REMARK       I    between atoms: N3_11  and  C7_13 
REMARK    4  A    between atoms: C7_13  and  C8_15 
REMARK    5  A    between atoms: N4_18  and  C11_19 
REMARK    6  A    between atoms: C11_19  and  O2_20 
REMARK    7  A    between atoms: C11_19  and  C12_22 
REMARK    8  A    between atoms: C12_22  and  N5_23 
REMARK    9  A    between atoms: C12_22  and  C15_30 
REMARK   10  A    between atoms: N5_23  and  C13_26 
REMARK   11  A    between atoms: C13_26  and  C14_27 
ROOT
HETATM    1  C8  UNL     1      18.283 -12.253  21.388  1.00  0.00     0.179 C 
HETATM    2  C9  UNL     1      19.108 -11.641  20.229  1.00  0.00     0.055 C 
HETATM    3  C10 UNL     1      19.081 -13.075  19.770  1.00  0.00     0.128 C 
HETATM    4  N4  UNL     1      19.044 -13.443  21.169  1.00  0.00    -0.350 N 
ENDROOT
BRANCH   4   5
HETATM    5  C11 UNL     1      19.574 -14.503  21.920  1.00  0.00     0.146 C 
BRANCH   5   6
HETATM    6  O2  UNL     1      20.568 -15.142  21.370  1.00  0.00    -0.348 OA
ATOM      7  H2  UNL     1      21.291 -15.352  21.949  1.00  0.00     0.219 HD
ENDBRANCH   5   6
BRANCH   5   8
HETATM    8  C12 UNL     1      19.128 -14.964  23.252  1.00  0.00     0.264 C 
BRANCH   8   9
HETATM    9  N5  UNL     1      17.707 -15.175  23.326  1.00  0.00    -0.055 N 
ATOM     10  H52 UNL     1      17.358 -15.101  24.282  1.00  0.00     0.278 HD
ATOM     11  H51 UNL     1      17.183 -14.402  22.917  1.00  0.00     0.278 HD
BRANCH   9  12
HETATM   12  C13 UNL     1      17.360 -16.475  22.705  1.00  0.00     0.332 C 
BRANCH  12  13
HETATM   13  C14 UNL     1      16.367 -16.288  21.645  1.00  0.00     0.256 C 
HETATM   14  N6  UNL     1      14.994 -16.374  21.935  1.00  0.00    -0.061 NA
HETATM   15  O3  UNL     1      16.733 -16.048  20.462  1.00  0.00    -0.275 OA
ENDBRANCH  12  13
ENDBRANCH   9  12
ENDBRANCH   8   9
BRANCH   8  16
HETATM   16  C15 UNL     1      19.670 -14.182  24.389  1.00  0.00     0.024 C 
HETATM   17  C16 UNL     1      20.804 -13.247  24.068  1.00  0.00     0.007 C 
HETATM   18  C17 UNL     1      20.993 -12.389  25.314  1.00  0.00     0.000 C 
HETATM   19  C18 UNL     1      21.298 -13.173  26.542  1.00  0.00     0.000 C 
HETATM   20  C19 UNL     1      20.193 -14.172  26.780  1.00  0.00     0.000 C 
HETATM   21  C20 UNL     1      20.141 -15.052  25.525  1.00  0.00     0.007 C 
ENDBRANCH   8  16
ENDBRANCH   5   8
ENDBRANCH   4   5
BRANCH   1  22
HETATM   22  C7  UNL     1      16.837 -12.280  21.136  1.00  0.00     0.240 C 
HETATM   23  N3  UNL     1      16.318 -11.623  19.997  1.00  0.00    -0.355 N 
ATOM     24  H3  UNL     1      16.989 -11.156  19.387  1.00  0.00     0.162 HD
HETATM   25  O1  UNL     1      16.074 -12.866  21.914  1.00  0.00    -0.271 OA
BRANCH  23  26
HETATM   26  C6  UNL     1      14.937 -11.553  19.617  1.00  0.00     0.161 C 
BRANCH  26  27
HETATM   27  C5  UNL     1      14.031 -11.113  20.681  1.00  0.00    -0.040 A 
HETATM   28  C4  UNL     1      13.077 -11.903  21.272  1.00  0.00     0.010 A 
HETATM   29  C3  UNL     1      12.274 -11.431  22.281  1.00  0.00     0.015 A 
HETATM   30  C2  UNL     1      12.379 -10.132  22.761  1.00  0.00     0.004 A 
HETATM   31  C22 UNL     1      13.332  -9.324  22.177  1.00  0.00     0.015 A 
HETATM   32  C21 UNL     1      14.127  -9.815  21.168  1.00  0.00     0.010 A 
BRANCH  30  33
HETATM   33  C1  UNL     1      11.513  -9.682  23.828  1.00  0.00     0.120 C 
HETATM   34  N1  UNL     1      11.554  -8.308  24.211  1.00  0.00    -0.082 NA
HETATM   35  N2  UNL     1      10.720 -10.461  24.447  1.00  0.00    -0.387 N 
ATOM     36  H22 UNL     1      10.109 -10.143  25.200  1.00  0.00     0.157 HD
ATOM     37  H21 UNL     1      10.691 -11.443  24.174  1.00  0.00     0.157 HD
ENDBRANCH  30  33
ENDBRANCH  26  27
ENDBRANCH  23  26
ENDBRANCH   1  22
TORSDOF 11
ENDMDL
