MODEL 17
REMARK VINA RESULT: -8.080140354      2.566      3.291
REMARK  11 active torsions:
REMARK  status: ('A' for Active; 'I' for Inactive)
REMARK    1  A    between atoms: C1_2  and  C2_6 
REMARK    2  A    between atoms: C5_9  and  C6_10 
REMARK    3  A    between atoms: C6_10  and  N3_11 
REMARK       I    between atoms: N3_11  and  C7_13 
REMARK    4  A    between atoms: C7_13  and  C8_15 
REMARK    5  A    between atoms: N4_18  and  C11_19 
REMARK    6  A    between atoms: C11_19  and  O2_20 
REMARK    7  A    between atoms: C11_19  and  C12_22 
REMARK    8  A    between atoms: C12_22  and  N5_23 
REMARK    9  A    between atoms: C12_22  and  C15_30 
REMARK   10  A    between atoms: N5_23  and  C13_26 
REMARK   11  A    between atoms: C13_26  and  C14_27 
ROOT
HETATM    1  C8  UNL     1      16.872 -17.551  22.687  1.00  0.00     0.179 C 
HETATM    2  C9  UNL     1      17.140 -18.476  23.899  1.00  0.00     0.055 C 
HETATM    3  C10 UNL     1      17.307 -17.143  24.578  1.00  0.00     0.128 C 
HETATM    4  N4  UNL     1      17.783 -16.640  23.307  1.00  0.00    -0.350 N 
ENDROOT
BRANCH   4   5
HETATM    5  C11 UNL     1      18.747 -15.695  22.923  1.00  0.00     0.146 C 
BRANCH   5   6
HETATM    6  O2  UNL     1      18.295 -14.668  22.260  1.00  0.00    -0.348 OA
ATOM      7  H2  UNL     1      18.654 -14.551  21.389  1.00  0.00     0.219 HD
ENDBRANCH   5   6
BRANCH   5   8
HETATM    8  C12 UNL     1      20.200 -15.745  23.186  1.00  0.00     0.264 C 
BRANCH   8   9
HETATM    9  N5  UNL     1      20.709 -17.086  23.280  1.00  0.00    -0.055 N 
ATOM     10  H52 UNL     1      21.598 -17.125  23.779  1.00  0.00     0.278 HD
ATOM     11  H51 UNL     1      20.157 -17.661  23.917  1.00  0.00     0.278 HD
BRANCH   9  12
HETATM   12  C13 UNL     1      20.801 -17.684  21.928  1.00  0.00     0.332 C 
BRANCH  12  13
HETATM   13  C14 UNL     1      22.136 -17.473  21.363  1.00  0.00     0.256 C 
HETATM   14  N6  UNL     1      22.325 -17.471  19.970  1.00  0.00    -0.061 NA
HETATM   15  O3  UNL     1      23.129 -17.290  22.120  1.00  0.00    -0.275 OA
ENDBRANCH  12  13
ENDBRANCH   9  12
ENDBRANCH   8   9
BRANCH   8  16
HETATM   16  C15 UNL     1      20.658 -14.860  24.285  1.00  0.00     0.024 C 
HETATM   17  C16 UNL     1      19.800 -14.840  25.520  1.00  0.00     0.007 C 
HETATM   18  C17 UNL     1      20.609 -14.084  26.569  1.00  0.00     0.000 C 
HETATM   19  C18 UNL     1      20.970 -12.698  26.164  1.00  0.00     0.000 C 
HETATM   20  C19 UNL     1      21.741 -12.744  24.868  1.00  0.00     0.000 C 
HETATM   21  C20 UNL     1      20.818 -13.426  23.851  1.00  0.00     0.007 C 
ENDBRANCH   8  16
ENDBRANCH   5   8
ENDBRANCH   4   5
BRANCH   1  22
HETATM   22  C7  UNL     1      15.465 -17.157  22.543  1.00  0.00     0.240 C 
HETATM   23  N3  UNL     1      15.150 -15.843  22.126  1.00  0.00    -0.355 N 
ATOM     24  H3  UNL     1      15.934 -15.219  21.936  1.00  0.00     0.162 HD
HETATM   25  O1  UNL     1      14.558 -17.963  22.789  1.00  0.00    -0.271 OA
BRANCH  23  26
HETATM   26  C6  UNL     1      13.833 -15.306  21.946  1.00  0.00     0.161 C 
BRANCH  26  27
HETATM   27  C5  UNL     1      13.785 -13.852  21.767  1.00  0.00    -0.040 A 
HETATM   28  C4  UNL     1      14.867 -13.066  21.458  1.00  0.00     0.010 A 
HETATM   29  C3  UNL     1      14.747 -11.709  21.285  1.00  0.00     0.015 A 
HETATM   30  C2  UNL     1      13.528 -11.054  21.412  1.00  0.00     0.004 A 
HETATM   31  C22 UNL     1      12.431 -11.829  21.724  1.00  0.00     0.015 A 
HETATM   32  C21 UNL     1      12.572 -13.187  21.893  1.00  0.00     0.010 A 
BRANCH  30  33
HETATM   33  C1  UNL     1      13.451  -9.624  21.216  1.00  0.00     0.120 C 
HETATM   34  N1  UNL     1      13.449  -8.774  22.363  1.00  0.00    -0.082 NA
HETATM   35  N2  UNL     1      13.379  -9.089  20.064  1.00  0.00    -0.387 N 
ATOM     36  H22 UNL     1      13.325  -8.079  19.926  1.00  0.00     0.157 HD
ATOM     37  H21 UNL     1      13.380  -9.696  19.245  1.00  0.00     0.157 HD
ENDBRANCH  30  33
ENDBRANCH  26  27
ENDBRANCH  23  26
ENDBRANCH   1  22
TORSDOF 11
ENDMDL
