MODEL 5
REMARK VINA RESULT: -8.462343723      1.952      5.326
REMARK  10 active torsions:
REMARK  status: ('A' for Active; 'I' for Inactive)
REMARK    1  A    between atoms: C2_2  and  N1_3 
REMARK       I    between atoms: N1_3  and  C3_5 
REMARK    2  A    between atoms: C3_5  and  C4_7 
REMARK    3  A    between atoms: C4_7  and  N2_8 
REMARK    4  A    between atoms: N2_8  and  C5_10 
REMARK    5  A    between atoms: C5_10  and  C6_11 
REMARK    6  A    between atoms: C5_10  and  C19_33 
REMARK       I    between atoms: C6_11  and  N3_13 
REMARK    7  A    between atoms: C9_16  and  C10_17 
REMARK       I    between atoms: C10_17  and  N4_19 
REMARK    8  A    between atoms: N4_19  and  C11_21 
REMARK    9  A    between atoms: C11_21  and  C12_22 
REMARK   10  A    between atoms: C15_25  and  C16_26 
ROOT
HETATM    1  C6  UNL     1      17.051 -16.103  21.321  1.00  0.00     0.267 C 
HETATM    2  O2  UNL     1      16.429 -15.690  20.271  1.00  0.00    -0.266 OA
HETATM    3  N3  UNL     1      16.516 -17.230  21.975  1.00  0.00    -0.333 N 
HETATM    4  C7  UNL     1      16.694 -18.137  23.077  1.00  0.00     0.129 C 
HETATM    5  C8  UNL     1      15.158 -18.208  23.142  1.00  0.00     0.055 C 
HETATM    6  C9  UNL     1      15.305 -18.044  21.662  1.00  0.00     0.181 C 
ENDROOT
BRANCH   1   7
HETATM    7  C5  UNL     1      18.252 -15.325  21.686  1.00  0.00     0.078 C 
BRANCH   7   8
HETATM    8  N2  UNL     1      18.665 -15.394  23.042  1.00  0.00    -0.380 N 
ATOM      9  H2  UNL     1      18.088 -15.010  23.790  1.00  0.00     0.160 HD
BRANCH   8  10
HETATM   10  C4  UNL     1      19.916 -16.021  23.322  1.00  0.00     0.222 C 
BRANCH  10  11
HETATM   11  C3  UNL     1      20.813 -15.018  23.992  1.00  0.00     0.235 C 
HETATM   12  N1  UNL     1      20.241 -13.821  24.457  1.00  0.00    -0.360 N 
ATOM     13  H1  UNL     1      19.244 -13.640  24.342  1.00  0.00     0.162 HD
HETATM   14  O1  UNL     1      22.026 -15.307  24.098  1.00  0.00    -0.272 OA
BRANCH  12  15
HETATM   15  C2  UNL     1      21.102 -12.851  25.104  1.00  0.00     0.118 C 
HETATM   16  C1  UNL     1      21.057 -13.057  26.602  1.00  0.00     0.026 C 
ENDBRANCH  12  15
ENDBRANCH  10  11
ENDBRANCH   8  10
ENDBRANCH   7   8
BRANCH   7  17
HETATM   17  C19 UNL     1      18.323 -14.006  21.007  1.00  0.00     0.041 C 
HETATM   18  C20 UNL     1      19.772 -13.557  20.761  1.00  0.00     0.011 C 
HETATM   19  C21 UNL     1      19.707 -12.341  19.854  1.00  0.00     0.001 C 
HETATM   20  C22 UNL     1      18.902 -11.237  20.476  1.00  0.00     0.000 C 
HETATM   21  C23 UNL     1      17.462 -11.749  20.610  1.00  0.00     0.001 C 
HETATM   22  C24 UNL     1      17.566 -12.889  21.629  1.00  0.00     0.011 C 
ENDBRANCH   7  17
ENDBRANCH   1   7
BRANCH   6  23
HETATM   23  C10 UNL     1      14.281 -17.246  20.987  1.00  0.00     0.241 C 
HETATM   24  O3  UNL     1      13.834 -17.629  19.882  1.00  0.00    -0.271 OA
HETATM   25  N4  UNL     1      13.777 -16.047  21.548  1.00  0.00    -0.355 N 
ATOM     26  H4  UNL     1      14.141 -15.736  22.449  1.00  0.00     0.162 HD
BRANCH  25  27
HETATM   27  C11 UNL     1      12.765 -15.245  20.891  1.00  0.00     0.161 C 
BRANCH  27  28
HETATM   28  C12 UNL     1      13.037 -13.789  21.024  1.00  0.00    -0.040 A 
HETATM   29  C13 UNL     1      13.649 -13.082  20.019  1.00  0.00     0.010 A 
HETATM   30  C14 UNL     1      13.903 -11.718  20.157  1.00  0.00     0.015 A 
HETATM   31  C15 UNL     1      13.557 -11.030  21.289  1.00  0.00     0.004 A 
HETATM   32  C17 UNL     1      12.937 -11.771  22.299  1.00  0.00     0.015 A 
HETATM   33  C18 UNL     1      12.681 -13.100  22.182  1.00  0.00     0.010 A 
BRANCH  31  34
HETATM   34  C16 UNL     1      13.808  -9.612  21.467  1.00  0.00     0.120 C 
HETATM   35  N5  UNL     1      13.249  -8.965  22.610  1.00  0.00    -0.082 NA
HETATM   36  N6  UNL     1      14.502  -8.921  20.654  1.00  0.00    -0.387 N 
ATOM     37  H62 UNL     1      14.902  -9.383  19.838  1.00  0.00     0.157 HD
ATOM     38  H61 UNL     1      14.680  -7.924  20.778  1.00  0.00     0.157 HD
ENDBRANCH  31  34
ENDBRANCH  27  28
ENDBRANCH  25  27
ENDBRANCH   6  23
TORSDOF 10
ENDMDL
