MODEL 1
REMARK VINA RESULT: -9.615540614      0.000      0.000
REMARK  10 active torsions:
REMARK  status: ('A' for Active; 'I' for Inactive)
REMARK    1  A    between atoms: C2_2  and  N1_3 
REMARK       I    between atoms: N1_3  and  C3_5 
REMARK    2  A    between atoms: C3_5  and  C4_7 
REMARK    3  A    between atoms: C4_7  and  N2_8 
REMARK    4  A    between atoms: N2_8  and  C5_10 
REMARK    5  A    between atoms: C5_10  and  C6_11 
REMARK    6  A    between atoms: C5_10  and  C19_33 
REMARK       I    between atoms: C6_11  and  N3_13 
REMARK    7  A    between atoms: C9_16  and  C10_17 
REMARK       I    between atoms: C10_17  and  N4_19 
REMARK    8  A    between atoms: N4_19  and  C11_21 
REMARK    9  A    between atoms: C11_21  and  C12_22 
REMARK   10  A    between atoms: C15_25  and  C16_26 
ROOT
HETATM    1  C6  UNL     1      18.342 -13.415  22.182  1.00  0.00     0.267 C 
HETATM    2  O2  UNL     1      17.099 -13.080  22.205  1.00  0.00    -0.266 OA
HETATM    3  N3  UNL     1      19.165 -12.744  21.257  1.00  0.00    -0.333 N 
HETATM    4  C7  UNL     1      20.510 -12.622  20.762  1.00  0.00     0.129 C 
HETATM    5  C8  UNL     1      19.876 -12.324  19.391  1.00  0.00     0.055 C 
HETATM    6  C9  UNL     1      18.833 -11.689  20.256  1.00  0.00     0.181 C 
ENDROOT
BRANCH   1   7
HETATM    7  C5  UNL     1      18.726 -14.467  23.146  1.00  0.00     0.078 C 
BRANCH   7   8
HETATM    8  N2  UNL     1      17.810 -15.537  23.315  1.00  0.00    -0.380 N 
ATOM      9  H2  UNL     1      17.375 -15.722  24.220  1.00  0.00     0.160 HD
BRANCH   8  10
HETATM   10  C4  UNL     1      17.518 -16.346  22.176  1.00  0.00     0.222 C 
BRANCH  10  11
HETATM   11  C3  UNL     1      16.029 -16.535  22.095  1.00  0.00     0.235 C 
HETATM   12  N1  UNL     1      15.224 -15.402  21.890  1.00  0.00    -0.360 N 
ATOM     13  H1  UNL     1      15.641 -14.475  21.799  1.00  0.00     0.162 HD
HETATM   14  O1  UNL     1      15.587 -17.700  22.215  1.00  0.00    -0.272 OA
BRANCH  12  15
HETATM   15  C2  UNL     1      13.788 -15.580  21.811  1.00  0.00     0.118 C 
HETATM   16  C1  UNL     1      13.363 -15.614  20.360  1.00  0.00     0.026 C 
ENDBRANCH  12  15
ENDBRANCH  10  11
ENDBRANCH   8  10
ENDBRANCH   7   8
BRANCH   7  17
HETATM   17  C19 UNL     1      19.399 -13.932  24.357  1.00  0.00     0.041 C 
HETATM   18  C20 UNL     1      20.617 -13.063  24.008  1.00  0.00     0.011 C 
HETATM   19  C21 UNL     1      21.057 -12.385  25.293  1.00  0.00     0.001 C 
HETATM   20  C22 UNL     1      21.402 -13.392  26.352  1.00  0.00     0.000 C 
HETATM   21  C23 UNL     1      20.114 -14.155  26.687  1.00  0.00     0.001 C 
HETATM   22  C24 UNL     1      19.787 -14.917  25.399  1.00  0.00     0.011 C 
ENDBRANCH   7  17
ENDBRANCH   1   7
BRANCH   6  23
HETATM   23  C10 UNL     1      17.448 -11.800  19.799  1.00  0.00     0.241 C 
HETATM   24  O3  UNL     1      17.055 -12.872  19.284  1.00  0.00    -0.271 OA
HETATM   25  N4  UNL     1      16.531 -10.727  19.920  1.00  0.00    -0.355 N 
ATOM     26  H4  UNL     1      16.850  -9.854  20.341  1.00  0.00     0.162 HD
BRANCH  25  27
HETATM   27  C11 UNL     1      15.157 -10.821  19.471  1.00  0.00     0.161 C 
BRANCH  27  28
HETATM   28  C12 UNL     1      14.197 -10.773  20.605  1.00  0.00    -0.040 A 
HETATM   29  C13 UNL     1      13.606 -11.914  21.089  1.00  0.00     0.010 A 
HETATM   30  C14 UNL     1      12.703 -11.857  22.150  1.00  0.00     0.015 A 
HETATM   31  C15 UNL     1      12.370 -10.673  22.751  1.00  0.00     0.004 A 
HETATM   32  C17 UNL     1      12.984  -9.525  22.241  1.00  0.00     0.015 A 
HETATM   33  C18 UNL     1      13.865  -9.562  21.208  1.00  0.00     0.010 A 
BRANCH  31  34
HETATM   34  C16 UNL     1      11.434 -10.577  23.855  1.00  0.00     0.120 C 
HETATM   35  N5  UNL     1      11.198  -9.292  24.431  1.00  0.00    -0.082 NA
HETATM   36  N6  UNL     1      10.815 -11.581  24.333  1.00  0.00    -0.387 N 
ATOM     37  H62 UNL     1      10.983 -12.499  23.922  1.00  0.00     0.157 HD
ATOM     38  H61 UNL     1      10.156 -11.514  25.109  1.00  0.00     0.157 HD
ENDBRANCH  31  34
ENDBRANCH  27  28
ENDBRANCH  25  27
ENDBRANCH   6  23
TORSDOF 10
ENDMDL
