MODEL 6
REMARK VINA RESULT: -8.405763751      2.501      7.695
REMARK  10 active torsions:
REMARK  status: ('A' for Active; 'I' for Inactive)
REMARK    1  A    between atoms: C2_2  and  N1_3 
REMARK       I    between atoms: N1_3  and  C3_5 
REMARK    2  A    between atoms: C3_5  and  C4_7 
REMARK    3  A    between atoms: C4_7  and  N2_8 
REMARK    4  A    between atoms: N2_8  and  C5_10 
REMARK    5  A    between atoms: C5_10  and  C6_11 
REMARK    6  A    between atoms: C5_10  and  C19_33 
REMARK       I    between atoms: C6_11  and  N3_13 
REMARK    7  A    between atoms: C9_16  and  C10_17 
REMARK       I    between atoms: C10_17  and  N4_19 
REMARK    8  A    between atoms: N4_19  and  C11_21 
REMARK    9  A    between atoms: C11_21  and  C12_22 
REMARK   10  A    between atoms: C15_25  and  C16_26 
ROOT
HETATM    1  C6  UNL     1      13.340 -14.792  21.624  1.00  0.00     0.267 C 
HETATM    2  O2  UNL     1      13.787 -15.513  22.593  1.00  0.00    -0.266 OA
HETATM    3  N3  UNL     1      12.721 -15.474  20.558  1.00  0.00    -0.333 N 
HETATM    4  C7  UNL     1      12.054 -15.308  19.294  1.00  0.00     0.129 C 
HETATM    5  C8  UNL     1      12.699 -16.646  18.887  1.00  0.00     0.055 C 
HETATM    6  C9  UNL     1      12.501 -16.934  20.342  1.00  0.00     0.181 C 
ENDROOT
BRANCH   1   7
HETATM    7  C5  UNL     1      13.543 -13.338  21.778  1.00  0.00     0.078 C 
BRANCH   7   8
HETATM    8  N2  UNL     1      12.430 -12.507  21.483  1.00  0.00    -0.380 N 
ATOM      9  H2  UNL     1      12.061 -12.436  20.535  1.00  0.00     0.160 HD
BRANCH   8  10
HETATM   10  C4  UNL     1      11.846 -11.777  22.561  1.00  0.00     0.222 C 
BRANCH  10  11
HETATM   11  C3  UNL     1      12.257 -10.336  22.438  1.00  0.00     0.235 C 
HETATM   12  N1  UNL     1      12.338  -9.564  23.610  1.00  0.00    -0.360 N 
ATOM     13  H1  UNL     1      12.123  -9.973  24.519  1.00  0.00     0.162 HD
HETATM   14  O1  UNL     1      12.506  -9.902  21.291  1.00  0.00    -0.272 OA
BRANCH  12  15
HETATM   15  C2  UNL     1      12.735  -8.175  23.496  1.00  0.00     0.118 C 
HETATM   16  C1  UNL     1      12.055  -7.366  24.577  1.00  0.00     0.026 C 
ENDBRANCH  12  15
ENDBRANCH  10  11
ENDBRANCH   8  10
ENDBRANCH   7   8
BRANCH   7  17
HETATM   17  C19 UNL     1      14.884 -12.884  21.330  1.00  0.00     0.041 C 
HETATM   18  C20 UNL     1      14.810 -12.024  20.058  1.00  0.00     0.011 C 
HETATM   19  C21 UNL     1      16.191 -11.427  19.851  1.00  0.00     0.001 C 
HETATM   20  C22 UNL     1      17.236 -12.496  19.716  1.00  0.00     0.000 C 
HETATM   21  C23 UNL     1      17.289 -13.247  21.053  1.00  0.00     0.001 C 
HETATM   22  C24 UNL     1      15.922 -13.931  21.150  1.00  0.00     0.011 C 
ENDBRANCH   7  17
ENDBRANCH   1   7
BRANCH   6  23
HETATM   23  C10 UNL     1      13.535 -17.735  20.997  1.00  0.00     0.241 C 
HETATM   24  O3  UNL     1      13.206 -18.554  21.885  1.00  0.00    -0.271 OA
HETATM   25  N4  UNL     1      14.904 -17.613  20.656  1.00  0.00    -0.355 N 
ATOM     26  H4  UNL     1      15.171 -16.946  19.931  1.00  0.00     0.162 HD
BRANCH  25  27
HETATM   27  C11 UNL     1      15.940 -18.397  21.297  1.00  0.00     0.161 C 
BRANCH  27  28
HETATM   28  C12 UNL     1      17.039 -17.544  21.820  1.00  0.00    -0.040 A 
HETATM   29  C13 UNL     1      17.002 -17.034  23.094  1.00  0.00     0.010 A 
HETATM   30  C14 UNL     1      18.036 -16.231  23.574  1.00  0.00     0.015 A 
HETATM   31  C15 UNL     1      19.125 -15.920  22.803  1.00  0.00     0.004 A 
HETATM   32  C17 UNL     1      19.140 -16.450  21.510  1.00  0.00     0.015 A 
HETATM   33  C18 UNL     1      18.141 -17.234  21.026  1.00  0.00     0.010 A 
BRANCH  31  34
HETATM   34  C16 UNL     1      20.217 -15.086  23.268  1.00  0.00     0.120 C 
HETATM   35  N5  UNL     1      20.750 -14.109  22.374  1.00  0.00    -0.082 NA
HETATM   36  N6  UNL     1      20.721 -15.184  24.433  1.00  0.00    -0.387 N 
ATOM     37  H62 UNL     1      20.340 -15.882  25.072  1.00  0.00     0.157 HD
ATOM     38  H61 UNL     1      21.489 -14.598  24.761  1.00  0.00     0.157 HD
ENDBRANCH  31  34
ENDBRANCH  27  28
ENDBRANCH  25  27
ENDBRANCH   6  23
TORSDOF 10
ENDMDL
