MODEL 7
REMARK VINA RESULT: -8.296010188      2.722      4.639
REMARK  10 active torsions:
REMARK  status: ('A' for Active; 'I' for Inactive)
REMARK    1  A    between atoms: C2_2  and  N1_3 
REMARK       I    between atoms: N1_3  and  C3_5 
REMARK    2  A    between atoms: C3_5  and  C4_7 
REMARK    3  A    between atoms: C4_7  and  N2_8 
REMARK    4  A    between atoms: N2_8  and  C5_10 
REMARK    5  A    between atoms: C5_10  and  C6_11 
REMARK    6  A    between atoms: C5_10  and  C19_33 
REMARK       I    between atoms: C6_11  and  N3_13 
REMARK    7  A    between atoms: C9_16  and  C10_17 
REMARK       I    between atoms: C10_17  and  N4_19 
REMARK    8  A    between atoms: N4_19  and  C11_21 
REMARK    9  A    between atoms: C11_21  and  C12_22 
REMARK   10  A    between atoms: C15_25  and  C16_26 
ROOT
HETATM    1  C6  UNL     1      18.228 -13.220  22.349  1.00  0.00     0.267 C 
HETATM    2  O2  UNL     1      17.278 -13.475  23.180  1.00  0.00    -0.266 OA
HETATM    3  N3  UNL     1      17.894 -12.452  21.217  1.00  0.00    -0.333 N 
HETATM    4  C7  UNL     1      18.413 -11.847  20.020  1.00  0.00     0.129 C 
HETATM    5  C8  UNL     1      17.039 -12.142  19.390  1.00  0.00     0.055 C 
HETATM    6  C9  UNL     1      16.584 -11.878  20.791  1.00  0.00     0.181 C 
ENDROOT
BRANCH   1   7
HETATM    7  C5  UNL     1      19.547 -13.776  22.714  1.00  0.00     0.078 C 
BRANCH   7   8
HETATM    8  N2  UNL     1      19.941 -14.965  22.046  1.00  0.00    -0.380 N 
ATOM      9  H2  UNL     1      20.915 -15.267  22.037  1.00  0.00     0.160 HD
BRANCH   8  10
HETATM   10  C4  UNL     1      18.926 -15.722  21.388  1.00  0.00     0.222 C 
BRANCH  10  11
HETATM   11  C3  UNL     1      18.417 -16.767  22.341  1.00  0.00     0.235 C 
HETATM   12  N1  UNL     1      17.210 -16.519  23.017  1.00  0.00    -0.360 N 
ATOM     13  H1  UNL     1      16.694 -15.652  22.864  1.00  0.00     0.162 HD
HETATM   14  O1  UNL     1      19.101 -17.805  22.479  1.00  0.00    -0.272 OA
BRANCH  12  15
HETATM   15  C2  UNL     1      16.715 -17.524  23.937  1.00  0.00     0.118 C 
HETATM   16  C1  UNL     1      15.436 -18.121  23.392  1.00  0.00     0.026 C 
ENDBRANCH  12  15
ENDBRANCH  10  11
ENDBRANCH   8  10
ENDBRANCH   7   8
BRANCH   7  17
HETATM   17  C19 UNL     1      19.847 -13.664  24.165  1.00  0.00     0.041 C 
HETATM   18  C20 UNL     1      21.055 -12.755  24.438  1.00  0.00     0.011 C 
HETATM   19  C21 UNL     1      21.102 -12.526  25.938  1.00  0.00     0.001 C 
HETATM   20  C22 UNL     1      21.225 -13.822  26.687  1.00  0.00     0.000 C 
HETATM   21  C23 UNL     1      19.946 -14.624  26.414  1.00  0.00     0.001 C 
HETATM   22  C24 UNL     1      20.013 -14.935  24.915  1.00  0.00     0.011 C 
ENDBRANCH   7  17
ENDBRANCH   1   7
BRANCH   6  23
HETATM   23  C10 UNL     1      15.462 -12.682  21.276  1.00  0.00     0.241 C 
HETATM   24  O3  UNL     1      14.552 -12.130  21.935  1.00  0.00    -0.271 OA
HETATM   25  N4  UNL     1      15.373 -14.073  21.023  1.00  0.00    -0.355 N 
ATOM     26  H4  UNL     1      16.115 -14.521  20.485  1.00  0.00     0.162 HD
BRANCH  25  27
HETATM   27  C11 UNL     1      14.271 -14.882  21.499  1.00  0.00     0.161 C 
BRANCH  27  28
HETATM   28  C12 UNL     1      13.577 -15.585  20.387  1.00  0.00    -0.040 A 
HETATM   29  C13 UNL     1      14.087 -16.736  19.840  1.00  0.00     0.010 A 
HETATM   30  C14 UNL     1      13.431 -17.384  18.795  1.00  0.00     0.015 A 
HETATM   31  C15 UNL     1      12.259 -16.905  18.272  1.00  0.00     0.004 A 
HETATM   32  C17 UNL     1      11.759 -15.732  18.844  1.00  0.00     0.015 A 
HETATM   33  C18 UNL     1      12.385 -15.088  19.863  1.00  0.00     0.010 A 
BRANCH  31  34
HETATM   34  C16 UNL     1      11.551 -17.552  17.184  1.00  0.00     0.120 C 
HETATM   35  N5  UNL     1      11.128 -16.749  16.082  1.00  0.00    -0.082 NA
HETATM   36  N6  UNL     1      11.290 -18.798  17.165  1.00  0.00    -0.387 N 
ATOM     37  H62 UNL     1      11.592 -19.372  17.952  1.00  0.00     0.157 HD
ATOM     38  H61 UNL     1      10.792 -19.253  16.400  1.00  0.00     0.157 HD
ENDBRANCH  31  34
ENDBRANCH  27  28
ENDBRANCH  25  27
ENDBRANCH   6  23
TORSDOF 10
ENDMDL
