MODEL 1
REMARK VINA RESULT: -7.547862147      0.000      0.000
REMARK  7 active torsions:
REMARK  status: ('A' for Active; 'I' for Inactive)
REMARK    1  A    between atoms: O1_1  and  C1_3 
REMARK    2  A    between atoms: C2_4  and  O2_5 
REMARK    3  A    between atoms: C3_7  and  O3_8 
REMARK    4  A    between atoms: C5_12  and  O5_13 
REMARK    5  A    between atoms: C5_12  and  C6_15 
REMARK    6  A    between atoms: C6_15  and  O6_16 
REMARK    7  A    between atoms: O6_16  and  P1_17 
ROOT
HETATM    1  C1  UNL     1      48.835  32.028  16.285  1.00  0.00     0.213 C 
HETATM    2  C2  UNL     1      47.339  32.032  16.062  1.00  0.00     0.183 C 
HETATM    3  C3  UNL     1      46.992  31.904  14.594  1.00  0.00     0.173 C 
HETATM    4  C4  UNL     1      47.665  30.693  14.012  1.00  0.00     0.206 C 
HETATM    5  O4  UNL     1      48.693  30.220  14.813  1.00  0.00    -0.348 OA
HETATM    6  C5  UNL     1      49.561  31.268  15.194  1.00  0.00     0.213 C 
ENDROOT
BRANCH   6   7
HETATM    7  O5  UNL     1      49.751  32.149  14.141  1.00  0.00    -0.362 OA
ATOM      8  H5  UNL     1      50.666  32.089  13.889  1.00  0.00     0.213 HD
ENDBRANCH   6   7
BRANCH   6   9
HETATM    9  C6  UNL     1      50.821  30.641  15.678  1.00  0.00     0.253 C 
BRANCH   9  10
HETATM   10  O6  UNL     1      50.886  30.729  17.068  1.00  0.00    -0.277 OA
BRANCH  10  11
HETATM   11  P1  UNL     1      52.168  31.284  17.681  1.00  0.00     0.422 P 
HETATM   12  O7  UNL     1      51.195  32.245  18.665  1.00  0.00    -0.617 OA
HETATM   13  O8  UNL     1      52.563  29.770  18.278  1.00  0.00    -0.617 OA
HETATM   14  O9  UNL     1      52.864  31.860  16.363  1.00  0.00    -0.617 OA
ENDBRANCH  10  11
ENDBRANCH   9  10
ENDBRANCH   6   9
BRANCH   1  15
HETATM   15  O1  UNL     1      49.336  33.319  16.439  1.00  0.00    -0.387 OA
ATOM     16  H1  UNL     1      50.003  33.358  17.113  1.00  0.00     0.210 HD
ENDBRANCH   1  15
BRANCH   2  17
HETATM   17  O2  UNL     1      46.715  30.974  16.730  1.00  0.00    -0.390 OA
ATOM     18  H2  UNL     1      45.954  31.268  17.217  1.00  0.00     0.210 HD
ENDBRANCH   2  17
BRANCH   3  19
HETATM   19  O3  UNL     1      45.610  31.810  14.506  1.00  0.00    -0.391 OA
ATOM     20  H3  UNL     1      45.384  31.859  13.585  1.00  0.00     0.210 HD
ENDBRANCH   3  19
TORSDOF 7
ENDMDL
