MODEL 5
REMARK VINA RESULT: -7.209840211      2.160      5.003
REMARK  7 active torsions:
REMARK  status: ('A' for Active; 'I' for Inactive)
REMARK    1  A    between atoms: O1_1  and  C1_3 
REMARK    2  A    between atoms: C2_4  and  O2_5 
REMARK    3  A    between atoms: C3_7  and  O3_8 
REMARK    4  A    between atoms: C5_12  and  O5_13 
REMARK    5  A    between atoms: C5_12  and  C6_15 
REMARK    6  A    between atoms: C6_15  and  O6_16 
REMARK    7  A    between atoms: O6_16  and  P1_17 
ROOT
HETATM    1  C1  UNL     1      49.898  31.405  15.356  1.00  0.00     0.213 C 
HETATM    2  C2  UNL     1      51.302  31.021  15.763  1.00  0.00     0.183 C 
HETATM    3  C3  UNL     1      51.810  31.883  16.899  1.00  0.00     0.173 C 
HETATM    4  C4  UNL     1      50.839  31.846  18.046  1.00  0.00     0.206 C 
HETATM    5  O4  UNL     1      49.594  31.366  17.670  1.00  0.00    -0.348 OA
HETATM    6  C5  UNL     1      49.129  32.019  16.507  1.00  0.00     0.213 C 
ENDROOT
BRANCH   6   7
HETATM    7  O5  UNL     1      49.455  33.366  16.543  1.00  0.00    -0.362 OA
ATOM      8  H5  UNL     1      49.994  33.544  15.781  1.00  0.00     0.213 HD
ENDBRANCH   6   7
BRANCH   6   9
HETATM    9  C6  UNL     1      47.666  31.765  16.415  1.00  0.00     0.253 C 
BRANCH   9  10
HETATM   10  O6  UNL     1      47.393  30.448  16.783  1.00  0.00    -0.277 OA
BRANCH  10  11
HETATM   11  P1  UNL     1      45.969  29.939  16.580  1.00  0.00     0.422 P 
HETATM   12  O7  UNL     1      45.435  31.352  17.325  1.00  0.00    -0.617 OA
HETATM   13  O8  UNL     1      46.160  30.002  14.918  1.00  0.00    -0.617 OA
HETATM   14  O9  UNL     1      46.070  28.554  17.372  1.00  0.00    -0.617 OA
ENDBRANCH  10  11
ENDBRANCH   9  10
ENDBRANCH   6   9
BRANCH   1  15
HETATM   15  O1  UNL     1      49.896  32.230  14.232  1.00  0.00    -0.387 OA
ATOM     16  H1  UNL     1      50.587  32.881  14.275  1.00  0.00     0.210 HD
ENDBRANCH   1  15
BRANCH   2  17
HETATM   17  O2  UNL     1      51.370  29.691  16.190  1.00  0.00    -0.390 OA
ATOM     18  H2  UNL     1      50.836  29.543  16.961  1.00  0.00     0.210 HD
ENDBRANCH   2  17
BRANCH   3  19
HETATM   19  O3  UNL     1      53.052  31.385  17.268  1.00  0.00    -0.391 OA
ATOM     20  H3  UNL     1      52.916  30.500  17.586  1.00  0.00     0.210 HD
ENDBRANCH   3  19
TORSDOF 7
ENDMDL
