MODEL 3
REMARK VINA RESULT: -7.438372095      0.122      1.232
REMARK  7 active torsions:
REMARK  status: ('A' for Active; 'I' for Inactive)
REMARK    1  A    between atoms: O1_1  and  C1_3 
REMARK    2  A    between atoms: C2_4  and  O2_5 
REMARK    3  A    between atoms: C3_7  and  O3_8 
REMARK    4  A    between atoms: C5_12  and  O5_13 
REMARK    5  A    between atoms: C5_12  and  C6_15 
REMARK    6  A    between atoms: C6_15  and  O6_16 
REMARK    7  A    between atoms: O6_16  and  P1_17 
ROOT
HETATM    1  C1  UNL     1      48.905  31.996  16.296  1.00  0.00     0.213 C 
HETATM    2  C2  UNL     1      47.403  31.946  16.125  1.00  0.00     0.183 C 
HETATM    3  C3  UNL     1      47.010  31.824  14.669  1.00  0.00     0.173 C 
HETATM    4  C4  UNL     1      47.707  30.647  14.046  1.00  0.00     0.206 C 
HETATM    5  O4  UNL     1      48.780  30.205  14.804  1.00  0.00    -0.348 OA
HETATM    6  C5  UNL     1      49.620  31.279  15.169  1.00  0.00     0.213 C 
ENDROOT
BRANCH   6   7
HETATM    7  O5  UNL     1      49.740  32.181  14.123  1.00  0.00    -0.362 OA
ATOM      8  H5  UNL     1      48.878  32.554  13.976  1.00  0.00     0.213 HD
ENDBRANCH   6   7
BRANCH   6   9
HETATM    9  C6  UNL     1      50.919  30.696  15.600  1.00  0.00     0.253 C 
BRANCH   9  10
HETATM   10  O6  UNL     1      50.943  30.572  16.988  1.00  0.00    -0.277 OA
BRANCH  10  11
HETATM   11  P1  UNL     1      52.104  31.220  17.736  1.00  0.00     0.422 P 
HETATM   12  O7  UNL     1      52.518  29.680  18.279  1.00  0.00    -0.617 OA
HETATM   13  O8  UNL     1      52.792  31.708  16.289  1.00  0.00    -0.617 OA
HETATM   14  O9  UNL     1      51.289  32.246  18.652  1.00  0.00    -0.617 OA
ENDBRANCH  10  11
ENDBRANCH   9  10
ENDBRANCH   6   9
BRANCH   1  15
HETATM   15  O1  UNL     1      49.361  33.304  16.451  1.00  0.00    -0.387 OA
ATOM     16  H1  UNL     1      48.951  33.733  17.193  1.00  0.00     0.210 HD
ENDBRANCH   1  15
BRANCH   2  17
HETATM   17  O2  UNL     1      46.844  30.856  16.799  1.00  0.00    -0.390 OA
ATOM     18  H2  UNL     1      46.060  31.103  17.275  1.00  0.00     0.210 HD
ENDBRANCH   2  17
BRANCH   3  19
HETATM   19  O3  UNL     1      45.630  31.678  14.628  1.00  0.00    -0.391 OA
ATOM     20  H3  UNL     1      45.451  30.785  14.357  1.00  0.00     0.210 HD
ENDBRANCH   3  19
TORSDOF 7
ENDMDL
