MODEL 9
REMARK VINA RESULT: -7.096973538      2.089      4.991
REMARK  7 active torsions:
REMARK  status: ('A' for Active; 'I' for Inactive)
REMARK    1  A    between atoms: O1_1  and  C1_3 
REMARK    2  A    between atoms: C2_4  and  O2_5 
REMARK    3  A    between atoms: C3_7  and  O3_8 
REMARK    4  A    between atoms: C5_12  and  O5_13 
REMARK    5  A    between atoms: C5_12  and  C6_15 
REMARK    6  A    between atoms: C6_15  and  O6_16 
REMARK    7  A    between atoms: O6_16  and  P1_17 
ROOT
HETATM    1  C1  UNL     1      49.947  31.398  15.268  1.00  0.00     0.213 C 
HETATM    2  C2  UNL     1      51.340  31.080  15.762  1.00  0.00     0.183 C 
HETATM    3  C3  UNL     1      51.715  31.925  16.961  1.00  0.00     0.173 C 
HETATM    4  C4  UNL     1      50.670  31.786  18.032  1.00  0.00     0.206 C 
HETATM    5  O4  UNL     1      49.485  31.250  17.552  1.00  0.00    -0.348 OA
HETATM    6  C5  UNL     1      49.064  31.921  16.382  1.00  0.00     0.213 C 
ENDROOT
BRANCH   6   7
HETATM    7  O5  UNL     1      49.304  33.282  16.488  1.00  0.00    -0.362 OA
ATOM      8  H5  UNL     1      50.186  33.436  16.171  1.00  0.00     0.213 HD
ENDBRANCH   6   7
BRANCH   6   9
HETATM    9  C6  UNL     1      47.628  31.586  16.176  1.00  0.00     0.253 C 
BRANCH   9  10
HETATM   10  O6  UNL     1      47.450  31.039  14.906  1.00  0.00    -0.277 OA
BRANCH  10  11
HETATM   11  P1  UNL     1      46.713  29.708  14.807  1.00  0.00     0.422 P 
HETATM   12  O7  UNL     1      45.739  30.418  13.630  1.00  0.00    -0.617 OA
HETATM   13  O8  UNL     1      48.105  28.953  14.263  1.00  0.00    -0.617 OA
HETATM   14  O9  UNL     1      46.230  29.560  16.323  1.00  0.00    -0.617 OA
ENDBRANCH  10  11
ENDBRANCH   9  10
ENDBRANCH   6   9
BRANCH   1  15
HETATM   15  O1  UNL     1      49.973  32.266  14.177  1.00  0.00    -0.387 OA
ATOM     16  H1  UNL     1      50.420  33.078  14.386  1.00  0.00     0.210 HD
ENDBRANCH   1  15
BRANCH   2  17
HETATM   17  O2  UNL     1      51.458  29.740  16.145  1.00  0.00    -0.390 OA
ATOM     18  H2  UNL     1      51.811  29.657  17.023  1.00  0.00     0.210 HD
ENDBRANCH   2  17
BRANCH   3  19
HETATM   19  O3  UNL     1      52.956  31.485  17.400  1.00  0.00    -0.391 OA
ATOM     20  H3  UNL     1      52.873  31.294  18.327  1.00  0.00     0.210 HD
ENDBRANCH   3  19
TORSDOF 7
ENDMDL
