MODEL 7
REMARK VINA RESULT: -7.195763773      2.034      4.948
REMARK  7 active torsions:
REMARK  status: ('A' for Active; 'I' for Inactive)
REMARK    1  A    between atoms: O1_1  and  C1_3 
REMARK    2  A    between atoms: C2_4  and  O2_5 
REMARK    3  A    between atoms: C3_7  and  O3_8 
REMARK    4  A    between atoms: C5_12  and  O5_13 
REMARK    5  A    between atoms: C5_12  and  C6_15 
REMARK    6  A    between atoms: C6_15  and  O6_16 
REMARK    7  A    between atoms: O6_16  and  P1_17 
ROOT
HETATM    1  C1  UNL     1      49.926  31.460  15.307  1.00  0.00     0.213 C 
HETATM    2  C2  UNL     1      51.315  31.069  15.758  1.00  0.00     0.183 C 
HETATM    3  C3  UNL     1      51.769  31.891  16.946  1.00  0.00     0.173 C 
HETATM    4  C4  UNL     1      50.751  31.804  18.049  1.00  0.00     0.206 C 
HETATM    5  O4  UNL     1      49.526  31.331  17.604  1.00  0.00    -0.348 OA
HETATM    6  C5  UNL     1      49.105  32.024  16.448  1.00  0.00     0.213 C 
ENDROOT
BRANCH   6   7
HETATM    7  O5  UNL     1      49.417  33.371  16.548  1.00  0.00    -0.362 OA
ATOM      8  H5  UNL     1      48.656  33.809  16.911  1.00  0.00     0.213 HD
ENDBRANCH   6   7
BRANCH   6   9
HETATM    9  C6  UNL     1      47.649  31.764  16.286  1.00  0.00     0.253 C 
BRANCH   9  10
HETATM   10  O6  UNL     1      47.410  30.391  16.314  1.00  0.00    -0.277 OA
BRANCH  10  11
HETATM   11  P1  UNL     1      46.622  29.787  15.156  1.00  0.00     0.422 P 
HETATM   12  O7  UNL     1      45.689  28.983  16.306  1.00  0.00    -0.617 OA
HETATM   13  O8  UNL     1      46.089  31.306  14.697  1.00  0.00    -0.617 OA
HETATM   14  O9  UNL     1      47.813  29.058  14.378  1.00  0.00    -0.617 OA
ENDBRANCH  10  11
ENDBRANCH   9  10
ENDBRANCH   6   9
BRANCH   1  15
HETATM   15  O1  UNL     1      49.964  32.327  14.217  1.00  0.00    -0.387 OA
ATOM     16  H1  UNL     1      49.806  33.227  14.479  1.00  0.00     0.210 HD
ENDBRANCH   1  15
BRANCH   2  17
HETATM   17  O2  UNL     1      51.376  29.725  16.137  1.00  0.00    -0.390 OA
ATOM     18  H2  UNL     1      52.225  29.345  15.945  1.00  0.00     0.210 HD
ENDBRANCH   2  17
BRANCH   3  19
HETATM   19  O3  UNL     1      52.998  31.387  17.347  1.00  0.00    -0.391 OA
ATOM     20  H3  UNL     1      52.956  30.442  17.260  1.00  0.00     0.210 HD
ENDBRANCH   3  19
TORSDOF 7
ENDMDL
