MODEL 2
REMARK VINA RESULT: -7.531776751      0.112      1.252
REMARK  7 active torsions:
REMARK  status: ('A' for Active; 'I' for Inactive)
REMARK    1  A    between atoms: O1_1  and  C1_3 
REMARK    2  A    between atoms: C2_4  and  O2_5 
REMARK    3  A    between atoms: C3_7  and  O3_8 
REMARK    4  A    between atoms: C5_12  and  O5_13 
REMARK    5  A    between atoms: C5_12  and  C6_15 
REMARK    6  A    between atoms: C6_15  and  O6_16 
REMARK    7  A    between atoms: O6_16  and  P1_17 
ROOT
HETATM    1  C1  UNL     1      48.808  32.034  16.256  1.00  0.00     0.213 C 
HETATM    2  C2  UNL     1      47.311  32.030  16.040  1.00  0.00     0.183 C 
HETATM    3  C3  UNL     1      46.958  31.898  14.574  1.00  0.00     0.173 C 
HETATM    4  C4  UNL     1      47.635  30.690  13.990  1.00  0.00     0.206 C 
HETATM    5  O4  UNL     1      48.669  30.224  14.788  1.00  0.00    -0.348 OA
HETATM    6  C5  UNL     1      49.533  31.277  15.163  1.00  0.00     0.213 C 
ENDROOT
BRANCH   6   7
HETATM    7  O5  UNL     1      49.713  32.158  14.107  1.00  0.00    -0.362 OA
ATOM      8  H5  UNL     1      49.337  32.990  14.370  1.00  0.00     0.213 HD
ENDBRANCH   6   7
BRANCH   6   9
HETATM    9  C6  UNL     1      50.799  30.658  15.641  1.00  0.00     0.253 C 
BRANCH   9  10
HETATM   10  O6  UNL     1      50.831  30.670  17.035  1.00  0.00    -0.277 OA
BRANCH  10  11
HETATM   11  P1  UNL     1      52.124  31.118  17.708  1.00  0.00     0.422 P 
HETATM   12  O7  UNL     1      52.651  31.628  16.191  1.00  0.00    -0.617 OA
HETATM   13  O8  UNL     1      51.285  32.244  18.620  1.00  0.00    -0.617 OA
HETATM   14  O9  UNL     1      52.590  29.725  18.338  1.00  0.00    -0.617 OA
ENDBRANCH  10  11
ENDBRANCH   9  10
ENDBRANCH   6   9
BRANCH   1  15
HETATM   15  O1  UNL     1      49.303  33.329  16.406  1.00  0.00    -0.387 OA
ATOM     16  H1  UNL     1      50.099  33.342  16.923  1.00  0.00     0.210 HD
ENDBRANCH   1  15
BRANCH   2  17
HETATM   17  O2  UNL     1      46.696  30.970  16.713  1.00  0.00    -0.390 OA
ATOM     18  H2  UNL     1      46.042  30.544  16.171  1.00  0.00     0.210 HD
ENDBRANCH   2  17
BRANCH   3  19
HETATM   19  O3  UNL     1      45.576  31.796  14.494  1.00  0.00    -0.391 OA
ATOM     20  H3  UNL     1      45.259  32.598  14.095  1.00  0.00     0.210 HD
ENDBRANCH   3  19
TORSDOF 7
ENDMDL
