MODEL 6
REMARK VINA RESULT: -7.200018271      1.129      1.163
REMARK  7 active torsions:
REMARK  status: ('A' for Active; 'I' for Inactive)
REMARK    1  A    between atoms: O1_1  and  C1_3 
REMARK    2  A    between atoms: C2_4  and  O2_5 
REMARK    3  A    between atoms: C3_7  and  O3_8 
REMARK    4  A    between atoms: C5_12  and  O5_13 
REMARK    5  A    between atoms: C5_12  and  C6_15 
REMARK    6  A    between atoms: C6_15  and  O6_16 
REMARK    7  A    between atoms: O6_16  and  P1_17 
ROOT
HETATM    1  C1  UNL     1      48.014  31.911  16.247  1.00  0.00     0.213 C 
HETATM    2  C2  UNL     1      46.844  31.081  15.767  1.00  0.00     0.183 C 
HETATM    3  C3  UNL     1      47.021  30.644  14.328  1.00  0.00     0.173 C 
HETATM    4  C4  UNL     1      48.340  29.942  14.164  1.00  0.00     0.206 C 
HETATM    5  O4  UNL     1      49.204  30.183  15.222  1.00  0.00    -0.348 OA
HETATM    6  C5  UNL     1      49.287  31.565  15.503  1.00  0.00     0.213 C 
ENDROOT
BRANCH   6   7
HETATM    7  O5  UNL     1      49.287  32.301  14.328  1.00  0.00    -0.362 OA
ATOM      8  H5  UNL     1      48.461  32.770  14.293  1.00  0.00     0.213 HD
ENDBRANCH   6   7
BRANCH   6   9
HETATM    9  C6  UNL     1      50.506  31.772  16.332  1.00  0.00     0.253 C 
BRANCH   9  10
HETATM   10  O6  UNL     1      50.748  30.637  17.104  1.00  0.00    -0.277 OA
BRANCH  10  11
HETATM   11  P1  UNL     1      52.163  30.434  17.638  1.00  0.00     0.422 P 
HETATM   12  O7  UNL     1      52.072  31.997  18.262  1.00  0.00    -0.617 OA
HETATM   13  O8  UNL     1      51.631  29.202  18.640  1.00  0.00    -0.617 OA
HETATM   14  O9  UNL     1      52.920  30.117  16.267  1.00  0.00    -0.617 OA
ENDBRANCH  10  11
ENDBRANCH   9  10
ENDBRANCH   6   9
BRANCH   1  15
HETATM   15  O1  UNL     1      47.735  33.275  16.190  1.00  0.00    -0.387 OA
ATOM     16  H1  UNL     1      46.807  33.447  16.300  1.00  0.00     0.210 HD
ENDBRANCH   1  15
BRANCH   2  17
HETATM   17  O2  UNL     1      46.682  29.925  16.535  1.00  0.00    -0.390 OA
ATOM     18  H2  UNL     1      45.901  29.969  17.074  1.00  0.00     0.210 HD
ENDBRANCH   2  17
BRANCH   3  19
HETATM   19  O3  UNL     1      45.957  29.807  14.021  1.00  0.00    -0.391 OA
ATOM     20  H3  UNL     1      45.701  29.373  14.825  1.00  0.00     0.210 HD
ENDBRANCH   3  19
TORSDOF 7
ENDMDL
