MODEL 3
REMARK VINA RESULT: -4.374117565      1.537      1.617
REMARK  7 active torsions:
REMARK  status: ('A' for Active; 'I' for Inactive)
REMARK    1  A    between atoms: C1_2  and  C2_3 
REMARK    2  A    between atoms: C1_2  and  C3_6 
REMARK    3  A    between atoms: C2_3  and  O2_4 
REMARK    4  A    between atoms: C3_6  and  O3_7 
REMARK    5  A    between atoms: C3_6  and  C4_9 
REMARK    6  A    between atoms: C4_9  and  O4_10 
REMARK    7  A    between atoms: C4_9  and  C5_12 
ROOT
HETATM    1  C3  UNL     1      15.075  -2.638  28.635  1.00  0.00     0.220 C 
ENDROOT
BRANCH   1   2
HETATM    2  C1  UNL     1      14.946  -1.520  29.572  1.00  0.00     0.181 C 
HETATM    3  O1  UNL     1      15.734  -1.401  30.487  1.00  0.00    -0.293 OA
BRANCH   2   4
HETATM    4  C2  UNL     1      13.867  -0.515  29.432  1.00  0.00     0.245 C 
BRANCH   4   5
HETATM    5  O2  UNL     1      13.974   0.107  28.212  1.00  0.00    -0.393 OA
ATOM      6  H2  UNL     1      14.602  -0.357  27.671  1.00  0.00     0.209 HD
ENDBRANCH   4   5
ENDBRANCH   2   4
ENDBRANCH   1   2
BRANCH   1   7
HETATM    7  O3  UNL     1      15.426  -2.207  27.356  1.00  0.00    -0.385 OA
ATOM      8  H3  UNL     1      14.899  -1.469  27.073  1.00  0.00     0.210 HD
ENDBRANCH   1   7
BRANCH   1   9
HETATM    9  C4  UNL     1      16.102  -3.658  29.047  1.00  0.00     0.182 C 
BRANCH   9  10
HETATM   10  O4  UNL     1      16.863  -3.965  27.907  1.00  0.00    -0.390 OA
ATOM     11  H4  UNL     1      17.654  -4.396  28.206  1.00  0.00     0.210 HD
ENDBRANCH   9  10
BRANCH   9  12
HETATM   12  C5  UNL     1      15.511  -4.939  29.545  1.00  0.00     0.256 C 
HETATM   13  F1  UNL     1      14.797  -4.805  30.709  1.00  0.00    -0.253 F 
ENDBRANCH   9  12
ENDBRANCH   1   9
TORSDOF 7
ENDMDL
