MODEL 7
REMARK VINA RESULT: -4.194245959      2.797      4.348
REMARK  7 active torsions:
REMARK  status: ('A' for Active; 'I' for Inactive)
REMARK    1  A    between atoms: C1_2  and  C2_3 
REMARK    2  A    between atoms: C1_2  and  C3_6 
REMARK    3  A    between atoms: C2_3  and  O2_4 
REMARK    4  A    between atoms: C3_6  and  O3_7 
REMARK    5  A    between atoms: C3_6  and  C4_9 
REMARK    6  A    between atoms: C4_9  and  O4_10 
REMARK    7  A    between atoms: C4_9  and  C5_12 
ROOT
HETATM    1  C3  UNL     1      14.657  -1.852  30.072  1.00  0.00     0.220 C 
ENDROOT
BRANCH   1   2
HETATM    2  C1  UNL     1      15.325  -2.412  28.895  1.00  0.00     0.181 C 
HETATM    3  O1  UNL     1      15.257  -1.837  27.828  1.00  0.00    -0.293 OA
BRANCH   2   4
HETATM    4  C2  UNL     1      16.092  -3.676  28.970  1.00  0.00     0.245 C 
BRANCH   4   5
HETATM    5  O2  UNL     1      16.800  -3.855  27.806  1.00  0.00    -0.393 OA
ATOM      6  H2  UNL     1      17.510  -3.225  27.765  1.00  0.00     0.209 HD
ENDBRANCH   4   5
ENDBRANCH   2   4
ENDBRANCH   1   2
BRANCH   1   7
HETATM    7  O3  UNL     1      15.543  -1.146  30.886  1.00  0.00    -0.385 OA
ATOM      8  H3  UNL     1      16.436  -1.455  30.790  1.00  0.00     0.210 HD
ENDBRANCH   1   7
BRANCH   1   9
HETATM    9  C4  UNL     1      13.530  -0.912  29.739  1.00  0.00     0.182 C 
BRANCH   9  10
HETATM   10  O4  UNL     1      14.046   0.393  29.799  1.00  0.00    -0.390 OA
ATOM     11  H4  UNL     1      13.838   0.815  28.974  1.00  0.00     0.210 HD
ENDBRANCH   9  10
BRANCH   9  12
HETATM   12  C5  UNL     1      12.385  -0.981  30.699  1.00  0.00     0.256 C 
HETATM   13  F1  UNL     1      11.437  -0.009  30.502  1.00  0.00    -0.253 F 
ENDBRANCH   9  12
ENDBRANCH   1   9
TORSDOF 7
ENDMDL
