MODEL 5
REMARK VINA RESULT: -4.241975041      7.764      8.859
REMARK  7 active torsions:
REMARK  status: ('A' for Active; 'I' for Inactive)
REMARK    1  A    between atoms: C1_2  and  C2_3 
REMARK    2  A    between atoms: C1_2  and  C3_6 
REMARK    3  A    between atoms: C2_3  and  O2_4 
REMARK    4  A    between atoms: C3_6  and  O3_7 
REMARK    5  A    between atoms: C3_6  and  C4_9 
REMARK    6  A    between atoms: C4_9  and  O4_10 
REMARK    7  A    between atoms: C4_9  and  C5_12 
ROOT
HETATM    1  C3  UNL     1      11.503  -9.470  24.482  1.00  0.00     0.220 C 
ENDROOT
BRANCH   1   2
HETATM    2  C1  UNL     1      11.214  -8.045  24.654  1.00  0.00     0.181 C 
HETATM    3  O1  UNL     1      10.077  -7.638  24.539  1.00  0.00    -0.293 OA
BRANCH   2   4
HETATM    4  C2  UNL     1      12.285  -7.072  24.971  1.00  0.00     0.245 C 
BRANCH   4   5
HETATM    5  O2  UNL     1      12.083  -5.917  24.254  1.00  0.00    -0.393 OA
ATOM      6  H2  UNL     1      12.701  -5.254  24.539  1.00  0.00     0.209 HD
ENDBRANCH   4   5
ENDBRANCH   2   4
ENDBRANCH   1   2
BRANCH   1   7
HETATM    7  O3  UNL     1      10.349 -10.208  24.220  1.00  0.00    -0.385 OA
ATOM      8  H3  UNL     1      10.184 -10.288  23.289  1.00  0.00     0.210 HD
ENDBRANCH   1   7
BRANCH   1   9
HETATM    9  C4  UNL     1      12.468  -9.761  23.364  1.00  0.00     0.182 C 
BRANCH   9  10
HETATM   10  O4  UNL     1      11.866 -10.723  22.537  1.00  0.00    -0.390 OA
ATOM     11  H4  UNL     1      11.852 -11.541  23.021  1.00  0.00     0.210 HD
ENDBRANCH   9  10
BRANCH   9  12
HETATM   12  C5  UNL     1      13.773 -10.328  23.827  1.00  0.00     0.256 C 
HETATM   13  F1  UNL     1      14.671  -9.380  24.250  1.00  0.00    -0.253 F 
ENDBRANCH   9  12
ENDBRANCH   1   9
TORSDOF 7
ENDMDL
