MODEL 4
REMARK VINA RESULT: -4.339926225      1.290      1.561
REMARK  7 active torsions:
REMARK  status: ('A' for Active; 'I' for Inactive)
REMARK    1  A    between atoms: C1_2  and  C2_3 
REMARK    2  A    between atoms: C1_2  and  C3_6 
REMARK    3  A    between atoms: C2_3  and  O2_4 
REMARK    4  A    between atoms: C3_6  and  O3_7 
REMARK    5  A    between atoms: C3_6  and  C4_9 
REMARK    6  A    between atoms: C4_9  and  O4_10 
REMARK    7  A    between atoms: C4_9  and  C5_12 
ROOT
HETATM    1  C3  UNL     1      15.077  -2.041  30.178  1.00  0.00     0.220 C 
ENDROOT
BRANCH   1   2
HETATM    2  C1  UNL     1      14.042  -1.012  30.065  1.00  0.00     0.181 C 
HETATM    3  O1  UNL     1      14.355   0.145  29.879  1.00  0.00    -0.293 OA
BRANCH   2   4
HETATM    4  C2  UNL     1      12.604  -1.348  30.173  1.00  0.00     0.245 C 
BRANCH   4   5
HETATM    5  O2  UNL     1      12.269  -2.254  29.195  1.00  0.00    -0.393 OA
ATOM      6  H2  UNL     1      12.488  -3.131  29.486  1.00  0.00     0.209 HD
ENDBRANCH   4   5
ENDBRANCH   2   4
ENDBRANCH   1   2
BRANCH   1   7
HETATM    7  O3  UNL     1      14.542  -3.284  30.514  1.00  0.00    -0.385 OA
ATOM      8  H3  UNL     1      15.219  -3.933  30.665  1.00  0.00     0.210 HD
ENDBRANCH   1   7
BRANCH   1   9
HETATM    9  C4  UNL     1      15.875  -2.238  28.917  1.00  0.00     0.182 C 
BRANCH   9  10
HETATM   10  O4  UNL     1      15.076  -1.799  27.848  1.00  0.00    -0.390 OA
ATOM     11  H4  UNL     1      14.481  -2.508  27.632  1.00  0.00     0.210 HD
ENDBRANCH   9  10
BRANCH   9  12
HETATM   12  C5  UNL     1      16.232  -3.665  28.647  1.00  0.00     0.256 C 
HETATM   13  F1  UNL     1      17.547  -3.852  28.301  1.00  0.00    -0.253 F 
ENDBRANCH   9  12
ENDBRANCH   1   9
TORSDOF 7
ENDMDL
