MODEL 1
REMARK VINA RESULT: -4.656381166      0.000      0.000
REMARK  7 active torsions:
REMARK  status: ('A' for Active; 'I' for Inactive)
REMARK    1  A    between atoms: C1_2  and  C2_3 
REMARK    2  A    between atoms: C1_2  and  C3_6 
REMARK    3  A    between atoms: C2_3  and  O2_4 
REMARK    4  A    between atoms: C3_6  and  O3_7 
REMARK    5  A    between atoms: C3_6  and  C4_9 
REMARK    6  A    between atoms: C4_9  and  O4_10 
REMARK    7  A    between atoms: C4_9  and  C5_12 
ROOT
HETATM    1  C3  UNL     1      14.767  -2.807  29.726  1.00  0.00     0.220 C 
ENDROOT
BRANCH   1   2
HETATM    2  C1  UNL     1      14.724  -1.399  30.125  1.00  0.00     0.181 C 
HETATM    3  O1  UNL     1      15.474  -0.990  30.988  1.00  0.00    -0.293 OA
BRANCH   2   4
HETATM    4  C2  UNL     1      13.781  -0.446  29.497  1.00  0.00     0.245 C 
BRANCH   4   5
HETATM    5  O2  UNL     1      14.165  -0.207  28.200  1.00  0.00    -0.393 OA
ATOM      6  H2  UNL     1      13.485   0.282  27.752  1.00  0.00     0.209 HD
ENDBRANCH   4   5
ENDBRANCH   2   4
ENDBRANCH   1   2
BRANCH   1   7
HETATM    7  O3  UNL     1      13.652  -3.168  28.970  1.00  0.00    -0.385 OA
ATOM      8  H3  UNL     1      13.494  -4.104  28.997  1.00  0.00     0.210 HD
ENDBRANCH   1   7
BRANCH   1   9
HETATM    9  C4  UNL     1      15.980  -3.169  28.912  1.00  0.00     0.182 C 
BRANCH   9  10
HETATM   10  O4  UNL     1      15.747  -2.722  27.600  1.00  0.00    -0.390 OA
ATOM     11  H4  UNL     1      16.539  -2.888  27.102  1.00  0.00     0.210 HD
ENDBRANCH   9  10
BRANCH   9  12
HETATM   12  C5  UNL     1      16.240  -4.640  28.839  1.00  0.00     0.256 C 
HETATM   13  F1  UNL     1      17.468  -4.961  28.318  1.00  0.00    -0.253 F 
ENDBRANCH   9  12
ENDBRANCH   1   9
TORSDOF 7
ENDMDL
