MODEL 8
REMARK VINA RESULT: -4.163894042      1.465      1.794
REMARK  7 active torsions:
REMARK  status: ('A' for Active; 'I' for Inactive)
REMARK    1  A    between atoms: C1_2  and  C2_3 
REMARK    2  A    between atoms: C1_2  and  C3_6 
REMARK    3  A    between atoms: C2_3  and  O2_4 
REMARK    4  A    between atoms: C3_6  and  O3_7 
REMARK    5  A    between atoms: C3_6  and  C4_9 
REMARK    6  A    between atoms: C4_9  and  O4_10 
REMARK    7  A    between atoms: C4_9  and  C5_12 
ROOT
HETATM    1  C3  UNL     1      14.673  -2.643  29.856  1.00  0.00     0.220 C 
ENDROOT
BRANCH   1   2
HETATM    2  C1  UNL     1      14.308  -1.462  30.643  1.00  0.00     0.181 C 
HETATM    3  O1  UNL     1      14.567  -0.352  30.227  1.00  0.00    -0.293 OA
BRANCH   2   4
HETATM    4  C2  UNL     1      13.619  -1.587  31.948  1.00  0.00     0.245 C 
BRANCH   4   5
HETATM    5  O2  UNL     1      12.504  -0.785  31.958  1.00  0.00    -0.393 OA
ATOM      6  H2  UNL     1      12.495  -0.262  32.751  1.00  0.00     0.209 HD
ENDBRANCH   4   5
ENDBRANCH   2   4
ENDBRANCH   1   2
BRANCH   1   7
HETATM    7  O3  UNL     1      13.592  -3.139  29.129  1.00  0.00    -0.385 OA
ATOM      8  H3  UNL     1      12.963  -3.582  29.687  1.00  0.00     0.210 HD
ENDBRANCH   1   7
BRANCH   1   9
HETATM    9  C4  UNL     1      15.783  -2.393  28.870  1.00  0.00     0.182 C 
BRANCH   9  10
HETATM   10  O4  UNL     1      15.187  -1.929  27.685  1.00  0.00    -0.390 OA
ATOM     11  H4  UNL     1      14.488  -2.534  27.467  1.00  0.00     0.210 HD
ENDBRANCH   9  10
BRANCH   9  12
HETATM   12  C5  UNL     1      16.567  -3.618  28.523  1.00  0.00     0.256 C 
HETATM   13  F1  UNL     1      16.337  -4.680  29.361  1.00  0.00    -0.253 F 
ENDBRANCH   9  12
ENDBRANCH   1   9
TORSDOF 7
ENDMDL
