MODEL 1
REMARK VINA RESULT: -8.157059723      0.000      0.000
REMARK  6 active torsions:
REMARK  status: ('A' for Active; 'I' for Inactive)
REMARK    1  A    between atoms: N1_2  and  C2_4 
REMARK    2  A    between atoms: C5_9  and  C6_10 
REMARK    3  A    between atoms: C7_13  and  N4_14 
REMARK    4  A    between atoms: N4_14  and  C8_16 
REMARK    5  A    between atoms: C12_20  and  S1_21 
REMARK    6  A    between atoms: S1_21  and  N5_22 
ROOT
HETATM    1  C6  UNL     1       5.128  24.745  24.083  1.00  0.00     0.090 A 
HETATM    2  N3  UNL     1       6.035  23.704  24.124  1.00  0.00    -0.189 N 
ATOM      3  H3  UNL     1       5.960  22.963  23.427  1.00  0.00     0.184 HD
HETATM    4  C7  UNL     1       7.004  23.629  25.036  1.00  0.00     0.683 A 
HETATM    5  N6  UNL     1       7.063  24.625  25.930  1.00  0.00    -0.200 N 
ATOM      6  H6  UNL     1       7.795  24.588  26.639  1.00  0.00     0.183 HD
HETATM    7  C14 UNL     1       6.229  25.655  25.951  1.00  0.00     0.131 A 
HETATM    8  C15 UNL     1       5.212  25.740  24.994  1.00  0.00     0.089 A 
HETATM    9  C16 UNL     1       4.396  26.913  24.951  1.00  0.00     0.103 C 
HETATM   10  N7  UNL     1       3.771  27.881  24.914  1.00  0.00    -0.191 NA
ENDROOT
BRANCH   1  11
HETATM   11  C5  UNL     1       4.044  24.631  23.106  1.00  0.00     0.059 A 
HETATM   12  C3  UNL     1       2.700  24.476  23.138  1.00  0.00     0.027 A 
HETATM   13  N2  UNL     1       2.077  24.313  21.993  1.00  0.00    -0.339 N 
HETATM   14  C4  UNL     1       1.869  24.377  24.416  1.00  0.00     0.070 C 
HETATM   15  C2  UNL     1       2.734  24.296  20.864  1.00  0.00     0.145 A 
ATOM     16  H2  UNL     1       1.064  24.197  21.986  1.00  0.00     0.168 HD
HETATM   17  S2  UNL     1       4.337  24.521  21.381  1.00  0.00    -0.050 SA
BRANCH  15  18
HETATM   18  N1  UNL     1       2.236  24.130  19.521  1.00  0.00    -0.375 N 
HETATM   19  C1  UNL     1       0.836  23.868  19.333  1.00  0.00     0.148 C 
ATOM     20  H1  UNL     1       2.864  24.199  18.721  1.00  0.00     0.161 HD
ENDBRANCH  15  18
ENDBRANCH   1  11
BRANCH   4  21
HETATM   21  N4  UNL     1       7.895  22.530  25.007  1.00  0.00    -0.192 N 
ATOM     22  H4  UNL     1       7.832  21.885  25.795  1.00  0.00     0.184 HD
BRANCH  21  23
HETATM   23  C8  UNL     1       8.849  22.218  24.038  1.00  0.00     0.050 A 
HETATM   24  C9  UNL     1      10.157  22.547  24.153  1.00  0.00     0.030 A 
HETATM   25  C10 UNL     1      11.057  22.204  23.137  1.00  0.00     0.004 A 
HETATM   26  C11 UNL     1      10.596  21.531  22.027  1.00  0.00     0.025 A 
HETATM   27  C12 UNL     1       9.272  21.182  21.881  1.00  0.00     0.081 A 
HETATM   28  C13 UNL     1       8.416  21.530  22.887  1.00  0.00     0.055 A 
BRANCH  27  29
HETATM   29  S1  UNL     1       8.754  20.328  20.444  1.00  0.00     0.256 S 
HETATM   30  O1  UNL     1       7.619  21.063  19.769  1.00  0.00    -0.201 OA
HETATM   31  O2  UNL     1       9.904  20.315  19.484  1.00  0.00    -0.201 OA
BRANCH  29  32
HETATM   32  N5  UNL     1       8.239  18.730  20.857  1.00  0.00    -0.324 N 
ATOM     33  H52 UNL     1       8.873  17.948  21.021  1.00  0.00     0.169 HD
ATOM     34  H51 UNL     1       7.221  18.693  20.909  1.00  0.00     0.169 HD
ENDBRANCH  29  32
ENDBRANCH  27  29
ENDBRANCH  21  23
ENDBRANCH   4  21
TORSDOF 6
ENDMDL
