MODEL 3
REMARK VINA RESULT: -8.090077301      1.615      1.706
REMARK  6 active torsions:
REMARK  status: ('A' for Active; 'I' for Inactive)
REMARK    1  A    between atoms: N1_2  and  C2_4 
REMARK    2  A    between atoms: C5_9  and  C6_10 
REMARK    3  A    between atoms: C7_13  and  N4_14 
REMARK    4  A    between atoms: N4_14  and  C8_16 
REMARK    5  A    between atoms: C12_20  and  S1_21 
REMARK    6  A    between atoms: S1_21  and  N5_22 
ROOT
HETATM    1  C6  UNL     1       5.673  24.903  24.315  1.00  0.00     0.090 A 
HETATM    2  N3  UNL     1       6.739  24.026  24.316  1.00  0.00    -0.189 N 
ATOM      3  H3  UNL     1       6.714  23.224  23.685  1.00  0.00     0.184 HD
HETATM    4  C7  UNL     1       7.800  24.183  25.107  1.00  0.00     0.683 A 
HETATM    5  N6  UNL     1       7.790  25.249  25.918  1.00  0.00    -0.200 N 
ATOM      6  H6  UNL     1       8.590  25.389  26.533  1.00  0.00     0.183 HD
HETATM    7  C14 UNL     1       6.803  26.133  25.970  1.00  0.00     0.131 A 
HETATM    8  C15 UNL     1       5.688  25.974  25.140  1.00  0.00     0.089 A 
HETATM    9  C16 UNL     1       4.688  26.996  25.117  1.00  0.00     0.103 C 
HETATM   10  N7  UNL     1       3.911  27.846  25.091  1.00  0.00    -0.191 NA
ENDROOT
BRANCH   1  11
HETATM   11  C5  UNL     1       4.523  24.536  23.487  1.00  0.00     0.059 A 
HETATM   12  C3  UNL     1       3.738  23.447  23.316  1.00  0.00     0.027 A 
HETATM   13  N2  UNL     1       2.834  23.489  22.365  1.00  0.00    -0.339 N 
HETATM   14  C4  UNL     1       3.898  22.135  24.083  1.00  0.00     0.070 C 
HETATM   15  C2  UNL     1       2.700  24.546  21.607  1.00  0.00     0.145 A 
ATOM     16  H2  UNL     1       2.226  22.684  22.214  1.00  0.00     0.168 HD
HETATM   17  S2  UNL     1       3.896  25.582  22.227  1.00  0.00    -0.050 SA
BRANCH  15  18
HETATM   18  N1  UNL     1       1.778  24.781  20.524  1.00  0.00    -0.375 N 
HETATM   19  C1  UNL     1       0.594  25.553  20.781  1.00  0.00     0.148 C 
ATOM     20  H1  UNL     1       1.963  24.406  19.594  1.00  0.00     0.161 HD
ENDBRANCH  15  18
ENDBRANCH   1  11
BRANCH   4  21
HETATM   21  N4  UNL     1       8.854  23.240  25.044  1.00  0.00    -0.192 N 
ATOM     22  H4  UNL     1       9.413  23.140  25.892  1.00  0.00     0.184 HD
BRANCH  21  23
HETATM   23  C8  UNL     1       9.224  22.431  23.971  1.00  0.00     0.050 A 
HETATM   24  C9  UNL     1      10.343  22.637  23.238  1.00  0.00     0.030 A 
HETATM   25  C10 UNL     1      10.649  21.784  22.170  1.00  0.00     0.004 A 
HETATM   26  C11 UNL     1       9.801  20.739  21.880  1.00  0.00     0.025 A 
HETATM   27  C12 UNL     1       8.656  20.501  22.606  1.00  0.00     0.081 A 
HETATM   28  C13 UNL     1       8.382  21.349  23.641  1.00  0.00     0.055 A 
BRANCH  27  29
HETATM   29  S1  UNL     1       7.623  19.153  22.181  1.00  0.00     0.256 S 
HETATM   30  O1  UNL     1       8.133  18.466  20.936  1.00  0.00    -0.201 OA
HETATM   31  O2  UNL     1       7.694  18.157  23.297  1.00  0.00    -0.201 OA
BRANCH  29  32
HETATM   32  N5  UNL     1       6.007  19.707  21.912  1.00  0.00    -0.324 N 
ATOM     33  H52 UNL     1       5.225  19.519  22.539  1.00  0.00     0.169 HD
ATOM     34  H51 UNL     1       5.961  20.240  21.044  1.00  0.00     0.169 HD
ENDBRANCH  29  32
ENDBRANCH  27  29
ENDBRANCH  21  23
ENDBRANCH   4  21
TORSDOF 6
ENDMDL
