MODEL 2
REMARK VINA RESULT: -8.113681241      1.142      1.313
REMARK  6 active torsions:
REMARK  status: ('A' for Active; 'I' for Inactive)
REMARK    1  A    between atoms: N1_2  and  C2_4 
REMARK    2  A    between atoms: C5_9  and  C6_10 
REMARK    3  A    between atoms: C7_13  and  N4_14 
REMARK    4  A    between atoms: N4_14  and  C8_16 
REMARK    5  A    between atoms: C12_20  and  S1_21 
REMARK    6  A    between atoms: S1_21  and  N5_22 
ROOT
HETATM    1  C6  UNL     1       5.527  24.814  24.004  1.00  0.00     0.090 A 
HETATM    2  N3  UNL     1       6.524  23.858  24.026  1.00  0.00    -0.189 N 
ATOM      3  H3  UNL     1       6.500  23.110  23.333  1.00  0.00     0.184 HD
HETATM    4  C7  UNL     1       7.516  23.874  24.916  1.00  0.00     0.683 A 
HETATM    5  N6  UNL     1       7.506  24.874  25.806  1.00  0.00    -0.200 N 
ATOM      6  H6  UNL     1       8.255  24.906  26.498  1.00  0.00     0.183 HD
HETATM    7  C14 UNL     1       6.584  25.826  25.844  1.00  0.00     0.131 A 
HETATM    8  C15 UNL     1       5.542  25.816  24.911  1.00  0.00     0.089 A 
HETATM    9  C16 UNL     1       4.623  26.911  24.884  1.00  0.00     0.103 C 
HETATM   10  N7  UNL     1       3.914  27.819  24.860  1.00  0.00    -0.191 NA
ENDROOT
BRANCH   1  11
HETATM   11  C5  UNL     1       4.434  24.599  23.053  1.00  0.00     0.059 A 
HETATM   12  C3  UNL     1       3.102  24.372  23.116  1.00  0.00     0.027 A 
HETATM   13  N2  UNL     1       2.471  24.126  21.991  1.00  0.00    -0.339 N 
HETATM   14  C4  UNL     1       2.299  24.282  24.413  1.00  0.00     0.070 C 
HETATM   15  C2  UNL     1       3.110  24.098  20.851  1.00  0.00     0.145 A 
ATOM     16  H2  UNL     1       1.465  23.955  22.007  1.00  0.00     0.168 HD
HETATM   17  S2  UNL     1       4.706  24.432  21.329  1.00  0.00    -0.050 SA
BRANCH  15  18
HETATM   18  N1  UNL     1       2.599  23.848  19.526  1.00  0.00    -0.375 N 
HETATM   19  C1  UNL     1       1.185  23.957  19.300  1.00  0.00     0.148 C 
ATOM     20  H1  UNL     1       3.230  23.599  18.764  1.00  0.00     0.161 HD
ENDBRANCH  15  18
ENDBRANCH   1  11
BRANCH   4  21
HETATM   21  N4  UNL     1       8.501  22.859  24.868  1.00  0.00    -0.192 N 
ATOM     22  H4  UNL     1       8.904  22.587  25.766  1.00  0.00     0.184 HD
BRANCH  21  23
HETATM   23  C8  UNL     1       8.992  22.184  23.751  1.00  0.00     0.050 A 
HETATM   24  C9  UNL     1      10.232  22.386  23.249  1.00  0.00     0.030 A 
HETATM   25  C10 UNL     1      10.656  21.674  22.120  1.00  0.00     0.004 A 
HETATM   26  C11 UNL     1       9.798  20.772  21.532  1.00  0.00     0.025 A 
HETATM   27  C12 UNL     1       8.529  20.543  22.019  1.00  0.00     0.081 A 
HETATM   28  C13 UNL     1       8.144  21.252  23.121  1.00  0.00     0.055 A 
BRANCH  27  29
HETATM   29  S1  UNL     1       7.491  19.381  21.222  1.00  0.00     0.256 S 
HETATM   30  O1  UNL     1       8.315  18.337  20.506  1.00  0.00    -0.201 OA
HETATM   31  O2  UNL     1       6.703  18.674  22.282  1.00  0.00    -0.201 OA
BRANCH  29  32
HETATM   32  N5  UNL     1       6.467  20.185  20.084  1.00  0.00    -0.324 N 
ATOM     33  H52 UNL     1       6.557  20.099  19.072  1.00  0.00     0.169 HD
ATOM     34  H51 UNL     1       5.772  20.747  20.575  1.00  0.00     0.169 HD
ENDBRANCH  29  32
ENDBRANCH  27  29
ENDBRANCH  21  23
ENDBRANCH   4  21
TORSDOF 6
ENDMDL
