MODEL 1
REMARK VINA RESULT: -9.848965494      0.000      0.000
REMARK  6 active torsions:
REMARK  status: ('A' for Active; 'I' for Inactive)
REMARK    1  A    between atoms: N1_2  and  C2_4 
REMARK    2  A    between atoms: C5_9  and  C6_10 
REMARK    3  A    between atoms: C7_13  and  N4_14 
REMARK    4  A    between atoms: N4_14  and  C8_16 
REMARK    5  A    between atoms: C13_21  and  S1_22 
REMARK    6  A    between atoms: S1_22  and  N5_25 
ROOT
HETATM    1  C6  UNL     1       4.236  24.486  23.733  1.00  0.00     0.090 A 
HETATM    2  N3  UNL     1       5.187  23.494  23.750  1.00  0.00    -0.189 N 
ATOM      3  H3  UNL     1       4.996  22.639  23.228  1.00  0.00     0.184 HD
HETATM    4  C7  UNL     1       6.353  23.581  24.412  1.00  0.00     0.683 A 
HETATM    5  N6  UNL     1       6.551  24.727  25.082  1.00  0.00    -0.200 N 
ATOM      6  H6  UNL     1       7.425  24.831  25.597  1.00  0.00     0.183 HD
HETATM    7  C19 UNL     1       5.691  25.730  25.118  1.00  0.00     0.131 A 
HETATM    8  C20 UNL     1       4.478  25.624  24.426  1.00  0.00     0.089 A 
HETATM    9  C21 UNL     1       3.506  26.687  24.582  1.00  0.00     0.103 C 
HETATM   10  N7  UNL     1       2.741  27.516  24.743  1.00  0.00    -0.191 NA
ENDROOT
BRANCH   1  11
HETATM   11  C5  UNL     1       3.084  24.261  22.859  1.00  0.00     0.059 A 
HETATM   12  C3  UNL     1       1.753  24.109  23.000  1.00  0.00     0.027 A 
HETATM   13  N2  UNL     1       1.020  24.015  21.918  1.00  0.00    -0.339 N 
HETATM   14  C4  UNL     1       1.044  24.141  24.351  1.00  0.00     0.070 C 
HETATM   15  C2  UNL     1       1.569  24.070  20.730  1.00  0.00     0.145 A 
ATOM     16  H2  UNL     1       0.010  23.898  22.001  1.00  0.00     0.168 HD
HETATM   17  S2  UNL     1       3.213  24.266  21.108  1.00  0.00    -0.050 SA
BRANCH  15  18
HETATM   18  N1  UNL     1       0.944  23.986  19.427  1.00  0.00    -0.375 N 
HETATM   19  C1  UNL     1       0.162  22.805  19.148  1.00  0.00     0.148 C 
ATOM     20  H1  UNL     1       1.052  24.728  18.737  1.00  0.00     0.161 HD
ENDBRANCH  15  18
ENDBRANCH   1  11
BRANCH   4  21
HETATM   21  N4  UNL     1       7.274  22.505  24.372  1.00  0.00    -0.192 N 
ATOM     22  H4  UNL     1       7.608  22.161  25.273  1.00  0.00     0.184 HD
BRANCH  21  23
HETATM   23  C8  UNL     1       7.779  21.860  23.232  1.00  0.00     0.050 A 
HETATM   24  C9  UNL     1       9.170  21.722  23.123  1.00  0.00     0.030 A 
HETATM   25  C10 UNL     1       9.754  21.106  22.042  1.00  0.00     0.010 A 
HETATM   26  C11 UNL     1       9.011  20.589  21.005  1.00  0.00    -0.039 A 
HETATM   27  C12 UNL     1       9.592  19.918  19.823  1.00  0.00     0.050 C 
HETATM   28  C13 UNL     1       7.643  20.713  21.090  1.00  0.00     0.087 A 
HETATM   29  C18 UNL     1       7.050  21.343  22.195  1.00  0.00     0.055 A 
BRANCH  28  30
HETATM   30  S1  UNL     1       6.600  20.090  19.823  1.00  0.00     0.261 S 
HETATM   31  O1  UNL     1       6.569  21.033  18.668  1.00  0.00    -0.200 OA
HETATM   32  O2  UNL     1       7.149  18.785  19.321  1.00  0.00    -0.200 OA
BRANCH  30  33
HETATM   33  N5  UNL     1       5.020  19.773  20.435  1.00  0.00    -0.303 N 
HETATM   34  C14 UNL     1       4.664  18.408  20.410  1.00  0.00     0.161 C 
HETATM   35  C15 UNL     1       3.328  18.073  19.857  1.00  0.00     0.188 C 
HETATM   36  O3  UNL     1       2.386  19.072  19.957  1.00  0.00    -0.388 OA
HETATM   37  C16 UNL     1       2.903  20.174  19.237  1.00  0.00     0.188 C 
HETATM   38  C17 UNL     1       4.041  20.715  20.034  1.00  0.00     0.161 C 
ENDBRANCH  30  33
ENDBRANCH  28  30
ENDBRANCH  21  23
ENDBRANCH   4  21
TORSDOF 6
ENDMDL
