MODEL 4
REMARK VINA RESULT: -9.323843348      0.978      1.281
REMARK  6 active torsions:
REMARK  status: ('A' for Active; 'I' for Inactive)
REMARK    1  A    between atoms: N1_2  and  C2_4 
REMARK    2  A    between atoms: C5_9  and  C6_10 
REMARK    3  A    between atoms: C7_13  and  N4_14 
REMARK    4  A    between atoms: N4_14  and  C8_16 
REMARK    5  A    between atoms: C13_21  and  S1_22 
REMARK    6  A    between atoms: S1_22  and  N5_25 
ROOT
HETATM    1  C6  UNL     1       4.202  24.590  23.694  1.00  0.00     0.090 A 
HETATM    2  N3  UNL     1       5.095  23.547  23.720  1.00  0.00    -0.189 N 
ATOM      3  H3  UNL     1       4.923  22.753  23.103  1.00  0.00     0.184 HD
HETATM    4  C7  UNL     1       6.184  23.508  24.507  1.00  0.00     0.683 A 
HETATM    5  N6  UNL     1       6.362  24.578  25.297  1.00  0.00    -0.200 N 
ATOM      6  H6  UNL     1       7.177  24.586  25.909  1.00  0.00     0.183 HD
HETATM    7  C19 UNL     1       5.552  25.622  25.335  1.00  0.00     0.131 A 
HETATM    8  C20 UNL     1       4.420  25.647  24.511  1.00  0.00     0.089 A 
HETATM    9  C21 UNL     1       3.489  26.748  24.661  1.00  0.00     0.103 C 
HETATM   10  N7  UNL     1       2.752  27.603  24.816  1.00  0.00    -0.191 NA
ENDROOT
BRANCH   1  11
HETATM   11  C5  UNL     1       3.144  24.509  22.686  1.00  0.00     0.059 A 
HETATM   12  C3  UNL     1       3.057  24.276  21.362  1.00  0.00     0.027 A 
HETATM   13  N2  UNL     1       1.865  24.195  20.821  1.00  0.00    -0.339 N 
HETATM   14  C4  UNL     1       4.270  24.003  20.477  1.00  0.00     0.070 C 
HETATM   15  C2  UNL     1       0.788  24.335  21.553  1.00  0.00     0.145 A 
ATOM     16  H2  UNL     1       1.776  24.021  19.821  1.00  0.00     0.168 HD
HETATM   17  S2  UNL     1       1.439  24.597  23.099  1.00  0.00    -0.050 SA
BRANCH  15  18
HETATM   18  N1  UNL     1      -0.603  24.281  21.154  1.00  0.00    -0.375 N 
HETATM   19  C1  UNL     1      -0.999  25.106  20.037  1.00  0.00     0.148 C 
ATOM     20  H1  UNL     1      -1.273  23.687  21.641  1.00  0.00     0.161 HD
ENDBRANCH  15  18
ENDBRANCH   1  11
BRANCH   4  21
HETATM   21  N4  UNL     1       7.051  22.388  24.465  1.00  0.00    -0.192 N 
ATOM     22  H4  UNL     1       7.297  21.974  25.364  1.00  0.00     0.184 HD
BRANCH  21  23
HETATM   23  C8  UNL     1       7.608  21.785  23.326  1.00  0.00     0.050 A 
HETATM   24  C9  UNL     1       9.006  21.732  23.234  1.00  0.00     0.030 A 
HETATM   25  C10 UNL     1       9.639  21.163  22.155  1.00  0.00     0.010 A 
HETATM   26  C11 UNL     1       8.941  20.614  21.104  1.00  0.00    -0.039 A 
HETATM   27  C12 UNL     1       9.576  19.990  19.923  1.00  0.00     0.050 C 
HETATM   28  C13 UNL     1       7.567  20.655  21.172  1.00  0.00     0.087 A 
HETATM   29  C18 UNL     1       6.924  21.237  22.274  1.00  0.00     0.055 A 
BRANCH  28  30
HETATM   30  S1  UNL     1       6.579  19.983  19.885  1.00  0.00     0.261 S 
HETATM   31  O1  UNL     1       6.559  20.905  18.714  1.00  0.00    -0.200 OA
HETATM   32  O2  UNL     1       7.177  18.685  19.423  1.00  0.00    -0.200 OA
BRANCH  30  33
HETATM   33  N5  UNL     1       4.991  19.634  20.456  1.00  0.00    -0.303 N 
HETATM   34  C14 UNL     1       4.672  18.260  20.446  1.00  0.00     0.161 C 
HETATM   35  C15 UNL     1       3.363  17.879  19.860  1.00  0.00     0.188 C 
HETATM   36  O3  UNL     1       2.392  18.854  19.912  1.00  0.00    -0.388 OA
HETATM   37  C16 UNL     1       2.901  19.956  19.187  1.00  0.00     0.188 C 
HETATM   38  C17 UNL     1       4.000  20.543  20.008  1.00  0.00     0.161 C 
ENDBRANCH  30  33
ENDBRANCH  28  30
ENDBRANCH  21  23
ENDBRANCH   4  21
TORSDOF 6
ENDMDL
