MODEL 3
REMARK VINA RESULT: -9.513892536      1.104      1.551
REMARK  6 active torsions:
REMARK  status: ('A' for Active; 'I' for Inactive)
REMARK    1  A    between atoms: N1_2  and  C2_4 
REMARK    2  A    between atoms: C5_9  and  C6_10 
REMARK    3  A    between atoms: C7_13  and  N4_14 
REMARK    4  A    between atoms: N4_14  and  C8_16 
REMARK    5  A    between atoms: C13_21  and  S1_22 
REMARK    6  A    between atoms: S1_22  and  N5_25 
ROOT
HETATM    1  C6  UNL     1       4.277  24.377  24.045  1.00  0.00     0.090 A 
HETATM    2  N3  UNL     1       5.178  23.340  24.024  1.00  0.00    -0.189 N 
ATOM      3  H3  UNL     1       4.964  22.532  23.440  1.00  0.00     0.184 HD
HETATM    4  C7  UNL     1       6.324  23.325  24.725  1.00  0.00     0.683 A 
HETATM    5  N6  UNL     1       6.555  24.413  25.476  1.00  0.00    -0.200 N 
ATOM      6  H6  UNL     1       7.415  24.440  26.023  1.00  0.00     0.183 HD
HETATM    7  C19 UNL     1       5.742  25.453  25.554  1.00  0.00     0.131 A 
HETATM    8  C20 UNL     1       4.549  25.454  24.820  1.00  0.00     0.089 A 
HETATM    9  C21 UNL     1       3.625  26.551  25.018  1.00  0.00     0.103 C 
HETATM   10  N7  UNL     1       2.896  27.406  25.211  1.00  0.00    -0.191 NA
ENDROOT
BRANCH   1  11
HETATM   11  C5  UNL     1       3.145  24.268  23.124  1.00  0.00     0.059 A 
HETATM   12  C3  UNL     1       1.806  24.141  23.215  1.00  0.00     0.027 A 
HETATM   13  N2  UNL     1       1.103  24.170  22.110  1.00  0.00    -0.339 N 
HETATM   14  C4  UNL     1       1.060  24.067  24.543  1.00  0.00     0.070 C 
HETATM   15  C2  UNL     1       1.687  24.320  20.948  1.00  0.00     0.145 A 
ATOM     16  H2  UNL     1       0.089  24.075  22.155  1.00  0.00     0.168 HD
HETATM   17  S2  UNL     1       3.324  24.433  21.385  1.00  0.00    -0.050 SA
BRANCH  15  18
HETATM   18  N1  UNL     1       1.098  24.377  19.626  1.00  0.00    -0.375 N 
HETATM   19  C1  UNL     1       0.551  23.150  19.098  1.00  0.00     0.148 C 
ATOM     20  H1  UNL     1       1.072  25.245  19.093  1.00  0.00     0.161 HD
ENDBRANCH  15  18
ENDBRANCH   1  11
BRANCH   4  21
HETATM   21  N4  UNL     1       7.193  22.210  24.640  1.00  0.00    -0.192 N 
ATOM     22  H4  UNL     1       7.453  21.770  25.523  1.00  0.00     0.184 HD
BRANCH  21  23
HETATM   23  C8  UNL     1       7.738  21.642  23.478  1.00  0.00     0.050 A 
HETATM   24  C9  UNL     1       9.070  21.948  23.164  1.00  0.00     0.030 A 
HETATM   25  C10 UNL     1       9.686  21.439  22.045  1.00  0.00     0.010 A 
HETATM   26  C11 UNL     1       9.033  20.602  21.169  1.00  0.00    -0.039 A 
HETATM   27  C12 UNL     1       9.652  20.030  19.954  1.00  0.00     0.050 C 
HETATM   28  C13 UNL     1       7.725  20.288  21.456  1.00  0.00     0.087 A 
HETATM   29  C18 UNL     1       7.099  20.809  22.598  1.00  0.00     0.055 A 
BRANCH  28  30
HETATM   30  S1  UNL     1       6.799  19.229  20.404  1.00  0.00     0.261 S 
HETATM   31  O1  UNL     1       7.696  18.229  19.758  1.00  0.00    -0.200 OA
HETATM   32  O2  UNL     1       5.795  18.468  21.221  1.00  0.00    -0.200 OA
BRANCH  30  33
HETATM   33  N5  UNL     1       5.916  20.146  19.242  1.00  0.00    -0.303 N 
HETATM   34  C14 UNL     1       6.390  21.464  19.078  1.00  0.00     0.161 C 
HETATM   35  C15 UNL     1       5.377  22.549  19.087  1.00  0.00     0.188 C 
HETATM   36  O3  UNL     1       4.113  22.172  18.690  1.00  0.00    -0.388 OA
HETATM   37  C16 UNL     1       3.699  21.166  19.595  1.00  0.00     0.188 C 
HETATM   38  C17 UNL     1       4.513  19.953  19.294  1.00  0.00     0.161 C 
ENDBRANCH  30  33
ENDBRANCH  28  30
ENDBRANCH  21  23
ENDBRANCH   4  21
TORSDOF 6
ENDMDL
