MODEL 5
REMARK VINA RESULT: -8.749960685      2.945      4.655
REMARK  5 active torsions:
REMARK  status: ('A' for Active; 'I' for Inactive)
REMARK    1  A    between atoms: N1_2  and  C2_4 
REMARK    2  A    between atoms: C5_9  and  C6_10 
REMARK    3  A    between atoms: C7_13  and  N4_14 
REMARK    4  A    between atoms: N4_14  and  C8_16 
REMARK    5  A    between atoms: C12_20  and  O1_21 
ROOT
HETATM    1  C6  UNL     1      35.388 -14.167  35.340  1.00  0.00     0.065 A 
HETATM    2  N3  UNL     1      34.707 -13.675  34.274  1.00  0.00    -0.193 N 
ATOM      3  H3  UNL     1      34.642 -14.267  33.447  1.00  0.00     0.184 HD
HETATM    4  C7  UNL     1      34.110 -12.471  34.217  1.00  0.00     0.682 A 
HETATM    5  N5  UNL     1      34.204 -11.703  35.314  1.00  0.00    -0.200 N 
ATOM      6  H5  UNL     1      33.765 -10.783  35.315  1.00  0.00     0.183 HD
HETATM    7  C14 UNL     1      34.865 -12.119  36.417  1.00  0.00     0.131 A 
HETATM    8  C15 UNL     1      35.472 -13.347  36.476  1.00  0.00     0.085 A 
HETATM    9  C16 UNL     1      36.114 -13.872  37.640  1.00  0.00     0.103 C 
HETATM   10  N6  UNL     1      36.611 -14.326  38.604  1.00  0.00    -0.191 NA
ENDROOT
BRANCH   1  11
HETATM   11  C5  UNL     1      36.171 -15.371  35.254  1.00  0.00     0.129 C 
HETATM   12  C3  UNL     1      36.646 -15.819  33.896  1.00  0.00     0.099 C 
HETATM   13  N2  UNL     1      37.077 -17.157  33.968  1.00  0.00    -0.365 N 
HETATM   14  C4  UNL     1      37.716 -14.917  33.397  1.00  0.00     0.034 C 
HETATM   15  C2  UNL     1      36.686 -17.932  34.890  1.00  0.00     0.136 C 
ATOM     16  H2  UNL     1      37.719 -17.511  33.260  1.00  0.00     0.162 HD
HETATM   17  S1  UNL     1      35.498 -16.910  35.854  1.00  0.00    -0.081 SA
BRANCH  15  18
HETATM   18  N1  UNL     1      36.956 -19.278  35.180  1.00  0.00    -0.375 N 
HETATM   19  C1  UNL     1      37.820 -19.617  36.286  1.00  0.00     0.148 C 
ATOM     20  H1  UNL     1      36.543 -20.017  34.610  1.00  0.00     0.161 HD
ENDBRANCH  15  18
ENDBRANCH   1  11
BRANCH   4  21
HETATM   21  N4  UNL     1      33.470 -12.031  33.027  1.00  0.00    -0.192 N 
ATOM     22  H4  UNL     1      32.520 -11.677  33.142  1.00  0.00     0.184 HD
BRANCH  21  23
HETATM   23  C8  UNL     1      33.963 -12.019  31.728  1.00  0.00     0.051 A 
HETATM   24  C9  UNL     1      35.056 -11.194  31.451  1.00  0.00     0.030 A 
HETATM   25  C10 UNL     1      35.600 -11.177  30.190  1.00  0.00     0.005 A 
HETATM   26  C11 UNL     1      35.111 -11.941  29.171  1.00  0.00     0.036 A 
HETATM   27  C12 UNL     1      34.036 -12.750  29.442  1.00  0.00     0.067 A 
HETATM   28  C13 UNL     1      33.483 -12.782  30.689  1.00  0.00     0.066 A 
BRANCH  27  29
HETATM   29  O1  UNL     1      33.552 -13.531  28.359  1.00  0.00    -0.361 OA
ATOM     30  H1  UNL     1      34.209 -13.902  27.782  1.00  0.00     0.217 HD
ENDBRANCH  27  29
ENDBRANCH  21  23
ENDBRANCH   4  21
TORSDOF 5
ENDMDL
