MODEL 1
REMARK VINA RESULT: -8.903111372      0.000      0.000
REMARK  5 active torsions:
REMARK  status: ('A' for Active; 'I' for Inactive)
REMARK    1  A    between atoms: N1_2  and  C2_4 
REMARK    2  A    between atoms: C5_9  and  C6_10 
REMARK    3  A    between atoms: C7_13  and  N4_14 
REMARK    4  A    between atoms: N4_14  and  C8_16 
REMARK    5  A    between atoms: C12_20  and  O1_21 
ROOT
HETATM    1  C6  UNL     1      34.653 -16.698  31.745  1.00  0.00     0.065 A 
HETATM    2  N3  UNL     1      34.402 -15.401  31.430  1.00  0.00    -0.193 N 
ATOM      3  H3  UNL     1      34.699 -14.692  32.100  1.00  0.00     0.184 HD
HETATM    4  C7  UNL     1      33.796 -14.974  30.309  1.00  0.00     0.682 A 
HETATM    5  N5  UNL     1      33.411 -15.920  29.438  1.00  0.00    -0.200 N 
ATOM      6  H5  UNL     1      32.948 -15.640  28.573  1.00  0.00     0.183 HD
HETATM    7  C14 UNL     1      33.622 -17.232  29.676  1.00  0.00     0.131 A 
HETATM    8  C15 UNL     1      34.243 -17.669  30.819  1.00  0.00     0.085 A 
HETATM    9  C16 UNL     1      34.567 -19.035  31.088  1.00  0.00     0.103 C 
HETATM   10  N6  UNL     1      34.868 -20.151  31.299  1.00  0.00    -0.191 NA
ENDROOT
BRANCH   1  11
HETATM   11  C5  UNL     1      35.118 -17.089  33.050  1.00  0.00     0.129 C 
HETATM   12  C3  UNL     1      35.017 -16.090  34.173  1.00  0.00     0.099 C 
HETATM   13  N2  UNL     1      35.819 -16.513  35.250  1.00  0.00    -0.365 N 
HETATM   14  C4  UNL     1      33.598 -15.905  34.577  1.00  0.00     0.034 C 
HETATM   15  C2  UNL     1      36.779 -17.322  35.085  1.00  0.00     0.136 C 
ATOM     16  H2  UNL     1      35.623 -16.158  36.185  1.00  0.00     0.162 HD
HETATM   17  S1  UNL     1      36.811 -17.608  33.268  1.00  0.00    -0.081 SA
BRANCH  15  18
HETATM   18  N1  UNL     1      37.712 -17.884  35.970  1.00  0.00    -0.375 N 
HETATM   19  C1  UNL     1      37.886 -19.317  36.018  1.00  0.00     0.148 C 
ATOM     20  H1  UNL     1      38.267 -17.282  36.578  1.00  0.00     0.161 HD
ENDBRANCH  15  18
ENDBRANCH   1  11
BRANCH   4  21
HETATM   21  N4  UNL     1      33.532 -13.593  30.105  1.00  0.00    -0.192 N 
ATOM     22  H4  UNL     1      32.882 -13.374  29.350  1.00  0.00     0.184 HD
BRANCH  21  23
HETATM   23  C8  UNL     1      34.039 -12.499  30.797  1.00  0.00     0.051 A 
HETATM   24  C9  UNL     1      33.504 -12.216  32.057  1.00  0.00     0.030 A 
HETATM   25  C10 UNL     1      34.000 -11.168  32.793  1.00  0.00     0.005 A 
HETATM   26  C11 UNL     1      35.008 -10.368  32.341  1.00  0.00     0.036 A 
HETATM   27  C12 UNL     1      35.533 -10.644  31.103  1.00  0.00     0.067 A 
HETATM   28  C13 UNL     1      35.056 -11.683  30.357  1.00  0.00     0.066 A 
BRANCH  27  29
HETATM   29  O1  UNL     1      36.581  -9.793  30.663  1.00  0.00    -0.361 OA
ATOM     30  H1  UNL     1      36.891  -9.933  29.776  1.00  0.00     0.217 HD
ENDBRANCH  27  29
ENDBRANCH  21  23
ENDBRANCH   4  21
TORSDOF 5
ENDMDL
