MODEL 8
REMARK VINA RESULT: -8.332984745      3.001      4.757
REMARK  5 active torsions:
REMARK  status: ('A' for Active; 'I' for Inactive)
REMARK    1  A    between atoms: N1_2  and  C2_4 
REMARK    2  A    between atoms: C5_9  and  C6_10 
REMARK    3  A    between atoms: C7_13  and  N4_14 
REMARK    4  A    between atoms: N4_14  and  C8_16 
REMARK    5  A    between atoms: C12_20  and  O1_21 
ROOT
HETATM    1  C6  UNL     1      35.636 -14.237  35.955  1.00  0.00     0.065 A 
HETATM    2  N3  UNL     1      34.976 -13.600  34.954  1.00  0.00    -0.193 N 
ATOM      3  H3  UNL     1      34.879 -14.095  34.069  1.00  0.00     0.184 HD
HETATM    4  C7  UNL     1      34.438 -12.369  35.034  1.00  0.00     0.682 A 
HETATM    5  N5  UNL     1      34.574 -11.730  36.206  1.00  0.00    -0.200 N 
ATOM      6  H5  UNL     1      34.181 -10.795  36.311  1.00  0.00     0.183 HD
HETATM    7  C14 UNL     1      35.218 -12.294  37.251  1.00  0.00     0.131 A 
HETATM    8  C15 UNL     1      35.765 -13.550  37.172  1.00  0.00     0.085 A 
HETATM    9  C16 UNL     1      36.384 -14.229  38.266  1.00  0.00     0.103 C 
HETATM   10  N6  UNL     1      36.862 -14.808  39.171  1.00  0.00    -0.191 NA
ENDROOT
BRANCH   1  11
HETATM   11  C5  UNL     1      36.358 -15.461  35.732  1.00  0.00     0.129 C 
HETATM   12  C3  UNL     1      36.671 -15.858  34.313  1.00  0.00     0.099 C 
HETATM   13  N2  UNL     1      37.054 -17.212  34.278  1.00  0.00    -0.365 N 
HETATM   14  C4  UNL     1      37.718 -14.969  33.744  1.00  0.00     0.034 C 
HETATM   15  C2  UNL     1      36.733 -18.017  35.200  1.00  0.00     0.136 C 
ATOM     16  H2  UNL     1      37.605 -17.552  33.490  1.00  0.00     0.162 HD
HETATM   17  S1  UNL     1      35.692 -17.004  36.329  1.00  0.00    -0.081 SA
BRANCH  15  18
HETATM   18  N1  UNL     1      36.979 -19.384  35.398  1.00  0.00    -0.375 N 
HETATM   19  C1  UNL     1      38.058 -19.804  36.261  1.00  0.00     0.148 C 
ATOM     20  H1  UNL     1      36.396 -20.082  34.934  1.00  0.00     0.161 HD
ENDBRANCH  15  18
ENDBRANCH   1  11
BRANCH   4  21
HETATM   21  N4  UNL     1      33.816 -11.773  33.904  1.00  0.00    -0.192 N 
ATOM     22  H4  UNL     1      32.891 -11.375  34.068  1.00  0.00     0.184 HD
BRANCH  21  23
HETATM   23  C8  UNL     1      34.298 -11.657  32.605  1.00  0.00     0.051 A 
HETATM   24  C9  UNL     1      33.735 -12.476  31.623  1.00  0.00     0.030 A 
HETATM   25  C10 UNL     1      34.154 -12.370  30.319  1.00  0.00     0.005 A 
HETATM   26  C11 UNL     1      35.119 -11.488  29.930  1.00  0.00     0.036 A 
HETATM   27  C12 UNL     1      35.674 -10.684  30.894  1.00  0.00     0.067 A 
HETATM   28  C13 UNL     1      35.270 -10.773  32.195  1.00  0.00     0.066 A 
BRANCH  27  29
HETATM   29  O1  UNL     1      36.675  -9.778  30.455  1.00  0.00    -0.361 OA
ATOM     30  H1  UNL     1      37.570 -10.097  30.481  1.00  0.00     0.217 HD
ENDBRANCH  27  29
ENDBRANCH  21  23
ENDBRANCH   4  21
TORSDOF 5
ENDMDL
