MODEL 2
REMARK VINA RESULT: -10.134913206      3.975     10.296
REMARK  5 active torsions:
REMARK  status: ('A' for Active; 'I' for Inactive)
REMARK    1  A    between atoms: N1_2  and  C2_4 
REMARK    2  A    between atoms: C5_9  and  C6_10 
REMARK    3  A    between atoms: C7_13  and  N4_14 
REMARK    4  A    between atoms: N4_14  and  C8_16 
REMARK    5  A    between atoms: C12_20  and  N5_21 
REMARK       I    between atoms: N6_25  and  C16_26 
ROOT
HETATM    1  C6  UNL     1      -4.811  26.168 -28.243  1.00  0.00     0.090 A 
HETATM    2  N3  UNL     1      -5.746  25.838 -27.350  1.00  0.00    -0.189 N 
ATOM      3  H3  UNL     1      -6.705  25.700 -27.669  1.00  0.00     0.184 HD
HETATM    4  C7  UNL     1      -5.465  25.679 -26.032  1.00  0.00     0.683 A 
HETATM    5  N7  UNL     1      -4.226  25.860 -25.648  1.00  0.00    -0.200 N 
ATOM      6  H7  UNL     1      -4.025  25.737 -24.656  1.00  0.00     0.183 HD
HETATM    7  C21 UNL     1      -3.189  26.197 -26.449  1.00  0.00     0.131 A 
HETATM    8  C22 UNL     1      -3.522  26.351 -27.804  1.00  0.00     0.089 A 
HETATM    9  C23 UNL     1      -2.476  26.707 -28.713  1.00  0.00     0.103 C 
HETATM   10  N8  UNL     1      -1.614  26.998 -29.432  1.00  0.00    -0.191 NA
ENDROOT
BRANCH   1  11
HETATM   11  C5  UNL     1      -5.087  26.331 -29.669  1.00  0.00     0.059 A 
HETATM   12  C3  UNL     1      -5.072  25.387 -30.672  1.00  0.00     0.027 A 
HETATM   13  N2  UNL     1      -5.349  25.783 -31.872  1.00  0.00    -0.339 N 
HETATM   14  C4  UNL     1      -4.734  23.936 -30.366  1.00  0.00     0.070 C 
HETATM   15  C2  UNL     1      -5.633  27.049 -32.109  1.00  0.00     0.145 A 
ATOM     16  H2  UNL     1      -5.347  25.111 -32.641  1.00  0.00     0.168 HD
HETATM   17  S1  UNL     1      -5.507  27.741 -30.553  1.00  0.00    -0.050 SA
BRANCH  15  18
HETATM   18  N1  UNL     1      -5.957  27.681 -33.341  1.00  0.00    -0.375 N 
HETATM   19  C1  UNL     1      -7.130  28.510 -33.446  1.00  0.00     0.148 C 
ATOM     20  H1  UNL     1      -5.356  27.546 -34.154  1.00  0.00     0.161 HD
ENDBRANCH  15  18
ENDBRANCH   1  11
BRANCH   4  21
HETATM   21  N4  UNL     1      -6.505  25.329 -25.148  1.00  0.00    -0.192 N 
ATOM     22  H4  UNL     1      -7.184  26.062 -24.942  1.00  0.00     0.184 HD
BRANCH  21  23
HETATM   23  C8  UNL     1      -6.718  24.096 -24.519  1.00  0.00     0.051 A 
HETATM   24  C9  UNL     1      -7.745  23.246 -24.826  1.00  0.00     0.030 A 
HETATM   25  C10 UNL     1      -7.927  22.033 -24.156  1.00  0.00     0.004 A 
HETATM   26  C11 UNL     1      -7.053  21.687 -23.164  1.00  0.00     0.029 A 
HETATM   27  C12 UNL     1      -5.977  22.518 -22.800  1.00  0.00     0.032 A 
HETATM   28  C20 UNL     1      -5.859  23.693 -23.503  1.00  0.00     0.059 A 
BRANCH  27  29
HETATM   29  N5  UNL     1      -5.112  22.115 -21.775  1.00  0.00    -0.379 N 
HETATM   30  C13 UNL     1      -4.623  23.115 -20.878  1.00  0.00     0.124 C 
HETATM   31  C14 UNL     1      -3.282  23.582 -21.464  1.00  0.00     0.040 C 
HETATM   32  C15 UNL     1      -2.348  22.388 -21.335  1.00  0.00     0.127 C 
HETATM   33  N6  UNL     1      -2.850  21.433 -20.370  1.00  0.00    -0.351 N 
HETATM   34  C16 UNL     1      -2.349  21.525 -19.048  1.00  0.00     0.215 C 
HETATM   35  C18 UNL     1      -3.826  20.379 -20.601  1.00  0.00     0.145 C 
HETATM   36  C17 UNL     1      -1.360  22.577 -18.722  1.00  0.00     0.117 C 
HETATM   37  O1  UNL     1      -2.721  20.744 -18.153  1.00  0.00    -0.274 OA
HETATM   38  C19 UNL     1      -4.778  20.685 -21.716  1.00  0.00     0.143 C 
ENDBRANCH  27  29
ENDBRANCH  21  23
ENDBRANCH   4  21
TORSDOF 5
ENDMDL
