MODEL 3
REMARK VINA RESULT: -9.957498104      4.666      7.996
REMARK  5 active torsions:
REMARK  status: ('A' for Active; 'I' for Inactive)
REMARK    1  A    between atoms: N1_2  and  C2_4 
REMARK    2  A    between atoms: C5_9  and  C6_10 
REMARK    3  A    between atoms: C7_13  and  N4_14 
REMARK    4  A    between atoms: N4_14  and  C8_16 
REMARK    5  A    between atoms: C12_20  and  N5_21 
REMARK       I    between atoms: N6_25  and  C16_26 
ROOT
HETATM    1  C6  UNL     1      -2.219  22.623 -21.269  1.00  0.00     0.090 A 
HETATM    2  N3  UNL     1      -3.326  23.198 -21.742  1.00  0.00    -0.189 N 
ATOM      3  H3  UNL     1      -4.168  23.193 -21.167  1.00  0.00     0.184 HD
HETATM    4  C7  UNL     1      -3.370  23.789 -22.962  1.00  0.00     0.683 A 
HETATM    5  N7  UNL     1      -2.276  23.783 -23.681  1.00  0.00    -0.200 N 
ATOM      6  H7  UNL     1      -2.319  24.232 -24.596  1.00  0.00     0.183 HD
HETATM    7  C21 UNL     1      -1.092  23.236 -23.319  1.00  0.00     0.131 A 
HETATM    8  C22 UNL     1      -1.089  22.635 -22.050  1.00  0.00     0.089 A 
HETATM    9  C23 UNL     1       0.128  22.034 -21.599  1.00  0.00     0.103 C 
HETATM   10  N8  UNL     1       1.124  21.551 -21.253  1.00  0.00    -0.191 NA
ENDROOT
BRANCH   1  11
HETATM   11  C5  UNL     1      -2.144  21.993 -19.952  1.00  0.00     0.059 A 
HETATM   12  C3  UNL     1      -2.848  20.914 -19.462  1.00  0.00     0.027 A 
HETATM   13  N2  UNL     1      -2.607  20.543 -18.247  1.00  0.00    -0.339 N 
HETATM   14  C4  UNL     1      -3.874  20.200 -20.328  1.00  0.00     0.070 C 
HETATM   15  C2  UNL     1      -1.715  21.185 -17.516  1.00  0.00     0.145 A 
ATOM     16  H2  UNL     1      -3.109  19.748 -17.850  1.00  0.00     0.168 HD
HETATM   17  S1  UNL     1      -1.172  22.392 -18.595  1.00  0.00    -0.050 SA
BRANCH  15  18
HETATM   18  N1  UNL     1      -1.310  20.941 -16.176  1.00  0.00    -0.375 N 
HETATM   19  C1  UNL     1      -0.567  19.751 -15.846  1.00  0.00     0.148 C 
ATOM     20  H1  UNL     1      -1.546  21.611 -15.444  1.00  0.00     0.161 HD
ENDBRANCH  15  18
ENDBRANCH   1  11
BRANCH   4  21
HETATM   21  N4  UNL     1      -4.575  24.377 -23.395  1.00  0.00    -0.192 N 
ATOM     22  H4  UNL     1      -4.575  25.393 -23.477  1.00  0.00     0.184 HD
BRANCH  21  23
HETATM   23  C8  UNL     1      -5.774  23.732 -23.725  1.00  0.00     0.051 A 
HETATM   24  C9  UNL     1      -6.419  23.878 -24.923  1.00  0.00     0.030 A 
HETATM   25  C10 UNL     1      -7.624  23.227 -25.200  1.00  0.00     0.004 A 
HETATM   26  C11 UNL     1      -8.176  22.421 -24.244  1.00  0.00     0.029 A 
HETATM   27  C12 UNL     1      -7.562  22.229 -22.991  1.00  0.00     0.032 A 
HETATM   28  C20 UNL     1      -6.380  22.900 -22.791  1.00  0.00     0.059 A 
BRANCH  27  29
HETATM   29  N5  UNL     1      -8.173  21.393 -22.048  1.00  0.00    -0.379 N 
HETATM   30  C13 UNL     1      -7.362  20.868 -20.993  1.00  0.00     0.124 C 
HETATM   31  C14 UNL     1      -6.864  19.502 -21.489  1.00  0.00     0.040 C 
HETATM   32  C15 UNL     1      -8.104  18.624 -21.563  1.00  0.00     0.127 C 
HETATM   33  N6  UNL     1      -9.185  19.177 -20.775  1.00  0.00    -0.351 N 
HETATM   34  C16 UNL     1      -9.341  18.685 -19.456  1.00  0.00     0.215 C 
HETATM   35  C18 UNL     1     -10.139  20.197 -21.183  1.00  0.00     0.145 C 
HETATM   36  C17 UNL     1      -8.406  17.653 -18.954  1.00  0.00     0.117 C 
HETATM   37  O1  UNL     1     -10.245  19.100 -18.707  1.00  0.00    -0.274 OA
HETATM   38  C19 UNL     1      -9.605  21.124 -22.232  1.00  0.00     0.143 C 
ENDBRANCH  27  29
ENDBRANCH  21  23
ENDBRANCH   4  21
TORSDOF 5
ENDMDL
