MODEL 5
REMARK VINA RESULT: -9.860011913      4.140      9.892
REMARK  5 active torsions:
REMARK  status: ('A' for Active; 'I' for Inactive)
REMARK    1  A    between atoms: N1_2  and  C2_4 
REMARK    2  A    between atoms: C5_9  and  C6_10 
REMARK    3  A    between atoms: C7_13  and  N4_14 
REMARK    4  A    between atoms: N4_14  and  C8_16 
REMARK    5  A    between atoms: C12_20  and  N5_21 
REMARK       I    between atoms: N6_25  and  C16_26 
ROOT
HETATM    1  C6  UNL     1      -2.817  25.479 -27.495  1.00  0.00     0.090 A 
HETATM    2  N3  UNL     1      -3.371  24.973 -26.393  1.00  0.00    -0.189 N 
ATOM      3  H3  UNL     1      -3.172  24.005 -26.141  1.00  0.00     0.184 HD
HETATM    4  C7  UNL     1      -4.190  25.702 -25.593  1.00  0.00     0.683 A 
HETATM    5  N7  UNL     1      -4.429  26.942 -25.937  1.00  0.00    -0.200 N 
ATOM      6  H7  UNL     1      -5.045  27.482 -25.329  1.00  0.00     0.183 HD
HETATM    7  C21 UNL     1      -3.933  27.573 -27.026  1.00  0.00     0.131 A 
HETATM    8  C22 UNL     1      -3.090  26.784 -27.826  1.00  0.00     0.089 A 
HETATM    9  C23 UNL     1      -2.527  27.384 -28.996  1.00  0.00     0.103 C 
HETATM   10  N8  UNL     1      -2.083  27.888 -29.941  1.00  0.00    -0.191 NA
ENDROOT
BRANCH   1  11
HETATM   11  C5  UNL     1      -1.921  24.718 -28.363  1.00  0.00     0.059 A 
HETATM   12  C3  UNL     1      -2.223  23.943 -29.462  1.00  0.00     0.027 A 
HETATM   13  N2  UNL     1      -1.244  23.355 -30.069  1.00  0.00    -0.339 N 
HETATM   14  C4  UNL     1      -3.662  23.788 -29.929  1.00  0.00     0.070 C 
HETATM   15  C2  UNL     1      -0.005  23.503 -29.638  1.00  0.00     0.145 A 
ATOM     16  H2  UNL     1      -1.430  22.773 -30.886  1.00  0.00     0.168 HD
HETATM   17  S1  UNL     1      -0.216  24.533 -28.293  1.00  0.00    -0.050 SA
BRANCH  15  18
HETATM   18  N1  UNL     1       1.197  22.947 -30.155  1.00  0.00    -0.375 N 
HETATM   19  C1  UNL     1       2.271  22.585 -29.267  1.00  0.00     0.148 C 
ATOM     20  H1  UNL     1       1.299  22.804 -31.160  1.00  0.00     0.161 HD
ENDBRANCH  15  18
ENDBRANCH   1  11
BRANCH   4  21
HETATM   21  N4  UNL     1      -4.738  25.099 -24.444  1.00  0.00    -0.192 N 
ATOM     22  H4  UNL     1      -4.352  25.403 -23.550  1.00  0.00     0.184 HD
BRANCH  21  23
HETATM   23  C8  UNL     1      -5.749  24.132 -24.382  1.00  0.00     0.051 A 
HETATM   24  C9  UNL     1      -6.843  24.111 -25.205  1.00  0.00     0.030 A 
HETATM   25  C10 UNL     1      -7.836  23.134 -25.093  1.00  0.00     0.004 A 
HETATM   26  C11 UNL     1      -7.712  22.171 -24.131  1.00  0.00     0.029 A 
HETATM   27  C12 UNL     1      -6.611  22.138 -23.253  1.00  0.00     0.032 A 
HETATM   28  C20 UNL     1      -5.674  23.128 -23.423  1.00  0.00     0.059 A 
BRANCH  27  29
HETATM   29  N5  UNL     1      -6.535  21.129 -22.284  1.00  0.00    -0.379 N 
HETATM   30  C13 UNL     1      -7.547  20.118 -22.287  1.00  0.00     0.124 C 
HETATM   31  C14 UNL     1      -8.629  20.608 -21.311  1.00  0.00     0.040 C 
HETATM   32  C15 UNL     1      -7.978  20.567 -19.936  1.00  0.00     0.127 C 
HETATM   33  N6  UNL     1      -6.803  19.723 -19.937  1.00  0.00    -0.351 N 
HETATM   34  C16 UNL     1      -6.971  18.382 -19.512  1.00  0.00     0.215 C 
HETATM   35  C18 UNL     1      -5.454  20.094 -20.334  1.00  0.00     0.145 C 
HETATM   36  C17 UNL     1      -8.313  17.917 -19.102  1.00  0.00     0.117 C 
HETATM   37  O1  UNL     1      -6.015  17.584 -19.477  1.00  0.00    -0.274 OA
HETATM   38  C19 UNL     1      -5.413  21.204 -21.339  1.00  0.00     0.143 C 
ENDBRANCH  27  29
ENDBRANCH  21  23
ENDBRANCH   4  21
TORSDOF 5
ENDMDL
