MODEL 1
REMARK VINA RESULT: -9.567264977      0.000      0.000
REMARK  5 active torsions:
REMARK  status: ('A' for Active; 'I' for Inactive)
REMARK    1  A    between atoms: N1_2  and  C2_4 
REMARK    2  A    between atoms: C5_9  and  C6_10 
REMARK    3  A    between atoms: C7_13  and  N4_14 
REMARK    4  A    between atoms: N4_14  and  C8_16 
REMARK    5  A    between atoms: C12_20  and  N5_21 
ROOT
HETATM    1  C6  UNL     1       1.690  22.334  20.851  1.00  0.00     0.090 A 
HETATM    2  N3  UNL     1       2.963  22.827  21.022  1.00  0.00    -0.189 N 
ATOM      3  H3  UNL     1       3.604  22.805  20.229  1.00  0.00     0.184 HD
HETATM    4  C7  UNL     1       3.407  23.341  22.196  1.00  0.00     0.683 A 
HETATM    5  N7  UNL     1       2.586  23.380  23.251  1.00  0.00    -0.200 N 
ATOM      6  H7  UNL     1       2.916  23.768  24.135  1.00  0.00     0.183 HD
HETATM    7  C19 UNL     1       1.342  22.917  23.155  1.00  0.00     0.131 A 
HETATM    8  C20 UNL     1       0.889  22.382  21.927  1.00  0.00     0.089 A 
HETATM    9  C21 UNL     1      -0.411  21.782  21.913  1.00  0.00     0.103 C 
HETATM   10  N8  UNL     1      -1.429  21.286  21.931  1.00  0.00    -0.191 NA
ENDROOT
BRANCH   1  11
HETATM   11  C5  UNL     1       1.351  21.942  19.489  1.00  0.00     0.059 A 
HETATM   12  C3  UNL     1       0.439  22.299  18.558  1.00  0.00     0.027 A 
HETATM   13  N2  UNL     1       0.514  21.756  17.372  1.00  0.00    -0.339 N 
HETATM   14  C4  UNL     1      -0.609  23.382  18.793  1.00  0.00     0.070 C 
HETATM   15  C2  UNL     1       1.451  20.885  17.087  1.00  0.00     0.145 A 
ATOM     16  H2  UNL     1      -0.168  22.013  16.657  1.00  0.00     0.168 HD
HETATM   17  S1  UNL     1       2.304  20.796  18.553  1.00  0.00    -0.050 SA
BRANCH  15  18
HETATM   18  N1  UNL     1       1.689  20.185  15.852  1.00  0.00    -0.375 N 
HETATM   19  C1  UNL     1       0.560  19.713  15.111  1.00  0.00     0.148 C 
ATOM     20  H1  UNL     1       2.639  20.030  15.514  1.00  0.00     0.161 HD
ENDBRANCH  15  18
ENDBRANCH   1  11
BRANCH   4  21
HETATM   21  N4  UNL     1       4.731  23.803  22.324  1.00  0.00    -0.192 N 
ATOM     22  H4  UNL     1       4.917  24.765  22.041  1.00  0.00     0.184 HD
BRANCH  21  23
HETATM   23  C8  UNL     1       5.819  23.057  22.805  1.00  0.00     0.051 A 
HETATM   24  C9  UNL     1       6.394  23.239  24.026  1.00  0.00     0.030 A 
HETATM   25  C10 UNL     1       7.450  22.440  24.411  1.00  0.00     0.004 A 
HETATM   26  C11 UNL     1       7.927  21.462  23.574  1.00  0.00     0.029 A 
HETATM   27  C12 UNL     1       7.382  21.232  22.319  1.00  0.00     0.032 A 
HETATM   28  C18 UNL     1       6.335  22.043  21.967  1.00  0.00     0.059 A 
BRANCH  27  29
HETATM   29  N5  UNL     1       7.882  20.236  21.448  1.00  0.00    -0.379 N 
HETATM   30  C13 UNL     1       8.908  20.563  20.489  1.00  0.00     0.124 C 
HETATM   31  C14 UNL     1       9.551  19.316  19.924  1.00  0.00     0.047 C 
HETATM   32  C15 UNL     1       8.613  18.338  19.311  1.00  0.00     0.234 C 
HETATM   33  N6  UNL     1       7.248  18.734  19.178  1.00  0.00    -0.074 N 
HETATM   34  C16 UNL     1       6.483  18.527  20.404  1.00  0.00     0.252 C 
ATOM     35  H62 UNL     1       7.176  19.700  18.859  1.00  0.00     0.277 HD
ATOM     36  H61 UNL     1       6.807  18.266  18.386  1.00  0.00     0.277 HD
HETATM   37  C17 UNL     1       7.303  18.925  21.616  1.00  0.00     0.150 C 
ENDBRANCH  27  29
ENDBRANCH  21  23
ENDBRANCH   4  21
TORSDOF 5
ENDMDL
