MODEL 8
REMARK VINA RESULT: -9.036338233      2.123      6.563
REMARK  5 active torsions:
REMARK  status: ('A' for Active; 'I' for Inactive)
REMARK    1  A    between atoms: N1_2  and  C2_4 
REMARK    2  A    between atoms: C5_9  and  C6_10 
REMARK    3  A    between atoms: C7_13  and  N4_14 
REMARK    4  A    between atoms: N4_14  and  C8_16 
REMARK    5  A    between atoms: C12_20  and  N5_21 
ROOT
HETATM    1  C6  UNL     1       7.797  20.961  21.382  1.00  0.00     0.090 A 
HETATM    2  N3  UNL     1       7.425  21.653  22.513  1.00  0.00    -0.189 N 
ATOM      3  H3  UNL     1       6.459  21.968  22.594  1.00  0.00     0.184 HD
HETATM    4  C7  UNL     1       8.283  21.934  23.524  1.00  0.00     0.683 A 
HETATM    5  N7  UNL     1       9.556  21.532  23.441  1.00  0.00    -0.200 N 
ATOM      6  H7  UNL     1      10.204  21.740  24.201  1.00  0.00     0.183 HD
HETATM    7  C19 UNL     1       9.982  20.861  22.373  1.00  0.00     0.131 A 
HETATM    8  C20 UNL     1       9.081  20.573  21.324  1.00  0.00     0.089 A 
HETATM    9  C21 UNL     1       9.619  19.963  20.145  1.00  0.00     0.103 C 
HETATM   10  N8  UNL     1      10.070  19.509  19.211  1.00  0.00    -0.191 NA
ENDROOT
BRANCH   1  11
HETATM   11  C5  UNL     1       6.712  20.640  20.464  1.00  0.00     0.059 A 
HETATM   12  C3  UNL     1       6.089  19.524  20.025  1.00  0.00     0.027 A 
HETATM   13  N2  UNL     1       5.057  19.656  19.234  1.00  0.00    -0.339 N 
HETATM   14  C4  UNL     1       6.470  18.122  20.490  1.00  0.00     0.070 C 
HETATM   15  C2  UNL     1       4.632  20.842  18.874  1.00  0.00     0.145 A 
ATOM     16  H2  UNL     1       4.576  18.824  18.892  1.00  0.00     0.168 HD
HETATM   17  S1  UNL     1       5.724  21.866  19.676  1.00  0.00    -0.050 SA
BRANCH  15  18
HETATM   18  N1  UNL     1       3.527  21.184  18.018  1.00  0.00    -0.375 N 
HETATM   19  C1  UNL     1       2.210  20.797  18.423  1.00  0.00     0.148 C 
ATOM     20  H1  UNL     1       3.678  21.690  17.145  1.00  0.00     0.161 HD
ENDBRANCH  15  18
ENDBRANCH   1  11
BRANCH   4  21
HETATM   21  N4  UNL     1       7.856  22.674  24.644  1.00  0.00    -0.192 N 
ATOM     22  H4  UNL     1       8.365  22.530  25.517  1.00  0.00     0.184 HD
BRANCH  21  23
HETATM   23  C8  UNL     1       6.793  23.590  24.668  1.00  0.00     0.051 A 
HETATM   24  C9  UNL     1       6.727  24.667  25.498  1.00  0.00     0.030 A 
HETATM   25  C10 UNL     1       5.644  25.520  25.429  1.00  0.00     0.004 A 
HETATM   26  C11 UNL     1       4.632  25.291  24.531  1.00  0.00     0.029 A 
HETATM   27  C12 UNL     1       4.645  24.209  23.662  1.00  0.00     0.032 A 
HETATM   28  C18 UNL     1       5.734  23.383  23.756  1.00  0.00     0.059 A 
BRANCH  27  29
HETATM   29  N5  UNL     1       3.596  23.962  22.747  1.00  0.00    -0.379 N 
HETATM   30  C13 UNL     1       3.670  24.483  21.404  1.00  0.00     0.124 C 
HETATM   31  C14 UNL     1       2.659  23.817  20.498  1.00  0.00     0.047 C 
HETATM   32  C15 UNL     1       1.248  23.884  20.962  1.00  0.00     0.234 C 
HETATM   33  N6  UNL     1       0.973  24.688  22.109  1.00  0.00    -0.074 N 
HETATM   34  C16 UNL     1       1.232  23.984  23.361  1.00  0.00     0.252 C 
ATOM     35  H62 UNL     1       1.485  25.569  22.071  1.00  0.00     0.277 HD
ATOM     36  H61 UNL     1       0.020  25.052  22.082  1.00  0.00     0.277 HD
HETATM   37  C17 UNL     1       2.506  23.168  23.259  1.00  0.00     0.150 C 
ENDBRANCH  27  29
ENDBRANCH  21  23
ENDBRANCH   4  21
TORSDOF 5
ENDMDL
