MODEL 2
REMARK VINA RESULT: -9.404157247      2.099      3.163
REMARK  5 active torsions:
REMARK  status: ('A' for Active; 'I' for Inactive)
REMARK    1  A    between atoms: N1_2  and  C2_4 
REMARK    2  A    between atoms: C5_9  and  C6_10 
REMARK    3  A    between atoms: C7_13  and  N4_14 
REMARK    4  A    between atoms: N4_14  and  C8_16 
REMARK    5  A    between atoms: C12_20  and  N5_21 
ROOT
HETATM    1  C6  UNL     1       4.376  23.080  22.791  1.00  0.00     0.090 A 
HETATM    2  N3  UNL     1       5.614  22.759  23.299  1.00  0.00    -0.189 N 
ATOM      3  H3  UNL     1       6.068  21.907  22.971  1.00  0.00     0.184 HD
HETATM    4  C7  UNL     1       6.259  23.523  24.215  1.00  0.00     0.683 A 
HETATM    5  N7  UNL     1       5.684  24.644  24.662  1.00  0.00    -0.200 N 
ATOM      6  H7  UNL     1       6.167  25.222  25.350  1.00  0.00     0.183 HD
HETATM    7  C19 UNL     1       4.485  25.011  24.215  1.00  0.00     0.131 A 
HETATM    8  C20 UNL     1       3.820  24.208  23.260  1.00  0.00     0.089 A 
HETATM    9  C21 UNL     1       2.482  24.579  22.908  1.00  0.00     0.103 C 
HETATM   10  N8  UNL     1       1.415  24.872  22.667  1.00  0.00    -0.191 NA
ENDROOT
BRANCH   1  11
HETATM   11  C5  UNL     1       3.897  22.212  21.723  1.00  0.00     0.059 A 
HETATM   12  C3  UNL     1       3.184  21.069  21.626  1.00  0.00     0.027 A 
HETATM   13  N2  UNL     1       2.869  20.629  20.436  1.00  0.00    -0.339 N 
HETATM   14  C4  UNL     1       2.642  20.321  22.840  1.00  0.00     0.070 C 
HETATM   15  C2  UNL     1       3.233  21.281  19.359  1.00  0.00     0.145 A 
ATOM     16  H2  UNL     1       2.333  19.766  20.345  1.00  0.00     0.168 HD
HETATM   17  S1  UNL     1       4.073  22.602  20.015  1.00  0.00    -0.050 SA
BRANCH  15  18
HETATM   18  N1  UNL     1       2.985  20.955  17.979  1.00  0.00    -0.375 N 
HETATM   19  C1  UNL     1       1.687  20.473  17.618  1.00  0.00     0.148 C 
ATOM     20  H1  UNL     1       3.716  21.066  17.276  1.00  0.00     0.161 HD
ENDBRANCH  15  18
ENDBRANCH   1  11
BRANCH   4  21
HETATM   21  N4  UNL     1       7.512  23.130  24.725  1.00  0.00    -0.192 N 
ATOM     22  H4  UNL     1       7.697  23.327  25.708  1.00  0.00     0.184 HD
BRANCH  21  23
HETATM   23  C8  UNL     1       8.530  22.490  23.999  1.00  0.00     0.051 A 
HETATM   24  C9  UNL     1       9.860  22.718  24.181  1.00  0.00     0.030 A 
HETATM   25  C10 UNL     1      10.783  22.023  23.428  1.00  0.00     0.004 A 
HETATM   26  C11 UNL     1      10.372  21.103  22.496  1.00  0.00     0.029 A 
HETATM   27  C12 UNL     1       9.031  20.831  22.267  1.00  0.00     0.032 A 
HETATM   28  C18 UNL     1       8.141  21.538  23.032  1.00  0.00     0.059 A 
BRANCH  27  29
HETATM   29  N5  UNL     1       8.604  19.895  21.296  1.00  0.00    -0.379 N 
HETATM   30  C13 UNL     1       9.317  19.771  20.049  1.00  0.00     0.124 C 
HETATM   31  C14 UNL     1       8.942  18.498  19.324  1.00  0.00     0.047 C 
HETATM   32  C15 UNL     1       7.489  18.317  19.066  1.00  0.00     0.234 C 
HETATM   33  N6  UNL     1       6.627  19.411  19.380  1.00  0.00    -0.074 N 
HETATM   34  C16 UNL     1       6.257  19.444  20.792  1.00  0.00     0.252 C 
ATOM     35  H62 UNL     1       7.037  20.297  19.087  1.00  0.00     0.277 HD
ATOM     36  H61 UNL     1       5.799  19.409  18.783  1.00  0.00     0.277 HD
HETATM   37  C17 UNL     1       7.451  19.109  21.663  1.00  0.00     0.150 C 
ENDBRANCH  27  29
ENDBRANCH  21  23
ENDBRANCH   4  21
TORSDOF 5
ENDMDL
