MODEL 3
REMARK VINA RESULT: -9.351914297      0.884      1.008
REMARK  5 active torsions:
REMARK  status: ('A' for Active; 'I' for Inactive)
REMARK    1  A    between atoms: N1_2  and  C2_4 
REMARK    2  A    between atoms: C5_9  and  C6_10 
REMARK    3  A    between atoms: C7_13  and  N4_14 
REMARK    4  A    between atoms: N4_14  and  C8_16 
REMARK    5  A    between atoms: C12_20  and  N5_21 
ROOT
HETATM    1  C6  UNL     1       1.326  22.460  20.913  1.00  0.00     0.090 A 
HETATM    2  N3  UNL     1       2.533  23.079  21.146  1.00  0.00    -0.189 N 
ATOM      3  H3  UNL     1       3.208  23.130  20.383  1.00  0.00     0.184 HD
HETATM    4  C7  UNL     1       2.867  23.624  22.341  1.00  0.00     0.683 A 
HETATM    5  N7  UNL     1       2.000  23.570  23.357  1.00  0.00    -0.200 N 
ATOM      6  H7  UNL     1       2.247  23.981  24.257  1.00  0.00     0.183 HD
HETATM    7  C19 UNL     1       0.815  22.983  23.201  1.00  0.00     0.131 A 
HETATM    8  C20 UNL     1       0.476  22.416  21.951  1.00  0.00     0.089 A 
HETATM    9  C21 UNL     1      -0.754  21.686  21.874  1.00  0.00     0.103 C 
HETATM   10  N8  UNL     1      -1.715  21.089  21.842  1.00  0.00    -0.191 NA
ENDROOT
BRANCH   1  11
HETATM   11  C5  UNL     1       1.092  22.048  19.535  1.00  0.00     0.059 A 
HETATM   12  C3  UNL     1       0.227  22.362  18.545  1.00  0.00     0.027 A 
HETATM   13  N2  UNL     1       0.400  21.818  17.370  1.00  0.00    -0.339 N 
HETATM   14  C4  UNL     1      -0.880  23.398  18.707  1.00  0.00     0.070 C 
HETATM   15  C2  UNL     1       1.390  20.988  17.151  1.00  0.00     0.145 A 
ATOM     16  H2  UNL     1      -0.245  22.042  16.612  1.00  0.00     0.168 HD
HETATM   17  S1  UNL     1       2.152  20.941  18.669  1.00  0.00    -0.050 SA
BRANCH  15  18
HETATM   18  N1  UNL     1       1.737  20.294  15.939  1.00  0.00    -0.375 N 
HETATM   19  C1  UNL     1       0.683  19.720  15.160  1.00  0.00     0.148 C 
ATOM     20  H1  UNL     1       2.710  20.214  15.642  1.00  0.00     0.161 HD
ENDBRANCH  15  18
ENDBRANCH   1  11
BRANCH   4  21
HETATM   21  N4  UNL     1       4.130  24.218  22.532  1.00  0.00    -0.192 N 
ATOM     22  H4  UNL     1       4.203  25.221  22.360  1.00  0.00     0.184 HD
BRANCH  21  23
HETATM   23  C8  UNL     1       5.298  23.553  22.939  1.00  0.00     0.051 A 
HETATM   24  C9  UNL     1       6.137  24.004  23.913  1.00  0.00     0.030 A 
HETATM   25  C10 UNL     1       7.252  23.264  24.251  1.00  0.00     0.004 A 
HETATM   26  C11 UNL     1       7.523  22.079  23.614  1.00  0.00     0.029 A 
HETATM   27  C12 UNL     1       6.705  21.573  22.615  1.00  0.00     0.032 A 
HETATM   28  C18 UNL     1       5.607  22.330  22.303  1.00  0.00     0.059 A 
BRANCH  27  29
HETATM   29  N5  UNL     1       6.990  20.359  21.946  1.00  0.00    -0.379 N 
HETATM   30  C13 UNL     1       8.055  19.508  22.415  1.00  0.00     0.124 C 
HETATM   31  C14 UNL     1       7.962  18.125  21.812  1.00  0.00     0.047 C 
HETATM   32  C15 UNL     1       7.930  18.079  20.326  1.00  0.00     0.234 C 
HETATM   33  N6  UNL     1       8.145  19.306  19.628  1.00  0.00    -0.074 N 
HETATM   34  C16 UNL     1       6.930  20.107  19.517  1.00  0.00     0.252 C 
ATOM     35  H62 UNL     1       8.900  19.843  20.055  1.00  0.00     0.277 HD
ATOM     36  H61 UNL     1       8.560  19.139  18.711  1.00  0.00     0.277 HD
HETATM   37  C17 UNL     1       6.145  20.067  20.814  1.00  0.00     0.150 C 
ENDBRANCH  27  29
ENDBRANCH  21  23
ENDBRANCH   4  21
TORSDOF 5
ENDMDL
