MODEL 5
REMARK VINA RESULT: -6.423658716      3.215      7.281
REMARK  5 active torsions:
REMARK  status: ('A' for Active; 'I' for Inactive)
REMARK    1  A    between atoms: C1_2  and  C2_4 
REMARK    2  A    between atoms: C2_4  and  C3_5 
REMARK    3  A    between atoms: C3_5  and  C4_6 
REMARK    4  A    between atoms: C4_6  and  C5_7 
REMARK    5  A    between atoms: C5_7  and  C6_8 
ROOT
HETATM    1  C6  UNL     1      69.651  -6.556  33.147  1.00  0.00     0.072 C 
HETATM    2  S1  UNL     1      69.578  -6.752  31.322  1.00  0.00    -0.160 SA
HETATM    3  C7  UNL     1      69.981  -8.541  31.246  1.00  0.00     0.101 C 
HETATM    4  C8  UNL     1      70.398  -8.817  32.646  1.00  0.00     0.119 C 
HETATM    5  N1  UNL     1      69.909 -10.163  32.980  1.00  0.00    -0.336 N 
ATOM      6  H1  UNL     1      70.441 -11.032  33.007  1.00  0.00     0.164 HD
HETATM    7  C9  UNL     1      68.526  -9.979  33.260  1.00  0.00     0.316 C 
HETATM    8  O3  UNL     1      67.683 -10.922  33.293  1.00  0.00    -0.247 OA
HETATM    9  N2  UNL     1      68.282  -8.577  33.485  1.00  0.00    -0.335 N 
ATOM     10  H2  UNL     1      67.378  -8.111  33.561  1.00  0.00     0.164 HD
HETATM   11  C10 UNL     1      69.578  -7.980  33.579  1.00  0.00     0.123 C 
ENDROOT
BRANCH   1  12
HETATM   12  C5  UNL     1      68.536  -5.704  33.638  1.00  0.00     0.017 C 
BRANCH  12  13
HETATM   13  C4  UNL     1      68.242  -4.651  32.599  1.00  0.00     0.002 C 
BRANCH  13  14
HETATM   14  C3  UNL     1      68.938  -3.351  32.872  1.00  0.00     0.010 C 
BRANCH  14  15
HETATM   15  C2  UNL     1      68.608  -2.308  31.835  1.00  0.00     0.113 C 
BRANCH  15  16
HETATM   16  C1  UNL     1      68.271  -1.004  32.431  1.00  0.00     0.172 C 
HETATM   17  O1  UNL     1      67.107  -0.558  32.420  1.00  0.00    -0.648 OA
HETATM   18  O2  UNL     1      69.260  -0.253  33.018  1.00  0.00    -0.648 OA
ENDBRANCH  15  16
ENDBRANCH  14  15
ENDBRANCH  13  14
ENDBRANCH  12  13
ENDBRANCH   1  12
TORSDOF 5
ENDMDL
