MODEL 4
REMARK VINA RESULT: -6.444914892      3.489      7.032
REMARK  5 active torsions:
REMARK  status: ('A' for Active; 'I' for Inactive)
REMARK    1  A    between atoms: C1_2  and  C2_4 
REMARK    2  A    between atoms: C2_4  and  C3_5 
REMARK    3  A    between atoms: C3_5  and  C4_6 
REMARK    4  A    between atoms: C4_6  and  C5_7 
REMARK    5  A    between atoms: C5_7  and  C6_8 
ROOT
HETATM    1  C6  UNL     1      69.640  -6.648  33.228  1.00  0.00     0.072 C 
HETATM    2  S1  UNL     1      69.642  -6.765  31.395  1.00  0.00    -0.160 SA
HETATM    3  C7  UNL     1      69.970  -8.566  31.259  1.00  0.00     0.101 C 
HETATM    4  C8  UNL     1      70.310  -8.919  32.663  1.00  0.00     0.119 C 
HETATM    5  N1  UNL     1      69.748 -10.253  32.916  1.00  0.00    -0.336 N 
ATOM      6  H1  UNL     1      70.241 -11.146  32.928  1.00  0.00     0.164 HD
HETATM    7  C9  UNL     1      68.364 -10.019  33.143  1.00  0.00     0.316 C 
HETATM    8  O3  UNL     1      67.480 -10.923  33.098  1.00  0.00    -0.247 OA
HETATM    9  N2  UNL     1      68.171  -8.618  33.418  1.00  0.00    -0.335 N 
ATOM     10  H2  UNL     1      67.285  -8.114  33.475  1.00  0.00     0.164 HD
HETATM   11  C10 UNL     1      69.486  -8.084  33.595  1.00  0.00     0.123 C 
ENDROOT
BRANCH   1  12
HETATM   12  C5  UNL     1      68.542  -5.768  33.707  1.00  0.00     0.017 C 
BRANCH  12  13
HETATM   13  C4  UNL     1      68.256  -4.736  32.645  1.00  0.00     0.002 C 
BRANCH  13  14
HETATM   14  C3  UNL     1      69.096  -3.502  32.788  1.00  0.00     0.010 C 
BRANCH  14  15
HETATM   15  C2  UNL     1      69.504  -2.943  31.449  1.00  0.00     0.113 C 
BRANCH  15  16
HETATM   16  C1  UNL     1      70.852  -2.351  31.471  1.00  0.00     0.172 C 
HETATM   17  O1  UNL     1      71.880  -3.055  31.407  1.00  0.00    -0.648 OA
HETATM   18  O2  UNL     1      70.991  -0.987  31.563  1.00  0.00    -0.648 OA
ENDBRANCH  15  16
ENDBRANCH  14  15
ENDBRANCH  13  14
ENDBRANCH  12  13
ENDBRANCH   1  12
TORSDOF 5
ENDMDL
