MODEL 2
REMARK VINA RESULT: -7.602141422      1.036      1.159
REMARK  5 active torsions:
REMARK  status: ('A' for Active; 'I' for Inactive)
REMARK    1  A    between atoms: C1_2  and  C2_4 
REMARK    2  A    between atoms: C2_4  and  C3_5 
REMARK    3  A    between atoms: C3_5  and  C4_6 
REMARK    4  A    between atoms: C4_6  and  C5_7 
REMARK    5  A    between atoms: C5_7  and  C6_8 
ROOT
HETATM    1  C6  UNL     1      69.852  -3.968  31.545  1.00  0.00     0.072 C 
HETATM    2  S1  UNL     1      71.338  -2.896  31.415  1.00  0.00    -0.160 SA
HETATM    3  C7  UNL     1      70.480  -1.329  30.997  1.00  0.00     0.101 C 
HETATM    4  C8  UNL     1      69.095  -1.802  30.735  1.00  0.00     0.119 C 
HETATM    5  N1  UNL     1      68.185  -0.768  31.250  1.00  0.00    -0.336 N 
ATOM      6  H1  UNL     1      67.683  -0.058  30.719  1.00  0.00     0.164 HD
HETATM    7  C9  UNL     1      68.163  -0.983  32.656  1.00  0.00     0.316 C 
HETATM    8  O3  UNL     1      67.746  -0.131  33.492  1.00  0.00    -0.247 OA
HETATM    9  N2  UNL     1      68.686  -2.297  32.931  1.00  0.00    -0.335 N 
ATOM     10  H2  UNL     1      68.935  -2.686  33.841  1.00  0.00     0.164 HD
HETATM   11  C10 UNL     1      68.780  -2.940  31.656  1.00  0.00     0.123 C 
ENDROOT
BRANCH   1  12
HETATM   12  C5  UNL     1      69.952  -4.884  32.712  1.00  0.00     0.017 C 
BRANCH  12  13
HETATM   13  C4  UNL     1      68.778  -5.830  32.682  1.00  0.00     0.002 C 
BRANCH  13  14
HETATM   14  C3  UNL     1      69.036  -7.056  31.858  1.00  0.00     0.010 C 
BRANCH  14  15
HETATM   15  C2  UNL     1      69.017  -8.309  32.696  1.00  0.00     0.113 C 
BRANCH  15  16
HETATM   16  C1  UNL     1      70.044  -9.281  32.283  1.00  0.00     0.172 C 
HETATM   17  O1  UNL     1      70.903  -9.003  31.421  1.00  0.00    -0.648 OA
HETATM   18  O2  UNL     1      70.066 -10.528  32.858  1.00  0.00    -0.648 OA
ENDBRANCH  15  16
ENDBRANCH  14  15
ENDBRANCH  13  14
ENDBRANCH  12  13
ENDBRANCH   1  12
TORSDOF 5
ENDMDL
