MODEL 1
REMARK VINA RESULT: -8.561853472      0.000      0.000
REMARK  5 active torsions:
REMARK  status: ('A' for Active; 'I' for Inactive)
REMARK    1  A    between atoms: C1_2  and  C2_4 
REMARK    2  A    between atoms: C2_4  and  C3_5 
REMARK    3  A    between atoms: C3_5  and  C4_6 
REMARK    4  A    between atoms: C4_6  and  C5_7 
REMARK    5  A    between atoms: C5_7  and  C6_8 
ROOT
HETATM    1  C6  UNL     1      69.423  -3.775  31.450  1.00  0.00     0.072 C 
HETATM    2  S1  UNL     1      71.058  -3.279  32.125  1.00  0.00    -0.160 SA
HETATM    3  C7  UNL     1      70.967  -1.493  31.714  1.00  0.00     0.101 C 
HETATM    4  C8  UNL     1      69.763  -1.443  30.843  1.00  0.00     0.119 C 
HETATM    5  N1  UNL     1      69.066  -0.186  31.148  1.00  0.00    -0.336 N 
ATOM      6  H1  UNL     1      69.077   0.681  30.610  1.00  0.00     0.164 HD
HETATM    7  C9  UNL     1      68.373  -0.449  32.362  1.00  0.00     0.316 C 
HETATM    8  O3  UNL     1      67.902   0.452  33.114  1.00  0.00    -0.247 OA
HETATM    9  N2  UNL     1      68.314  -1.875  32.561  1.00  0.00    -0.335 N 
ATOM     10  H2  UNL     1      68.017  -2.371  33.401  1.00  0.00     0.164 HD
HETATM   11  C10 UNL     1      68.762  -2.446  31.327  1.00  0.00     0.123 C 
ENDROOT
BRANCH   1  12
HETATM   12  C5  UNL     1      68.733  -4.726  32.362  1.00  0.00     0.017 C 
BRANCH  12  13
HETATM   13  C4  UNL     1      69.743  -5.729  32.861  1.00  0.00     0.002 C 
BRANCH  13  14
HETATM   14  C3  UNL     1      69.114  -6.869  33.607  1.00  0.00     0.010 C 
BRANCH  14  15
HETATM   15  C2  UNL     1      70.015  -8.076  33.650  1.00  0.00     0.113 C 
BRANCH  15  16
HETATM   16  C1  UNL     1      69.437  -9.238  32.954  1.00  0.00     0.172 C 
HETATM   17  O1  UNL     1      68.306  -9.194  32.430  1.00  0.00    -0.648 OA
HETATM   18  O2  UNL     1      70.156 -10.406  32.873  1.00  0.00    -0.648 OA
ENDBRANCH  15  16
ENDBRANCH  14  15
ENDBRANCH  13  14
ENDBRANCH  12  13
ENDBRANCH   1  12
TORSDOF 5
ENDMDL
