MODEL 3
REMARK VINA RESULT: -6.509085780      2.534      6.643
REMARK  5 active torsions:
REMARK  status: ('A' for Active; 'I' for Inactive)
REMARK    1  A    between atoms: C1_2  and  C2_4 
REMARK    2  A    between atoms: C2_4  and  C3_5 
REMARK    3  A    between atoms: C3_5  and  C4_6 
REMARK    4  A    between atoms: C4_6  and  C5_7 
REMARK    5  A    between atoms: C5_7  and  C6_8 
ROOT
HETATM    1  C6  UNL     1      69.642  -4.387  31.775  1.00  0.00     0.072 C 
HETATM    2  S1  UNL     1      68.660  -3.958  33.268  1.00  0.00    -0.160 SA
HETATM    3  C7  UNL     1      67.964  -5.624  33.597  1.00  0.00     0.101 C 
HETATM    4  C8  UNL     1      68.345  -6.361  32.363  1.00  0.00     0.119 C 
HETATM    5  N1  UNL     1      68.682  -7.732  32.772  1.00  0.00    -0.336 N 
ATOM      6  H1  UNL     1      68.104  -8.568  32.688  1.00  0.00     0.164 HD
HETATM    7  C9  UNL     1      69.995  -7.631  33.308  1.00  0.00     0.316 C 
HETATM    8  O3  UNL     1      70.528  -8.516  34.038  1.00  0.00    -0.247 OA
HETATM    9  N2  UNL     1      70.574  -6.383  32.882  1.00  0.00    -0.335 N 
ATOM     10  H2  UNL     1      71.438  -5.954  33.216  1.00  0.00     0.164 HD
HETATM   11  C10 UNL     1      69.679  -5.872  31.889  1.00  0.00     0.123 C 
ENDROOT
BRANCH   1  12
HETATM   12  C5  UNL     1      70.976  -3.733  31.805  1.00  0.00     0.017 C 
BRANCH  12  13
HETATM   13  C4  UNL     1      71.001  -2.646  30.759  1.00  0.00     0.002 C 
BRANCH  13  14
HETATM   14  C3  UNL     1      70.690  -1.289  31.318  1.00  0.00     0.010 C 
BRANCH  14  15
HETATM   15  C2  UNL     1      69.302  -0.833  30.947  1.00  0.00     0.113 C 
BRANCH  15  16
HETATM   16  C1  UNL     1      68.545  -0.329  32.105  1.00  0.00     0.172 C 
HETATM   17  O1  UNL     1      69.068   0.413  32.960  1.00  0.00    -0.648 OA
HETATM   18  O2  UNL     1      67.226  -0.681  32.255  1.00  0.00    -0.648 OA
ENDBRANCH  15  16
ENDBRANCH  14  15
ENDBRANCH  13  14
ENDBRANCH  12  13
ENDBRANCH   1  12
TORSDOF 5
ENDMDL
