MODEL 1
REMARK VINA RESULT: -8.330707868      0.000      0.000
REMARK  4 active torsions:
REMARK  status: ('A' for Active; 'I' for Inactive)
REMARK    1  A    between atoms: N1_1  and  S1_4 
REMARK    2  A    between atoms: S1_4  and  C1_7 
REMARK    3  A    between atoms: C4_10  and  C5_11 
REMARK    4  A    between atoms: N2_13  and  C7_14 
ROOT
HETATM    1  C5  UNL     1      -1.769   4.048  12.650  1.00  0.00     0.084 A 
HETATM    2  C6  UNL     1      -3.096   4.123  12.992  1.00  0.00     0.150 A 
HETATM    3  N2  UNL     1      -3.171   4.106  14.329  1.00  0.00    -0.250 N 
HETATM    4  N3  UNL     1      -1.955   4.025  14.796  1.00  0.00    -0.235 N 
ATOM      5  H3  UNL     1      -1.701   3.994  15.783  1.00  0.00     0.209 HD
HETATM    6  N4  UNL     1      -1.113   3.991  13.790  1.00  0.00    -0.283 N 
ATOM      7  H4  UNL     1      -0.098   3.929  13.879  1.00  0.00     0.188 HD
ENDROOT
BRANCH   1   8
HETATM    8  C4  UNL     1      -1.262   4.040  11.260  1.00  0.00     0.036 A 
HETATM    9  C3  UNL     1      -1.984   4.205  10.103  1.00  0.00     0.023 A 
HETATM   10  C2  UNL     1      -1.309   4.159   8.950  1.00  0.00     0.034 A 
HETATM   11  C1  UNL     1       0.039   3.951   9.011  1.00  0.00     0.120 A 
HETATM   12  S2  UNL     1       0.331   3.825  10.685  1.00  0.00    -0.074 SA
BRANCH  11  13
HETATM   13  S1  UNL     1       1.189   3.841   7.688  1.00  0.00     0.263 S 
HETATM   14  O1  UNL     1       1.978   2.585   7.855  1.00  0.00    -0.200 OA
HETATM   15  O2  UNL     1       2.088   5.061   7.786  1.00  0.00    -0.200 OA
BRANCH  13  16
HETATM   16  N1  UNL     1       0.410   3.789   6.165  1.00  0.00    -0.324 N 
ATOM     17  H12 UNL     1       0.796   4.161   5.297  1.00  0.00     0.169 HD
ATOM     18  H11 UNL     1      -0.492   3.327   6.282  1.00  0.00     0.169 HD
ENDBRANCH  13  16
ENDBRANCH  11  13
ENDBRANCH   1   8
BRANCH   3  19
HETATM   19  C7  UNL     1      -4.426   4.171  15.020  1.00  0.00     0.068 A 
HETATM   20  C8  UNL     1      -5.128   5.376  15.086  1.00  0.00     0.032 A 
HETATM   21  C9  UNL     1      -6.318   5.524  15.718  1.00  0.00     0.003 A 
HETATM   22  C10 UNL     1      -6.865   4.408  16.335  1.00  0.00     0.012 A 
HETATM   23  C11 UNL     1      -6.216   3.200  16.299  1.00  0.00    -0.024 A 
HETATM   24  C12 UNL     1      -6.782   2.120  16.917  1.00  0.00     0.012 A 
HETATM   25  C16 UNL     1      -4.989   3.074  15.640  1.00  0.00     0.003 A 
HETATM   26  C13 UNL     1      -6.120   0.900  16.878  1.00  0.00     0.001 A 
HETATM   27  C14 UNL     1      -4.906   0.763  16.230  1.00  0.00     0.001 A 
HETATM   28  C15 UNL     1      -4.342   1.857  15.609  1.00  0.00     0.014 A 
ENDBRANCH   3  19
TORSDOF 4
ENDMDL
