MODEL 3
REMARK VINA RESULT: -8.198363488      1.158      1.440
REMARK  4 active torsions:
REMARK  status: ('A' for Active; 'I' for Inactive)
REMARK    1  A    between atoms: N1_1  and  S1_4 
REMARK    2  A    between atoms: S1_4  and  C1_7 
REMARK    3  A    between atoms: C4_10  and  C5_11 
REMARK    4  A    between atoms: N2_13  and  C7_14 
ROOT
HETATM    1  C5  UNL     1      -1.611   4.101  12.797  1.00  0.00     0.084 A 
HETATM    2  C6  UNL     1      -2.951   4.208  13.074  1.00  0.00     0.150 A 
HETATM    3  N2  UNL     1      -3.100   4.104  14.401  1.00  0.00    -0.250 N 
HETATM    4  N3  UNL     1      -1.916   3.941  14.924  1.00  0.00    -0.235 N 
ATOM      5  H3  UNL     1      -1.718   3.833  15.919  1.00  0.00     0.209 HD
HETATM    6  N4  UNL     1      -1.021   3.940  13.964  1.00  0.00    -0.283 N 
ATOM      7  H4  UNL     1      -0.016   3.830  14.101  1.00  0.00     0.188 HD
ENDROOT
BRANCH   1   8
HETATM    8  C4  UNL     1      -1.029   4.165  11.439  1.00  0.00     0.036 A 
HETATM    9  C3  UNL     1       0.206   3.724  11.033  1.00  0.00     0.023 A 
HETATM   10  C2  UNL     1       0.521   3.888   9.744  1.00  0.00     0.034 A 
HETATM   11  C1  UNL     1      -0.406   4.479   8.934  1.00  0.00     0.120 A 
HETATM   12  S2  UNL     1      -1.698   4.792   9.999  1.00  0.00    -0.074 SA
BRANCH  11  13
HETATM   13  S1  UNL     1      -0.292   4.830   7.217  1.00  0.00     0.263 S 
HETATM   14  O1  UNL     1       0.572   6.034   7.040  1.00  0.00    -0.200 OA
HETATM   15  O2  UNL     1      -1.704   5.102   6.730  1.00  0.00    -0.200 OA
BRANCH  13  16
HETATM   16  N1  UNL     1       0.406   3.534   6.344  1.00  0.00    -0.324 N 
ATOM     17  H12 UNL     1       1.374   3.497   6.024  1.00  0.00     0.169 HD
ATOM     18  H11 UNL     1      -0.309   2.819   6.205  1.00  0.00     0.169 HD
ENDBRANCH  13  16
ENDBRANCH  11  13
ENDBRANCH   1   8
BRANCH   3  19
HETATM   19  C7  UNL     1      -4.388   4.174  15.029  1.00  0.00     0.068 A 
HETATM   20  C8  UNL     1      -5.101   5.375  15.031  1.00  0.00     0.032 A 
HETATM   21  C9  UNL     1      -6.322   5.527  15.601  1.00  0.00     0.003 A 
HETATM   22  C10 UNL     1      -6.890   4.421  16.216  1.00  0.00     0.012 A 
HETATM   23  C11 UNL     1      -6.231   3.218  16.242  1.00  0.00    -0.024 A 
HETATM   24  C12 UNL     1      -6.819   2.147  16.856  1.00  0.00     0.012 A 
HETATM   25  C16 UNL     1      -4.972   3.088  15.646  1.00  0.00     0.003 A 
HETATM   26  C13 UNL     1      -6.146   0.933  16.879  1.00  0.00     0.001 A 
HETATM   27  C14 UNL     1      -4.901   0.791  16.294  1.00  0.00     0.001 A 
HETATM   28  C15 UNL     1      -4.315   1.876  15.676  1.00  0.00     0.014 A 
ENDBRANCH   3  19
TORSDOF 4
ENDMDL
