MODEL 20
REMARK VINA RESULT: -7.396685713      5.844      8.514
REMARK  4 active torsions:
REMARK  status: ('A' for Active; 'I' for Inactive)
REMARK    1  A    between atoms: N1_1  and  S1_4 
REMARK    2  A    between atoms: S1_4  and  C1_7 
REMARK    3  A    between atoms: C4_10  and  C5_11 
REMARK    4  A    between atoms: N2_13  and  C7_14 
ROOT
HETATM    1  C5  UNL     1      -2.692   4.527  14.390  1.00  0.00     0.084 A 
HETATM    2  C6  UNL     1      -2.811   5.787  13.857  1.00  0.00     0.150 A 
HETATM    3  N2  UNL     1      -1.624   6.119  13.332  1.00  0.00    -0.250 N 
HETATM    4  N3  UNL     1      -0.808   5.119  13.528  1.00  0.00    -0.235 N 
ATOM      5  H3  UNL     1       0.169   5.086  13.235  1.00  0.00     0.209 HD
HETATM    6  N4  UNL     1      -1.447   4.164  14.162  1.00  0.00    -0.283 N 
ATOM      7  H4  UNL     1      -1.038   3.270  14.438  1.00  0.00     0.188 HD
ENDROOT
BRANCH   1   8
HETATM    8  C4  UNL     1      -3.787   3.799  15.066  1.00  0.00     0.036 A 
HETATM    9  C3  UNL     1      -5.117   4.137  15.113  1.00  0.00     0.023 A 
HETATM   10  C2  UNL     1      -5.932   3.322  15.789  1.00  0.00     0.034 A 
HETATM   11  C1  UNL     1      -5.381   2.220  16.380  1.00  0.00     0.120 A 
HETATM   12  S2  UNL     1      -3.733   2.353  15.973  1.00  0.00    -0.074 SA
BRANCH  11  13
HETATM   13  S1  UNL     1      -6.179   0.974  17.327  1.00  0.00     0.263 S 
HETATM   14  O1  UNL     1      -5.802   1.159  18.759  1.00  0.00    -0.200 OA
HETATM   15  O2  UNL     1      -5.679  -0.361  16.804  1.00  0.00    -0.200 OA
BRANCH  13  16
HETATM   16  N1  UNL     1      -7.883   1.068  17.202  1.00  0.00    -0.324 N 
ATOM     17  H12 UNL     1      -8.533   0.984  17.984  1.00  0.00     0.169 HD
ATOM     18  H11 UNL     1      -8.126   1.220  16.223  1.00  0.00     0.169 HD
ENDBRANCH  13  16
ENDBRANCH  11  13
ENDBRANCH   1   8
BRANCH   3  19
HETATM   19  C7  UNL     1      -1.404   7.382  12.689  1.00  0.00     0.068 A 
HETATM   20  C8  UNL     1      -1.527   7.493  11.303  1.00  0.00     0.032 A 
HETATM   21  C9  UNL     1      -1.336   8.647  10.618  1.00  0.00     0.003 A 
HETATM   22  C10 UNL     1      -0.998   9.781  11.343  1.00  0.00     0.012 A 
HETATM   23  C11 UNL     1      -0.864   9.725  12.707  1.00  0.00    -0.024 A 
HETATM   24  C12 UNL     1      -0.531  10.860  13.392  1.00  0.00     0.012 A 
HETATM   25  C16 UNL     1      -1.067   8.521  13.390  1.00  0.00     0.003 A 
HETATM   26  C13 UNL     1      -0.397  10.797  14.773  1.00  0.00     0.001 A 
HETATM   27  C14 UNL     1      -0.594   9.614  15.459  1.00  0.00     0.001 A 
HETATM   28  C15 UNL     1      -0.931   8.473  14.761  1.00  0.00     0.014 A 
ENDBRANCH   3  19
TORSDOF 4
ENDMDL
