MODEL 2
REMARK VINA RESULT: -8.241814947      6.181      8.306
REMARK  4 active torsions:
REMARK  status: ('A' for Active; 'I' for Inactive)
REMARK    1  A    between atoms: N1_1  and  S1_4 
REMARK    2  A    between atoms: S1_4  and  C1_7 
REMARK    3  A    between atoms: C4_10  and  C5_11 
REMARK    4  A    between atoms: N2_13  and  C7_14 
ROOT
HETATM    1  C5  UNL     1      -4.586   5.308  12.021  1.00  0.00     0.084 A 
HETATM    2  C6  UNL     1      -5.292   6.478  11.892  1.00  0.00     0.150 A 
HETATM    3  N2  UNL     1      -4.910   7.058  10.747  1.00  0.00    -0.250 N 
HETATM    4  N3  UNL     1      -4.013   6.290  10.191  1.00  0.00    -0.235 N 
ATOM      5  H3  UNL     1      -3.540   6.476   9.306  1.00  0.00     0.209 HD
HETATM    6  N4  UNL     1      -3.817   5.240  10.953  1.00  0.00    -0.283 N 
ATOM      7  H4  UNL     1      -3.166   4.482  10.748  1.00  0.00     0.188 HD
ENDROOT
BRANCH   1   8
HETATM    8  C4  UNL     1      -4.719   4.371  13.158  1.00  0.00     0.036 A 
HETATM    9  C3  UNL     1      -5.043   4.671  14.458  1.00  0.00     0.023 A 
HETATM   10  C2  UNL     1      -5.106   3.653  15.323  1.00  0.00     0.034 A 
HETATM   11  C1  UNL     1      -4.845   2.400  14.847  1.00  0.00     0.120 A 
HETATM   12  S2  UNL     1      -4.516   2.677  13.199  1.00  0.00    -0.074 SA
BRANCH  11  13
HETATM   13  S1  UNL     1      -4.847   0.877  15.723  1.00  0.00     0.263 S 
HETATM   14  O1  UNL     1      -3.569   0.772  16.486  1.00  0.00    -0.200 OA
HETATM   15  O2  UNL     1      -4.948  -0.226  14.684  1.00  0.00    -0.200 OA
BRANCH  13  16
HETATM   16  N1  UNL     1      -6.147   0.778  16.832  1.00  0.00    -0.324 N 
ATOM     17  H12 UNL     1      -6.140   1.162  17.777  1.00  0.00     0.169 HD
ATOM     18  H11 UNL     1      -6.914   0.275  16.384  1.00  0.00     0.169 HD
ENDBRANCH  13  16
ENDBRANCH  11  13
ENDBRANCH   1   8
BRANCH   3  19
HETATM   19  C7  UNL     1      -5.460   8.308  10.307  1.00  0.00     0.068 A 
HETATM   20  C8  UNL     1      -4.869   9.510  10.700  1.00  0.00     0.032 A 
HETATM   21  C9  UNL     1      -5.324  10.732  10.330  1.00  0.00     0.003 A 
HETATM   22  C10 UNL     1      -6.444  10.784   9.512  1.00  0.00     0.012 A 
HETATM   23  C11 UNL     1      -7.062   9.632   9.097  1.00  0.00    -0.024 A 
HETATM   24  C12 UNL     1      -8.163   9.717   8.292  1.00  0.00     0.012 A 
HETATM   25  C16 UNL     1      -6.572   8.383   9.494  1.00  0.00     0.003 A 
HETATM   26  C13 UNL     1      -8.784   8.547   7.875  1.00  0.00     0.001 A 
HETATM   27  C14 UNL     1      -8.309   7.307   8.260  1.00  0.00     0.001 A 
HETATM   28  C15 UNL     1      -7.198   7.229   9.073  1.00  0.00     0.014 A 
ENDBRANCH   3  19
TORSDOF 4
ENDMDL
