MODEL 15
REMARK VINA RESULT: -7.486062708      5.726      8.708
REMARK  4 active torsions:
REMARK  status: ('A' for Active; 'I' for Inactive)
REMARK    1  A    between atoms: N1_1  and  S1_4 
REMARK    2  A    between atoms: S1_4  and  C1_7 
REMARK    3  A    between atoms: C4_10  and  C5_11 
REMARK    4  A    between atoms: N2_13  and  C7_14 
ROOT
HETATM    1  C5  UNL     1      -3.969   5.093  13.738  1.00  0.00     0.084 A 
HETATM    2  C6  UNL     1      -2.700   5.549  13.996  1.00  0.00     0.150 A 
HETATM    3  N2  UNL     1      -2.277   6.209  12.911  1.00  0.00    -0.250 N 
HETATM    4  N3  UNL     1      -3.232   6.168  12.022  1.00  0.00    -0.235 N 
ATOM      5  H3  UNL     1      -3.195   6.588  11.093  1.00  0.00     0.209 HD
HETATM    6  N4  UNL     1      -4.247   5.499  12.516  1.00  0.00    -0.283 N 
ATOM      7  H4  UNL     1      -5.124   5.320  12.026  1.00  0.00     0.188 HD
ENDROOT
BRANCH   1   8
HETATM    8  C4  UNL     1      -4.787   4.311  14.690  1.00  0.00     0.036 A 
HETATM    9  C3  UNL     1      -6.079   4.558  15.085  1.00  0.00     0.023 A 
HETATM   10  C2  UNL     1      -6.623   3.710  15.964  1.00  0.00     0.034 A 
HETATM   11  C1  UNL     1      -5.853   2.670  16.401  1.00  0.00     0.120 A 
HETATM   12  S2  UNL     1      -4.386   2.904  15.569  1.00  0.00    -0.074 SA
BRANCH  11  13
HETATM   13  S1  UNL     1      -6.275   1.402  17.542  1.00  0.00     0.263 S 
HETATM   14  O1  UNL     1      -5.198   0.370  17.516  1.00  0.00    -0.200 OA
HETATM   15  O2  UNL     1      -7.596   0.816  17.076  1.00  0.00    -0.200 OA
BRANCH  13  16
HETATM   16  N1  UNL     1      -6.412   1.998  19.140  1.00  0.00    -0.324 N 
ATOM     17  H12 UNL     1      -7.043   2.744  19.435  1.00  0.00     0.169 HD
ATOM     18  H11 UNL     1      -5.760   1.482  19.732  1.00  0.00     0.169 HD
ENDBRANCH  13  16
ENDBRANCH  11  13
ENDBRANCH   1   8
BRANCH   3  19
HETATM   19  C7  UNL     1      -0.980   6.818  12.849  1.00  0.00     0.068 A 
HETATM   20  C8  UNL     1       0.044   6.211  12.120  1.00  0.00     0.032 A 
HETATM   21  C9  UNL     1       1.296   6.719  12.010  1.00  0.00     0.003 A 
HETATM   22  C10 UNL     1       1.569   7.913  12.662  1.00  0.00     0.012 A 
HETATM   23  C11 UNL     1       0.598   8.550  13.391  1.00  0.00    -0.024 A 
HETATM   24  C12 UNL     1       0.899   9.725  14.022  1.00  0.00     0.012 A 
HETATM   25  C16 UNL     1      -0.687   8.005  13.489  1.00  0.00     0.003 A 
HETATM   26  C13 UNL     1      -0.089  10.365  14.759  1.00  0.00     0.001 A 
HETATM   27  C14 UNL     1      -1.362   9.836  14.863  1.00  0.00     0.001 A 
HETATM   28  C15 UNL     1      -1.658   8.650  14.224  1.00  0.00     0.014 A 
ENDBRANCH   3  19
TORSDOF 4
ENDMDL
