MODEL 1
REMARK VINA RESULT: -7.858628326      0.000      0.000
REMARK  4 active torsions:
REMARK  status: ('A' for Active; 'I' for Inactive)
REMARK    1  A    between atoms: C6_7  and  N2_8 
REMARK    2  A    between atoms: C8_10  and  C9_11 
REMARK    3  A    between atoms: C12_14  and  S1_15 
REMARK    4  A    between atoms: S1_15  and  N3_16 
ROOT
HETATM    1  N1  UNL     1      -5.837  -0.194  17.353  1.00  0.00    -0.191 NA
HETATM    2  C1  UNL     1      -5.717   0.794  16.764  1.00  0.00     0.099 C 
HETATM    3  C2  UNL     1      -5.553   2.037  16.046  1.00  0.00     0.046 A 
HETATM    4  C3  UNL     1      -6.540   3.007  16.142  1.00  0.00     0.023 A 
HETATM    5  C4  UNL     1      -6.433   4.210  15.478  1.00  0.00     0.004 A 
HETATM    6  C5  UNL     1      -5.312   4.429  14.709  1.00  0.00     0.031 A 
HETATM    7  C6  UNL     1      -4.301   3.500  14.578  1.00  0.00     0.058 A 
HETATM    8  C13 UNL     1      -4.453   2.306  15.265  1.00  0.00     0.054 A 
ENDROOT
BRANCH   7   9
HETATM    9  N2  UNL     1      -3.147   3.741  13.779  1.00  0.00    -0.251 N 
HETATM   10  C7  UNL     1      -2.986   3.552  12.453  1.00  0.00     0.150 A 
HETATM   11  C8  UNL     1      -1.719   3.918  12.136  1.00  0.00     0.084 A 
HETATM   12  N4  UNL     1      -1.112   4.324  13.243  1.00  0.00    -0.283 N 
HETATM   13  N5  UNL     1      -1.998   4.205  14.221  1.00  0.00    -0.236 N 
ATOM     14  H4  UNL     1      -0.152   4.660  13.325  1.00  0.00     0.188 HD
ATOM     15  H5  UNL     1      -1.812   4.445  15.195  1.00  0.00     0.209 HD
BRANCH  11  16
HETATM   16  C9  UNL     1      -1.054   3.898  10.810  1.00  0.00     0.036 A 
HETATM   17  C10 UNL     1      -1.638   3.681   9.599  1.00  0.00     0.023 A 
HETATM   18  C11 UNL     1      -0.839   3.707   8.511  1.00  0.00     0.034 A 
HETATM   19  C12 UNL     1       0.489   3.950   8.726  1.00  0.00     0.120 A 
HETATM   20  S2  UNL     1       0.586   4.133  10.415  1.00  0.00    -0.074 SA
BRANCH  19  21
HETATM   21  S1  UNL     1       1.776   4.043   7.505  1.00  0.00     0.263 S 
HETATM   22  O1  UNL     1       2.978   3.368   8.128  1.00  0.00    -0.200 OA
HETATM   23  O2  UNL     1       2.143   5.463   7.267  1.00  0.00    -0.200 OA
BRANCH  21  24
HETATM   24  N3  UNL     1       1.324   3.230   6.065  1.00  0.00    -0.324 N 
ATOM     25  H32 UNL     1       0.541   2.578   6.007  1.00  0.00     0.169 HD
ATOM     26  H31 UNL     1       1.937   3.484   5.291  1.00  0.00     0.169 HD
ENDBRANCH  21  24
ENDBRANCH  19  21
ENDBRANCH  11  16
ENDBRANCH   7   9
TORSDOF 4
ENDMDL
