MODEL 4
REMARK VINA RESULT: -7.314711982      5.215      9.167
REMARK  4 active torsions:
REMARK  status: ('A' for Active; 'I' for Inactive)
REMARK    1  A    between atoms: C6_7  and  N2_8 
REMARK    2  A    between atoms: C8_10  and  C9_11 
REMARK    3  A    between atoms: C12_14  and  S1_15 
REMARK    4  A    between atoms: S1_15  and  N3_16 
ROOT
HETATM    1  N1  UNL     1       1.923   3.462   6.584  1.00  0.00    -0.191 NA
HETATM    2  C1  UNL     1       0.933   3.749   7.111  1.00  0.00     0.099 C 
HETATM    3  C2  UNL     1      -0.312   4.090   7.756  1.00  0.00     0.046 A 
HETATM    4  C3  UNL     1      -1.072   5.134   7.249  1.00  0.00     0.023 A 
HETATM    5  C4  UNL     1      -2.268   5.500   7.827  1.00  0.00     0.004 A 
HETATM    6  C5  UNL     1      -2.698   4.798   8.930  1.00  0.00     0.031 A 
HETATM    7  C6  UNL     1      -1.984   3.751   9.475  1.00  0.00     0.058 A 
HETATM    8  C13 UNL     1      -0.787   3.419   8.860  1.00  0.00     0.054 A 
ENDROOT
BRANCH   7   9
HETATM    9  N2  UNL     1      -2.441   3.032  10.617  1.00  0.00    -0.251 N 
HETATM   10  C7  UNL     1      -3.328   3.420  11.556  1.00  0.00     0.150 A 
HETATM   11  C8  UNL     1      -3.450   2.407  12.450  1.00  0.00     0.084 A 
HETATM   12  N4  UNL     1      -2.655   1.417  12.070  1.00  0.00    -0.283 N 
HETATM   13  N5  UNL     1      -2.057   1.822  10.959  1.00  0.00    -0.236 N 
ATOM     14  H4  UNL     1      -2.530   0.520  12.539  1.00  0.00     0.188 HD
ATOM     15  H5  UNL     1      -1.383   1.264  10.435  1.00  0.00     0.209 HD
BRANCH  11  16
HETATM   16  C9  UNL     1      -4.301   2.341  13.664  1.00  0.00     0.036 A 
HETATM   17  C10 UNL     1      -5.175   3.286  14.110  1.00  0.00     0.023 A 
HETATM   18  C11 UNL     1      -5.851   3.017  15.247  1.00  0.00     0.034 A 
HETATM   19  C12 UNL     1      -5.596   1.816  15.849  1.00  0.00     0.120 A 
HETATM   20  S2  UNL     1      -4.436   1.104  14.827  1.00  0.00    -0.074 SA
BRANCH  19  21
HETATM   21  S1  UNL     1      -6.324   1.187  17.342  1.00  0.00     0.263 S 
HETATM   22  O1  UNL     1      -5.504  -0.030  17.712  1.00  0.00    -0.200 OA
HETATM   23  O2  UNL     1      -7.707   0.720  17.071  1.00  0.00    -0.200 OA
BRANCH  21  24
HETATM   24  N3  UNL     1      -6.255   2.347  18.602  1.00  0.00    -0.324 N 
ATOM     25  H32 UNL     1      -5.466   2.978  18.746  1.00  0.00     0.169 HD
ATOM     26  H31 UNL     1      -7.097   2.318  19.176  1.00  0.00     0.169 HD
ENDBRANCH  21  24
ENDBRANCH  19  21
ENDBRANCH  11  16
ENDBRANCH   7   9
TORSDOF 4
ENDMDL
