MODEL 2
REMARK VINA RESULT: -7.568043410      1.063      1.360
REMARK  4 active torsions:
REMARK  status: ('A' for Active; 'I' for Inactive)
REMARK    1  A    between atoms: C6_7  and  N2_8 
REMARK    2  A    between atoms: C8_10  and  C9_11 
REMARK    3  A    between atoms: C12_14  and  S1_15 
REMARK    4  A    between atoms: S1_15  and  N3_16 
ROOT
HETATM    1  N1  UNL     1      -5.845  -0.197  17.355  1.00  0.00    -0.191 NA
HETATM    2  C1  UNL     1      -5.724   0.799  16.778  1.00  0.00     0.099 C 
HETATM    3  C2  UNL     1      -5.559   2.050  16.076  1.00  0.00     0.046 A 
HETATM    4  C3  UNL     1      -6.573   2.995  16.134  1.00  0.00     0.023 A 
HETATM    5  C4  UNL     1      -6.467   4.204  15.483  1.00  0.00     0.004 A 
HETATM    6  C5  UNL     1      -5.319   4.457  14.766  1.00  0.00     0.031 A 
HETATM    7  C6  UNL     1      -4.280   3.554  14.674  1.00  0.00     0.058 A 
HETATM    8  C13 UNL     1      -4.432   2.351  15.346  1.00  0.00     0.054 A 
ENDROOT
BRANCH   7   9
HETATM    9  N2  UNL     1      -3.098   3.829  13.928  1.00  0.00    -0.251 N 
HETATM   10  C7  UNL     1      -2.889   3.698  12.602  1.00  0.00     0.150 A 
HETATM   11  C8  UNL     1      -1.612   4.077  12.347  1.00  0.00     0.084 A 
HETATM   12  N4  UNL     1      -1.046   4.433  13.492  1.00  0.00    -0.283 N 
HETATM   13  N5  UNL     1      -1.967   4.273  14.431  1.00  0.00    -0.236 N 
ATOM     14  H4  UNL     1      -0.090   4.766  13.623  1.00  0.00     0.188 HD
ATOM     15  H5  UNL     1      -1.816   4.469  15.421  1.00  0.00     0.209 HD
BRANCH  11  16
HETATM   16  C9  UNL     1      -0.900   4.114  11.046  1.00  0.00     0.036 A 
HETATM   17  C10 UNL     1       0.402   3.794  10.810  1.00  0.00     0.023 A 
HETATM   18  C11 UNL     1       0.847   3.901   9.540  1.00  0.00     0.034 A 
HETATM   19  C12 UNL     1      -0.055   4.322   8.603  1.00  0.00     0.120 A 
HETATM   20  S2  UNL     1      -1.479   4.555   9.506  1.00  0.00    -0.074 SA
BRANCH  19  21
HETATM   21  S1  UNL     1       0.230   4.558   6.865  1.00  0.00     0.263 S 
HETATM   22  O1  UNL     1       1.223   5.696   6.768  1.00  0.00    -0.200 OA
HETATM   23  O2  UNL     1      -1.021   5.008   6.205  1.00  0.00    -0.200 OA
BRANCH  21  24
HETATM   24  N3  UNL     1       0.883   3.145   6.147  1.00  0.00    -0.324 N 
ATOM     25  H32 UNL     1       1.433   2.455   6.659  1.00  0.00     0.169 HD
ATOM     26  H31 UNL     1       0.649   3.094   5.156  1.00  0.00     0.169 HD
ENDBRANCH  21  24
ENDBRANCH  19  21
ENDBRANCH  11  16
ENDBRANCH   7   9
TORSDOF 4
ENDMDL
