MODEL 3
REMARK VINA RESULT: -9.226034496      2.033      7.906
REMARK  13 active torsions:
REMARK  status: ('A' for Active; 'I' for Inactive)
REMARK    1  A    between atoms: C2_2  and  N1_3 
REMARK    2  A    between atoms: C2_2  and  C11_18 
REMARK    3  A    between atoms: N1_3  and  C3_5 
REMARK    4  A    between atoms: C3_5  and  O1_6 
REMARK    5  A    between atoms: C3_5  and  C4_8 
REMARK    6  A    between atoms: C9_13  and  C10_14 
REMARK    7  A    between atoms: C12_23  and  S1_24 
REMARK    8  A    between atoms: S1_24  and  C13_25 
REMARK    9  A    between atoms: C13_25  and  C14_26 
REMARK   10  A    between atoms: C14_26  and  O2_27 
REMARK   11  A    between atoms: O2_27  and  C15_28 
REMARK   12  A    between atoms: N4_35  and  C21_36 
REMARK   13  A    between atoms: C21_36  and  C22_37 
ROOT
HETATM    1  C11 UNL     1     -67.587  -9.158  19.315  1.00  0.00     0.123 A 
HETATM    2  N2  UNL     1     -66.779  -8.458  20.138  1.00  0.00    -0.285 N 
ATOM      3  H2  UNL     1     -66.906  -7.494  20.449  1.00  0.00     0.188 HD
HETATM    4  N3  UNL     1     -65.796  -9.269  20.458  1.00  0.00    -0.278 N 
ATOM      5  H3  UNL     1     -65.013  -9.042  21.070  1.00  0.00     0.189 HD
HETATM    6  C12 UNL     1     -65.998 -10.464  19.834  1.00  0.00     0.163 A 
HETATM    7  N4  UNL     1     -67.130 -10.397  19.111  1.00  0.00    -0.309 N 
ENDROOT
BRANCH   1   8
HETATM    8  C2  UNL     1     -68.827  -8.591  18.735  1.00  0.00     0.149 C 
HETATM    9  C1  UNL     1     -68.789  -7.086  18.722  1.00  0.00     0.040 C 
BRANCH   8  10
HETATM   10  N1  UNL     1     -69.991  -8.967  19.547  1.00  0.00    -0.359 N 
ATOM     11  H1  UNL     1     -69.884  -9.009  20.560  1.00  0.00     0.162 HD
BRANCH  10  12
HETATM   12  C3  UNL     1     -71.240  -9.269  18.997  1.00  0.00     0.147 C 
BRANCH  12  13
HETATM   13  O1  UNL     1     -71.140 -10.005  17.926  1.00  0.00    -0.346 OA
ATOM     14  H1  UNL     1     -70.856 -10.890  18.124  1.00  0.00     0.219 HD
ENDBRANCH  12  13
BRANCH  12  15
HETATM   15  C4  UNL     1     -72.572  -8.907  19.406  1.00  0.00     0.029 A 
HETATM   16  C5  UNL     1     -73.027  -7.673  18.891  1.00  0.00     0.016 A 
HETATM   17  C6  UNL     1     -74.240  -7.142  19.164  1.00  0.00     0.001 A 
HETATM   18  C7  UNL     1     -75.086  -7.824  19.983  1.00  0.00     0.001 A 
HETATM   19  C8  UNL     1     -74.669  -9.028  20.500  1.00  0.00     0.017 A 
HETATM   20  C9  UNL     1     -73.420  -9.584  20.224  1.00  0.00     0.062 A 
BRANCH  20  21
HETATM   21  C10 UNL     1     -73.042 -10.856  20.820  1.00  0.00     0.418 C 
HETATM   22  F1  UNL     1     -73.216 -11.964  20.023  1.00  0.00    -0.166 F 
HETATM   23  F2  UNL     1     -74.076 -11.085  21.813  1.00  0.00    -0.166 F 
HETATM   24  F3  UNL     1     -71.920 -10.847  21.606  1.00  0.00    -0.166 F 
ENDBRANCH  20  21
ENDBRANCH  12  15
ENDBRANCH  10  12
ENDBRANCH   8  10
ENDBRANCH   1   8
BRANCH   7  25
HETATM   25  C21 UNL     1     -67.655 -11.478  18.319  1.00  0.00     0.171 C 
BRANCH  25  26
HETATM   26  C22 UNL     1     -68.714 -12.274  19.010  1.00  0.00    -0.040 A 
HETATM   27  C23 UNL     1     -68.741 -12.277  20.407  1.00  0.00     0.012 A 
HETATM   28  C24 UNL     1     -69.690 -12.990  21.094  1.00  0.00     0.043 A 
HETATM   29  C25 UNL     1     -70.625 -13.711  20.385  1.00  0.00     0.116 A 
HETATM   30  F5  UNL     1     -71.557 -14.412  21.072  1.00  0.00    -0.206 F 
HETATM   31  C26 UNL     1     -70.630 -13.734  19.014  1.00  0.00     0.043 A 
HETATM   32  C27 UNL     1     -69.662 -13.006  18.316  1.00  0.00     0.012 A 
ENDBRANCH  25  26
ENDBRANCH   7  25
BRANCH   6  33
HETATM   33  S1  UNL     1     -64.873 -11.832  20.035  1.00  0.00    -0.090 SA
BRANCH  33  34
HETATM   34  C13 UNL     1     -65.206 -12.630  21.637  1.00  0.00     0.109 C 
BRANCH  34  35
HETATM   35  C14 UNL     1     -65.042 -14.112  21.562  1.00  0.00     0.186 C 
BRANCH  35  36
HETATM   36  O2  UNL     1     -64.738 -14.661  20.345  1.00  0.00    -0.350 OA
BRANCH  36  37
HETATM   37  C15 UNL     1     -65.468 -15.477  19.571  1.00  0.00     0.069 A 
HETATM   38  C16 UNL     1     -66.856 -15.297  19.573  1.00  0.00     0.040 A 
HETATM   39  C17 UNL     1     -67.669 -16.090  18.808  1.00  0.00     0.045 A 
HETATM   40  C18 UNL     1     -67.114 -17.076  18.025  1.00  0.00     0.116 A 
HETATM   41  F4  UNL     1     -67.921 -17.868  17.261  1.00  0.00    -0.206 F 
HETATM   42  C19 UNL     1     -65.772 -17.276  17.997  1.00  0.00     0.045 A 
HETATM   43  C20 UNL     1     -64.961 -16.458  18.785  1.00  0.00     0.040 A 
ENDBRANCH  36  37
ENDBRANCH  35  36
ENDBRANCH  34  35
ENDBRANCH  33  34
ENDBRANCH   6  33
TORSDOF 13
ENDMDL
