MODEL 7
REMARK VINA RESULT: -9.034080379      3.398      6.134
REMARK  13 active torsions:
REMARK  status: ('A' for Active; 'I' for Inactive)
REMARK    1  A    between atoms: C2_2  and  N1_3 
REMARK    2  A    between atoms: C2_2  and  C11_18 
REMARK    3  A    between atoms: N1_3  and  C3_5 
REMARK    4  A    between atoms: C3_5  and  O1_6 
REMARK    5  A    between atoms: C3_5  and  C4_8 
REMARK    6  A    between atoms: C9_13  and  C10_14 
REMARK    7  A    between atoms: C12_23  and  S1_24 
REMARK    8  A    between atoms: S1_24  and  C13_25 
REMARK    9  A    between atoms: C13_25  and  C14_26 
REMARK   10  A    between atoms: C14_26  and  O2_27 
REMARK   11  A    between atoms: O2_27  and  C15_28 
REMARK   12  A    between atoms: N4_35  and  C21_36 
REMARK   13  A    between atoms: C21_36  and  C22_37 
ROOT
HETATM    1  C11 UNL     1     -69.608  -9.129  18.731  1.00  0.00     0.123 A 
HETATM    2  N2  UNL     1     -70.028 -10.035  17.823  1.00  0.00    -0.285 N 
ATOM      3  H2  UNL     1     -69.459 -10.513  17.124  1.00  0.00     0.188 HD
HETATM    4  N3  UNL     1     -71.319 -10.175  18.022  1.00  0.00    -0.278 N 
ATOM      5  H3  UNL     1     -71.939 -10.791  17.496  1.00  0.00     0.189 HD
HETATM    6  C12 UNL     1     -71.692  -9.360  19.049  1.00  0.00     0.163 A 
HETATM    7  N4  UNL     1     -70.611  -8.697  19.499  1.00  0.00    -0.309 N 
ENDROOT
BRANCH   1   8
HETATM    8  C2  UNL     1     -68.194  -8.699  18.839  1.00  0.00     0.149 C 
HETATM    9  C1  UNL     1     -67.911  -7.516  17.951  1.00  0.00     0.040 C 
BRANCH   8  10
HETATM   10  N1  UNL     1     -67.296  -9.771  18.395  1.00  0.00    -0.359 N 
ATOM     11  H1  UNL     1     -66.722  -9.613  17.567  1.00  0.00     0.162 HD
BRANCH  10  12
HETATM   12  C3  UNL     1     -67.188 -10.999  19.054  1.00  0.00     0.147 C 
BRANCH  12  13
HETATM   13  O1  UNL     1     -67.648 -11.985  18.336  1.00  0.00    -0.346 OA
ATOM     14  H1  UNL     1     -66.970 -12.392  17.810  1.00  0.00     0.219 HD
ENDBRANCH  12  13
BRANCH  12  15
HETATM   15  C4  UNL     1     -66.672 -11.339  20.355  1.00  0.00     0.029 A 
HETATM   16  C5  UNL     1     -65.282 -11.134  20.504  1.00  0.00     0.016 A 
HETATM   17  C6  UNL     1     -64.596 -11.403  21.637  1.00  0.00     0.001 A 
HETATM   18  C7  UNL     1     -65.270 -11.903  22.709  1.00  0.00     0.001 A 
HETATM   19  C8  UNL     1     -66.624 -12.113  22.592  1.00  0.00     0.017 A 
HETATM   20  C9  UNL     1     -67.340 -11.838  21.427  1.00  0.00     0.062 A 
BRANCH  20  21
HETATM   21  C10 UNL     1     -68.770 -12.100  21.373  1.00  0.00     0.418 C 
HETATM   22  F1  UNL     1     -69.570 -11.006  21.136  1.00  0.00    -0.166 F 
HETATM   23  F2  UNL     1     -69.115 -12.381  22.755  1.00  0.00    -0.166 F 
HETATM   24  F3  UNL     1     -69.148 -13.269  20.766  1.00  0.00    -0.166 F 
ENDBRANCH  20  21
ENDBRANCH  12  15
ENDBRANCH  10  12
ENDBRANCH   8  10
ENDBRANCH   1   8
BRANCH   7  25
HETATM   25  C21 UNL     1     -70.632  -7.747  20.580  1.00  0.00     0.171 C 
BRANCH  25  26
HETATM   26  C22 UNL     1     -70.718  -6.324  20.132  1.00  0.00    -0.040 A 
HETATM   27  C23 UNL     1     -69.645  -5.473  20.407  1.00  0.00     0.012 A 
HETATM   28  C24 UNL     1     -69.670  -4.157  20.019  1.00  0.00     0.043 A 
HETATM   29  C25 UNL     1     -70.775  -3.680  19.351  1.00  0.00     0.116 A 
HETATM   30  F5  UNL     1     -70.790  -2.381  18.973  1.00  0.00    -0.206 F 
HETATM   31  C26 UNL     1     -71.848  -4.484  19.064  1.00  0.00     0.043 A 
HETATM   32  C27 UNL     1     -71.819  -5.825  19.460  1.00  0.00     0.012 A 
ENDBRANCH  25  26
ENDBRANCH   7  25
BRANCH   6  33
HETATM   33  S1  UNL     1     -73.378  -9.281  19.623  1.00  0.00    -0.090 SA
BRANCH  33  34
HETATM   34  C13 UNL     1     -73.635 -10.596  20.855  1.00  0.00     0.109 C 
BRANCH  34  35
HETATM   35  C14 UNL     1     -73.495 -11.955  20.252  1.00  0.00     0.186 C 
BRANCH  35  36
HETATM   36  O2  UNL     1     -73.682 -12.077  18.901  1.00  0.00    -0.350 OA
BRANCH  36  37
HETATM   37  C15 UNL     1     -73.212 -13.007  18.057  1.00  0.00     0.069 A 
HETATM   38  C16 UNL     1     -73.974 -13.287  16.916  1.00  0.00     0.040 A 
HETATM   39  C17 UNL     1     -73.560 -14.222  16.006  1.00  0.00     0.045 A 
HETATM   40  C18 UNL     1     -72.378 -14.896  16.214  1.00  0.00     0.116 A 
HETATM   41  F4  UNL     1     -71.963 -15.828  15.309  1.00  0.00    -0.206 F 
HETATM   42  C19 UNL     1     -71.614 -14.648  17.308  1.00  0.00     0.045 A 
HETATM   43  C20 UNL     1     -72.055 -13.691  18.224  1.00  0.00     0.040 A 
ENDBRANCH  36  37
ENDBRANCH  35  36
ENDBRANCH  34  35
ENDBRANCH  33  34
ENDBRANCH   6  33
TORSDOF 13
ENDMDL
