MODEL 2
REMARK VINA RESULT: -9.344940221      2.197      7.861
REMARK  13 active torsions:
REMARK  status: ('A' for Active; 'I' for Inactive)
REMARK    1  A    between atoms: C2_2  and  N1_3 
REMARK    2  A    between atoms: C2_2  and  C11_18 
REMARK    3  A    between atoms: N1_3  and  C3_5 
REMARK    4  A    between atoms: C3_5  and  O1_6 
REMARK    5  A    between atoms: C3_5  and  C4_8 
REMARK    6  A    between atoms: C9_13  and  C10_14 
REMARK    7  A    between atoms: C12_23  and  S1_24 
REMARK    8  A    between atoms: S1_24  and  C13_25 
REMARK    9  A    between atoms: C13_25  and  C14_26 
REMARK   10  A    between atoms: C14_26  and  O2_27 
REMARK   11  A    between atoms: O2_27  and  C15_28 
REMARK   12  A    between atoms: N4_35  and  C21_36 
REMARK   13  A    between atoms: C21_36  and  C22_37 
ROOT
HETATM    1  C11 UNL     1     -67.654  -9.681  19.459  1.00  0.00     0.123 A 
HETATM    2  N2  UNL     1     -67.274  -9.003  20.561  1.00  0.00    -0.285 N 
ATOM      3  H2  UNL     1     -67.339  -7.996  20.715  1.00  0.00     0.188 HD
HETATM    4  N3  UNL     1     -66.805  -9.902  21.396  1.00  0.00    -0.278 N 
ATOM      5  H3  UNL     1     -66.434  -9.713  22.327  1.00  0.00     0.189 HD
HETATM    6  C12 UNL     1     -66.895 -11.129  20.810  1.00  0.00     0.163 A 
HETATM    7  N4  UNL     1     -67.433 -10.992  19.584  1.00  0.00    -0.309 N 
ENDROOT
BRANCH   1   8
HETATM    8  C2  UNL     1     -68.250  -9.019  18.275  1.00  0.00     0.149 C 
HETATM    9  C1  UNL     1     -67.704  -7.627  18.092  1.00  0.00     0.040 C 
BRANCH   8  10
HETATM   10  N1  UNL     1     -69.701  -8.873  18.444  1.00  0.00    -0.359 N 
ATOM     11  H1  UNL     1     -70.288  -8.856  17.610  1.00  0.00     0.162 HD
BRANCH  10  12
HETATM   12  C3  UNL     1     -70.316  -8.757  19.694  1.00  0.00     0.147 C 
BRANCH  12  13
HETATM   13  O1  UNL     1     -69.909  -7.706  20.347  1.00  0.00    -0.346 OA
ATOM     14  H1  UNL     1     -68.961  -7.663  20.403  1.00  0.00     0.219 HD
ENDBRANCH  12  13
BRANCH  12  15
HETATM   15  C4  UNL     1     -71.292  -9.585  20.354  1.00  0.00     0.029 A 
HETATM   16  C5  UNL     1     -70.741 -10.587  21.184  1.00  0.00     0.016 A 
HETATM   17  C6  UNL     1     -71.479 -11.480  21.882  1.00  0.00     0.001 A 
HETATM   18  C7  UNL     1     -72.836 -11.425  21.789  1.00  0.00     0.001 A 
HETATM   19  C8  UNL     1     -73.399 -10.460  20.987  1.00  0.00     0.017 A 
HETATM   20  C9  UNL     1     -72.645  -9.535  20.264  1.00  0.00     0.062 A 
BRANCH  20  21
HETATM   21  C10 UNL     1     -73.312  -8.551  19.424  1.00  0.00     0.418 C 
HETATM   22  F1  UNL     1     -73.143  -7.237  19.794  1.00  0.00    -0.166 F 
HETATM   23  F2  UNL     1     -74.717  -8.733  19.741  1.00  0.00    -0.166 F 
HETATM   24  F3  UNL     1     -73.312  -8.807  18.078  1.00  0.00    -0.166 F 
ENDBRANCH  20  21
ENDBRANCH  12  15
ENDBRANCH  10  12
ENDBRANCH   8  10
ENDBRANCH   1   8
BRANCH   7  25
HETATM   25  C21 UNL     1     -67.677 -12.083  18.677  1.00  0.00     0.171 C 
BRANCH  25  26
HETATM   26  C22 UNL     1     -69.022 -12.713  18.837  1.00  0.00    -0.040 A 
HETATM   27  C23 UNL     1     -70.073 -12.253  18.040  1.00  0.00     0.012 A 
HETATM   28  C24 UNL     1     -71.329 -12.794  18.145  1.00  0.00     0.043 A 
HETATM   29  C25 UNL     1     -71.545 -13.805  19.055  1.00  0.00     0.116 A 
HETATM   30  F5  UNL     1     -72.787 -14.332  19.152  1.00  0.00    -0.206 F 
HETATM   31  C26 UNL     1     -70.539 -14.282  19.856  1.00  0.00     0.043 A 
HETATM   32  C27 UNL     1     -69.260 -13.729  19.746  1.00  0.00     0.012 A 
ENDBRANCH  25  26
ENDBRANCH   7  25
BRANCH   6  33
HETATM   33  S1  UNL     1     -66.364 -12.612  21.644  1.00  0.00    -0.090 SA
BRANCH  33  34
HETATM   34  C13 UNL     1     -64.544 -12.636  21.688  1.00  0.00     0.109 C 
BRANCH  34  35
HETATM   35  C14 UNL     1     -63.986 -13.768  20.890  1.00  0.00     0.186 C 
BRANCH  35  36
HETATM   36  O2  UNL     1     -64.717 -14.222  19.825  1.00  0.00    -0.350 OA
BRANCH  36  37
HETATM   37  C15 UNL     1     -65.040 -15.478  19.486  1.00  0.00     0.069 A 
HETATM   38  C16 UNL     1     -66.330 -15.703  18.993  1.00  0.00     0.040 A 
HETATM   39  C17 UNL     1     -66.734 -16.958  18.623  1.00  0.00     0.045 A 
HETATM   40  C18 UNL     1     -65.858 -18.014  18.738  1.00  0.00     0.116 A 
HETATM   41  F4  UNL     1     -66.256 -19.266  18.371  1.00  0.00    -0.206 F 
HETATM   42  C19 UNL     1     -64.599 -17.832  19.211  1.00  0.00     0.045 A 
HETATM   43  C20 UNL     1     -64.208 -16.544  19.583  1.00  0.00     0.040 A 
ENDBRANCH  36  37
ENDBRANCH  35  36
ENDBRANCH  34  35
ENDBRANCH  33  34
ENDBRANCH   6  33
TORSDOF 13
ENDMDL
