MODEL 1
REMARK VINA RESULT: -9.435127157      0.000      0.000
REMARK  13 active torsions:
REMARK  status: ('A' for Active; 'I' for Inactive)
REMARK    1  A    between atoms: C2_2  and  N1_3 
REMARK    2  A    between atoms: C2_2  and  C11_18 
REMARK    3  A    between atoms: N1_3  and  C3_5 
REMARK    4  A    between atoms: C3_5  and  O1_6 
REMARK    5  A    between atoms: C3_5  and  C4_8 
REMARK    6  A    between atoms: C9_13  and  C10_14 
REMARK    7  A    between atoms: C12_23  and  S1_24 
REMARK    8  A    between atoms: S1_24  and  C13_25 
REMARK    9  A    between atoms: C13_25  and  C14_26 
REMARK   10  A    between atoms: C14_26  and  O2_27 
REMARK   11  A    between atoms: O2_27  and  C15_28 
REMARK   12  A    between atoms: N4_35  and  C21_36 
REMARK   13  A    between atoms: C21_36  and  C22_37 
ROOT
HETATM    1  C11 UNL     1     -66.141 -10.663  19.918  1.00  0.00     0.123 A 
HETATM    2  N2  UNL     1     -65.192 -10.286  19.035  1.00  0.00    -0.285 N 
ATOM      3  H2  UNL     1     -64.264 -10.694  18.921  1.00  0.00     0.188 HD
HETATM    4  N3  UNL     1     -65.707  -9.288  18.354  1.00  0.00    -0.278 N 
ATOM      5  H3  UNL     1     -65.241  -8.776  17.605  1.00  0.00     0.189 HD
HETATM    6  C12 UNL     1     -66.968  -9.051  18.814  1.00  0.00     0.163 A 
HETATM    7  N4  UNL     1     -67.245  -9.920  19.803  1.00  0.00    -0.309 N 
ENDROOT
BRANCH   1   8
HETATM    8  C2  UNL     1     -65.949 -11.777  20.875  1.00  0.00     0.149 C 
HETATM    9  C1  UNL     1     -65.413 -11.282  22.193  1.00  0.00     0.040 C 
BRANCH   8  10
HETATM   10  N1  UNL     1     -64.959 -12.731  20.360  1.00  0.00    -0.359 N 
ATOM     11  H1  UNL     1     -64.181 -12.372  19.807  1.00  0.00     0.162 HD
BRANCH  10  12
HETATM   12  C3  UNL     1     -65.032 -14.107  20.593  1.00  0.00     0.147 C 
BRANCH  12  13
HETATM   13  O1  UNL     1     -64.591 -14.430  21.776  1.00  0.00    -0.346 OA
ATOM     14  H1  UNL     1     -64.063 -15.220  21.759  1.00  0.00     0.219 HD
ENDBRANCH  12  13
BRANCH  12  15
HETATM   15  C4  UNL     1     -65.497 -15.188  19.764  1.00  0.00     0.029 A 
HETATM   16  C5  UNL     1     -64.552 -16.220  19.565  1.00  0.00     0.016 A 
HETATM   17  C6  UNL     1     -64.780 -17.317  18.808  1.00  0.00     0.001 A 
HETATM   18  C7  UNL     1     -65.987 -17.451  18.193  1.00  0.00     0.001 A 
HETATM   19  C8  UNL     1     -66.926 -16.462  18.370  1.00  0.00     0.017 A 
HETATM   20  C9  UNL     1     -66.699 -15.327  19.148  1.00  0.00     0.062 A 
BRANCH  20  21
HETATM   21  C10 UNL     1     -67.737 -14.314  19.276  1.00  0.00     0.418 C 
HETATM   22  F1  UNL     1     -68.197 -14.088  20.553  1.00  0.00    -0.166 F 
HETATM   23  F2  UNL     1     -68.903 -14.947  18.687  1.00  0.00    -0.166 F 
HETATM   24  F3  UNL     1     -67.605 -13.210  18.476  1.00  0.00    -0.166 F 
ENDBRANCH  20  21
ENDBRANCH  12  15
ENDBRANCH  10  12
ENDBRANCH   8  10
ENDBRANCH   1   8
BRANCH   7  25
HETATM   25  C21 UNL     1     -68.490  -9.961  20.524  1.00  0.00     0.171 C 
BRANCH  25  26
HETATM   26  C22 UNL     1     -69.482 -10.925  19.961  1.00  0.00    -0.040 A 
HETATM   27  C23 UNL     1     -70.167 -11.768  20.841  1.00  0.00     0.012 A 
HETATM   28  C24 UNL     1     -71.088 -12.673  20.379  1.00  0.00     0.043 A 
HETATM   29  C25 UNL     1     -71.333 -12.744  19.026  1.00  0.00     0.116 A 
HETATM   30  F5  UNL     1     -72.243 -13.641  18.580  1.00  0.00    -0.206 F 
HETATM   31  C26 UNL     1     -70.681 -11.935  18.131  1.00  0.00     0.043 A 
HETATM   32  C27 UNL     1     -69.742 -11.013  18.605  1.00  0.00     0.012 A 
ENDBRANCH  25  26
ENDBRANCH   7  25
BRANCH   6  33
HETATM   33  S1  UNL     1     -67.997  -7.770  18.123  1.00  0.00    -0.090 SA
BRANCH  33  34
HETATM   34  C13 UNL     1     -68.470  -6.622  19.453  1.00  0.00     0.109 C 
BRANCH  34  35
HETATM   35  C14 UNL     1     -69.952  -6.453  19.538  1.00  0.00     0.186 C 
BRANCH  35  36
HETATM   36  O2  UNL     1     -70.714  -7.577  19.720  1.00  0.00    -0.350 OA
BRANCH  36  37
HETATM   37  C15 UNL     1     -72.047  -7.701  19.785  1.00  0.00     0.069 A 
HETATM   38  C16 UNL     1     -72.560  -8.922  20.238  1.00  0.00     0.040 A 
HETATM   39  C17 UNL     1     -73.911  -9.125  20.334  1.00  0.00     0.045 A 
HETATM   40  C18 UNL     1     -74.776  -8.114  19.982  1.00  0.00     0.116 A 
HETATM   41  F4  UNL     1     -76.123  -8.313  20.077  1.00  0.00    -0.206 F 
HETATM   42  C19 UNL     1     -74.313  -6.917  19.541  1.00  0.00     0.045 A 
HETATM   43  C20 UNL     1     -72.932  -6.731  19.450  1.00  0.00     0.040 A 
ENDBRANCH  36  37
ENDBRANCH  35  36
ENDBRANCH  34  35
ENDBRANCH  33  34
ENDBRANCH   6  33
TORSDOF 13
ENDMDL
