MODEL 5
REMARK VINA RESULT: -5.129526145      1.588      2.522
REMARK  3 active torsions:
REMARK  status: ('A' for Active; 'I' for Inactive)
REMARK    1  A    between atoms: C1_2  and  C2_4 
REMARK    2  A    between atoms: C2_4  and  O3_5 
REMARK    3  A    between atoms: O3_5  and  P1_6 
ROOT
HETATM    1  O3  UNL     1      -2.442 -20.452 -36.150  1.00  0.00    -0.272 OA
ENDROOT
BRANCH   1   2
HETATM    2  C2  UNL     1      -1.276 -21.128 -36.323  1.00  0.00     0.295 C 
BRANCH   2   3
HETATM    3  C1  UNL     1      -1.430 -21.983 -37.531  1.00  0.00     0.198 C 
HETATM    4  O1  UNL     1      -0.972 -23.165 -37.588  1.00  0.00    -0.646 OA
HETATM    5  O2  UNL     1      -2.085 -21.536 -38.668  1.00  0.00    -0.646 OA
ENDBRANCH   2   3
ENDBRANCH   1   2
BRANCH   1   6
HETATM    6  P1  UNL     1      -2.185 -19.276 -34.996  1.00  0.00     0.422 P 
HETATM    7  O4  UNL     1      -1.902 -20.346 -33.953  1.00  0.00    -0.617 OA
HETATM    8  O5  UNL     1      -0.750 -18.546 -34.831  1.00  0.00    -0.617 OA
HETATM    9  O6  UNL     1      -3.486 -18.695 -34.127  1.00  0.00    -0.617 OA
ENDBRANCH   1   6
TORSDOF 3
ENDMDL
