MODEL 2
REMARK VINA RESULT: -5.157536694      1.596      2.355
REMARK  3 active torsions:
REMARK  status: ('A' for Active; 'I' for Inactive)
REMARK    1  A    between atoms: C1_2  and  C2_4 
REMARK    2  A    between atoms: C2_4  and  O3_5 
REMARK    3  A    between atoms: O3_5  and  P1_6 
ROOT
HETATM    1  O3  UNL     1      -2.446 -20.462 -36.191  1.00  0.00    -0.272 OA
ENDROOT
BRANCH   1   2
HETATM    2  C2  UNL     1      -1.303 -21.186 -36.321  1.00  0.00     0.295 C 
BRANCH   2   3
HETATM    3  C1  UNL     1      -1.427 -21.998 -37.561  1.00  0.00     0.198 C 
HETATM    4  O1  UNL     1      -2.024 -21.569 -38.596  1.00  0.00    -0.646 OA
HETATM    5  O2  UNL     1      -0.897 -23.275 -37.659  1.00  0.00    -0.646 OA
ENDBRANCH   2   3
ENDBRANCH   1   2
BRANCH   1   6
HETATM    6  P1  UNL     1      -2.184 -19.297 -35.027  1.00  0.00     0.422 P 
HETATM    7  O4  UNL     1      -1.861 -20.375 -34.004  1.00  0.00    -0.617 OA
HETATM    8  O5  UNL     1      -0.757 -18.546 -34.882  1.00  0.00    -0.617 OA
HETATM    9  O6  UNL     1      -3.475 -18.749 -34.124  1.00  0.00    -0.617 OA
ENDBRANCH   1   6
TORSDOF 3
ENDMDL
