MODEL 11
REMARK VINA RESULT: -4.839170506      2.007      2.637
REMARK  3 active torsions:
REMARK  status: ('A' for Active; 'I' for Inactive)
REMARK    1  A    between atoms: C1_2  and  C2_4 
REMARK    2  A    between atoms: C2_4  and  O3_5 
REMARK    3  A    between atoms: O3_5  and  P1_6 
ROOT
HETATM    1  O3  UNL     1      -0.632 -21.378 -35.180  1.00  0.00    -0.272 OA
ENDROOT
BRANCH   1   2
HETATM    2  C2  UNL     1       0.262 -21.485 -36.199  1.00  0.00     0.295 C 
BRANCH   2   3
HETATM    3  C1  UNL     1      -0.250 -22.521 -37.134  1.00  0.00     0.198 C 
HETATM    4  O1  UNL     1       0.041 -23.751 -37.011  1.00  0.00    -0.646 OA
HETATM    5  O2  UNL     1      -1.078 -22.205 -38.200  1.00  0.00    -0.646 OA
ENDBRANCH   2   3
ENDBRANCH   1   2
BRANCH   1   6
HETATM    6  P1  UNL     1      -1.575 -20.033 -35.467  1.00  0.00     0.422 P 
HETATM    7  O4  UNL     1      -2.035 -20.033 -34.017  1.00  0.00    -0.617 OA
HETATM    8  O5  UNL     1      -0.961 -18.536 -35.411  1.00  0.00    -0.617 OA
HETATM    9  O6  UNL     1      -3.136 -20.241 -36.020  1.00  0.00    -0.617 OA
ENDBRANCH   1   6
TORSDOF 3
ENDMDL
