MODEL 3
REMARK VINA RESULT: -5.147121944      1.854      4.026
REMARK  3 active torsions:
REMARK  status: ('A' for Active; 'I' for Inactive)
REMARK    1  A    between atoms: C1_2  and  C2_4 
REMARK    2  A    between atoms: C2_4  and  O3_5 
REMARK    3  A    between atoms: O3_5  and  P1_6 
ROOT
HETATM    1  O3  UNL     1      -1.435 -18.873 -34.648  1.00  0.00    -0.272 OA
ENDROOT
BRANCH   1   2
HETATM    2  C2  UNL     1      -2.750 -18.903 -34.308  1.00  0.00     0.295 C 
BRANCH   2   3
HETATM    3  C1  UNL     1      -3.392 -17.700 -34.901  1.00  0.00     0.198 C 
HETATM    4  O1  UNL     1      -3.230 -16.537 -34.419  1.00  0.00    -0.646 OA
HETATM    5  O2  UNL     1      -4.208 -17.778 -36.019  1.00  0.00    -0.646 OA
ENDBRANCH   2   3
ENDBRANCH   1   2
BRANCH   1   6
HETATM    6  P1  UNL     1      -1.164 -20.091 -35.754  1.00  0.00     0.422 P 
HETATM    7  O4  UNL     1      -1.037 -21.103 -34.625  1.00  0.00    -0.617 OA
HETATM    8  O5  UNL     1      -2.386 -20.862 -36.485  1.00  0.00    -0.617 OA
HETATM    9  O6  UNL     1       0.395 -20.387 -36.269  1.00  0.00    -0.617 OA
ENDBRANCH   1   6
TORSDOF 3
ENDMDL
