MODEL 6
REMARK VINA RESULT: -5.117763123      1.909      3.929
REMARK  3 active torsions:
REMARK  status: ('A' for Active; 'I' for Inactive)
REMARK    1  A    between atoms: C1_2  and  C2_4 
REMARK    2  A    between atoms: C2_4  and  O3_5 
REMARK    3  A    between atoms: O3_5  and  P1_6 
ROOT
HETATM    1  O3  UNL     1      -2.882 -19.918 -35.037  1.00  0.00    -0.272 OA
ENDROOT
BRANCH   1   2
HETATM    2  C2  UNL     1      -2.995 -18.887 -34.159  1.00  0.00     0.295 C 
BRANCH   2   3
HETATM    3  C1  UNL     1      -3.491 -17.707 -34.918  1.00  0.00     0.198 C 
HETATM    4  O1  UNL     1      -4.135 -17.822 -36.007  1.00  0.00    -0.646 OA
HETATM    5  O2  UNL     1      -3.279 -16.409 -34.480  1.00  0.00    -0.646 OA
ENDBRANCH   2   3
ENDBRANCH   1   2
BRANCH   1   6
HETATM    6  P1  UNL     1      -1.262 -20.127 -35.374  1.00  0.00     0.422 P 
HETATM    7  O4  UNL     1      -1.606 -20.636 -36.766  1.00  0.00    -0.617 OA
HETATM    8  O5  UNL     1      -0.340 -18.906 -35.904  1.00  0.00    -0.617 OA
HETATM    9  O6  UNL     1      -0.529 -21.570 -34.968  1.00  0.00    -0.617 OA
ENDBRANCH   1   6
TORSDOF 3
ENDMDL
