MODEL 8
REMARK VINA RESULT: -4.975496371      1.797      4.016
REMARK  3 active torsions:
REMARK  status: ('A' for Active; 'I' for Inactive)
REMARK    1  A    between atoms: C1_2  and  C2_4 
REMARK    2  A    between atoms: C2_4  and  O3_5 
REMARK    3  A    between atoms: O3_5  and  P1_6 
ROOT
HETATM    1  O3  UNL     1      -1.365 -19.009 -34.747  1.00  0.00    -0.272 OA
ENDROOT
BRANCH   1   2
HETATM    2  C2  UNL     1      -2.638 -19.000 -34.269  1.00  0.00     0.295 C 
BRANCH   2   3
HETATM    3  C1  UNL     1      -3.347 -17.859 -34.908  1.00  0.00     0.198 C 
HETATM    4  O1  UNL     1      -4.085 -18.006 -35.931  1.00  0.00    -0.646 OA
HETATM    5  O2  UNL     1      -3.242 -16.565 -34.424  1.00  0.00    -0.646 OA
ENDBRANCH   2   3
ENDBRANCH   1   2
BRANCH   1   6
HETATM    6  P1  UNL     1      -1.120 -20.465 -35.520  1.00  0.00     0.422 P 
HETATM    7  O4  UNL     1       0.121 -19.908 -36.202  1.00  0.00    -0.617 OA
HETATM    8  O5  UNL     1      -0.338 -21.688 -34.802  1.00  0.00    -0.617 OA
HETATM    9  O6  UNL     1      -1.868 -20.741 -36.986  1.00  0.00    -0.617 OA
ENDBRANCH   1   6
TORSDOF 3
ENDMDL
