MODEL 4
REMARK VINA RESULT: -5.146279519      1.813      3.941
REMARK  3 active torsions:
REMARK  status: ('A' for Active; 'I' for Inactive)
REMARK    1  A    between atoms: C1_2  and  C2_4 
REMARK    2  A    between atoms: C2_4  and  O3_5 
REMARK    3  A    between atoms: O3_5  and  P1_6 
ROOT
HETATM    1  O3  UNL     1      -1.340 -18.904 -34.736  1.00  0.00    -0.272 OA
ENDROOT
BRANCH   1   2
HETATM    2  C2  UNL     1      -2.630 -18.981 -34.315  1.00  0.00     0.295 C 
BRANCH   2   3
HETATM    3  C1  UNL     1      -3.366 -17.838 -34.919  1.00  0.00     0.198 C 
HETATM    4  O1  UNL     1      -4.129 -17.977 -35.924  1.00  0.00    -0.646 OA
HETATM    5  O2  UNL     1      -3.260 -16.549 -34.419  1.00  0.00    -0.646 OA
ENDBRANCH   2   3
ENDBRANCH   1   2
BRANCH   1   6
HETATM    6  P1  UNL     1      -1.072 -20.164 -35.795  1.00  0.00     0.422 P 
HETATM    7  O4  UNL     1      -1.007 -21.143 -34.632  1.00  0.00    -0.617 OA
HETATM    8  O5  UNL     1      -2.293 -20.924 -36.538  1.00  0.00    -0.617 OA
HETATM    9  O6  UNL     1       0.492 -20.520 -36.253  1.00  0.00    -0.617 OA
ENDBRANCH   1   6
TORSDOF 3
ENDMDL
