MODEL 7
REMARK VINA RESULT: -5.012152682      2.203      4.078
REMARK  3 active torsions:
REMARK  status: ('A' for Active; 'I' for Inactive)
REMARK    1  A    between atoms: C1_2  and  C2_4 
REMARK    2  A    between atoms: C2_4  and  O3_5 
REMARK    3  A    between atoms: O3_5  and  P1_6 
ROOT
HETATM    1  O3  UNL     1      -2.101 -17.989 -35.006  1.00  0.00    -0.272 OA
ENDROOT
BRANCH   1   2
HETATM    2  C2  UNL     1      -3.375 -17.642 -34.685  1.00  0.00     0.295 C 
BRANCH   2   3
HETATM    3  C1  UNL     1      -3.844 -16.668 -35.708  1.00  0.00     0.198 C 
HETATM    4  O1  UNL     1      -3.405 -15.478 -35.763  1.00  0.00    -0.646 OA
HETATM    5  O2  UNL     1      -4.790 -17.004 -36.663  1.00  0.00    -0.646 OA
ENDBRANCH   2   3
ENDBRANCH   1   2
BRANCH   1   6
HETATM    6  P1  UNL     1      -2.089 -19.618 -35.360  1.00  0.00     0.422 P 
HETATM    7  O4  UNL     1      -2.218 -19.952 -33.882  1.00  0.00    -0.617 OA
HETATM    8  O5  UNL     1      -3.436 -20.405 -35.792  1.00  0.00    -0.617 OA
HETATM    9  O6  UNL     1      -0.625 -20.413 -35.468  1.00  0.00    -0.617 OA
ENDBRANCH   1   6
TORSDOF 3
ENDMDL
