MODEL 5
REMARK VINA RESULT: -5.030703591      1.769      3.887
REMARK  3 active torsions:
REMARK  status: ('A' for Active; 'I' for Inactive)
REMARK    1  A    between atoms: C1_2  and  C2_4 
REMARK    2  A    between atoms: C2_4  and  O3_5 
REMARK    3  A    between atoms: O3_5  and  P1_6 
ROOT
HETATM    1  O3  UNL     1       1.174 -18.868 -24.621  1.00  0.00    -0.272 OA
ENDROOT
BRANCH   1   2
HETATM    2  C2  UNL     1       2.469 -18.998 -25.011  1.00  0.00     0.295 C 
BRANCH   2   3
HETATM    3  C1  UNL     1       3.228 -17.863 -24.422  1.00  0.00     0.198 C 
HETATM    4  O1  UNL     1       3.220 -16.701 -24.935  1.00  0.00    -0.646 OA
HETATM    5  O2  UNL     1       3.993 -18.006 -23.274  1.00  0.00    -0.646 OA
ENDBRANCH   2   3
ENDBRANCH   1   2
BRANCH   1   6
HETATM    6  P1  UNL     1       0.867 -20.036 -23.472  1.00  0.00     0.422 P 
HETATM    7  O4  UNL     1       0.721 -21.087 -24.562  1.00  0.00    -0.617 OA
HETATM    8  O5  UNL     1       2.064 -20.808 -22.703  1.00  0.00    -0.617 OA
HETATM    9  O6  UNL     1      -0.703 -20.274 -22.957  1.00  0.00    -0.617 OA
ENDBRANCH   1   6
TORSDOF 3
ENDMDL
