MODEL 2
REMARK VINA RESULT: -5.068337919      1.680      2.730
REMARK  3 active torsions:
REMARK  status: ('A' for Active; 'I' for Inactive)
REMARK    1  A    between atoms: C1_2  and  C2_4 
REMARK    2  A    between atoms: C2_4  and  O3_5 
REMARK    3  A    between atoms: O3_5  and  P1_6 
ROOT
HETATM    1  O3  UNL     1       2.024 -20.328 -22.928  1.00  0.00    -0.272 OA
ENDROOT
BRANCH   1   2
HETATM    2  C2  UNL     1       0.981 -21.191 -22.815  1.00  0.00     0.295 C 
BRANCH   2   3
HETATM    3  C1  UNL     1       1.193 -21.989 -21.578  1.00  0.00     0.198 C 
HETATM    4  O1  UNL     1       1.844 -21.541 -20.584  1.00  0.00    -0.646 OA
HETATM    5  O2  UNL     1       0.692 -23.274 -21.437  1.00  0.00    -0.646 OA
ENDBRANCH   2   3
ENDBRANCH   1   2
BRANCH   1   6
HETATM    6  P1  UNL     1       1.681 -19.270 -24.170  1.00  0.00     0.422 P 
HETATM    7  O4  UNL     1       1.439 -20.439 -25.114  1.00  0.00    -0.617 OA
HETATM    8  O5  UNL     1       0.204 -18.637 -24.363  1.00  0.00    -0.617 OA
HETATM    9  O6  UNL     1       2.931 -18.695 -25.114  1.00  0.00    -0.617 OA
ENDBRANCH   1   6
TORSDOF 3
ENDMDL
