MODEL 7
REMARK VINA RESULT: -4.918300699      1.737      3.997
REMARK  3 active torsions:
REMARK  status: ('A' for Active; 'I' for Inactive)
REMARK    1  A    between atoms: C1_2  and  C2_4 
REMARK    2  A    between atoms: C2_4  and  O3_5 
REMARK    3  A    between atoms: O3_5  and  P1_6 
ROOT
HETATM    1  O3  UNL     1       0.938 -19.195 -24.254  1.00  0.00    -0.272 OA
ENDROOT
BRANCH   1   2
HETATM    2  C2  UNL     1       2.104 -19.282 -24.947  1.00  0.00     0.295 C 
BRANCH   2   3
HETATM    3  C1  UNL     1       3.150 -18.585 -24.151  1.00  0.00     0.198 C 
HETATM    4  O1  UNL     1       4.036 -19.216 -23.496  1.00  0.00    -0.646 OA
HETATM    5  O2  UNL     1       3.218 -17.203 -24.076  1.00  0.00    -0.646 OA
ENDBRANCH   2   3
ENDBRANCH   1   2
BRANCH   1   6
HETATM    6  P1  UNL     1       0.677 -20.662 -23.508  1.00  0.00     0.422 P 
HETATM    7  O4  UNL     1      -0.599 -20.127 -22.876  1.00  0.00    -0.617 OA
HETATM    8  O5  UNL     1      -0.058 -21.886 -24.272  1.00  0.00    -0.617 OA
HETATM    9  O6  UNL     1       1.363 -20.946 -22.013  1.00  0.00    -0.617 OA
ENDBRANCH   1   6
TORSDOF 3
ENDMDL
