MODEL 9
REMARK VINA RESULT: -4.909398548      1.737      3.967
REMARK  3 active torsions:
REMARK  status: ('A' for Active; 'I' for Inactive)
REMARK    1  A    between atoms: C1_2  and  C2_4 
REMARK    2  A    between atoms: C2_4  and  O3_5 
REMARK    3  A    between atoms: O3_5  and  P1_6 
ROOT
HETATM    1  O3  UNL     1       0.915 -19.192 -24.224  1.00  0.00    -0.272 OA
ENDROOT
BRANCH   1   2
HETATM    2  C2  UNL     1       2.068 -19.265 -24.940  1.00  0.00     0.295 C 
BRANCH   2   3
HETATM    3  C1  UNL     1       3.120 -18.555 -24.166  1.00  0.00     0.198 C 
HETATM    4  O1  UNL     1       3.190 -17.288 -24.120  1.00  0.00    -0.646 OA
HETATM    5  O2  UNL     1       4.091 -19.236 -23.448  1.00  0.00    -0.646 OA
ENDBRANCH   2   3
ENDBRANCH   1   2
BRANCH   1   6
HETATM    6  P1  UNL     1       0.671 -20.671 -23.495  1.00  0.00     0.422 P 
HETATM    7  O4  UNL     1      -0.615 -20.161 -22.864  1.00  0.00    -0.617 OA
HETATM    8  O5  UNL     1      -0.042 -21.897 -24.276  1.00  0.00    -0.617 OA
HETATM    9  O6  UNL     1       1.354 -20.961 -22.000  1.00  0.00    -0.617 OA
ENDBRANCH   1   6
TORSDOF 3
ENDMDL
