MODEL 3
REMARK VINA RESULT: -5.051816083      1.757      3.988
REMARK  3 active torsions:
REMARK  status: ('A' for Active; 'I' for Inactive)
REMARK    1  A    between atoms: C1_2  and  C2_4 
REMARK    2  A    between atoms: C2_4  and  O3_5 
REMARK    3  A    between atoms: O3_5  and  P1_6 
ROOT
HETATM    1  O3  UNL     1       1.138 -18.901 -24.596  1.00  0.00    -0.272 OA
ENDROOT
BRANCH   1   2
HETATM    2  C2  UNL     1       2.428 -19.051 -24.996  1.00  0.00     0.295 C 
BRANCH   2   3
HETATM    3  C1  UNL     1       3.213 -17.938 -24.398  1.00  0.00     0.198 C 
HETATM    4  O1  UNL     1       3.921 -18.091 -23.356  1.00  0.00    -0.646 OA
HETATM    5  O2  UNL     1       3.217 -16.664 -24.945  1.00  0.00    -0.646 OA
ENDBRANCH   2   3
ENDBRANCH   1   2
BRANCH   1   6
HETATM    6  P1  UNL     1       0.818 -20.069 -23.451  1.00  0.00     0.422 P 
HETATM    7  O4  UNL     1       0.678 -21.119 -24.544  1.00  0.00    -0.617 OA
HETATM    8  O5  UNL     1       2.007 -20.846 -22.674  1.00  0.00    -0.617 OA
HETATM    9  O6  UNL     1      -0.756 -20.303 -22.949  1.00  0.00    -0.617 OA
ENDBRANCH   1   6
TORSDOF 3
ENDMDL
