MODEL 6
REMARK VINA RESULT: -4.955544344      1.915      3.918
REMARK  3 active torsions:
REMARK  status: ('A' for Active; 'I' for Inactive)
REMARK    1  A    between atoms: C1_2  and  C2_4 
REMARK    2  A    between atoms: C2_4  and  O3_5 
REMARK    3  A    between atoms: O3_5  and  P1_6 
ROOT
HETATM    1  O3  UNL     1       2.657 -19.803 -24.055  1.00  0.00    -0.272 OA
ENDROOT
BRANCH   1   2
HETATM    2  C2  UNL     1       2.812 -18.892 -25.051  1.00  0.00     0.295 C 
BRANCH   2   3
HETATM    3  C1  UNL     1       3.318 -17.637 -24.434  1.00  0.00     0.198 C 
HETATM    4  O1  UNL     1       3.218 -16.509 -25.009  1.00  0.00    -0.646 OA
HETATM    5  O2  UNL     1       3.933 -17.625 -23.191  1.00  0.00    -0.646 OA
ENDBRANCH   2   3
ENDBRANCH   1   2
BRANCH   1   6
HETATM    6  P1  UNL     1       1.024 -19.967 -23.761  1.00  0.00     0.422 P 
HETATM    7  O4  UNL     1       1.317 -20.521 -22.375  1.00  0.00    -0.617 OA
HETATM    8  O5  UNL     1       0.128 -18.731 -23.223  1.00  0.00    -0.617 OA
HETATM    9  O6  UNL     1       0.256 -21.375 -24.221  1.00  0.00    -0.617 OA
ENDBRANCH   1   6
TORSDOF 3
ENDMDL
