MODEL 1
REMARK VINA RESULT: -8.787211218      0.000      0.000
REMARK  5 active torsions:
REMARK  status: ('A' for Active; 'I' for Inactive)
REMARK    1  A    between atoms: C1_2  and  C2_4 
REMARK    2  A    between atoms: C2_4  and  C3_5 
REMARK    3  A    between atoms: C3_5  and  C4_6 
REMARK    4  A    between atoms: C4_6  and  C5_7 
REMARK    5  A    between atoms: C5_7  and  C6_8 
ROOT
HETATM    1  C6  UNL     1     217.316   7.225  10.443  1.00  0.00     0.072 C 
HETATM    2  S1  UNL     1     216.041   8.387   9.811  1.00  0.00    -0.160 SA
HETATM    3  C7  UNL     1     214.713   7.976  11.009  1.00  0.00     0.101 C 
HETATM    4  C8  UNL     1     215.268   6.767  11.674  1.00  0.00     0.119 C 
HETATM    5  N1  UNL     1     214.877   6.840  13.089  1.00  0.00    -0.336 N 
ATOM      6  H1  UNL     1     214.122   6.337  13.555  1.00  0.00     0.164 HD
HETATM    7  C9  UNL     1     215.789   7.769  13.663  1.00  0.00     0.316 C 
HETATM    8  O3  UNL     1     215.608   8.336  14.778  1.00  0.00    -0.247 OA
HETATM    9  N2  UNL     1     216.906   7.933  12.767  1.00  0.00    -0.335 N 
ATOM     10  H2  UNL     1     217.646   8.633  12.822  1.00  0.00     0.164 HD
HETATM   11  C10 UNL     1     216.755   6.904  11.785  1.00  0.00     0.123 C 
ENDROOT
BRANCH   1  12
HETATM   12  C5  UNL     1     218.657   7.866  10.472  1.00  0.00     0.017 C 
BRANCH  12  13
HETATM   13  C4  UNL     1     218.604   9.127   9.646  1.00  0.00     0.002 C 
BRANCH  13  14
HETATM   14  C3  UNL     1     219.937   9.505   9.070  1.00  0.00     0.010 C 
BRANCH  14  15
HETATM   15  C2  UNL     1     219.900   9.571   7.565  1.00  0.00     0.113 C 
BRANCH  15  16
HETATM   16  C1  UNL     1     220.016   8.243   6.939  1.00  0.00     0.172 C 
HETATM   17  O1  UNL     1     220.293   7.224   7.604  1.00  0.00    -0.648 OA
HETATM   18  O2  UNL     1     219.814   8.112   5.586  1.00  0.00    -0.648 OA
ENDBRANCH  15  16
ENDBRANCH  14  15
ENDBRANCH  13  14
ENDBRANCH  12  13
ENDBRANCH   1  12
TORSDOF 5
ENDMDL
