MODEL 4
REMARK VINA RESULT: -7.017580905      2.389      6.239
REMARK  5 active torsions:
REMARK  status: ('A' for Active; 'I' for Inactive)
REMARK    1  A    between atoms: C1_2  and  C2_4 
REMARK    2  A    between atoms: C2_4  and  C3_5 
REMARK    3  A    between atoms: C3_5  and  C4_6 
REMARK    4  A    between atoms: C4_6  and  C5_7 
REMARK    5  A    between atoms: C5_7  and  C6_8 
ROOT
HETATM    1  C6  UNL     1     217.228   7.514   9.816  1.00  0.00     0.072 C 
HETATM    2  S1  UNL     1     217.516   9.150  10.600  1.00  0.00    -0.160 SA
HETATM    3  C7  UNL     1     219.219   9.430   9.975  1.00  0.00     0.101 C 
HETATM    4  C8  UNL     1     219.552   8.102   9.395  1.00  0.00     0.119 C 
HETATM    5  N1  UNL     1     220.350   8.351   8.187  1.00  0.00    -0.336 N 
ATOM      6  H1  UNL     1     221.362   8.275   8.080  1.00  0.00     0.164 HD
HETATM    7  C9  UNL     1     219.395   8.720   7.199  1.00  0.00     0.316 C 
HETATM    8  O3  UNL     1     219.691   9.301   6.115  1.00  0.00    -0.247 OA
HETATM    9  N2  UNL     1     218.086   8.325   7.652  1.00  0.00    -0.335 N 
ATOM     10  H2  UNL     1     217.186   8.580   7.243  1.00  0.00     0.164 HD
HETATM   11  C10 UNL     1     218.317   7.501   8.799  1.00  0.00     0.123 C 
ENDROOT
BRANCH   1  12
HETATM   12  C5  UNL     1     215.856   7.425   9.252  1.00  0.00     0.017 C 
BRANCH  12  13
HETATM   13  C4  UNL     1     214.886   7.189  10.383  1.00  0.00     0.002 C 
BRANCH  13  14
HETATM   14  C3  UNL     1     215.481   6.393  11.506  1.00  0.00     0.010 C 
BRANCH  14  15
HETATM   15  C2  UNL     1     214.990   6.865  12.851  1.00  0.00     0.113 C 
BRANCH  15  16
HETATM   16  C1  UNL     1     216.041   7.538  13.632  1.00  0.00     0.172 C 
HETATM   17  O1  UNL     1     217.249   7.435  13.335  1.00  0.00    -0.648 OA
HETATM   18  O2  UNL     1     215.692   8.302  14.719  1.00  0.00    -0.648 OA
ENDBRANCH  15  16
ENDBRANCH  14  15
ENDBRANCH  13  14
ENDBRANCH  12  13
ENDBRANCH   1  12
TORSDOF 5
ENDMDL
