MODEL 10
REMARK VINA RESULT: -5.525146692      1.446      1.841
REMARK  5 active torsions:
REMARK  status: ('A' for Active; 'I' for Inactive)
REMARK    1  A    between atoms: C1_2  and  C2_4 
REMARK    2  A    between atoms: C2_4  and  C3_5 
REMARK    3  A    between atoms: C3_5  and  C4_6 
REMARK    4  A    between atoms: C4_6  and  C5_7 
REMARK    5  A    between atoms: C5_7  and  C6_8 
ROOT
HETATM    1  C6  UNL     1     215.766   6.229  10.495  1.00  0.00     0.072 C 
HETATM    2  S1  UNL     1     214.278   7.295  10.333  1.00  0.00    -0.160 SA
HETATM    3  C7  UNL     1     213.968   7.565  12.122  1.00  0.00     0.101 C 
HETATM    4  C8  UNL     1     214.905   6.591  12.742  1.00  0.00     0.119 C 
HETATM    5  N1  UNL     1     215.434   7.222  13.960  1.00  0.00    -0.336 N 
ATOM      6  H1  UNL     1     215.151   7.052  14.925  1.00  0.00     0.164 HD
HETATM    7  C9  UNL     1     216.429   8.123  13.490  1.00  0.00     0.316 C 
HETATM    8  O3  UNL     1     216.906   9.069  14.181  1.00  0.00    -0.247 OA
HETATM    9  N2  UNL     1     216.772   7.768  12.136  1.00  0.00    -0.335 N 
ATOM     10  H2  UNL     1     217.338   8.306  11.480  1.00  0.00     0.164 HD
HETATM   11  C10 UNL     1     216.147   6.502  11.909  1.00  0.00     0.123 C 
ENDROOT
BRANCH   1  12
HETATM   12  C5  UNL     1     216.802   6.600   9.495  1.00  0.00     0.017 C 
BRANCH  12  13
HETATM   13  C4  UNL     1     216.432   7.934   8.894  1.00  0.00     0.002 C 
BRANCH  13  14
HETATM   14  C3  UNL     1     217.562   8.919   8.919  1.00  0.00     0.010 C 
BRANCH  14  15
HETATM   15  C2  UNL     1     218.443   8.795   7.703  1.00  0.00     0.113 C 
BRANCH  15  16
HETATM   16  C1  UNL     1     219.826   8.419   8.043  1.00  0.00     0.172 C 
HETATM   17  O1  UNL     1     220.805   9.075   7.632  1.00  0.00    -0.648 OA
HETATM   18  O2  UNL     1     220.054   7.319   8.833  1.00  0.00    -0.648 OA
ENDBRANCH  15  16
ENDBRANCH  14  15
ENDBRANCH  13  14
ENDBRANCH  12  13
ENDBRANCH   1  12
TORSDOF 5
ENDMDL
