MODEL 7
REMARK VINA RESULT: -6.086716219      2.571      6.317
REMARK  5 active torsions:
REMARK  status: ('A' for Active; 'I' for Inactive)
REMARK    1  A    between atoms: C1_2  and  C2_4 
REMARK    2  A    between atoms: C2_4  and  C3_5 
REMARK    3  A    between atoms: C3_5  and  C4_6 
REMARK    4  A    between atoms: C4_6  and  C5_7 
REMARK    5  A    between atoms: C5_7  and  C6_8 
ROOT
HETATM    1  C6  UNL     1     217.265   7.349   9.487  1.00  0.00     0.072 C 
HETATM    2  S1  UNL     1     218.452   7.988  10.735  1.00  0.00    -0.160 SA
HETATM    3  C7  UNL     1     219.968   7.904   9.705  1.00  0.00     0.101 C 
HETATM    4  C8  UNL     1     219.490   7.138   8.523  1.00  0.00     0.119 C 
HETATM    5  N1  UNL     1     220.162   7.707   7.346  1.00  0.00    -0.336 N 
ATOM      6  H1  UNL     1     220.964   7.330   6.843  1.00  0.00     0.164 HD
HETATM    7  C9  UNL     1     219.440   8.899   7.065  1.00  0.00     0.316 C 
HETATM    8  O3  UNL     1     219.874   9.828   6.325  1.00  0.00    -0.247 OA
HETATM    9  N2  UNL     1     218.176   8.849   7.756  1.00  0.00    -0.335 N 
ATOM     10  H2  UNL     1     217.504   9.607   7.875  1.00  0.00     0.164 HD
HETATM   11  C10 UNL     1     218.066   7.507   8.241  1.00  0.00     0.123 C 
ENDROOT
BRANCH   1  12
HETATM   12  C5  UNL     1     215.997   8.124   9.508  1.00  0.00     0.017 C 
BRANCH  12  13
HETATM   13  C4  UNL     1     214.887   7.216   9.977  1.00  0.00     0.002 C 
BRANCH  13  14
HETATM   14  C3  UNL     1     214.329   7.615  11.310  1.00  0.00     0.010 C 
BRANCH  14  15
HETATM   15  C2  UNL     1     215.075   6.967  12.448  1.00  0.00     0.113 C 
BRANCH  15  16
HETATM   16  C1  UNL     1     215.641   7.951  13.386  1.00  0.00     0.172 C 
HETATM   17  O1  UNL     1     215.334   7.958  14.596  1.00  0.00    -0.648 OA
HETATM   18  O2  UNL     1     216.531   8.890  12.926  1.00  0.00    -0.648 OA
ENDBRANCH  15  16
ENDBRANCH  14  15
ENDBRANCH  13  14
ENDBRANCH  12  13
ENDBRANCH   1  12
TORSDOF 5
ENDMDL
