MODEL 2
REMARK VINA RESULT: -8.122447791      1.040      1.226
REMARK  5 active torsions:
REMARK  status: ('A' for Active; 'I' for Inactive)
REMARK    1  A    between atoms: C1_2  and  C2_4 
REMARK    2  A    between atoms: C2_4  and  C3_5 
REMARK    3  A    between atoms: C3_5  and  C4_6 
REMARK    4  A    between atoms: C4_6  and  C5_7 
REMARK    5  A    between atoms: C5_7  and  C6_8 
ROOT
HETATM    1  C6  UNL     1     216.570   7.405  10.343  1.00  0.00     0.072 C 
HETATM    2  S1  UNL     1     214.892   8.097  10.063  1.00  0.00    -0.160 SA
HETATM    3  C7  UNL     1     214.097   7.453  11.587  1.00  0.00     0.101 C 
HETATM    4  C8  UNL     1     215.135   6.518  12.098  1.00  0.00     0.119 C 
HETATM    5  N1  UNL     1     215.116   6.619  13.564  1.00  0.00    -0.336 N 
ATOM      6  H1  UNL     1     214.689   5.975  14.229  1.00  0.00     0.164 HD
HETATM    7  C9  UNL     1     215.829   7.817  13.847  1.00  0.00     0.316 C 
HETATM    8  O3  UNL     1     215.781   8.420  14.959  1.00  0.00    -0.247 OA
HETATM    9  N2  UNL     1     216.579   8.197  12.677  1.00  0.00    -0.335 N 
ATOM     10  H2  UNL     1     217.068   9.077  12.514  1.00  0.00     0.164 HD
HETATM   11  C10 UNL     1     216.492   7.074  11.794  1.00  0.00     0.123 C 
ENDROOT
BRANCH   1  12
HETATM   12  C5  UNL     1     217.623   8.393   9.991  1.00  0.00     0.017 C 
BRANCH  12  13
HETATM   13  C4  UNL     1     218.960   7.695  10.004  1.00  0.00     0.002 C 
BRANCH  13  14
HETATM   14  C3  UNL     1     219.609   7.649   8.653  1.00  0.00     0.010 C 
BRANCH  14  15
HETATM   15  C2  UNL     1     218.917   8.556   7.667  1.00  0.00     0.113 C 
BRANCH  15  16
HETATM   16  C1  UNL     1     219.738   8.825   6.475  1.00  0.00     0.172 C 
HETATM   17  O1  UNL     1     219.810   8.014   5.529  1.00  0.00    -0.648 OA
HETATM   18  O2  UNL     1     220.447   9.998   6.392  1.00  0.00    -0.648 OA
ENDBRANCH  15  16
ENDBRANCH  14  15
ENDBRANCH  13  14
ENDBRANCH  12  13
ENDBRANCH   1  12
TORSDOF 5
ENDMDL
