MODEL 9
REMARK VINA RESULT: -5.705620646      1.200      1.365
REMARK  5 active torsions:
REMARK  status: ('A' for Active; 'I' for Inactive)
REMARK    1  A    between atoms: C1_2  and  C2_4 
REMARK    2  A    between atoms: C2_4  and  C3_5 
REMARK    3  A    between atoms: C3_5  and  C4_6 
REMARK    4  A    between atoms: C4_6  and  C5_7 
REMARK    5  A    between atoms: C5_7  and  C6_8 
ROOT
HETATM    1  C6  UNL     1     217.869   7.711   9.933  1.00  0.00     0.072 C 
HETATM    2  S1  UNL     1     216.452   8.475   9.050  1.00  0.00    -0.160 SA
HETATM    3  C7  UNL     1     215.102   7.684  10.010  1.00  0.00     0.101 C 
HETATM    4  C8  UNL     1     215.848   6.670  10.802  1.00  0.00     0.119 C 
HETATM    5  N1  UNL     1     215.208   6.605  12.123  1.00  0.00    -0.336 N 
ATOM      6  H1  UNL     1     214.555   5.900  12.466  1.00  0.00     0.164 HD
HETATM    7  C9  UNL     1     215.704   7.743  12.816  1.00  0.00     0.316 C 
HETATM    8  O3  UNL     1     215.176   8.217  13.863  1.00  0.00    -0.247 OA
HETATM    9  N2  UNL     1     216.870   8.233  12.125  1.00  0.00    -0.335 N 
ATOM     10  H2  UNL     1     217.361   9.113  12.285  1.00  0.00     0.164 HD
HETATM   11  C10 UNL     1     217.192   7.221  11.166  1.00  0.00     0.123 C 
ENDROOT
BRANCH   1  12
HETATM   12  C5  UNL     1     218.948   8.704  10.175  1.00  0.00     0.017 C 
BRANCH  12  13
HETATM   13  C4  UNL     1     219.313   9.346   8.859  1.00  0.00     0.002 C 
BRANCH  13  14
HETATM   14  C3  UNL     1     219.858   8.367   7.863  1.00  0.00     0.010 C 
BRANCH  14  15
HETATM   15  C2  UNL     1     219.082   8.390   6.571  1.00  0.00     0.113 C 
BRANCH  15  16
HETATM   16  C1  UNL     1     219.937   8.160   5.394  1.00  0.00     0.172 C 
HETATM   17  O1  UNL     1     219.741   7.204   4.616  1.00  0.00    -0.648 OA
HETATM   18  O2  UNL     1     220.980   9.017   5.137  1.00  0.00    -0.648 OA
ENDBRANCH  15  16
ENDBRANCH  14  15
ENDBRANCH  13  14
ENDBRANCH  12  13
ENDBRANCH   1  12
TORSDOF 5
ENDMDL
