MODEL 6
REMARK VINA RESULT: -6.377267940      2.629      6.458
REMARK  5 active torsions:
REMARK  status: ('A' for Active; 'I' for Inactive)
REMARK    1  A    between atoms: C1_2  and  C2_4 
REMARK    2  A    between atoms: C2_4  and  C3_5 
REMARK    3  A    between atoms: C3_5  and  C4_6 
REMARK    4  A    between atoms: C4_6  and  C5_7 
REMARK    5  A    between atoms: C5_7  and  C6_8 
ROOT
HETATM    1  C6  UNL     1     217.651   7.570   9.532  1.00  0.00     0.072 C 
HETATM    2  S1  UNL     1     218.188   9.040  10.495  1.00  0.00    -0.160 SA
HETATM    3  C7  UNL     1     219.848   9.242   9.740  1.00  0.00     0.101 C 
HETATM    4  C8  UNL     1     219.979   7.985   8.955  1.00  0.00     0.119 C 
HETATM    5  N1  UNL     1     220.689   8.329   7.714  1.00  0.00    -0.336 N 
ATOM      6  H1  UNL     1     221.672   8.172   7.494  1.00  0.00     0.164 HD
HETATM    7  C9  UNL     1     219.696   8.928   6.891  1.00  0.00     0.316 C 
HETATM    8  O3  UNL     1     219.956   9.628   5.870  1.00  0.00    -0.247 OA
HETATM    9  N2  UNL     1     218.397   8.600   7.420  1.00  0.00    -0.335 N 
ATOM     10  H2  UNL     1     217.498   8.997   7.145  1.00  0.00     0.164 HD
HETATM   11  C10 UNL     1     218.637   7.600   8.414  1.00  0.00     0.123 C 
ENDROOT
BRANCH   1  12
HETATM   12  C5  UNL     1     216.233   7.697   9.107  1.00  0.00     0.017 C 
BRANCH  12  13
HETATM   13  C4  UNL     1     215.401   6.736   9.918  1.00  0.00     0.002 C 
BRANCH  13  14
HETATM   14  C3  UNL     1     214.398   7.426  10.794  1.00  0.00     0.010 C 
BRANCH  14  15
HETATM   15  C2  UNL     1     215.059   8.175  11.922  1.00  0.00     0.113 C 
BRANCH  15  16
HETATM   16  C1  UNL     1     215.083   7.404  13.176  1.00  0.00     0.172 C 
HETATM   17  O1  UNL     1     215.417   7.922  14.261  1.00  0.00    -0.648 OA
HETATM   18  O2  UNL     1     214.727   6.077  13.161  1.00  0.00    -0.648 OA
ENDBRANCH  15  16
ENDBRANCH  14  15
ENDBRANCH  13  14
ENDBRANCH  12  13
ENDBRANCH   1  12
TORSDOF 5
ENDMDL
