MODEL 6
REMARK VINA RESULT: -6.753711543      1.248      1.376
REMARK  5 active torsions:
REMARK  status: ('A' for Active; 'I' for Inactive)
REMARK       I    between atoms: C2_2  and  N1_4 
REMARK    1  A    between atoms: C4_6  and  O2_7 
REMARK    2  A    between atoms: C6_10  and  C7_11 
REMARK       I    between atoms: C7_11  and  N2_13 
REMARK    3  A    between atoms: N2_13  and  C8_15 
REMARK    4  A    between atoms: C8_15  and  C9_16 
REMARK    5  A    between atoms: C12_19  and  C13_20 
ROOT
HETATM    1  C7  UNL     1      -6.102  35.671   1.563  1.00  0.00     0.241 C 
HETATM    2  O3  UNL     1      -5.101  36.266   1.085  1.00  0.00    -0.271 OA
HETATM    3  N2  UNL     1      -6.079  35.375   2.951  1.00  0.00    -0.355 N 
ATOM      4  H2  UNL     1      -6.884  34.891   3.348  1.00  0.00     0.162 HD
ENDROOT
BRANCH   3   5
HETATM    5  C8  UNL     1      -4.996  35.714   3.834  1.00  0.00     0.161 C 
BRANCH   5   6
HETATM    6  C9  UNL     1      -4.920  34.806   5.012  1.00  0.00    -0.040 A 
HETATM    7  C10 UNL     1      -5.999  34.067   5.456  1.00  0.00     0.010 A 
HETATM    8  C11 UNL     1      -5.895  33.226   6.565  1.00  0.00     0.015 A 
HETATM    9  C12 UNL     1      -4.709  33.105   7.254  1.00  0.00    -0.001 A 
HETATM   10  C16 UNL     1      -3.631  33.840   6.813  1.00  0.00     0.015 A 
HETATM   11  C17 UNL     1      -3.743  34.670   5.715  1.00  0.00     0.010 A 
BRANCH   9  12
HETATM   12  C13 UNL     1      -4.578  32.228   8.424  1.00  0.00     0.102 A 
HETATM   13  C14 UNL     1      -3.758  32.457   9.503  1.00  0.00     0.127 A 
HETATM   14  N3  UNL     1      -3.898  31.442  10.380  1.00  0.00    -0.354 N 
HETATM   15  C15 UNL     1      -4.803  30.609   9.822  1.00  0.00     0.233 A 
ATOM     16  H3  UNL     1      -3.423  31.329  11.275  1.00  0.00     0.166 HD
HETATM   17  O4  UNL     1      -5.184  31.105   8.665  1.00  0.00    -0.304 OA
ENDBRANCH   9  12
ENDBRANCH   5   6
ENDBRANCH   3   5
BRANCH   1  18
HETATM   18  C6  UNL     1      -7.193  35.344   0.626  1.00  0.00     0.181 C 
HETATM   19  N1  UNL     1      -6.782  34.974  -0.692  1.00  0.00    -0.337 N 
HETATM   20  C2  UNL     1      -6.759  35.793  -1.834  1.00  0.00     0.216 C 
HETATM   21  C3  UNL     1      -6.394  33.595  -0.615  1.00  0.00     0.158 C 
HETATM   22  C1  UNL     1      -6.304  35.300  -3.177  1.00  0.00     0.117 C 
HETATM   23  O1  UNL     1      -7.126  36.984  -1.769  1.00  0.00    -0.274 OA
HETATM   24  C4  UNL     1      -7.398  33.011   0.360  1.00  0.00     0.138 C 
HETATM   25  C5  UNL     1      -8.048  34.183   1.048  1.00  0.00     0.068 C 
BRANCH  24  26
HETATM   26  O2  UNL     1      -8.351  32.316  -0.386  1.00  0.00    -0.394 OA
ATOM     27  H2  UNL     1      -8.769  31.691   0.195  1.00  0.00     0.210 HD
ENDBRANCH  24  26
ENDBRANCH   1  18
TORSDOF 5
ENDMDL
