MODEL 1
REMARK VINA RESULT: -7.888457903      0.000      0.000
REMARK  5 active torsions:
REMARK  status: ('A' for Active; 'I' for Inactive)
REMARK       I    between atoms: C2_2  and  N1_4 
REMARK    1  A    between atoms: C4_6  and  O2_7 
REMARK    2  A    between atoms: C6_10  and  C7_11 
REMARK       I    between atoms: C7_11  and  N2_13 
REMARK    3  A    between atoms: N2_13  and  C8_15 
REMARK    4  A    between atoms: C8_15  and  C9_16 
REMARK    5  A    between atoms: C12_19  and  C13_20 
ROOT
HETATM    1  C7  UNL     1      -6.335  34.500   1.706  1.00  0.00     0.241 C 
HETATM    2  O3  UNL     1      -5.240  34.259   1.135  1.00  0.00    -0.271 OA
HETATM    3  N2  UNL     1      -6.278  35.040   3.017  1.00  0.00    -0.355 N 
ATOM      4  H2  UNL     1      -7.159  35.236   3.491  1.00  0.00     0.162 HD
ENDROOT
BRANCH   3   5
HETATM    5  C8  UNL     1      -5.058  35.329   3.722  1.00  0.00     0.161 C 
BRANCH   5   6
HETATM    6  C9  UNL     1      -4.932  34.543   4.981  1.00  0.00    -0.040 A 
HETATM    7  C10 UNL     1      -5.974  33.809   5.511  1.00  0.00     0.010 A 
HETATM    8  C11 UNL     1      -5.824  33.085   6.695  1.00  0.00     0.015 A 
HETATM    9  C12 UNL     1      -4.626  33.079   7.374  1.00  0.00    -0.001 A 
HETATM   10  C16 UNL     1      -3.584  33.809   6.848  1.00  0.00     0.015 A 
HETATM   11  C17 UNL     1      -3.742  34.524   5.676  1.00  0.00     0.010 A 
BRANCH   9  12
HETATM   12  C13 UNL     1      -4.445  32.325   8.621  1.00  0.00     0.102 A 
HETATM   13  C14 UNL     1      -4.840  31.026   8.830  1.00  0.00     0.127 A 
HETATM   14  N3  UNL     1      -4.511  30.667  10.087  1.00  0.00    -0.354 N 
HETATM   15  C15 UNL     1      -3.919  31.754  10.626  1.00  0.00     0.233 A 
ATOM     16  H3  UNL     1      -4.675  29.766  10.536  1.00  0.00     0.166 HD
HETATM   17  O4  UNL     1      -3.896  32.717   9.731  1.00  0.00    -0.304 OA
ENDBRANCH   9  12
ENDBRANCH   5   6
ENDBRANCH   3   5
BRANCH   1  18
HETATM   18  C6  UNL     1      -7.563  34.192   0.949  1.00  0.00     0.181 C 
HETATM   19  N1  UNL     1      -7.368  33.492  -0.282  1.00  0.00    -0.337 N 
HETATM   20  C2  UNL     1      -7.342  34.041  -1.574  1.00  0.00     0.216 C 
HETATM   21  C3  UNL     1      -7.203  32.111   0.069  1.00  0.00     0.158 C 
HETATM   22  C1  UNL     1      -7.126  33.209  -2.806  1.00  0.00     0.117 C 
HETATM   23  O1  UNL     1      -7.502  35.267  -1.747  1.00  0.00    -0.274 OA
HETATM   24  C4  UNL     1      -8.171  31.931   1.222  1.00  0.00     0.138 C 
HETATM   25  C5  UNL     1      -8.541  33.318   1.681  1.00  0.00     0.068 C 
BRANCH  24  26
HETATM   26  O2  UNL     1      -9.302  31.284   0.721  1.00  0.00    -0.394 OA
ATOM     27  H2  UNL     1     -10.036  31.882   0.810  1.00  0.00     0.210 HD
ENDBRANCH  24  26
ENDBRANCH   1  18
TORSDOF 5
ENDMDL
