MODEL 9
REMARK VINA RESULT: -6.564639159      5.290     10.777
REMARK  5 active torsions:
REMARK  status: ('A' for Active; 'I' for Inactive)
REMARK       I    between atoms: C2_2  and  N1_4 
REMARK    1  A    between atoms: C4_6  and  O2_7 
REMARK    2  A    between atoms: C6_10  and  C7_11 
REMARK       I    between atoms: C7_11  and  N2_13 
REMARK    3  A    between atoms: N2_13  and  C8_15 
REMARK    4  A    between atoms: C8_15  and  C9_16 
REMARK    5  A    between atoms: C12_19  and  C13_20 
ROOT
HETATM    1  C7  UNL     1      -7.497  33.371  -1.099  1.00  0.00     0.241 C 
HETATM    2  O3  UNL     1      -8.607  32.834  -0.847  1.00  0.00    -0.271 OA
HETATM    3  N2  UNL     1      -7.256  33.760  -2.443  1.00  0.00    -0.355 N 
ATOM      4  H2  UNL     1      -6.359  34.194  -2.660  1.00  0.00     0.162 HD
ENDROOT
BRANCH   3   5
HETATM    5  C8  UNL     1      -8.193  33.582  -3.519  1.00  0.00     0.161 C 
BRANCH   5   6
HETATM    6  C9  UNL     1      -8.806  34.868  -3.956  1.00  0.00    -0.040 A 
HETATM    7  C10 UNL     1     -10.121  34.968  -4.363  1.00  0.00     0.010 A 
HETATM    8  C11 UNL     1     -10.664  36.188  -4.769  1.00  0.00     0.015 A 
HETATM    9  C12 UNL     1      -9.902  37.335  -4.776  1.00  0.00    -0.001 A 
HETATM   10  C16 UNL     1      -8.590  37.238  -4.369  1.00  0.00     0.015 A 
HETATM   11  C17 UNL     1      -8.061  36.027  -3.969  1.00  0.00     0.010 A 
BRANCH   9  12
HETATM   12  C13 UNL     1     -10.452  38.629  -5.199  1.00  0.00     0.102 A 
HETATM   13  C14 UNL     1      -9.903  39.454  -6.151  1.00  0.00     0.127 A 
HETATM   14  N3  UNL     1     -10.678  40.551  -6.277  1.00  0.00    -0.354 N 
HETATM   15  C15 UNL     1     -11.689  40.377  -5.398  1.00  0.00     0.233 A 
ATOM     16  H3  UNL     1     -10.531  41.343  -6.902  1.00  0.00     0.166 HD
HETATM   17  O4  UNL     1     -11.524  39.229  -4.777  1.00  0.00    -0.304 OA
ENDBRANCH   9  12
ENDBRANCH   5   6
ENDBRANCH   3   5
BRANCH   1  18
HETATM   18  C6  UNL     1      -6.564  33.539   0.031  1.00  0.00     0.181 C 
HETATM   19  N1  UNL     1      -5.583  34.566  -0.128  1.00  0.00    -0.337 N 
HETATM   20  C2  UNL     1      -4.244  34.406  -0.522  1.00  0.00     0.216 C 
HETATM   21  C3  UNL     1      -6.243  35.798   0.195  1.00  0.00     0.158 C 
HETATM   22  C1  UNL     1      -3.294  35.561  -0.659  1.00  0.00     0.117 C 
HETATM   23  O1  UNL     1      -3.788  33.272  -0.775  1.00  0.00    -0.274 OA
HETATM   24  C4  UNL     1      -7.159  35.407   1.338  1.00  0.00     0.138 C 
HETATM   25  C5  UNL     1      -7.223  33.902   1.331  1.00  0.00     0.068 C 
BRANCH  24  26
HETATM   26  O2  UNL     1      -6.563  35.847   2.521  1.00  0.00    -0.394 OA
ATOM     27  H2  UNL     1      -7.127  35.585   3.240  1.00  0.00     0.210 HD
ENDBRANCH  24  26
ENDBRANCH   1  18
TORSDOF 5
ENDMDL
