MODEL 5
REMARK VINA RESULT: -6.775879835      4.904     10.619
REMARK  5 active torsions:
REMARK  status: ('A' for Active; 'I' for Inactive)
REMARK       I    between atoms: C2_2  and  N1_4 
REMARK    1  A    between atoms: C4_6  and  O2_7 
REMARK    2  A    between atoms: C6_10  and  C7_11 
REMARK       I    between atoms: C7_11  and  N2_13 
REMARK    3  A    between atoms: N2_13  and  C8_15 
REMARK    4  A    between atoms: C8_15  and  C9_16 
REMARK    5  A    between atoms: C12_19  and  C13_20 
ROOT
HETATM    1  C7  UNL     1      -6.780  33.034  -1.527  1.00  0.00     0.241 C 
HETATM    2  O3  UNL     1      -5.707  33.044  -2.186  1.00  0.00    -0.271 OA
HETATM    3  N2  UNL     1      -7.986  33.228  -2.249  1.00  0.00    -0.355 N 
ATOM      4  H2  UNL     1      -8.861  33.225  -1.726  1.00  0.00     0.162 HD
ENDROOT
BRANCH   3   5
HETATM    5  C8  UNL     1      -8.056  33.429  -3.672  1.00  0.00     0.161 C 
BRANCH   5   6
HETATM    6  C9  UNL     1      -8.700  34.723  -4.030  1.00  0.00    -0.040 A 
HETATM    7  C10 UNL     1     -10.045  34.831  -4.325  1.00  0.00     0.010 A 
HETATM    8  C11 UNL     1     -10.618  36.059  -4.660  1.00  0.00     0.015 A 
HETATM    9  C12 UNL     1      -9.858  37.207  -4.707  1.00  0.00    -0.001 A 
HETATM   10  C16 UNL     1      -8.516  37.102  -4.413  1.00  0.00     0.015 A 
HETATM   11  C17 UNL     1      -7.957  35.883  -4.083  1.00  0.00     0.010 A 
BRANCH   9  12
HETATM   12  C13 UNL     1     -10.439  38.508  -5.057  1.00  0.00     0.102 A 
HETATM   13  C14 UNL     1      -9.948  39.369  -6.010  1.00  0.00     0.127 A 
HETATM   14  N3  UNL     1     -10.737  40.462  -6.058  1.00  0.00    -0.354 N 
HETATM   15  C15 UNL     1     -11.697  40.251  -5.132  1.00  0.00     0.233 A 
ATOM     16  H3  UNL     1     -10.630  41.275  -6.664  1.00  0.00     0.166 HD
HETATM   17  O4  UNL     1     -11.491  39.085  -4.559  1.00  0.00    -0.304 OA
ENDBRANCH   9  12
ENDBRANCH   5   6
ENDBRANCH   3   5
BRANCH   1  18
HETATM   18  C6  UNL     1      -6.667  32.822  -0.071  1.00  0.00     0.181 C 
HETATM   19  N1  UNL     1      -6.691  34.008   0.726  1.00  0.00    -0.337 N 
HETATM   20  C2  UNL     1      -5.588  34.685   1.273  1.00  0.00     0.216 C 
HETATM   21  C3  UNL     1      -8.073  34.371   0.856  1.00  0.00     0.158 C 
HETATM   22  C1  UNL     1      -5.727  35.931   2.099  1.00  0.00     0.117 C 
HETATM   23  O1  UNL     1      -4.428  34.263   1.087  1.00  0.00    -0.274 OA
HETATM   24  C4  UNL     1      -8.770  33.030   0.971  1.00  0.00     0.138 C 
HETATM   25  C5  UNL     1      -7.771  31.996   0.523  1.00  0.00     0.068 C 
BRANCH  24  26
HETATM   26  O2  UNL     1      -9.080  32.833   2.318  1.00  0.00    -0.394 OA
ATOM     27  H2  UNL     1      -8.259  32.755   2.791  1.00  0.00     0.210 HD
ENDBRANCH  24  26
ENDBRANCH   1  18
TORSDOF 5
ENDMDL
