MODEL 2
REMARK VINA RESULT: -7.067747798      0.546      1.105
REMARK  5 active torsions:
REMARK  status: ('A' for Active; 'I' for Inactive)
REMARK       I    between atoms: C2_2  and  N1_4 
REMARK    1  A    between atoms: C4_6  and  O2_7 
REMARK    2  A    between atoms: C6_10  and  C7_11 
REMARK       I    between atoms: C7_11  and  N2_13 
REMARK    3  A    between atoms: N2_13  and  C8_15 
REMARK    4  A    between atoms: C8_15  and  C9_16 
REMARK    5  A    between atoms: C12_19  and  C13_20 
ROOT
HETATM    1  C7  UNL     1      -6.340  35.187   1.541  1.00  0.00     0.241 C 
HETATM    2  O3  UNL     1      -5.352  35.650   0.913  1.00  0.00    -0.271 OA
HETATM    3  N2  UNL     1      -6.227  35.101   2.953  1.00  0.00    -0.355 N 
ATOM      4  H2  UNL     1      -7.020  34.724   3.473  1.00  0.00     0.162 HD
ENDROOT
BRANCH   3   5
HETATM    5  C8  UNL     1      -5.068  35.509   3.701  1.00  0.00     0.161 C 
BRANCH   5   6
HETATM    6  C9  UNL     1      -4.882  34.707   4.942  1.00  0.00    -0.040 A 
HETATM    7  C10 UNL     1      -3.691  34.677   5.640  1.00  0.00     0.010 A 
HETATM    8  C11 UNL     1      -3.549  33.912   6.799  1.00  0.00     0.015 A 
HETATM    9  C12 UNL     1      -4.596  33.160   7.285  1.00  0.00    -0.001 A 
HETATM   10  C16 UNL     1      -5.785  33.189   6.591  1.00  0.00     0.015 A 
HETATM   11  C17 UNL     1      -5.917  33.948   5.444  1.00  0.00     0.010 A 
BRANCH   9  12
HETATM   12  C13 UNL     1      -4.469  32.349   8.502  1.00  0.00     0.102 A 
HETATM   13  C14 UNL     1      -5.036  31.112   8.697  1.00  0.00     0.127 A 
HETATM   14  N3  UNL     1      -4.706  30.670   9.927  1.00  0.00    -0.354 N 
HETATM   15  C15 UNL     1      -3.940  31.644  10.464  1.00  0.00     0.233 A 
ATOM     16  H3  UNL     1      -4.976  29.787  10.360  1.00  0.00     0.166 HD
HETATM   17  O4  UNL     1      -3.820  32.623   9.593  1.00  0.00    -0.304 OA
ENDBRANCH   9  12
ENDBRANCH   5   6
ENDBRANCH   3   5
BRANCH   1  18
HETATM   18  C6  UNL     1      -7.510  34.782   0.740  1.00  0.00     0.181 C 
HETATM   19  N1  UNL     1      -7.212  34.136  -0.500  1.00  0.00    -0.337 N 
HETATM   20  C2  UNL     1      -7.202  34.718  -1.778  1.00  0.00     0.216 C 
HETATM   21  C3  UNL     1      -6.923  32.769  -0.176  1.00  0.00     0.158 C 
HETATM   22  C1  UNL     1      -6.871  33.943  -3.021  1.00  0.00     0.117 C 
HETATM   23  O1  UNL     1      -7.475  35.927  -1.928  1.00  0.00    -0.274 OA
HETATM   24  C4  UNL     1      -7.903  32.467   0.942  1.00  0.00     0.138 C 
HETATM   25  C5  UNL     1      -8.419  33.800   1.420  1.00  0.00     0.068 C 
BRANCH  24  26
HETATM   26  O2  UNL     1      -8.951  31.728   0.391  1.00  0.00    -0.394 OA
ATOM     27  H2  UNL     1      -8.733  31.556  -0.517  1.00  0.00     0.210 HD
ENDBRANCH  24  26
ENDBRANCH   1  18
TORSDOF 5
ENDMDL
