MODEL 11
REMARK VINA RESULT: -6.544265877      5.726      9.241
REMARK  5 active torsions:
REMARK  status: ('A' for Active; 'I' for Inactive)
REMARK       I    between atoms: C2_2  and  N1_4 
REMARK    1  A    between atoms: C4_6  and  O2_7 
REMARK    2  A    between atoms: C6_10  and  C7_11 
REMARK       I    between atoms: C7_11  and  N2_13 
REMARK    3  A    between atoms: N2_13  and  C8_15 
REMARK    4  A    between atoms: C8_15  and  C9_16 
REMARK    5  A    between atoms: C12_19  and  C13_20 
ROOT
HETATM    1  C7  UNL     1      -4.051  32.245  -6.424  1.00  0.00     0.241 C 
HETATM    2  O3  UNL     1      -3.069  32.805  -5.871  1.00  0.00    -0.271 OA
HETATM    3  N2  UNL     1      -5.327  32.834  -6.230  1.00  0.00    -0.355 N 
ATOM      4  H2  UNL     1      -6.131  32.388  -6.672  1.00  0.00     0.162 HD
ENDROOT
BRANCH   3   5
HETATM    5  C8  UNL     1      -5.563  34.020  -5.451  1.00  0.00     0.161 C 
BRANCH   5   6
HETATM    6  C9  UNL     1      -6.198  33.718  -4.138  1.00  0.00    -0.040 A 
HETATM    7  C10 UNL     1      -7.561  33.807  -3.931  1.00  0.00     0.010 A 
HETATM    8  C11 UNL     1      -8.126  33.520  -2.687  1.00  0.00     0.015 A 
HETATM    9  C12 UNL     1      -7.339  33.137  -1.623  1.00  0.00    -0.001 A 
HETATM   10  C16 UNL     1      -5.980  33.047  -1.827  1.00  0.00     0.015 A 
HETATM   11  C17 UNL     1      -5.430  33.334  -3.061  1.00  0.00     0.010 A 
BRANCH   9  12
HETATM   12  C13 UNL     1      -7.911  32.831  -0.306  1.00  0.00     0.102 A 
HETATM   13  C14 UNL     1      -7.848  33.646   0.799  1.00  0.00     0.127 A 
HETATM   14  N3  UNL     1      -8.480  33.040   1.824  1.00  0.00    -0.354 N 
HETATM   15  C15 UNL     1      -8.920  31.864   1.328  1.00  0.00     0.233 A 
ATOM     16  H3  UNL     1      -8.600  33.395   2.773  1.00  0.00     0.166 HD
HETATM   17  O4  UNL     1      -8.566  31.773   0.065  1.00  0.00    -0.304 OA
ENDBRANCH   9  12
ENDBRANCH   5   6
ENDBRANCH   3   5
BRANCH   1  18
HETATM   18  C6  UNL     1      -3.768  31.034  -7.217  1.00  0.00     0.181 C 
HETATM   19  N1  UNL     1      -3.118  29.975  -6.511  1.00  0.00    -0.337 N 
HETATM   20  C2  UNL     1      -1.749  29.662  -6.524  1.00  0.00     0.216 C 
HETATM   21  C3  UNL     1      -4.148  29.293  -5.781  1.00  0.00     0.158 C 
HETATM   22  C1  UNL     1      -1.168  28.521  -5.738  1.00  0.00     0.117 C 
HETATM   23  O1  UNL     1      -0.949  30.336  -7.206  1.00  0.00    -0.274 OA
HETATM   24  C4  UNL     1      -5.327  29.334  -6.734  1.00  0.00     0.138 C 
HETATM   25  C5  UNL     1      -4.987  30.362  -7.781  1.00  0.00     0.068 C 
BRANCH  24  26
HETATM   26  O2  UNL     1      -5.429  28.074  -7.327  1.00  0.00    -0.394 OA
ATOM     27  H2  UNL     1      -5.880  28.185  -8.157  1.00  0.00     0.210 HD
ENDBRANCH  24  26
ENDBRANCH   1  18
TORSDOF 5
ENDMDL
