MODEL 6
REMARK VINA RESULT: -5.184581539      2.683      5.818
REMARK  4 active torsions:
REMARK  status: ('A' for Active; 'I' for Inactive)
REMARK       I    between atoms: N1_2  and  C2_4 
REMARK    1  A    between atoms: C2_4  and  C3_6 
REMARK    2  A    between atoms: C5_8  and  O2_9 
REMARK       I    between atoms: N2_12  and  C7_13 
REMARK    3  A    between atoms: C7_13  and  C8_15 
REMARK    4  A    between atoms: C8_15  and  C9_16 
ROOT
HETATM    1  C3  UNL     1      -6.592  34.129  -5.526  1.00  0.00     0.181 C 
HETATM    2  C4  UNL     1      -6.778  34.195  -7.022  1.00  0.00     0.068 C 
HETATM    3  C5  UNL     1      -7.880  35.194  -7.272  1.00  0.00     0.138 C 
HETATM    4  C6  UNL     1      -8.250  35.681  -5.895  1.00  0.00     0.158 C 
HETATM    5  N2  UNL     1      -7.870  34.592  -5.048  1.00  0.00    -0.336 N 
HETATM    6  C7  UNL     1      -8.585  34.034  -3.978  1.00  0.00     0.226 C 
HETATM    7  O3  UNL     1      -9.729  34.476  -3.719  1.00  0.00    -0.273 OA
ENDROOT
BRANCH   1   8
HETATM    8  C2  UNL     1      -5.539  35.003  -5.001  1.00  0.00     0.240 C 
HETATM    9  N1  UNL     1      -5.394  35.297  -3.608  1.00  0.00    -0.364 N 
HETATM   10  C1  UNL     1      -4.327  36.170  -3.169  1.00  0.00     0.149 C 
ATOM     11  H1  UNL     1      -6.039  34.894  -2.929  1.00  0.00     0.161 HD
HETATM   12  O1  UNL     1      -4.712  35.534  -5.778  1.00  0.00    -0.271 OA
ENDBRANCH   1   8
BRANCH   6  13
HETATM   13  C8  UNL     1      -8.068  32.942  -3.123  1.00  0.00     0.170 C 
BRANCH  13  14
HETATM   14  C9  UNL     1      -7.777  33.360  -1.741  1.00  0.00     0.087 A 
HETATM   15  C10 UNL     1      -8.062  32.578  -0.627  1.00  0.00     0.061 A 
HETATM   16  C11 UNL     1      -7.653  33.295   0.476  1.00  0.00     0.031 A 
HETATM   17  C12 UNL     1      -7.746  32.870   1.897  1.00  0.00     0.070 C 
HETATM   18  N3  UNL     1      -7.147  34.463  -0.016  1.00  0.00    -0.266 N 
HETATM   19  O4  UNL     1      -7.239  34.458  -1.322  1.00  0.00    -0.242 OA
ATOM     20  H3  UNL     1      -6.758  35.220   0.546  1.00  0.00     0.194 HD
ENDBRANCH  13  14
ENDBRANCH   6  13
BRANCH   3  21
HETATM   21  O2  UNL     1      -9.007  34.587  -7.871  1.00  0.00    -0.394 OA
ATOM     22  H2  UNL     1      -9.135  33.700  -7.554  1.00  0.00     0.210 HD
ENDBRANCH   3  21
TORSDOF 4
ENDMDL
