MODEL 7
REMARK VINA RESULT: -5.152380889      3.049      6.630
REMARK  4 active torsions:
REMARK  status: ('A' for Active; 'I' for Inactive)
REMARK       I    between atoms: N1_2  and  C2_4 
REMARK    1  A    between atoms: C2_4  and  C3_6 
REMARK    2  A    between atoms: C5_8  and  O2_9 
REMARK       I    between atoms: N2_12  and  C7_13 
REMARK    3  A    between atoms: C7_13  and  C8_15 
REMARK    4  A    between atoms: C8_15  and  C9_16 
ROOT
HETATM    1  C3  UNL     1      -6.826  34.134  -1.126  1.00  0.00     0.181 C 
HETATM    2  C4  UNL     1      -6.643  34.191  -2.623  1.00  0.00     0.068 C 
HETATM    3  C5  UNL     1      -5.372  33.436  -2.926  1.00  0.00     0.138 C 
HETATM    4  C6  UNL     1      -4.906  32.950  -1.579  1.00  0.00     0.158 C 
HETATM    5  N2  UNL     1      -5.480  33.896  -0.671  1.00  0.00    -0.336 N 
HETATM    6  C7  UNL     1      -4.877  34.517   0.432  1.00  0.00     0.226 C 
HETATM    7  O3  UNL     1      -3.667  34.287   0.669  1.00  0.00    -0.273 OA
ENDROOT
BRANCH   1   8
HETATM    8  C2  UNL     1      -7.690  33.047  -0.657  1.00  0.00     0.240 C 
HETATM    9  N1  UNL     1      -7.575  32.470   0.648  1.00  0.00    -0.364 N 
HETATM   10  C1  UNL     1      -8.467  31.398   1.036  1.00  0.00     0.149 C 
ATOM     11  H1  UNL     1      -6.870  32.812   1.299  1.00  0.00     0.161 HD
HETATM   12  O1  UNL     1      -8.578  32.577  -1.405  1.00  0.00    -0.271 OA
ENDBRANCH   1   8
BRANCH   6  13
HETATM   13  C8  UNL     1      -5.585  35.439   1.347  1.00  0.00     0.170 C 
BRANCH  13  14
HETATM   14  C9  UNL     1      -5.906  34.844   2.655  1.00  0.00     0.087 A 
HETATM   15  C10 UNL     1      -5.389  35.311   3.858  1.00  0.00     0.061 A 
HETATM   16  C11 UNL     1      -5.910  34.511   4.851  1.00  0.00     0.031 A 
HETATM   17  C12 UNL     1      -5.652  34.624   6.310  1.00  0.00     0.070 C 
HETATM   18  N3  UNL     1      -6.707  33.608   4.210  1.00  0.00    -0.266 N 
HETATM   19  O4  UNL     1      -6.676  33.841   2.923  1.00  0.00    -0.242 OA
ATOM     20  H3  UNL     1      -7.243  32.868   4.664  1.00  0.00     0.194 HD
ENDBRANCH  13  14
ENDBRANCH   6  13
BRANCH   3  21
HETATM   21  O2  UNL     1      -4.387  34.281  -3.485  1.00  0.00    -0.394 OA
ATOM     22  H2  UNL     1      -4.412  35.149  -3.102  1.00  0.00     0.210 HD
ENDBRANCH   3  21
TORSDOF 4
ENDMDL
