MODEL 5
REMARK VINA RESULT: -5.188160597      4.219      7.340
REMARK  4 active torsions:
REMARK  status: ('A' for Active; 'I' for Inactive)
REMARK       I    between atoms: N1_2  and  C2_4 
REMARK    1  A    between atoms: C2_4  and  C3_6 
REMARK    2  A    between atoms: C5_8  and  O2_9 
REMARK       I    between atoms: N2_12  and  C7_13 
REMARK    3  A    between atoms: C7_13  and  C8_15 
REMARK    4  A    between atoms: C8_15  and  C9_16 
ROOT
HETATM    1  C3  UNL     1      -6.282  34.987   0.654  1.00  0.00     0.181 C 
HETATM    2  C4  UNL     1      -6.416  34.170  -0.608  1.00  0.00     0.068 C 
HETATM    3  C5  UNL     1      -7.582  33.238  -0.391  1.00  0.00     0.138 C 
HETATM    4  C6  UNL     1      -8.085  33.595   0.982  1.00  0.00     0.158 C 
HETATM    5  N2  UNL     1      -6.927  34.141   1.625  1.00  0.00    -0.336 N 
HETATM    6  C7  UNL     1      -6.461  33.899   2.925  1.00  0.00     0.226 C 
HETATM    7  O3  UNL     1      -7.070  33.070   3.642  1.00  0.00    -0.273 OA
ENDROOT
BRANCH   1   8
HETATM    8  C2  UNL     1      -6.965  36.283   0.618  1.00  0.00     0.240 C 
HETATM    9  N1  UNL     1      -7.455  36.937   1.793  1.00  0.00    -0.364 N 
HETATM   10  C1  UNL     1      -8.120  38.217   1.674  1.00  0.00     0.149 C 
ATOM     11  H1  UNL     1      -7.336  36.504   2.708  1.00  0.00     0.161 HD
HETATM   12  O1  UNL     1      -7.147  36.872  -0.472  1.00  0.00    -0.271 OA
ENDBRANCH   1   8
BRANCH   6  13
HETATM   13  C8  UNL     1      -5.279  34.568   3.513  1.00  0.00     0.170 C 
BRANCH  13  14
HETATM   14  C9  UNL     1      -5.608  35.486   4.618  1.00  0.00     0.087 A 
HETATM   15  C10 UNL     1      -5.310  35.221   5.949  1.00  0.00     0.061 A 
HETATM   16  C11 UNL     1      -5.766  36.296   6.680  1.00  0.00     0.031 A 
HETATM   17  C12 UNL     1      -5.671  36.475   8.152  1.00  0.00     0.070 C 
HETATM   18  N3  UNL     1      -6.312  37.151   5.767  1.00  0.00    -0.266 N 
HETATM   19  O4  UNL     1      -6.197  36.636   4.569  1.00  0.00    -0.242 OA
ATOM     20  H3  UNL     1      -6.742  38.049   5.984  1.00  0.00     0.194 HD
ENDBRANCH  13  14
ENDBRANCH   6  13
BRANCH   3  21
HETATM   21  O2  UNL     1      -7.175  31.884  -0.402  1.00  0.00    -0.394 OA
ATOM     22  H2  UNL     1      -6.901  31.609  -1.269  1.00  0.00     0.210 HD
ENDBRANCH   3  21
TORSDOF 4
ENDMDL
