MODEL 4
REMARK VINA RESULT: -9.428725260      0.633      1.496
REMARK  2 active torsions:
REMARK  status: ('A' for Active; 'I' for Inactive)
REMARK    1  A    between atoms: C4_4  and  C5_5 
REMARK    2  A    between atoms: C6_8  and  N2_9 
ROOT
HETATM    1  C5  UNL     1       7.003  -0.809  34.492  1.00  0.00     0.117 A 
HETATM    2  N1  UNL     1       8.279  -1.121  34.165  1.00  0.00    -0.327 N 
ATOM      3  H1  UNL     1       9.020  -0.422  34.207  1.00  0.00     0.169 HD
HETATM    4  C6  UNL     1       8.537  -2.385  33.785  1.00  0.00     0.124 A 
HETATM    5  C11 UNL     1       7.520  -3.344  33.728  1.00  0.00     0.075 A 
HETATM    6  S1  UNL     1       7.413  -4.996  33.316  1.00  0.00    -0.096 SA
HETATM    7  C12 UNL     1       5.745  -5.236  33.571  1.00  0.00     0.053 A 
HETATM    8  C13 UNL     1       5.314  -4.012  33.975  1.00  0.00     0.038 A 
HETATM    9  C14 UNL     1       6.231  -3.029  34.057  1.00  0.00     0.055 A 
HETATM   10  N3  UNL     1       6.051  -1.725  34.434  1.00  0.00    -0.341 N 
ATOM     11  H3  UNL     1       5.106  -1.437  34.691  1.00  0.00     0.167 HD
ENDROOT
BRANCH   1  12
HETATM   12  C4  UNL     1       6.689   0.577  34.916  1.00  0.00     0.008 A 
HETATM   13  C3  UNL     1       7.592   1.592  34.755  1.00  0.00     0.015 A 
HETATM   14  C2  UNL     1       7.273   2.896  35.165  1.00  0.00     0.001 A 
HETATM   15  C1  UNL     1       6.048   3.169  35.731  1.00  0.00     0.000 A 
HETATM   16  C16 UNL     1       5.138   2.144  35.892  1.00  0.00     0.001 A 
HETATM   17  C15 UNL     1       5.470   0.846  35.478  1.00  0.00     0.015 A 
ENDBRANCH   1  12
BRANCH   4  18
HETATM   18  N2  UNL     1       9.829  -2.847  33.417  1.00  0.00    -0.362 N 
HETATM   19  C7  UNL     1      10.058  -3.927  32.482  1.00  0.00     0.150 C 
HETATM   20  C8  UNL     1      11.265  -3.634  31.599  1.00  0.00     0.187 C 
HETATM   21  O1  UNL     1      12.329  -3.133  32.350  1.00  0.00    -0.388 OA
HETATM   22  C9  UNL     1      11.985  -1.905  32.923  1.00  0.00     0.187 C 
HETATM   23  C10 UNL     1      10.975  -2.195  34.015  1.00  0.00     0.150 C 
ENDBRANCH   4  18
TORSDOF 2
ENDMDL
