MODEL 14
REMARK VINA RESULT: -7.403284902      2.820      6.175
REMARK  2 active torsions:
REMARK  status: ('A' for Active; 'I' for Inactive)
REMARK    1  A    between atoms: C4_4  and  C5_5 
REMARK    2  A    between atoms: C6_8  and  N2_9 
ROOT
HETATM    1  C5  UNL     1       7.669  -2.626  33.665  1.00  0.00     0.117 A 
HETATM    2  N1  UNL     1       7.654  -1.291  33.882  1.00  0.00    -0.327 N 
ATOM      3  H1  UNL     1       8.482  -0.721  33.714  1.00  0.00     0.169 HD
HETATM    4  C6  UNL     1       6.510  -0.740  34.325  1.00  0.00     0.124 A 
HETATM    5  C11 UNL     1       5.373  -1.523  34.555  1.00  0.00     0.075 A 
HETATM    6  S1  UNL     1       3.780  -1.244  35.095  1.00  0.00    -0.096 SA
HETATM    7  C12 UNL     1       3.182  -2.839  35.029  1.00  0.00     0.053 A 
HETATM    8  C13 UNL     1       4.251  -3.551  34.582  1.00  0.00     0.038 A 
HETATM    9  C14 UNL     1       5.387  -2.873  34.336  1.00  0.00     0.055 A 
HETATM   10  N3  UNL     1       6.587  -3.356  33.886  1.00  0.00    -0.341 N 
ATOM     11  H3  UNL     1       6.652  -4.358  33.706  1.00  0.00     0.167 HD
ENDROOT
BRANCH   1  12
HETATM   12  C4  UNL     1       8.917  -3.261  33.176  1.00  0.00     0.008 A 
HETATM   13  C3  UNL     1      10.076  -2.546  33.050  1.00  0.00     0.015 A 
HETATM   14  C2  UNL     1      11.245  -3.168  32.584  1.00  0.00     0.001 A 
HETATM   15  C1  UNL     1      11.239  -4.503  32.249  1.00  0.00     0.000 A 
HETATM   16  C16 UNL     1      10.069  -5.223  32.377  1.00  0.00     0.001 A 
HETATM   17  C15 UNL     1       8.907  -4.589  32.844  1.00  0.00     0.015 A 
ENDBRANCH   1  12
BRANCH   4  18
HETATM   18  N2  UNL     1       6.356   0.646  34.592  1.00  0.00    -0.362 N 
HETATM   19  C7  UNL     1       5.153   1.228  35.144  1.00  0.00     0.150 C 
HETATM   20  C8  UNL     1       5.489   2.335  36.135  1.00  0.00     0.187 C 
HETATM   21  O1  UNL     1       6.493   3.167  35.639  1.00  0.00    -0.388 OA
HETATM   22  C9  UNL     1       7.681   2.449  35.471  1.00  0.00     0.187 C 
HETATM   23  C10 UNL     1       7.472   1.519  34.293  1.00  0.00     0.150 C 
ENDBRANCH   4  18
TORSDOF 2
ENDMDL
