MODEL 2
REMARK VINA RESULT: -9.533073020      2.693      6.112
REMARK  2 active torsions:
REMARK  status: ('A' for Active; 'I' for Inactive)
REMARK    1  A    between atoms: C4_4  and  C5_5 
REMARK    2  A    between atoms: C6_8  and  N2_9 
ROOT
HETATM    1  C5  UNL     1       8.485  -2.199  33.705  1.00  0.00     0.117 A 
HETATM    2  N1  UNL     1       8.359  -0.947  34.203  1.00  0.00    -0.327 N 
ATOM      3  H1  UNL     1       9.144  -0.297  34.201  1.00  0.00     0.169 HD
HETATM    4  C6  UNL     1       7.162  -0.589  34.703  1.00  0.00     0.124 A 
HETATM    5  C11 UNL     1       6.085  -1.481  34.708  1.00  0.00     0.075 A 
HETATM    6  S1  UNL     1       4.460  -1.440  35.223  1.00  0.00    -0.096 SA
HETATM    7  C12 UNL     1       3.992  -3.021  34.788  1.00  0.00     0.053 A 
HETATM    8  C13 UNL     1       5.126  -3.541  34.247  1.00  0.00     0.038 A 
HETATM    9  C14 UNL     1       6.212  -2.746  34.204  1.00  0.00     0.055 A 
HETATM   10  N3  UNL     1       7.458  -3.033  33.715  1.00  0.00    -0.341 N 
ATOM     11  H3  UNL     1       7.607  -3.965  33.327  1.00  0.00     0.167 HD
ENDROOT
BRANCH   1  12
HETATM   12  C4  UNL     1       9.792  -2.621  33.147  1.00  0.00     0.008 A 
HETATM   13  C3  UNL     1      10.954  -1.994  33.505  1.00  0.00     0.015 A 
HETATM   14  C2  UNL     1      12.180  -2.411  32.963  1.00  0.00     0.001 A 
HETATM   15  C1  UNL     1      12.228  -3.456  32.067  1.00  0.00     0.000 A 
HETATM   16  C16 UNL     1      11.055  -4.087  31.708  1.00  0.00     0.001 A 
HETATM   17  C15 UNL     1       9.836  -3.660  32.256  1.00  0.00     0.015 A 
ENDBRANCH   1  12
BRANCH   4  18
HETATM   18  N2  UNL     1       6.892   0.691  35.256  1.00  0.00    -0.362 N 
HETATM   19  C7  UNL     1       7.894   1.720  35.426  1.00  0.00     0.150 C 
HETATM   20  C8  UNL     1       7.318   3.097  35.119  1.00  0.00     0.187 C 
HETATM   21  O1  UNL     1       6.060   3.256  35.700  1.00  0.00    -0.388 OA
HETATM   22  C9  UNL     1       5.151   2.346  35.152  1.00  0.00     0.187 C 
HETATM   23  C10 UNL     1       5.534   0.975  35.670  1.00  0.00     0.150 C 
ENDBRANCH   4  18
TORSDOF 2
ENDMDL
