MODEL 1
REMARK VINA RESULT: -9.546343848      0.000      0.000
REMARK  2 active torsions:
REMARK  status: ('A' for Active; 'I' for Inactive)
REMARK    1  A    between atoms: C4_4  and  C5_5 
REMARK    2  A    between atoms: C6_8  and  N2_9 
ROOT
HETATM    1  C5  UNL     1       7.052  -0.750  34.472  1.00  0.00     0.117 A 
HETATM    2  N1  UNL     1       8.309  -0.903  33.997  1.00  0.00    -0.327 N 
ATOM      3  H1  UNL     1       8.961  -0.119  33.969  1.00  0.00     0.169 HD
HETATM    4  C6  UNL     1       8.672  -2.123  33.562  1.00  0.00     0.124 A 
HETATM    5  C11 UNL     1       7.777  -3.198  33.600  1.00  0.00     0.075 A 
HETATM    6  S1  UNL     1       7.822  -4.847  33.167  1.00  0.00    -0.096 SA
HETATM    7  C12 UNL     1       6.235  -5.291  33.605  1.00  0.00     0.053 A 
HETATM    8  C13 UNL     1       5.710  -4.131  34.082  1.00  0.00     0.038 A 
HETATM    9  C14 UNL     1       6.506  -3.045  34.080  1.00  0.00     0.055 A 
HETATM   10  N3  UNL     1       6.215  -1.775  34.503  1.00  0.00    -0.341 N 
ATOM     11  H3  UNL     1       5.279  -1.606  34.871  1.00  0.00     0.167 HD
ENDROOT
BRANCH   1  12
HETATM   12  C4  UNL     1       6.625   0.584  34.958  1.00  0.00     0.008 A 
HETATM   13  C3  UNL     1       5.434   0.755  35.610  1.00  0.00     0.015 A 
HETATM   14  C2  UNL     1       5.051   2.028  36.061  1.00  0.00     0.001 A 
HETATM   15  C1  UNL     1       5.867   3.118  35.854  1.00  0.00     0.000 A 
HETATM   16  C16 UNL     1       7.067   2.942  35.196  1.00  0.00     0.001 A 
HETATM   17  C15 UNL     1       7.439   1.665  34.751  1.00  0.00     0.015 A 
ENDBRANCH   1  12
BRANCH   4  18
HETATM   18  N2  UNL     1       9.958  -2.422  33.040  1.00  0.00    -0.362 N 
HETATM   19  C7  UNL     1      11.140  -2.580  33.859  1.00  0.00     0.150 C 
HETATM   20  C8  UNL     1      12.023  -3.703  33.329  1.00  0.00     0.187 C 
HETATM   21  O1  UNL     1      12.149  -3.632  31.941  1.00  0.00    -0.388 OA
HETATM   22  C9  UNL     1      10.906  -3.820  31.329  1.00  0.00     0.187 C 
HETATM   23  C10 UNL     1      10.085  -2.577  31.606  1.00  0.00     0.150 C 
ENDBRANCH   4  18
TORSDOF 2
ENDMDL
