MODEL 6
REMARK VINA RESULT: -9.193313574      0.721      1.160
REMARK  2 active torsions:
REMARK  status: ('A' for Active; 'I' for Inactive)
REMARK    1  A    between atoms: C4_4  and  C5_5 
REMARK    2  A    between atoms: C6_8  and  N2_9 
ROOT
HETATM    1  C5  UNL     1       6.764  -0.664  34.563  1.00  0.00     0.117 A 
HETATM    2  N1  UNL     1       8.015  -1.010  34.184  1.00  0.00    -0.327 N 
ATOM      3  H1  UNL     1       8.770  -0.325  34.171  1.00  0.00     0.169 HD
HETATM    4  C6  UNL     1       8.230  -2.288  33.824  1.00  0.00     0.124 A 
HETATM    5  C11 UNL     1       7.194  -3.227  33.841  1.00  0.00     0.075 A 
HETATM    6  S1  UNL     1       7.035  -4.886  33.477  1.00  0.00    -0.096 SA
HETATM    7  C12 UNL     1       5.377  -5.086  33.819  1.00  0.00     0.053 A 
HETATM    8  C13 UNL     1       4.990  -3.844  34.212  1.00  0.00     0.038 A 
HETATM    9  C14 UNL     1       5.929  -2.878  34.224  1.00  0.00     0.055 A 
HETATM   10  N3  UNL     1       5.792  -1.562  34.576  1.00  0.00    -0.341 N 
ATOM     11  H3  UNL     1       4.867  -1.248  34.870  1.00  0.00     0.167 HD
ENDROOT
BRANCH   1  12
HETATM   12  C4  UNL     1       6.497   0.739  34.966  1.00  0.00     0.008 A 
HETATM   13  C3  UNL     1       5.275   1.119  35.448  1.00  0.00     0.015 A 
HETATM   14  C2  UNL     1       5.045   2.453  35.822  1.00  0.00     0.001 A 
HETATM   15  C1  UNL     1       6.046   3.392  35.710  1.00  0.00     0.000 A 
HETATM   16  C16 UNL     1       7.279   3.005  35.224  1.00  0.00     0.001 A 
HETATM   17  C15 UNL     1       7.495   1.669  34.853  1.00  0.00     0.015 A 
ENDBRANCH   1  12
BRANCH   4  18
HETATM   18  N2  UNL     1       9.493  -2.785  33.406  1.00  0.00    -0.362 N 
HETATM   19  C7  UNL     1       9.657  -3.863  32.456  1.00  0.00     0.150 C 
HETATM   20  C8  UNL     1      10.839  -3.599  31.531  1.00  0.00     0.187 C 
HETATM   21  O1  UNL     1      11.943  -3.137  32.247  1.00  0.00    -0.388 OA
HETATM   22  C9  UNL     1      11.657  -1.904  32.840  1.00  0.00     0.187 C 
HETATM   23  C10 UNL     1      10.679  -2.172  33.966  1.00  0.00     0.150 C 
ENDBRANCH   4  18
TORSDOF 2
ENDMDL
