MODEL 3
REMARK VINA RESULT: -9.525837319      2.694      6.062
REMARK  2 active torsions:
REMARK  status: ('A' for Active; 'I' for Inactive)
REMARK    1  A    between atoms: C4_4  and  C5_5 
REMARK    2  A    between atoms: C6_8  and  N2_9 
ROOT
HETATM    1  C5  UNL     1       8.473  -2.219  33.704  1.00  0.00     0.117 A 
HETATM    2  N1  UNL     1       8.354  -0.966  34.201  1.00  0.00    -0.327 N 
ATOM      3  H1  UNL     1       9.143  -0.320  34.195  1.00  0.00     0.169 HD
HETATM    4  C6  UNL     1       7.161  -0.601  34.702  1.00  0.00     0.124 A 
HETATM    5  C11 UNL     1       6.079  -1.488  34.711  1.00  0.00     0.075 A 
HETATM    6  S1  UNL     1       4.455  -1.438  35.229  1.00  0.00    -0.096 SA
HETATM    7  C12 UNL     1       3.979  -3.017  34.798  1.00  0.00     0.053 A 
HETATM    8  C13 UNL     1       5.109  -3.543  34.256  1.00  0.00     0.038 A 
HETATM    9  C14 UNL     1       6.199  -2.754  34.209  1.00  0.00     0.055 A 
HETATM   10  N3  UNL     1       7.443  -3.048  33.718  1.00  0.00    -0.341 N 
ATOM     11  H3  UNL     1       7.586  -3.982  33.331  1.00  0.00     0.167 HD
ENDROOT
BRANCH   1  12
HETATM   12  C4  UNL     1       9.777  -2.649  33.144  1.00  0.00     0.008 A 
HETATM   13  C3  UNL     1       9.869  -3.718  32.296  1.00  0.00     0.015 A 
HETATM   14  C2  UNL     1      11.114  -4.107  31.779  1.00  0.00     0.001 A 
HETATM   15  C1  UNL     1      12.257  -3.418  32.117  1.00  0.00     0.000 A 
HETATM   16  C16 UNL     1      12.163  -2.339  32.973  1.00  0.00     0.001 A 
HETATM   17  C15 UNL     1      10.912  -1.961  33.483  1.00  0.00     0.015 A 
ENDBRANCH   1  12
BRANCH   4  18
HETATM   18  N2  UNL     1       6.898   0.682  35.253  1.00  0.00    -0.362 N 
HETATM   19  C7  UNL     1       7.906   1.706  35.417  1.00  0.00     0.150 C 
HETATM   20  C8  UNL     1       7.334   3.085  35.109  1.00  0.00     0.187 C 
HETATM   21  O1  UNL     1       6.079   3.251  35.695  1.00  0.00    -0.388 OA
HETATM   22  C9  UNL     1       5.164   2.344  35.152  1.00  0.00     0.187 C 
HETATM   23  C10 UNL     1       5.543   0.972  35.672  1.00  0.00     0.150 C 
ENDBRANCH   4  18
TORSDOF 2
ENDMDL
