MODEL 5
REMARK VINA RESULT: -9.309809621      2.640      5.978
REMARK  2 active torsions:
REMARK  status: ('A' for Active; 'I' for Inactive)
REMARK    1  A    between atoms: C4_4  and  C5_5 
REMARK    2  A    between atoms: C6_8  and  N2_9 
ROOT
HETATM    1  C5  UNL     1       8.485  -2.323  33.722  1.00  0.00     0.117 A 
HETATM    2  N1  UNL     1       8.128  -1.053  34.025  1.00  0.00    -0.327 N 
ATOM      3  H1  UNL     1       8.794  -0.285  33.946  1.00  0.00     0.169 HD
HETATM    4  C6  UNL     1       6.865  -0.837  34.433  1.00  0.00     0.124 A 
HETATM    5  C11 UNL     1       5.951  -1.891  34.541  1.00  0.00     0.075 A 
HETATM    6  S1  UNL     1       4.316  -2.056  34.999  1.00  0.00    -0.096 SA
HETATM    7  C12 UNL     1       4.139  -3.738  34.792  1.00  0.00     0.053 A 
HETATM    8  C13 UNL     1       5.370  -4.128  34.366  1.00  0.00     0.038 A 
HETATM    9  C14 UNL     1       6.310  -3.174  34.235  1.00  0.00     0.055 A 
HETATM   10  N3  UNL     1       7.611  -3.310  33.828  1.00  0.00    -0.341 N 
ATOM     11  H3  UNL     1       7.931  -4.249  33.587  1.00  0.00     0.167 HD
ENDROOT
BRANCH   1  12
HETATM   12  C4  UNL     1       9.871  -2.590  33.269  1.00  0.00     0.008 A 
HETATM   13  C3  UNL     1      10.206  -3.771  32.665  1.00  0.00     0.015 A 
HETATM   14  C2  UNL     1      11.525  -4.003  32.245  1.00  0.00     0.001 A 
HETATM   15  C1  UNL     1      12.497  -3.045  32.434  1.00  0.00     0.000 A 
HETATM   16  C16 UNL     1      12.157  -1.854  33.043  1.00  0.00     0.001 A 
HETATM   17  C15 UNL     1      10.835  -1.636  33.458  1.00  0.00     0.015 A 
ENDBRANCH   1  12
BRANCH   4  18
HETATM   18  N2  UNL     1       6.359   0.443  34.781  1.00  0.00    -0.362 N 
HETATM   19  C7  UNL     1       5.255   0.649  35.693  1.00  0.00     0.150 C 
HETATM   20  C8  UNL     1       5.496   1.871  36.571  1.00  0.00     0.187 C 
HETATM   21  O1  UNL     1       5.980   2.942  35.821  1.00  0.00    -0.388 OA
HETATM   22  C9  UNL     1       7.228   2.629  35.274  1.00  0.00     0.187 C 
HETATM   23  C10 UNL     1       6.989   1.603  34.186  1.00  0.00     0.150 C 
ENDBRANCH   4  18
TORSDOF 2
ENDMDL
