MODEL 2
REMARK VINA RESULT: -5.931292292      5.837     11.464
REMARK  12 active torsions:
REMARK  status: ('A' for Active; 'I' for Inactive)
REMARK    1  A    between atoms: C2_3  and  N2_4 
REMARK    2  A    between atoms: N2_4  and  C3_6 
REMARK    3  A    between atoms: C7_11  and  C8_12 
REMARK    4  A    between atoms: C8_12  and  N3_13 
REMARK       I    between atoms: N3_13  and  C9_15 
REMARK    5  A    between atoms: C9_15  and  C10_17 
REMARK    6  A    between atoms: C17_27  and  C18_28 
REMARK       I    between atoms: C18_28  and  N5_30 
REMARK    7  A    between atoms: N5_30  and  C19_32 
REMARK    8  A    between atoms: C19_32  and  C20_33 
REMARK    9  A    between atoms: C21_37  and  O3_38 
REMARK   10  A    between atoms: O3_38  and  C22_39 
REMARK   11  A    between atoms: C22_39  and  C23_40 
REMARK   12  A    between atoms: C23_40  and  O4_43 
ROOT
HETATM    1  C1  UNL     1     -11.253  14.822  49.879  1.00  0.00     0.175 C 
HETATM    2  N1  UNL     1     -10.350  14.219  48.887  1.00  0.00    -0.185 N 
HETATM    3  C2  UNL     1     -10.651  13.915  47.614  1.00  0.00     0.685 A 
HETATM    4  N4  UNL     1      -9.564  13.381  47.030  1.00  0.00    -0.189 N 
ATOM      5  H4  UNL     1      -9.513  13.060  46.063  1.00  0.00     0.184 HD
HETATM    6  C15 UNL     1      -8.537  13.335  47.933  1.00  0.00     0.077 A 
HETATM    7  C16 UNL     1      -7.243  12.889  47.842  1.00  0.00     0.052 A 
HETATM    8  C17 UNL     1      -6.364  12.950  48.936  1.00  0.00     0.067 A 
HETATM    9  C21 UNL     1      -6.887  13.480  50.086  1.00  0.00     0.086 A 
HETATM   10  C26 UNL     1      -8.212  13.931  50.163  1.00  0.00     0.070 A 
HETATM   11  C27 UNL     1      -9.066  13.868  49.086  1.00  0.00     0.081 A 
ENDROOT
BRANCH   3  12
HETATM   12  N2  UNL     1     -11.921  14.132  47.004  1.00  0.00    -0.188 N 
ATOM     13  H2  UNL     1     -12.752  13.725  47.434  1.00  0.00     0.184 HD
BRANCH  12  14
HETATM   14  C3  UNL     1     -12.066  14.898  45.812  1.00  0.00     0.093 A 
HETATM   15  C4  UNL     1     -11.984  14.315  44.568  1.00  0.00     0.063 A 
HETATM   16 CL1  UNL     1     -11.695  12.592  44.390  1.00  0.00    -0.082 Cl
HETATM   17  C5  UNL     1     -12.127  15.050  43.404  1.00  0.00     0.027 A 
HETATM   18  C6  UNL     1     -12.357  16.412  43.486  1.00  0.00     0.012 A 
HETATM   19  C7  UNL     1     -12.443  17.035  44.699  1.00  0.00    -0.016 A 
HETATM   20  C14 UNL     1     -12.295  16.254  45.855  1.00  0.00     0.070 A 
HETATM   21 CL2  UNL     1     -12.418  17.115  47.384  1.00  0.00    -0.081 Cl
BRANCH  19  22
HETATM   22  C8  UNL     1     -12.713  18.473  44.778  1.00  0.00     0.163 C 
BRANCH  22  23
HETATM   23  N3  UNL     1     -11.570  19.259  45.165  1.00  0.00    -0.356 N 
HETATM   24  C9  UNL     1     -11.359  20.606  44.759  1.00  0.00     0.225 C 
HETATM   25  O1  UNL     1     -12.222  21.134  44.011  1.00  0.00    -0.273 OA
ATOM     26  H3  UNL     1     -10.871  18.824  45.767  1.00  0.00     0.162 HD
BRANCH  24  27
HETATM   27  C10 UNL     1     -10.165  21.379  45.194  1.00  0.00     0.030 C 
HETATM   28  C11 UNL     1      -9.271  21.730  44.022  1.00  0.00     0.024 C 
HETATM   29  C12 UNL     1      -9.384  20.572  46.181  1.00  0.00     0.024 C 
HETATM   30  C13 UNL     1     -10.550  22.686  45.863  1.00  0.00     0.024 C 
ENDBRANCH  24  27
ENDBRANCH  22  23
ENDBRANCH  19  22
ENDBRANCH  12  14
ENDBRANCH   3  12
BRANCH   9  31
HETATM   31  O3  UNL     1      -6.081  13.578  51.221  1.00  0.00    -0.347 OA
BRANCH  31  32
HETATM   32  C22 UNL     1      -6.533  13.141  52.482  1.00  0.00     0.212 C 
BRANCH  32  33
HETATM   33  C23 UNL     1      -5.624  12.063  53.025  1.00  0.00     0.072 C 
HETATM   34  C24 UNL     1      -5.992  10.702  52.458  1.00  0.00     0.047 C 
HETATM   35  C25 UNL     1      -5.665  12.078  54.518  1.00  0.00     0.047 C 
BRANCH  33  36
HETATM   36  O4  UNL     1      -4.314  12.381  52.614  1.00  0.00    -0.388 OA
ATOM     37  H4  UNL     1      -4.051  11.722  51.982  1.00  0.00     0.210 HD
ENDBRANCH  33  36
ENDBRANCH  32  33
ENDBRANCH  31  32
ENDBRANCH   9  31
BRANCH   8  38
HETATM   38  C18 UNL     1      -5.006  12.459  48.777  1.00  0.00     0.254 C 
HETATM   39  O2  UNL     1      -4.526  12.465  47.589  1.00  0.00    -0.268 OA
HETATM   40  N5  UNL     1      -4.141  11.973  49.757  1.00  0.00    -0.348 N 
ATOM     41  H5  UNL     1      -4.466  11.942  50.723  1.00  0.00     0.163 HD
BRANCH  40  42
HETATM   42  C19 UNL     1      -2.791  11.510  49.456  1.00  0.00     0.240 C 
BRANCH  42  43
HETATM   43  C20 UNL     1      -2.709  10.052  49.843  1.00  0.00     0.403 C 
HETATM   44  F1  UNL     1      -1.527   9.479  49.424  1.00  0.00    -0.169 F 
HETATM   45  F2  UNL     1      -3.806   9.381  49.332  1.00  0.00    -0.169 F 
HETATM   46  F3  UNL     1      -2.775   9.969  51.216  1.00  0.00    -0.169 F 
ENDBRANCH  42  43
ENDBRANCH  40  42
ENDBRANCH   8  38
TORSDOF 12
ENDMDL
