MODEL 1
REMARK VINA RESULT: -6.010795620      0.000      0.000
REMARK  12 active torsions:
REMARK  status: ('A' for Active; 'I' for Inactive)
REMARK    1  A    between atoms: C2_3  and  N2_4 
REMARK    2  A    between atoms: N2_4  and  C3_6 
REMARK    3  A    between atoms: C7_11  and  C8_12 
REMARK    4  A    between atoms: C8_12  and  N3_13 
REMARK       I    between atoms: N3_13  and  C9_15 
REMARK    5  A    between atoms: C9_15  and  C10_17 
REMARK    6  A    between atoms: C17_27  and  C18_28 
REMARK       I    between atoms: C18_28  and  N5_30 
REMARK    7  A    between atoms: N5_30  and  C19_32 
REMARK    8  A    between atoms: C19_32  and  C20_33 
REMARK    9  A    between atoms: C21_37  and  O3_38 
REMARK   10  A    between atoms: O3_38  and  C22_39 
REMARK   11  A    between atoms: C22_39  and  C23_40 
REMARK   12  A    between atoms: C23_40  and  O4_43 
ROOT
HETATM    1  C1  UNL     1     -12.443  14.585  45.147  1.00  0.00     0.175 C 
HETATM    2  N1  UNL     1     -11.890  13.327  44.621  1.00  0.00    -0.185 N 
HETATM    3  C2  UNL     1     -11.192  12.411  45.313  1.00  0.00     0.685 A 
HETATM    4  N4  UNL     1     -10.862  11.406  44.483  1.00  0.00    -0.189 N 
ATOM      5  H4  UNL     1     -10.329  10.577  44.746  1.00  0.00     0.184 HD
HETATM    6  C15 UNL     1     -11.350  11.667  43.232  1.00  0.00     0.077 A 
HETATM    7  C16 UNL     1     -11.289  10.974  42.050  1.00  0.00     0.052 A 
HETATM    8  C17 UNL     1     -11.883  11.465  40.876  1.00  0.00     0.067 A 
HETATM    9  C21 UNL     1     -12.520  12.672  40.996  1.00  0.00     0.086 A 
HETATM   10  C26 UNL     1     -12.574  13.369  42.211  1.00  0.00     0.070 A 
HETATM   11  C27 UNL     1     -11.989  12.880  43.356  1.00  0.00     0.081 A 
ENDROOT
BRANCH   3  12
HETATM   12  N2  UNL     1     -10.866  12.511  46.697  1.00  0.00    -0.188 N 
ATOM     13  H2  UNL     1     -11.617  12.461  47.386  1.00  0.00     0.184 HD
BRANCH  12  14
HETATM   14  C3  UNL     1      -9.525  12.678  47.147  1.00  0.00     0.093 A 
HETATM   15  C4  UNL     1      -8.992  13.927  47.370  1.00  0.00     0.063 A 
HETATM   16 CL1  UNL     1      -9.943  15.380  47.106  1.00  0.00    -0.082 Cl
HETATM   17  C5  UNL     1      -7.692  14.101  47.810  1.00  0.00     0.027 A 
HETATM   18  C6  UNL     1      -6.898  12.990  48.034  1.00  0.00     0.012 A 
HETATM   19  C7  UNL     1      -7.383  11.730  47.825  1.00  0.00    -0.016 A 
HETATM   20  C14 UNL     1      -8.707  11.597  47.379  1.00  0.00     0.070 A 
HETATM   21 CL2  UNL     1      -9.271   9.949  47.131  1.00  0.00    -0.081 Cl
BRANCH  19  22
HETATM   22  C8  UNL     1      -6.545  10.557  48.090  1.00  0.00     0.163 C 
BRANCH  22  23
HETATM   23  N3  UNL     1      -5.434  10.823  48.968  1.00  0.00    -0.356 N 
HETATM   24  C9  UNL     1      -4.355   9.920  49.178  1.00  0.00     0.225 C 
HETATM   25  O1  UNL     1      -4.381   8.823  48.562  1.00  0.00    -0.273 OA
ATOM     26  H3  UNL     1      -5.421  11.711  49.469  1.00  0.00     0.162 HD
BRANCH  24  27
HETATM   27  C10 UNL     1      -3.226  10.245  50.089  1.00  0.00     0.030 C 
HETATM   28  C11 UNL     1      -3.476   9.730  51.493  1.00  0.00     0.024 C 
HETATM   29  C12 UNL     1      -3.038  11.727  50.138  1.00  0.00     0.024 C 
HETATM   30  C13 UNL     1      -1.922   9.627  49.618  1.00  0.00     0.024 C 
ENDBRANCH  24  27
ENDBRANCH  22  23
ENDBRANCH  19  22
ENDBRANCH  12  14
ENDBRANCH   3  12
BRANCH   9  31
HETATM   31  O3  UNL     1     -13.138  13.232  39.876  1.00  0.00    -0.347 OA
BRANCH  31  32
HETATM   32  C22 UNL     1     -13.243  14.628  39.717  1.00  0.00     0.212 C 
BRANCH  32  33
HETATM   33  C23 UNL     1     -12.325  15.104  38.617  1.00  0.00     0.072 C 
HETATM   34  C24 UNL     1     -11.266  16.051  39.159  1.00  0.00     0.047 C 
HETATM   35  C25 UNL     1     -13.132  15.731  37.526  1.00  0.00     0.047 C 
BRANCH  33  36
HETATM   36  O4  UNL     1     -11.681  13.964  38.093  1.00  0.00    -0.388 OA
ATOM     37  H4  UNL     1     -11.823  13.971  37.154  1.00  0.00     0.210 HD
ENDBRANCH  33  36
ENDBRANCH  32  33
ENDBRANCH  31  32
ENDBRANCH   9  31
BRANCH   8  38
HETATM   38  C18 UNL     1     -11.781  10.683  39.655  1.00  0.00     0.254 C 
HETATM   39  O2  UNL     1     -11.713   9.411  39.788  1.00  0.00    -0.268 OA
HETATM   40  N5  UNL     1     -11.747  11.138  38.337  1.00  0.00    -0.348 N 
ATOM     41  H5  UNL     1     -11.797  12.143  38.165  1.00  0.00     0.163 HD
BRANCH  40  42
HETATM   42  C19 UNL     1     -11.644  10.237  37.196  1.00  0.00     0.240 C 
BRANCH  42  43
HETATM   43  C20 UNL     1     -10.210  10.260  36.720  1.00  0.00     0.403 C 
HETATM   44  F1  UNL     1     -10.115   9.984  35.372  1.00  0.00    -0.169 F 
HETATM   45  F2  UNL     1      -9.464   9.370  37.473  1.00  0.00    -0.169 F 
HETATM   46  F3  UNL     1      -9.704  11.521  36.947  1.00  0.00    -0.169 F 
ENDBRANCH  42  43
ENDBRANCH  40  42
ENDBRANCH   8  38
TORSDOF 12
ENDMDL
