MODEL 3
REMARK VINA RESULT: -5.919389195      4.585     11.252
REMARK  12 active torsions:
REMARK  status: ('A' for Active; 'I' for Inactive)
REMARK    1  A    between atoms: C2_3  and  N2_4 
REMARK    2  A    between atoms: N2_4  and  C3_6 
REMARK    3  A    between atoms: C7_11  and  C8_12 
REMARK    4  A    between atoms: C8_12  and  N3_13 
REMARK       I    between atoms: N3_13  and  C9_15 
REMARK    5  A    between atoms: C9_15  and  C10_17 
REMARK    6  A    between atoms: C17_27  and  C18_28 
REMARK       I    between atoms: C18_28  and  N5_30 
REMARK    7  A    between atoms: N5_30  and  C19_32 
REMARK    8  A    between atoms: C19_32  and  C20_33 
REMARK    9  A    between atoms: C21_37  and  O3_38 
REMARK   10  A    between atoms: O3_38  and  C22_39 
REMARK   11  A    between atoms: C22_39  and  C23_40 
REMARK   12  A    between atoms: C23_40  and  O4_43 
ROOT
HETATM    1  C1  UNL     1     -11.178  14.825  49.822  1.00  0.00     0.175 C 
HETATM    2  N1  UNL     1     -10.240  14.250  48.845  1.00  0.00    -0.185 N 
HETATM    3  C2  UNL     1     -10.501  13.973  47.556  1.00  0.00     0.685 A 
HETATM    4  N4  UNL     1      -9.393  13.459  46.995  1.00  0.00    -0.189 N 
ATOM      5  H4  UNL     1      -9.310  13.159  46.022  1.00  0.00     0.184 HD
HETATM    6  C15 UNL     1      -8.393  13.399  47.927  1.00  0.00     0.077 A 
HETATM    7  C16 UNL     1      -7.094  12.964  47.866  1.00  0.00     0.052 A 
HETATM    8  C17 UNL     1      -6.249  13.007  48.987  1.00  0.00     0.067 A 
HETATM    9  C21 UNL     1      -6.810  13.508  50.132  1.00  0.00     0.086 A 
HETATM   10  C26 UNL     1      -8.141  13.949  50.179  1.00  0.00     0.070 A 
HETATM   11  C27 UNL     1      -8.960  13.904  49.075  1.00  0.00     0.081 A 
ENDROOT
BRANCH   3  12
HETATM   12  N2  UNL     1     -11.754  14.194  46.913  1.00  0.00    -0.188 N 
ATOM     13  H2  UNL     1     -12.598  14.251  47.483  1.00  0.00     0.184 HD
BRANCH  12  14
HETATM   14  C3  UNL     1     -11.862  14.339  45.500  1.00  0.00     0.093 A 
HETATM   15  C4  UNL     1     -11.967  15.578  44.910  1.00  0.00     0.063 A 
HETATM   16 CL1  UNL     1     -11.977  17.045  45.875  1.00  0.00    -0.082 Cl
HETATM   17  C5  UNL     1     -12.068  15.730  43.539  1.00  0.00     0.027 A 
HETATM   18  C6  UNL     1     -12.066  14.607  42.730  1.00  0.00     0.012 A 
HETATM   19  C7  UNL     1     -11.965  13.355  43.271  1.00  0.00    -0.016 A 
HETATM   20  C14 UNL     1     -11.863  13.245  44.666  1.00  0.00     0.070 A 
HETATM   21 CL2  UNL     1     -11.734  11.609  45.299  1.00  0.00    -0.081 Cl
BRANCH  19  22
HETATM   22  C8  UNL     1     -11.936  12.173  42.407  1.00  0.00     0.163 C 
BRANCH  22  23
HETATM   23  N3  UNL     1     -12.170  12.463  41.015  1.00  0.00    -0.356 N 
HETATM   24  C9  UNL     1     -11.249  12.156  39.975  1.00  0.00     0.225 C 
HETATM   25  O1  UNL     1     -10.165  11.605  40.297  1.00  0.00    -0.273 OA
ATOM     26  H3  UNL     1     -13.048  12.916  40.761  1.00  0.00     0.162 HD
BRANCH  24  27
HETATM   27  C10 UNL     1     -11.541  12.469  38.551  1.00  0.00     0.030 C 
HETATM   28  C11 UNL     1     -10.539  11.815  37.619  1.00  0.00     0.024 C 
HETATM   29  C12 UNL     1     -11.503  13.949  38.349  1.00  0.00     0.024 C 
HETATM   30  C13 UNL     1     -12.916  11.978  38.134  1.00  0.00     0.024 C 
ENDBRANCH  24  27
ENDBRANCH  22  23
ENDBRANCH  19  22
ENDBRANCH  12  14
ENDBRANCH   3  12
BRANCH   9  31
HETATM   31  O3  UNL     1      -6.040  13.586  51.293  1.00  0.00    -0.347 OA
BRANCH  31  32
HETATM   32  C22 UNL     1      -6.521  13.105  52.527  1.00  0.00     0.212 C 
BRANCH  32  33
HETATM   33  C23 UNL     1      -5.601  12.038  53.072  1.00  0.00     0.072 C 
HETATM   34  C24 UNL     1      -5.971  10.667  52.529  1.00  0.00     0.047 C 
HETATM   35  C25 UNL     1      -5.622  12.073  54.566  1.00  0.00     0.047 C 
BRANCH  33  36
HETATM   36  O4  UNL     1      -4.297  12.355  52.639  1.00  0.00    -0.388 OA
ATOM     37  H4  UNL     1      -4.348  12.537  51.709  1.00  0.00     0.210 HD
ENDBRANCH  33  36
ENDBRANCH  32  33
ENDBRANCH  31  32
ENDBRANCH   9  31
BRANCH   8  38
HETATM   38  C18 UNL     1      -4.883  12.528  48.858  1.00  0.00     0.254 C 
HETATM   39  O2  UNL     1      -4.309  12.717  47.728  1.00  0.00    -0.268 OA
HETATM   40  N5  UNL     1      -4.100  11.881  49.813  1.00  0.00    -0.348 N 
ATOM     41  H5  UNL     1      -4.501  11.700  50.734  1.00  0.00     0.163 HD
BRANCH  40  42
HETATM   42  C19 UNL     1      -2.731  11.452  49.549  1.00  0.00     0.240 C 
BRANCH  42  43
HETATM   43  C20 UNL     1      -2.665   9.960  49.775  1.00  0.00     0.403 C 
HETATM   44  F1  UNL     1      -1.515   9.414  49.244  1.00  0.00    -0.169 F 
HETATM   45  F2  UNL     1      -3.797   9.367  49.245  1.00  0.00    -0.169 F 
HETATM   46  F3  UNL     1      -2.674   9.732  51.133  1.00  0.00    -0.169 F 
ENDBRANCH  42  43
ENDBRANCH  40  42
ENDBRANCH   8  38
TORSDOF 12
ENDMDL
