MODEL 16
REMARK VINA RESULT: -7.638830989      5.246      9.147
REMARK  4 active torsions:
REMARK  status: ('A' for Active; 'I' for Inactive)
REMARK    1  A    between atoms: O1_1  and  C1_3 
REMARK    2  A    between atoms: C3_5  and  O2_6 
REMARK    3  A    between atoms: C5_9  and  O3_10 
REMARK    4  A    between atoms: O3_10  and  C6_11 
ROOT
HETATM    1  C1  UNL     1      11.299  14.579  26.562  1.00  0.00     0.070 A 
HETATM    2  C2  UNL     1      11.304  13.805  27.703  1.00  0.00     0.073 A 
HETATM    3  C3  UNL     1      10.136  13.297  28.183  1.00  0.00     0.070 A 
HETATM    4  C4  UNL     1       8.940  13.560  27.520  1.00  0.00     0.074 A 
HETATM    5  C5  UNL     1       8.885  14.327  26.376  1.00  0.00     0.081 A 
HETATM    6  C12 UNL     1      10.126  14.831  25.921  1.00  0.00     0.074 A 
ENDROOT
BRANCH   5   7
HETATM    7  O3  UNL     1       7.833  14.648  25.661  1.00  0.00    -0.311 OA
BRANCH   7   8
HETATM    8  C6  UNL     1       6.550  14.558  25.456  1.00  0.00     0.077 A 
HETATM    9  C7  UNL     1       5.582  15.478  25.797  1.00  0.00     0.039 A 
HETATM   10  C8  UNL     1       4.232  15.247  25.513  1.00  0.00     0.028 A 
HETATM   11  C9  UNL     1       3.821  14.102  24.886  1.00  0.00     0.056 A 
HETATM   12 CL1  UNL     1       2.118  13.804  24.525  1.00  0.00    -0.083 Cl
HETATM   13  C10 UNL     1       4.769  13.166  24.534  1.00  0.00     0.058 A 
HETATM   14 CL2  UNL     1       4.204  11.706  23.730  1.00  0.00    -0.082 Cl
HETATM   15  C11 UNL     1       6.083  13.386  24.809  1.00  0.00     0.062 A 
ENDBRANCH   7   8
ENDBRANCH   5   7
BRANCH   3  16
HETATM   16  O2  UNL     1      10.085  12.513  29.326  1.00  0.00    -0.361 OA
ATOM     17  H2  UNL     1       9.779  11.613  29.311  1.00  0.00     0.217 HD
ENDBRANCH   3  16
BRANCH   1  18
HETATM   18  O1  UNL     1      12.527  15.080  26.107  1.00  0.00    -0.361 OA
ATOM     19  H1  UNL     1      12.562  15.991  25.842  1.00  0.00     0.217 HD
ENDBRANCH   1  18
TORSDOF 4
ENDMDL
