MODEL 2
REMARK VINA RESULT: -8.543686655      0.896      1.734
REMARK  4 active torsions:
REMARK  status: ('A' for Active; 'I' for Inactive)
REMARK    1  A    between atoms: O1_1  and  C1_3 
REMARK    2  A    between atoms: C3_5  and  O2_6 
REMARK    3  A    between atoms: C5_9  and  O3_10 
REMARK    4  A    between atoms: O3_10  and  C6_11 
ROOT
HETATM    1  C1  UNL     1      -1.506  11.706  23.996  1.00  0.00     0.070 A 
HETATM    2  C2  UNL     1      -1.758  12.249  22.754  1.00  0.00     0.073 A 
HETATM    3  C3  UNL     1      -0.787  12.955  22.113  1.00  0.00     0.070 A 
HETATM    4  C4  UNL     1       0.458  13.126  22.714  1.00  0.00     0.074 A 
HETATM    5  C5  UNL     1       0.757  12.602  23.953  1.00  0.00     0.081 A 
HETATM    6  C12 UNL     1      -0.287  11.879  24.576  1.00  0.00     0.074 A 
ENDROOT
BRANCH   5   7
HETATM    7  O3  UNL     1       1.880  12.690  24.625  1.00  0.00    -0.311 OA
BRANCH   7   8
HETATM    8  C6  UNL     1       3.052  13.239  24.779  1.00  0.00     0.077 A 
HETATM    9  C7  UNL     1       3.327  14.504  25.249  1.00  0.00     0.039 A 
HETATM   10  C8  UNL     1       4.643  14.963  25.363  1.00  0.00     0.028 A 
HETATM   11  C9  UNL     1       5.706  14.176  25.013  1.00  0.00     0.056 A 
HETATM   12 CL1  UNL     1       7.371  14.750  25.153  1.00  0.00    -0.083 Cl
HETATM   13  C10 UNL     1       5.458  12.906  24.540  1.00  0.00     0.058 A 
HETATM   14 CL2  UNL     1       6.849  11.921  24.098  1.00  0.00    -0.082 Cl
HETATM   15  C11 UNL     1       4.179  12.455  24.427  1.00  0.00     0.062 A 
ENDBRANCH   7   8
ENDBRANCH   5   7
BRANCH   3  16
HETATM   16  O2  UNL     1      -0.987  13.522  20.863  1.00  0.00    -0.361 OA
ATOM     17  H2  UNL     1      -1.373  14.382  20.752  1.00  0.00     0.217 HD
ENDBRANCH   3  16
BRANCH   1  18
HETATM   18  O1  UNL     1      -2.539  10.988  24.617  1.00  0.00    -0.361 OA
ATOM     19  H1  UNL     1      -2.759  11.215  25.512  1.00  0.00     0.217 HD
ENDBRANCH   1  18
TORSDOF 4
ENDMDL
