MODEL 4
REMARK VINA RESULT: -8.407114033      1.113      1.424
REMARK  4 active torsions:
REMARK  status: ('A' for Active; 'I' for Inactive)
REMARK    1  A    between atoms: O1_1  and  C1_3 
REMARK    2  A    between atoms: C3_5  and  O2_6 
REMARK    3  A    between atoms: C5_9  and  O3_10 
REMARK    4  A    between atoms: O3_10  and  C6_11 
ROOT
HETATM    1  C1  UNL     1      -0.674  10.863  25.627  1.00  0.00     0.070 A 
HETATM    2  C2  UNL     1      -1.726  11.224  24.813  1.00  0.00     0.073 A 
HETATM    3  C3  UNL     1      -1.482  11.768  23.590  1.00  0.00     0.070 A 
HETATM    4  C4  UNL     1      -0.169  11.957  23.163  1.00  0.00     0.074 A 
HETATM    5  C5  UNL     1       0.915  11.611  23.941  1.00  0.00     0.081 A 
HETATM    6  C12 UNL     1       0.605  11.051  25.203  1.00  0.00     0.074 A 
ENDROOT
BRANCH   5   7
HETATM    7  O3  UNL     1       2.190  11.735  23.661  1.00  0.00    -0.311 OA
BRANCH   7   8
HETATM    8  C6  UNL     1       3.367  12.193  23.981  1.00  0.00     0.077 A 
HETATM    9  C7  UNL     1       4.580  11.557  23.834  1.00  0.00     0.039 A 
HETATM   10  C8  UNL     1       5.773  12.174  24.225  1.00  0.00     0.028 A 
HETATM   11  C9  UNL     1       5.781  13.431  24.767  1.00  0.00     0.056 A 
HETATM   12 CL1  UNL     1       7.284  14.216  25.264  1.00  0.00    -0.083 Cl
HETATM   13  C10 UNL     1       4.581  14.089  24.925  1.00  0.00     0.058 A 
HETATM   14 CL2  UNL     1       4.630  15.703  25.625  1.00  0.00    -0.082 Cl
HETATM   15  C11 UNL     1       3.418  13.492  24.546  1.00  0.00     0.062 A 
ENDBRANCH   7   8
ENDBRANCH   5   7
BRANCH   3  16
HETATM   16  O2  UNL     1      -2.503  12.150  22.732  1.00  0.00    -0.361 OA
ATOM     17  H2  UNL     1      -2.375  12.231  21.794  1.00  0.00     0.217 HD
ENDBRANCH   3  16
BRANCH   1  18
HETATM   18  O1  UNL     1      -0.977  10.307  26.878  1.00  0.00    -0.361 OA
ATOM     19  H1  UNL     1      -0.286  10.281  27.530  1.00  0.00     0.217 HD
ENDBRANCH   1  18
TORSDOF 4
ENDMDL
