MODEL 14
REMARK VINA RESULT: -7.760697278      4.419      5.302
REMARK  4 active torsions:
REMARK  status: ('A' for Active; 'I' for Inactive)
REMARK    1  A    between atoms: O1_1  and  C1_3 
REMARK    2  A    between atoms: C3_5  and  O2_6 
REMARK    3  A    between atoms: C5_9  and  O3_10 
REMARK    4  A    between atoms: O3_10  and  C6_11 
ROOT
HETATM    1  C1  UNL     1       4.806   7.296  23.286  1.00  0.00     0.070 A 
HETATM    2  C2  UNL     1       4.548   7.215  21.934  1.00  0.00     0.073 A 
HETATM    3  C3  UNL     1       4.787   8.289  21.133  1.00  0.00     0.070 A 
HETATM    4  C4  UNL     1       5.292   9.466  21.681  1.00  0.00     0.074 A 
HETATM    5  C5  UNL     1       5.566   9.595  23.025  1.00  0.00     0.081 A 
HETATM    6  C12 UNL     1       5.298   8.450  23.813  1.00  0.00     0.074 A 
ENDROOT
BRANCH   5   7
HETATM    7  O3  UNL     1       6.039  10.638  23.664  1.00  0.00    -0.311 OA
BRANCH   7   8
HETATM    8  C6  UNL     1       5.859  11.842  24.128  1.00  0.00     0.077 A 
HETATM    9  C7  UNL     1       6.827  12.731  24.542  1.00  0.00     0.039 A 
HETATM   10  C8  UNL     1       6.485  14.000  25.021  1.00  0.00     0.028 A 
HETATM   11  C9  UNL     1       5.181  14.407  25.097  1.00  0.00     0.056 A 
HETATM   12 CL1  UNL     1       4.743  16.008  25.702  1.00  0.00    -0.083 Cl
HETATM   13  C10 UNL     1       4.194  13.537  24.689  1.00  0.00     0.058 A 
HETATM   14 CL2  UNL     1       2.528  14.093  24.801  1.00  0.00    -0.082 Cl
HETATM   15  C11 UNL     1       4.521  12.301  24.222  1.00  0.00     0.062 A 
ENDBRANCH   7   8
ENDBRANCH   5   7
BRANCH   3  16
HETATM   16  O2  UNL     1       4.546   8.261  19.767  1.00  0.00    -0.361 OA
ATOM     17  H2  UNL     1       4.601   9.040  19.226  1.00  0.00     0.217 HD
ENDBRANCH   3  16
BRANCH   1  18
HETATM   18  O1  UNL     1       4.542   6.164  24.070  1.00  0.00    -0.361 OA
ATOM     19  H1  UNL     1       3.785   5.637  23.845  1.00  0.00     0.217 HD
ENDBRANCH   1  18
TORSDOF 4
ENDMDL
