MODEL 1
REMARK VINA RESULT: -8.601925123      0.000      0.000
REMARK  4 active torsions:
REMARK  status: ('A' for Active; 'I' for Inactive)
REMARK    1  A    between atoms: O1_1  and  C1_3 
REMARK    2  A    between atoms: C3_5  and  O2_6 
REMARK    3  A    between atoms: C5_9  and  O3_10 
REMARK    4  A    between atoms: O3_10  and  C6_11 
ROOT
HETATM    1  C1  UNL     1      -1.485  11.642  23.921  1.00  0.00     0.070 A 
HETATM    2  C2  UNL     1      -1.798  12.331  22.769  1.00  0.00     0.073 A 
HETATM    3  C3  UNL     1      -0.810  12.921  22.042  1.00  0.00     0.070 A 
HETATM    4  C4  UNL     1       0.514  12.827  22.464  1.00  0.00     0.074 A 
HETATM    5  C5  UNL     1       0.876  12.149  23.608  1.00  0.00     0.081 A 
HETATM    6  C12 UNL     1      -0.189  11.555  24.327  1.00  0.00     0.074 A 
ENDROOT
BRANCH   5   7
HETATM    7  O3  UNL     1       2.076  11.986  24.113  1.00  0.00    -0.311 OA
BRANCH   7   8
HETATM    8  C6  UNL     1       3.275  12.451  24.320  1.00  0.00     0.077 A 
HETATM    9  C7  UNL     1       4.472  11.816  24.073  1.00  0.00     0.039 A 
HETATM   10  C8  UNL     1       5.693  12.442  24.346  1.00  0.00     0.028 A 
HETATM   11  C9  UNL     1       5.746  13.705  24.869  1.00  0.00     0.056 A 
HETATM   12 CL1  UNL     1       7.284  14.500  25.217  1.00  0.00    -0.083 Cl
HETATM   13  C10 UNL     1       4.563  14.363  25.125  1.00  0.00     0.058 A 
HETATM   14 CL2  UNL     1       4.668  15.986  25.797  1.00  0.00    -0.082 Cl
HETATM   15  C11 UNL     1       3.372  13.758  24.861  1.00  0.00     0.062 A 
ENDBRANCH   7   8
ENDBRANCH   5   7
BRANCH   3  16
HETATM   16  O2  UNL     1      -1.070  13.626  20.876  1.00  0.00    -0.361 OA
ATOM     17  H2  UNL     1      -1.436  13.212  20.103  1.00  0.00     0.217 HD
ENDBRANCH   3  16
BRANCH   1  18
HETATM   18  O1  UNL     1      -2.537  11.052  24.636  1.00  0.00    -0.361 OA
ATOM     19  H1  UNL     1      -2.322  10.582  25.433  1.00  0.00     0.217 HD
ENDBRANCH   1  18
TORSDOF 4
ENDMDL
