MODEL 13
REMARK VINA RESULT: -7.835938434      4.428      5.663
REMARK  4 active torsions:
REMARK  status: ('A' for Active; 'I' for Inactive)
REMARK    1  A    between atoms: O1_1  and  C1_3 
REMARK    2  A    between atoms: C3_5  and  O2_6 
REMARK    3  A    between atoms: C5_9  and  O3_10 
REMARK    4  A    between atoms: O3_10  and  C6_11 
ROOT
HETATM    1  C1  UNL     1       4.831   8.398  21.171  1.00  0.00     0.070 A 
HETATM    2  C2  UNL     1       4.552   7.252  21.886  1.00  0.00     0.073 A 
HETATM    3  C3  UNL     1       4.789   7.215  23.225  1.00  0.00     0.070 A 
HETATM    4  C4  UNL     1       5.313   8.333  23.870  1.00  0.00     0.074 A 
HETATM    5  C5  UNL     1       5.607   9.500  23.198  1.00  0.00     0.081 A 
HETATM    6  C12 UNL     1       5.342   9.486  21.808  1.00  0.00     0.074 A 
ENDROOT
BRANCH   5   7
HETATM    7  O3  UNL     1       6.100  10.616  23.681  1.00  0.00    -0.311 OA
BRANCH   7   8
HETATM    8  C6  UNL     1       5.904  11.822  24.131  1.00  0.00     0.077 A 
HETATM    9  C7  UNL     1       6.860  12.732  24.527  1.00  0.00     0.039 A 
HETATM   10  C8  UNL     1       6.502  14.001  24.993  1.00  0.00     0.028 A 
HETATM   11  C9  UNL     1       5.192  14.389  25.073  1.00  0.00     0.056 A 
HETATM   12 CL1  UNL     1       4.733  15.990  25.661  1.00  0.00    -0.083 Cl
HETATM   13  C10 UNL     1       4.216  13.498  24.682  1.00  0.00     0.058 A 
HETATM   14 CL2  UNL     1       2.542  14.029  24.799  1.00  0.00    -0.082 Cl
HETATM   15  C11 UNL     1       4.560  12.262  24.229  1.00  0.00     0.062 A 
ENDBRANCH   7   8
ENDBRANCH   5   7
BRANCH   3  16
HETATM   16  O2  UNL     1       4.527   6.088  23.992  1.00  0.00    -0.361 OA
ATOM     17  H2  UNL     1       3.854   6.076  24.662  1.00  0.00     0.217 HD
ENDBRANCH   3  16
BRANCH   1  18
HETATM   18  O1  UNL     1       4.569   8.387  19.793  1.00  0.00    -0.361 OA
ATOM     19  H1  UNL     1       4.737   9.185  19.305  1.00  0.00     0.217 HD
ENDBRANCH   1  18
TORSDOF 4
ENDMDL
