MODEL 3
REMARK VINA RESULT: -8.462210614      0.296      2.018
REMARK  4 active torsions:
REMARK  status: ('A' for Active; 'I' for Inactive)
REMARK    1  A    between atoms: O1_1  and  C1_3 
REMARK    2  A    between atoms: C3_5  and  O2_6 
REMARK    3  A    between atoms: C5_9  and  O3_10 
REMARK    4  A    between atoms: O3_10  and  C6_11 
ROOT
HETATM    1  C1  UNL     1      -0.665  12.810  22.316  1.00  0.00     0.070 A 
HETATM    2  C2  UNL     1      -1.703  12.398  23.124  1.00  0.00     0.073 A 
HETATM    3  C3  UNL     1      -1.438  11.781  24.308  1.00  0.00     0.070 A 
HETATM    4  C4  UNL     1      -0.119  11.569  24.700  1.00  0.00     0.074 A 
HETATM    5  C5  UNL     1       0.952  11.963  23.927  1.00  0.00     0.081 A 
HETATM    6  C12 UNL     1       0.621  12.598  22.707  1.00  0.00     0.074 A 
ENDROOT
BRANCH   5   7
HETATM    7  O3  UNL     1       2.232  11.824  24.178  1.00  0.00    -0.311 OA
BRANCH   7   8
HETATM    8  C6  UNL     1       3.402  12.368  24.360  1.00  0.00     0.077 A 
HETATM    9  C7  UNL     1       4.633  11.821  24.070  1.00  0.00     0.039 A 
HETATM   10  C8  UNL     1       5.814  12.525  24.321  1.00  0.00     0.028 A 
HETATM   11  C9  UNL     1       5.796  13.781  24.863  1.00  0.00     0.056 A 
HETATM   12 CL1  UNL     1       7.285  14.675  25.183  1.00  0.00    -0.083 Cl
HETATM   13  C10 UNL     1       4.578  14.352  25.162  1.00  0.00     0.058 A 
HETATM   14 CL2  UNL     1       4.590  15.968  25.858  1.00  0.00    -0.082 Cl
HETATM   15  C11 UNL     1       3.425  13.670  24.920  1.00  0.00     0.062 A 
ENDBRANCH   7   8
ENDBRANCH   5   7
BRANCH   3  16
HETATM   16  O2  UNL     1      -2.445  11.347  25.158  1.00  0.00    -0.361 OA
ATOM     17  H2  UNL     1      -2.405  11.474  26.098  1.00  0.00     0.217 HD
ENDBRANCH   3  16
BRANCH   1  18
HETATM   18  O1  UNL     1      -0.989  13.440  21.106  1.00  0.00    -0.361 OA
ATOM     19  H1  UNL     1      -1.604  13.001  20.530  1.00  0.00     0.217 HD
ENDBRANCH   1  18
TORSDOF 4
ENDMDL
