MODEL 5
REMARK VINA RESULT: -8.367069839      0.726      2.617
REMARK  4 active torsions:
REMARK  status: ('A' for Active; 'I' for Inactive)
REMARK    1  A    between atoms: O1_1  and  C1_3 
REMARK    2  A    between atoms: C3_5  and  O2_6 
REMARK    3  A    between atoms: C5_9  and  O3_10 
REMARK    4  A    between atoms: O3_10  and  C6_11 
ROOT
HETATM    1  C1  UNL     1      -0.797  12.897  22.078  1.00  0.00     0.070 A 
HETATM    2  C2  UNL     1      -1.830  12.304  22.772  1.00  0.00     0.073 A 
HETATM    3  C3  UNL     1      -1.576  11.641  23.932  1.00  0.00     0.070 A 
HETATM    4  C4  UNL     1      -0.272  11.563  24.417  1.00  0.00     0.074 A 
HETATM    5  C5  UNL     1       0.793  12.141  23.760  1.00  0.00     0.081 A 
HETATM    6  C12 UNL     1       0.474  12.817  22.559  1.00  0.00     0.074 A 
ENDROOT
BRANCH   5   7
HETATM    7  O3  UNL     1       2.059  12.142  24.105  1.00  0.00    -0.311 OA
BRANCH   7   8
HETATM    8  C6  UNL     1       3.131  12.810  24.424  1.00  0.00     0.077 A 
HETATM    9  C7  UNL     1       3.198  14.078  24.959  1.00  0.00     0.039 A 
HETATM   10  C8  UNL     1       4.428  14.674  25.253  1.00  0.00     0.028 A 
HETATM   11  C9  UNL     1       5.610  14.025  25.022  1.00  0.00     0.056 A 
HETATM   12 CL1  UNL     1       7.167  14.773  25.390  1.00  0.00    -0.083 Cl
HETATM   13  C10 UNL     1       5.571  12.756  24.487  1.00  0.00     0.058 A 
HETATM   14 CL2  UNL     1       7.109  11.950  24.201  1.00  0.00    -0.082 Cl
HETATM   15  C11 UNL     1       4.376  12.171  24.199  1.00  0.00     0.062 A 
ENDBRANCH   7   8
ENDBRANCH   5   7
BRANCH   3  16
HETATM   16  O2  UNL     1      -2.579  11.026  24.669  1.00  0.00    -0.361 OA
ATOM     17  H2  UNL     1      -2.737  10.090  24.627  1.00  0.00     0.217 HD
ENDBRANCH   3  16
BRANCH   1  18
HETATM   18  O1  UNL     1      -1.109  13.568  20.888  1.00  0.00    -0.361 OA
ATOM     19  H1  UNL     1      -0.392  13.807  20.313  1.00  0.00     0.217 HD
ENDBRANCH   1  18
TORSDOF 4
ENDMDL
