MODEL 5
REMARK VINA RESULT: -8.046543101      1.462      2.047
REMARK  4 active torsions:
REMARK  status: ('A' for Active; 'I' for Inactive)
REMARK    1  A    between atoms: C8_9  and  O1_10 
REMARK    2  A    between atoms: C8_9  and  C9_12 
REMARK    3  A    between atoms: C9_12  and  C10_13 
REMARK    4  A    between atoms: C10_13  and  C11_15 
ROOT
HETATM    1  C1  UNL     1     -14.539  36.969   8.110  1.00  0.00     0.049 C 
HETATM    2  C2  UNL     1     -13.090  37.046   7.796  1.00  0.00    -0.044 A 
HETATM    3  C3  UNL     1     -12.452  35.992   7.187  1.00  0.00     0.010 A 
HETATM    4  C4  UNL     1     -11.110  36.018   6.876  1.00  0.00     0.031 A 
HETATM    5  C5  UNL     1     -10.348  37.161   7.189  1.00  0.00     0.046 A 
HETATM    6  C6  UNL     1     -10.954  38.218   7.792  1.00  0.00     0.030 A 
HETATM    7  C7  UNL     1     -12.330  38.150   8.091  1.00  0.00     0.029 A 
HETATM    8 BR1  UNL     1     -13.161  39.629   8.922  1.00  0.00    -0.050 Br
HETATM    9  C8  UNL     1      -9.956  39.276   8.033  1.00  0.00     0.176 A 
HETATM   10  C18 UNL     1      -8.716  38.750   7.439  1.00  0.00     0.262 A 
HETATM   11  O5  UNL     1      -7.580  39.335   7.351  1.00  0.00    -0.269 OA
HETATM   12  N1  UNL     1      -8.982  37.445   6.956  1.00  0.00    -0.324 N 
ATOM     13  H1  UNL     1      -8.306  36.819   6.518  1.00  0.00     0.169 HD
ENDROOT
BRANCH   9  14
HETATM   14  O1  UNL     1     -10.292  40.470   7.409  1.00  0.00    -0.375 OA
ATOM     15  H1  UNL     1     -11.055  40.384   6.849  1.00  0.00     0.211 HD
ENDBRANCH   9  14
BRANCH   9  16
HETATM   16  C9  UNL     1      -9.790  39.565   9.508  1.00  0.00     0.137 C 
BRANCH  16  17
HETATM   17  C10 UNL     1      -9.079  38.438  10.142  1.00  0.00     0.163 C 
HETATM   18  O2  UNL     1      -9.254  37.265   9.736  1.00  0.00    -0.292 OA
BRANCH  17  19
HETATM   19  C11 UNL     1      -8.154  38.611  11.248  1.00  0.00     0.013 A 
HETATM   20  C12 UNL     1      -7.725  37.552  12.004  1.00  0.00     0.018 A 
HETATM   21  C13 UNL     1      -6.837  37.739  13.065  1.00  0.00     0.040 A 
HETATM   22  C14 UNL     1      -6.383  39.005  13.361  1.00  0.00     0.105 A 
HETATM   23  C15 UNL     1      -6.802  40.073  12.617  1.00  0.00     0.105 A 
HETATM   24  O4  UNL     1      -5.502  39.488  14.351  1.00  0.00    -0.323 OA
HETATM   25  C16 UNL     1      -7.690  39.857  11.562  1.00  0.00     0.054 A 
HETATM   26  O3  UNL     1      -6.183  41.203  13.146  1.00  0.00    -0.323 OA
HETATM   27  C17 UNL     1      -5.032  40.747  13.874  1.00  0.00     0.352 C 
ENDBRANCH  17  19
ENDBRANCH  16  17
ENDBRANCH   9  16
TORSDOF 4
ENDMDL
