MODEL 1
REMARK VINA RESULT: -8.718320414      0.000      0.000
REMARK  4 active torsions:
REMARK  status: ('A' for Active; 'I' for Inactive)
REMARK    1  A    between atoms: C8_9  and  O1_10 
REMARK    2  A    between atoms: C8_9  and  C9_12 
REMARK    3  A    between atoms: C9_12  and  C10_13 
REMARK    4  A    between atoms: C10_13  and  C11_15 
ROOT
HETATM    1  C1  UNL     1     -14.107  40.534   8.968  1.00  0.00     0.049 C 
HETATM    2  C2  UNL     1     -13.451  39.271   8.543  1.00  0.00    -0.044 A 
HETATM    3  C3  UNL     1     -14.195  38.244   8.014  1.00  0.00     0.010 A 
HETATM    4  C4  UNL     1     -13.630  37.055   7.605  1.00  0.00     0.031 A 
HETATM    5  C5  UNL     1     -12.240  36.870   7.729  1.00  0.00     0.046 A 
HETATM    6  C6  UNL     1     -11.480  37.869   8.249  1.00  0.00     0.030 A 
HETATM    7  C7  UNL     1     -12.098  39.071   8.654  1.00  0.00     0.029 A 
HETATM    8 BR1  UNL     1     -11.030  40.455   9.367  1.00  0.00    -0.050 Br
HETATM    9  C8  UNL     1     -10.072  37.436   8.294  1.00  0.00     0.176 A 
HETATM   10  C18 UNL     1     -10.082  36.100   7.675  1.00  0.00     0.262 A 
HETATM   11  O5  UNL     1      -9.080  35.339   7.439  1.00  0.00    -0.269 OA
HETATM   12  N1  UNL     1     -11.425  35.771   7.366  1.00  0.00    -0.324 N 
ATOM     13  H1  UNL     1     -11.748  34.896   6.954  1.00  0.00     0.169 HD
ENDROOT
BRANCH   9  14
HETATM   14  O1  UNL     1      -9.239  38.273   7.564  1.00  0.00    -0.375 OA
ATOM     15  H1  UNL     1      -8.434  37.842   7.300  1.00  0.00     0.211 HD
ENDBRANCH   9  14
BRANCH   9  16
HETATM   16  C9  UNL     1      -9.543  37.392   9.710  1.00  0.00     0.137 C 
BRANCH  16  17
HETATM   17  C10 UNL     1      -8.256  38.112   9.765  1.00  0.00     0.163 C 
HETATM   18  O2  UNL     1      -7.679  38.468   8.710  1.00  0.00    -0.292 OA
BRANCH  17  19
HETATM   19  C11 UNL     1      -7.592  38.447  11.013  1.00  0.00     0.013 A 
HETATM   20  C12 UNL     1      -7.310  37.499  11.959  1.00  0.00     0.018 A 
HETATM   21  C13 UNL     1      -6.673  37.842  13.154  1.00  0.00     0.040 A 
HETATM   22  C14 UNL     1      -6.322  39.152  13.389  1.00  0.00     0.105 A 
HETATM   23  C15 UNL     1      -6.596  40.112  12.454  1.00  0.00     0.105 A 
HETATM   24  O4  UNL     1      -5.684  39.781  14.478  1.00  0.00    -0.323 OA
HETATM   25  C16 UNL     1      -7.233  39.741  11.269  1.00  0.00     0.054 A 
HETATM   26  O3  UNL     1      -6.129  41.321  12.966  1.00  0.00    -0.323 OA
HETATM   27  C17 UNL     1      -5.150  41.001  13.966  1.00  0.00     0.352 C 
ENDBRANCH  17  19
ENDBRANCH  16  17
ENDBRANCH   9  16
TORSDOF 4
ENDMDL
