MODEL 8
REMARK VINA RESULT: -7.568336481      3.260      7.358
REMARK  4 active torsions:
REMARK  status: ('A' for Active; 'I' for Inactive)
REMARK    1  A    between atoms: C8_9  and  O1_10 
REMARK    2  A    between atoms: C8_9  and  C9_12 
REMARK    3  A    between atoms: C9_12  and  C10_13 
REMARK    4  A    between atoms: C10_13  and  C11_15 
ROOT
HETATM    1  C1  UNL     1      -8.246  36.416  13.396  1.00  0.00     0.049 C 
HETATM    2  C2  UNL     1      -8.112  37.146  12.110  1.00  0.00    -0.044 A 
HETATM    3  C3  UNL     1      -7.210  38.176  11.985  1.00  0.00     0.010 A 
HETATM    4  C4  UNL     1      -7.050  38.881  10.811  1.00  0.00     0.031 A 
HETATM    5  C5  UNL     1      -7.832  38.546   9.689  1.00  0.00     0.046 A 
HETATM    6  C6  UNL     1      -8.732  37.532   9.786  1.00  0.00     0.030 A 
HETATM    7  C7  UNL     1      -8.863  36.835  11.005  1.00  0.00     0.029 A 
HETATM    8 BR1  UNL     1     -10.111  35.423  11.123  1.00  0.00    -0.050 Br
HETATM    9  C8  UNL     1      -9.437  37.385   8.500  1.00  0.00     0.176 A 
HETATM   10  C18 UNL     1      -8.799  38.377   7.619  1.00  0.00     0.262 A 
HETATM   11  O5  UNL     1      -9.037  38.590   6.378  1.00  0.00    -0.269 OA
HETATM   12  N1  UNL     1      -7.843  39.089   8.383  1.00  0.00    -0.324 N 
ATOM     13  H1  UNL     1      -7.262  39.859   8.049  1.00  0.00     0.169 HD
ENDROOT
BRANCH   9  14
HETATM   14  O1  UNL     1      -9.279  36.118   7.953  1.00  0.00    -0.375 OA
ATOM     15  H1  UNL     1     -10.059  35.584   8.046  1.00  0.00     0.211 HD
ENDBRANCH   9  14
BRANCH   9  16
HETATM   16  C9  UNL     1     -10.922  37.636   8.642  1.00  0.00     0.137 C 
BRANCH  16  17
HETATM   17  C10 UNL     1     -11.648  36.781   7.683  1.00  0.00     0.163 C 
HETATM   18  O2  UNL     1     -11.297  36.732   6.480  1.00  0.00    -0.292 OA
BRANCH  17  19
HETATM   19  C11 UNL     1     -12.786  35.961   8.061  1.00  0.00     0.013 A 
HETATM   20  C12 UNL     1     -13.483  35.224   7.141  1.00  0.00     0.018 A 
HETATM   21  C13 UNL     1     -14.576  34.444   7.524  1.00  0.00     0.040 A 
HETATM   22  C14 UNL     1     -14.964  34.413   8.845  1.00  0.00     0.105 A 
HETATM   23  C15 UNL     1     -14.279  35.144   9.776  1.00  0.00     0.105 A 
HETATM   24  O4  UNL     1     -16.005  33.733   9.511  1.00  0.00    -0.323 OA
HETATM   25  C16 UNL     1     -13.190  35.914   9.365  1.00  0.00     0.054 A 
HETATM   26  O3  UNL     1     -14.895  34.913  11.004  1.00  0.00    -0.323 OA
HETATM   27  C17 UNL     1     -15.620  33.680  10.884  1.00  0.00     0.352 C 
ENDBRANCH  17  19
ENDBRANCH  16  17
ENDBRANCH   9  16
TORSDOF 4
ENDMDL
