MODEL 10
REMARK VINA RESULT: -7.250340857      0.648      1.382
REMARK  4 active torsions:
REMARK  status: ('A' for Active; 'I' for Inactive)
REMARK    1  A    between atoms: C8_9  and  O1_10 
REMARK    2  A    between atoms: C8_9  and  C9_12 
REMARK    3  A    between atoms: C9_12  and  C10_13 
REMARK    4  A    between atoms: C10_13  and  C11_15 
ROOT
HETATM    1  C1  UNL     1     -14.146  40.536   8.986  1.00  0.00     0.049 C 
HETATM    2  C2  UNL     1     -13.495  39.272   8.557  1.00  0.00    -0.044 A 
HETATM    3  C3  UNL     1     -14.250  38.231   8.071  1.00  0.00     0.010 A 
HETATM    4  C4  UNL     1     -13.691  37.041   7.659  1.00  0.00     0.031 A 
HETATM    5  C5  UNL     1     -12.295  36.868   7.734  1.00  0.00     0.046 A 
HETATM    6  C6  UNL     1     -11.525  37.881   8.211  1.00  0.00     0.030 A 
HETATM    7  C7  UNL     1     -12.138  39.084   8.620  1.00  0.00     0.029 A 
HETATM    8 BR1  UNL     1     -11.056  40.487   9.273  1.00  0.00    -0.050 Br
HETATM    9  C8  UNL     1     -10.113  37.460   8.210  1.00  0.00     0.176 A 
HETATM   10  C18 UNL     1     -10.135  36.115   7.612  1.00  0.00     0.262 A 
HETATM   11  O5  UNL     1      -9.135  35.358   7.351  1.00  0.00    -0.269 OA
HETATM   12  N1  UNL     1     -11.485  35.771   7.358  1.00  0.00    -0.324 N 
ATOM     13  H1  UNL     1     -11.815  34.886   6.971  1.00  0.00     0.169 HD
ENDROOT
BRANCH   9  14
HETATM   14  O1  UNL     1      -9.313  38.292   7.438  1.00  0.00    -0.375 OA
ATOM     15  H1  UNL     1      -9.145  39.126   7.860  1.00  0.00     0.211 HD
ENDBRANCH   9  14
BRANCH   9  16
HETATM   16  C9  UNL     1      -9.532  37.441   9.607  1.00  0.00     0.137 C 
BRANCH  16  17
HETATM   17  C10 UNL     1      -8.271  38.209   9.613  1.00  0.00     0.163 C 
HETATM   18  O2  UNL     1      -7.688  38.484   8.538  1.00  0.00    -0.292 OA
BRANCH  17  19
HETATM   19  C11 UNL     1      -7.642  38.683  10.834  1.00  0.00     0.013 A 
HETATM   20  C12 UNL     1      -7.400  40.012  11.053  1.00  0.00     0.018 A 
HETATM   21  C13 UNL     1      -6.792  40.448  12.232  1.00  0.00     0.040 A 
HETATM   22  C14 UNL     1      -6.427  39.531  13.192  1.00  0.00     0.105 A 
HETATM   23  C15 UNL     1      -6.662  38.199  12.989  1.00  0.00     0.105 A 
HETATM   24  O4  UNL     1      -5.811  39.673  14.452  1.00  0.00    -0.323 OA
HETATM   25  C16 UNL     1      -7.272  37.792  11.801  1.00  0.00     0.054 A 
HETATM   26  O3  UNL     1      -6.193  37.529  14.117  1.00  0.00    -0.323 OA
HETATM   27  C17 UNL     1      -6.136  38.491  15.181  1.00  0.00     0.352 C 
ENDBRANCH  17  19
ENDBRANCH  16  17
ENDBRANCH   9  16
TORSDOF 4
ENDMDL
