MODEL 7
REMARK VINA RESULT: -7.609811784      3.372      7.763
REMARK  4 active torsions:
REMARK  status: ('A' for Active; 'I' for Inactive)
REMARK    1  A    between atoms: C8_9  and  O1_10 
REMARK    2  A    between atoms: C8_9  and  C9_12 
REMARK    3  A    between atoms: C9_12  and  C10_13 
REMARK    4  A    between atoms: C10_13  and  C11_15 
ROOT
HETATM    1  C1  UNL     1      -8.272  36.477  13.263  1.00  0.00     0.049 C 
HETATM    2  C2  UNL     1      -8.154  37.064  11.904  1.00  0.00    -0.044 A 
HETATM    3  C3  UNL     1      -7.198  38.015  11.638  1.00  0.00     0.010 A 
HETATM    4  C4  UNL     1      -7.050  38.587  10.392  1.00  0.00     0.031 A 
HETATM    5  C5  UNL     1      -7.904  38.193   9.343  1.00  0.00     0.046 A 
HETATM    6  C6  UNL     1      -8.859  37.256   9.580  1.00  0.00     0.030 A 
HETATM    7  C7  UNL     1      -8.975  36.695  10.869  1.00  0.00     0.029 A 
HETATM    8 BR1  UNL     1     -10.300  35.387  11.182  1.00  0.00    -0.050 Br
HETATM    9  C8  UNL     1      -9.631  37.027   8.346  1.00  0.00     0.176 A 
HETATM   10  C18 UNL     1      -8.976  37.883   7.343  1.00  0.00     0.262 A 
HETATM   11  O5  UNL     1      -9.258  37.986   6.097  1.00  0.00    -0.269 OA
HETATM   12  N1  UNL     1      -7.943  38.603   7.990  1.00  0.00    -0.324 N 
ATOM     13  H1  UNL     1      -7.332  39.296   7.555  1.00  0.00     0.169 HD
ENDROOT
BRANCH   9  14
HETATM   14  O1  UNL     1      -9.578  35.705   7.926  1.00  0.00    -0.375 OA
ATOM     15  H1  UNL     1      -9.679  35.620   6.985  1.00  0.00     0.211 HD
ENDBRANCH   9  14
BRANCH   9  16
HETATM   16  C9  UNL     1     -11.090  37.389   8.522  1.00  0.00     0.137 C 
BRANCH  16  17
HETATM   17  C10 UNL     1     -11.918  36.424   7.773  1.00  0.00     0.163 C 
HETATM   18  O2  UNL     1     -11.544  35.996   6.655  1.00  0.00    -0.292 OA
BRANCH  17  19
HETATM   19  C11 UNL     1     -13.187  35.920   8.269  1.00  0.00     0.013 A 
HETATM   20  C12 UNL     1     -13.606  36.156   9.551  1.00  0.00     0.018 A 
HETATM   21  C13 UNL     1     -14.828  35.661  10.010  1.00  0.00     0.040 A 
HETATM   22  C14 UNL     1     -15.627  34.922   9.167  1.00  0.00     0.105 A 
HETATM   23  C15 UNL     1     -15.222  34.678   7.883  1.00  0.00     0.105 A 
HETATM   24  O4  UNL     1     -16.883  34.308   9.348  1.00  0.00    -0.323 OA
HETATM   25  C16 UNL     1     -13.997  35.185   7.450  1.00  0.00     0.054 A 
HETATM   26  O3  UNL     1     -16.224  33.918   7.281  1.00  0.00    -0.323 OA
HETATM   27  C17 UNL     1     -17.424  34.133   8.039  1.00  0.00     0.352 C 
ENDBRANCH  17  19
ENDBRANCH  16  17
ENDBRANCH   9  16
TORSDOF 4
ENDMDL
