MODEL 3
REMARK VINA RESULT: -8.677423892      1.477      1.957
REMARK  4 active torsions:
REMARK  status: ('A' for Active; 'I' for Inactive)
REMARK    1  A    between atoms: C8_9  and  O1_10 
REMARK    2  A    between atoms: C8_9  and  C9_12 
REMARK    3  A    between atoms: C9_12  and  C10_13 
REMARK    4  A    between atoms: C10_13  and  C11_15 
ROOT
HETATM    1  C1  UNL     1     -11.678  41.290   9.259  1.00  0.00     0.049 C 
HETATM    2  C2  UNL     1     -11.861  39.916   8.729  1.00  0.00    -0.044 A 
HETATM    3  C3  UNL     1     -13.076  39.283   8.841  1.00  0.00     0.010 A 
HETATM    4  C4  UNL     1     -13.294  38.008   8.363  1.00  0.00     0.031 A 
HETATM    5  C5  UNL     1     -12.241  37.315   7.734  1.00  0.00     0.046 A 
HETATM    6  C6  UNL     1     -11.030  37.918   7.610  1.00  0.00     0.030 A 
HETATM    7  C7  UNL     1     -10.850  39.224   8.112  1.00  0.00     0.029 A 
HETATM    8 BR1  UNL     1      -9.164  40.052   7.926  1.00  0.00    -0.050 Br
HETATM    9  C8  UNL     1     -10.095  36.995   6.941  1.00  0.00     0.176 A 
HETATM   10  C18 UNL     1     -10.914  35.814   6.624  1.00  0.00     0.262 A 
HETATM   11  O5  UNL     1     -10.556  34.760   5.989  1.00  0.00    -0.269 OA
HETATM   12  N1  UNL     1     -12.213  36.029   7.145  1.00  0.00    -0.324 N 
ATOM     13  H1  UNL     1     -12.992  35.371   7.104  1.00  0.00     0.169 HD
ENDROOT
BRANCH   9  14
HETATM   14  O1  UNL     1      -9.579  37.525   5.766  1.00  0.00    -0.375 OA
ATOM     15  H1  UNL     1      -9.560  36.889   5.061  1.00  0.00     0.211 HD
ENDBRANCH   9  14
BRANCH   9  16
HETATM   16  C9  UNL     1      -8.924  36.640   7.831  1.00  0.00     0.137 C 
BRANCH  16  17
HETATM   17  C10 UNL     1      -9.419  36.384   9.198  1.00  0.00     0.163 C 
HETATM   18  O2  UNL     1     -10.454  35.703   9.383  1.00  0.00    -0.292 OA
BRANCH  17  19
HETATM   19  C11 UNL     1      -8.754  36.891  10.385  1.00  0.00     0.013 A 
HETATM   20  C12 UNL     1      -8.787  36.216  11.576  1.00  0.00     0.018 A 
HETATM   21  C13 UNL     1      -8.143  36.722  12.707  1.00  0.00     0.040 A 
HETATM   22  C14 UNL     1      -7.465  37.917  12.631  1.00  0.00     0.105 A 
HETATM   23  C15 UNL     1      -7.422  38.604  11.449  1.00  0.00     0.105 A 
HETATM   24  O4  UNL     1      -6.737  38.656  13.586  1.00  0.00    -0.323 OA
HETATM   25  C16 UNL     1      -8.074  38.075  10.334  1.00  0.00     0.054 A 
HETATM   26  O3  UNL     1      -6.673  39.757  11.678  1.00  0.00    -0.323 OA
HETATM   27  C17 UNL     1      -5.869  39.509  12.841  1.00  0.00     0.352 C 
ENDBRANCH  17  19
ENDBRANCH  16  17
ENDBRANCH   9  16
TORSDOF 4
ENDMDL
