MODEL 12
REMARK VINA RESULT: -7.075450394      3.402      7.686
REMARK  4 active torsions:
REMARK  status: ('A' for Active; 'I' for Inactive)
REMARK    1  A    between atoms: C8_9  and  O1_10 
REMARK    2  A    between atoms: C8_9  and  C9_12 
REMARK    3  A    between atoms: C9_12  and  C10_13 
REMARK    4  A    between atoms: C10_13  and  C11_15 
ROOT
HETATM    1  C1  UNL     1      -7.370  39.131  11.637  1.00  0.00     0.049 C 
HETATM    2  C2  UNL     1      -8.168  38.930  10.401  1.00  0.00    -0.044 A 
HETATM    3  C3  UNL     1      -8.307  39.949   9.489  1.00  0.00     0.010 A 
HETATM    4  C4  UNL     1      -9.037  39.808   8.328  1.00  0.00     0.031 A 
HETATM    5  C5  UNL     1      -9.671  38.582   8.052  1.00  0.00     0.046 A 
HETATM    6  C6  UNL     1      -9.551  37.558   8.938  1.00  0.00     0.030 A 
HETATM    7  C7  UNL     1      -8.793  37.743  10.113  1.00  0.00     0.029 A 
HETATM    8 BR1  UNL     1      -8.627  36.310  11.330  1.00  0.00    -0.050 Br
HETATM    9  C8  UNL     1     -10.311  36.396   8.443  1.00  0.00     0.176 A 
HETATM   10  C18 UNL     1     -10.829  36.830   7.135  1.00  0.00     0.262 A 
HETATM   11  O5  UNL     1     -11.510  36.143   6.295  1.00  0.00    -0.269 OA
HETATM   12  N1  UNL     1     -10.445  38.179   6.938  1.00  0.00    -0.324 N 
ATOM     13  H1  UNL     1     -10.684  38.759   6.133  1.00  0.00     0.169 HD
ENDROOT
BRANCH   9  14
HETATM   14  O1  UNL     1      -9.509  35.276   8.269  1.00  0.00    -0.375 OA
ATOM     15  H1  UNL     1      -9.976  34.467   8.441  1.00  0.00     0.211 HD
ENDBRANCH   9  14
BRANCH   9  16
HETATM   16  C9  UNL     1     -11.428  36.013   9.388  1.00  0.00     0.137 C 
BRANCH  16  17
HETATM   17  C10 UNL     1     -12.620  36.826   9.079  1.00  0.00     0.163 C 
HETATM   18  O2  UNL     1     -12.514  38.059   8.877  1.00  0.00    -0.292 OA
BRANCH  17  19
HETATM   19  C11 UNL     1     -13.957  36.266   8.990  1.00  0.00     0.013 A 
HETATM   20  C12 UNL     1     -14.441  35.400   9.934  1.00  0.00     0.018 A 
HETATM   21  C13 UNL     1     -15.729  34.870   9.829  1.00  0.00     0.040 A 
HETATM   22  C14 UNL     1     -16.527  35.218   8.763  1.00  0.00     0.105 A 
HETATM   23  C15 UNL     1     -16.058  36.082   7.812  1.00  0.00     0.105 A 
HETATM   24  O4  UNL     1     -17.840  34.851   8.402  1.00  0.00    -0.323 OA
HETATM   25  C16 UNL     1     -14.767  36.597   7.942  1.00  0.00     0.054 A 
HETATM   26  O3  UNL     1     -17.076  36.243   6.874  1.00  0.00    -0.323 OA
HETATM   27  C17 UNL     1     -18.303  35.873   7.521  1.00  0.00     0.352 C 
ENDBRANCH  17  19
ENDBRANCH  16  17
ENDBRANCH   9  16
TORSDOF 4
ENDMDL
