MODEL 2
REMARK VINA RESULT: -8.704622080      1.124      1.237
REMARK  4 active torsions:
REMARK  status: ('A' for Active; 'I' for Inactive)
REMARK    1  A    between atoms: C8_9  and  O1_10 
REMARK    2  A    between atoms: C8_9  and  C9_12 
REMARK    3  A    between atoms: C9_12  and  C10_13 
REMARK    4  A    between atoms: C10_13  and  C11_15 
ROOT
HETATM    1  C1  UNL     1     -13.826  39.832   8.961  1.00  0.00     0.049 C 
HETATM    2  C2  UNL     1     -12.968  38.682   8.578  1.00  0.00    -0.044 A 
HETATM    3  C3  UNL     1     -13.481  37.407   8.563  1.00  0.00     0.010 A 
HETATM    4  C4  UNL     1     -12.724  36.309   8.214  1.00  0.00     0.031 A 
HETATM    5  C5  UNL     1     -11.372  36.484   7.859  1.00  0.00     0.046 A 
HETATM    6  C6  UNL     1     -10.840  37.734   7.867  1.00  0.00     0.030 A 
HETATM    7  C7  UNL     1     -11.650  38.831   8.228  1.00  0.00     0.029 A 
HETATM    8 BR1  UNL     1     -10.900  40.563   8.227  1.00  0.00    -0.050 Br
HETATM    9  C8  UNL     1      -9.419  37.659   7.481  1.00  0.00     0.176 A 
HETATM   10  C18 UNL     1      -9.199  36.236   7.177  1.00  0.00     0.262 A 
HETATM   11  O5  UNL     1      -8.126  35.684   6.745  1.00  0.00    -0.269 OA
HETATM   12  N1  UNL     1     -10.403  35.540   7.444  1.00  0.00    -0.324 N 
ATOM     13  H1  UNL     1     -10.547  34.534   7.353  1.00  0.00     0.169 HD
ENDROOT
BRANCH   9  14
HETATM   14  O1  UNL     1      -9.137  38.418   6.352  1.00  0.00    -0.375 OA
ATOM     15  H1  UNL     1      -9.684  39.192   6.292  1.00  0.00     0.211 HD
ENDBRANCH   9  14
BRANCH   9  16
HETATM   16  C9  UNL     1      -8.510  38.141   8.590  1.00  0.00     0.137 C 
BRANCH  16  17
HETATM   17  C10 UNL     1      -8.684  37.268   9.767  1.00  0.00     0.163 C 
HETATM   18  O2  UNL     1      -9.406  36.245   9.701  1.00  0.00    -0.292 OA
BRANCH  17  19
HETATM   19  C11 UNL     1      -8.045  37.530  11.045  1.00  0.00     0.013 A 
HETATM   20  C12 UNL     1      -7.845  36.541  11.970  1.00  0.00     0.018 A 
HETATM   21  C13 UNL     1      -7.230  36.813  13.194  1.00  0.00     0.040 A 
HETATM   22  C14 UNL     1      -6.819  38.095  13.481  1.00  0.00     0.105 A 
HETATM   23  C15 UNL     1      -7.012  39.096  12.569  1.00  0.00     0.105 A 
HETATM   24  O4  UNL     1      -6.186  38.656  14.609  1.00  0.00    -0.323 OA
HETATM   25  C16 UNL     1      -7.628  38.795  11.353  1.00  0.00     0.054 A 
HETATM   26  O3  UNL     1      -6.500  40.262  13.133  1.00  0.00    -0.323 OA
HETATM   27  C17 UNL     1      -5.573  39.861  14.153  1.00  0.00     0.352 C 
ENDBRANCH  17  19
ENDBRANCH  16  17
ENDBRANCH   9  16
TORSDOF 4
ENDMDL
