MODEL 16
REMARK VINA RESULT: -6.576633362      1.175      1.324
REMARK  3 active torsions:
REMARK  status: ('A' for Active; 'I' for Inactive)
REMARK    1  A    between atoms: C1_2  and  C2_4 
REMARK    2  A    between atoms: C8_11  and  O4_12 
REMARK    3  A    between atoms: C10_15  and  O5_16 
ROOT
HETATM    1  C2  UNL     1       1.547  -0.206  46.448  1.00  0.00     0.020 C 
HETATM    2  C3  UNL     1       0.641   0.721  46.777  1.00  0.00     0.021 C 
HETATM    3  C4  UNL     1       1.174   1.955  47.415  1.00  0.00     0.177 C 
HETATM    4  O3  UNL     1       1.573   1.628  48.689  1.00  0.00    -0.376 OA
HETATM    5  C5  UNL     1       2.469   2.515  49.253  1.00  0.00     0.196 C 
HETATM    6  C6  UNL     1       3.887   2.183  48.853  1.00  0.00    -0.002 C 
HETATM    7  C7  UNL     1       4.211   1.596  47.702  1.00  0.00     0.011 C 
HETATM    8  C8  UNL     1       3.386   1.485  46.451  1.00  0.00     0.108 C 
HETATM    9  C9  UNL     1       2.956   0.089  46.178  1.00  0.00     0.090 C 
HETATM   10  C10 UNL     1       2.260   2.478  46.533  1.00  0.00     0.189 C 
ENDROOT
BRANCH   1  11
HETATM   11  C1  UNL     1       1.110  -1.597  46.348  1.00  0.00     0.205 C 
HETATM   12  O1  UNL     1       0.741  -2.084  45.245  1.00  0.00    -0.644 OA
HETATM   13  O2  UNL     1       1.083  -2.431  47.448  1.00  0.00    -0.644 OA
ENDBRANCH   1  11
BRANCH   8  14
HETATM   14  O4  UNL     1       4.235   1.893  45.406  1.00  0.00    -0.383 OA
ATOM     15  H4  UNL     1       4.856   2.491  45.803  1.00  0.00     0.211 HD
ENDBRANCH   8  14
BRANCH  10  16
HETATM   16  O5  UNL     1       1.741   2.636  45.250  1.00  0.00    -0.389 OA
ATOM     17  H5  UNL     1       1.947   1.857  44.747  1.00  0.00     0.210 HD
ENDBRANCH  10  16
TORSDOF 3
ENDMDL
