MODEL 7
REMARK VINA RESULT: -6.833340459      1.550      1.962
REMARK  3 active torsions:
REMARK  status: ('A' for Active; 'I' for Inactive)
REMARK    1  A    between atoms: C1_2  and  C2_4 
REMARK    2  A    between atoms: C8_11  and  O4_12 
REMARK    3  A    between atoms: C10_15  and  O5_16 
ROOT
HETATM    1  C2  UNL     1       1.747  -0.293  45.693  1.00  0.00     0.020 C 
HETATM    2  C3  UNL     1       0.918   0.421  44.924  1.00  0.00     0.021 C 
HETATM    3  C4  UNL     1       1.085   1.898  44.983  1.00  0.00     0.177 C 
HETATM    4  O3  UNL     1       0.615   2.324  46.202  1.00  0.00    -0.376 OA
HETATM    5  C5  UNL     1       1.082   3.564  46.594  1.00  0.00     0.196 C 
HETATM    6  C6  UNL     1       2.420   3.447  47.285  1.00  0.00    -0.002 C 
HETATM    7  C7  UNL     1       3.305   2.487  47.022  1.00  0.00     0.011 C 
HETATM    8  C8  UNL     1       3.379   1.596  45.814  1.00  0.00     0.108 C 
HETATM    9  C9  UNL     1       3.061   0.179  46.135  1.00  0.00     0.090 C 
HETATM   10  C10 UNL     1       2.527   2.193  44.729  1.00  0.00     0.189 C 
ENDROOT
BRANCH   1  11
HETATM   11  C1  UNL     1       1.322  -1.624  46.121  1.00  0.00     0.205 C 
HETATM   12  O1  UNL     1       0.655  -2.370  45.353  1.00  0.00    -0.644 OA
HETATM   13  O2  UNL     1       1.629  -2.118  47.373  1.00  0.00    -0.644 OA
ENDBRANCH   1  11
BRANCH   8  14
HETATM   14  O4  UNL     1       4.717   1.657  45.385  1.00  0.00    -0.383 OA
ATOM     15  H4  UNL     1       4.688   1.520  44.446  1.00  0.00     0.211 HD
ENDBRANCH   8  14
BRANCH  10  16
HETATM   16  O5  UNL     1       2.890   1.591  43.526  1.00  0.00    -0.389 OA
ATOM     17  H5  UNL     1       2.112   1.513  42.986  1.00  0.00     0.210 HD
ENDBRANCH  10  16
TORSDOF 3
ENDMDL
