MODEL 12
REMARK VINA RESULT: -6.686455603      2.183      4.546
REMARK  3 active torsions:
REMARK  status: ('A' for Active; 'I' for Inactive)
REMARK    1  A    between atoms: C1_2  and  C2_4 
REMARK    2  A    between atoms: C8_11  and  O4_12 
REMARK    3  A    between atoms: C10_15  and  O5_16 
ROOT
HETATM    1  C2  UNL     1       1.663   2.698  47.822  1.00  0.00     0.020 C 
HETATM    2  C3  UNL     1       1.043   2.979  46.671  1.00  0.00     0.021 C 
HETATM    3  C4  UNL     1       0.821   1.830  45.753  1.00  0.00     0.177 C 
HETATM    4  O3  UNL     1       2.038   1.477  45.222  1.00  0.00    -0.376 OA
HETATM    5  C5  UNL     1       2.090   0.195  44.710  1.00  0.00     0.196 C 
HETATM    6  C6  UNL     1       2.405  -0.809  45.792  1.00  0.00    -0.002 C 
HETATM    7  C7  UNL     1       2.068  -0.648  47.070  1.00  0.00     0.011 C 
HETATM    8  C8  UNL     1       1.042   0.283  47.651  1.00  0.00     0.108 C 
HETATM    9  C9  UNL     1       1.655   1.375  48.452  1.00  0.00     0.090 C 
HETATM   10  C10 UNL     1       0.145   0.756  46.540  1.00  0.00     0.189 C 
ENDROOT
BRANCH   1  11
HETATM   11  C1  UNL     1       2.394   3.768  48.496  1.00  0.00     0.205 C 
HETATM   12  O1  UNL     1       3.505   4.173  48.056  1.00  0.00    -0.644 OA
HETATM   13  O2  UNL     1       1.905   4.379  49.633  1.00  0.00    -0.644 OA
ENDBRANCH   1  11
BRANCH   8  14
HETATM   14  O4  UNL     1       0.264  -0.509  48.515  1.00  0.00    -0.383 OA
ATOM     15  H4  UNL     1       0.347  -1.396  48.188  1.00  0.00     0.211 HD
ENDBRANCH   8  14
BRANCH  10  16
HETATM   16  O5  UNL     1      -1.000   1.296  47.120  1.00  0.00    -0.389 OA
ATOM     17  H5  UNL     1      -1.250   2.066  46.624  1.00  0.00     0.210 HD
ENDBRANCH  10  16
TORSDOF 3
ENDMDL
