MODEL 1
REMARK VINA RESULT: -7.488028440      0.000      0.000
REMARK  3 active torsions:
REMARK  status: ('A' for Active; 'I' for Inactive)
REMARK    1  A    between atoms: C1_2  and  C2_4 
REMARK    2  A    between atoms: C8_11  and  O4_12 
REMARK    3  A    between atoms: C10_15  and  O5_16 
ROOT
HETATM    1  C2  UNL     1       1.868   0.510  45.333  1.00  0.00     0.020 C 
HETATM    2  C3  UNL     1       1.155   1.594  45.653  1.00  0.00     0.021 C 
HETATM    3  C4  UNL     1       1.687   2.417  46.772  1.00  0.00     0.177 C 
HETATM    4  O3  UNL     1       1.488   1.717  47.938  1.00  0.00    -0.376 OA
HETATM    5  C5  UNL     1       2.291   2.115  48.989  1.00  0.00     0.196 C 
HETATM    6  C6  UNL     1       3.631   1.422  48.942  1.00  0.00    -0.002 C 
HETATM    7  C7  UNL     1       4.213   1.016  47.815  1.00  0.00     0.011 C 
HETATM    8  C8  UNL     1       3.918   1.451  46.408  1.00  0.00     0.108 C 
HETATM    9  C9  UNL     1       3.302   0.368  45.597  1.00  0.00     0.090 C 
HETATM   10  C10 UNL     1       3.116   2.722  46.460  1.00  0.00     0.189 C 
ENDROOT
BRANCH   1  11
HETATM   11  C1  UNL     1       1.183  -0.603  44.679  1.00  0.00     0.205 C 
HETATM   12  O1  UNL     1       0.838  -0.531  43.468  1.00  0.00    -0.644 OA
HETATM   13  O2  UNL     1       0.884  -1.770  45.353  1.00  0.00    -0.644 OA
ENDBRANCH   1  11
BRANCH   8  14
HETATM   14  O4  UNL     1       5.168   1.763  45.842  1.00  0.00    -0.383 OA
ATOM     15  H4  UNL     1       5.812   1.359  46.412  1.00  0.00     0.211 HD
ENDBRANCH   8  14
BRANCH  10  16
HETATM   16  O5  UNL     1       3.170   3.309  45.199  1.00  0.00    -0.389 OA
ATOM     17  H5  UNL     1       4.014   3.736  45.105  1.00  0.00     0.210 HD
ENDBRANCH  10  16
TORSDOF 3
ENDMDL
