MODEL 5
REMARK VINA RESULT: -5.645414278      2.987      4.714
REMARK  1 active torsions:
REMARK  status: ('A' for Active; 'I' for Inactive)
REMARK    1  A    between atoms: N1_2  and  C1_4 
ROOT
HETATM    1  C1  UNL     1      21.724  -0.713 -22.358  1.00  0.00     0.105 A 
HETATM    2  C2  UNL     1      20.994  -1.241 -21.316  1.00  0.00     0.038 A 
HETATM    3  C3  UNL     1      21.567  -1.811 -20.201  1.00  0.00     0.036 A 
HETATM    4  C4  UNL     1      22.933  -1.865 -20.106  1.00  0.00     0.077 A 
HETATM    5  N2  UNL     1      23.769  -2.348 -19.163  1.00  0.00    -0.284 N 
ATOM      6  H2  UNL     1      23.503  -2.794 -18.286  1.00  0.00     0.188 HD
HETATM    7  N3  UNL     1      24.998  -2.132 -19.597  1.00  0.00    -0.242 N 
ATOM      8  H3  UNL     1      25.843  -2.393 -19.090  1.00  0.00     0.208 HD
HETATM    9  N4  UNL     1      24.987  -1.534 -20.771  1.00  0.00    -0.284 N 
ATOM     10  H4  UNL     1      25.808  -1.261 -21.311  1.00  0.00     0.188 HD
HETATM   11  C5  UNL     1      23.710  -1.346 -21.129  1.00  0.00     0.080 A 
HETATM   12  C6  UNL     1      23.104  -0.779 -22.237  1.00  0.00     0.069 A 
ENDROOT
BRANCH   1  13
HETATM   13  N1  UNL     1      21.132  -0.127 -23.501  1.00  0.00    -0.116 N 
HETATM   14  O1  UNL     1      20.068  -0.608 -23.932  1.00  0.00    -0.532 OA
HETATM   15  O2  UNL     1      21.737   0.947 -24.105  1.00  0.00    -0.532 OA
ENDBRANCH   1  13
TORSDOF 1
ENDMDL
