MODEL 3
REMARK VINA RESULT: -5.886698042      0.767      1.890
REMARK  1 active torsions:
REMARK  status: ('A' for Active; 'I' for Inactive)
REMARK    1  A    between atoms: N1_2  and  C1_4 
ROOT
HETATM    1  C1  UNL     1      23.189  -1.903 -20.196  1.00  0.00     0.105 A 
HETATM    2  C2  UNL     1      21.867  -1.588 -20.416  1.00  0.00     0.038 A 
HETATM    3  C3  UNL     1      21.370  -1.213 -21.645  1.00  0.00     0.036 A 
HETATM    4  C4  UNL     1      22.221  -1.143 -22.716  1.00  0.00     0.077 A 
HETATM    5  N2  UNL     1      22.041  -0.816 -24.012  1.00  0.00    -0.284 N 
ATOM      6  H2  UNL     1      21.164  -0.541 -24.454  1.00  0.00     0.188 HD
HETATM    7  N3  UNL     1      23.219  -0.921 -24.600  1.00  0.00    -0.242 N 
ATOM      8  H3  UNL     1      23.390  -0.734 -25.587  1.00  0.00     0.208 HD
HETATM    9  N4  UNL     1      24.144  -1.300 -23.741  1.00  0.00    -0.284 N 
ATOM     10  H4  UNL     1      25.130  -1.451 -23.951  1.00  0.00     0.188 HD
HETATM   11  C5  UNL     1      23.561  -1.451 -22.544  1.00  0.00     0.080 A 
HETATM   12  C6  UNL     1      24.030  -1.826 -21.296  1.00  0.00     0.069 A 
ENDROOT
BRANCH   1  13
HETATM   13  N1  UNL     1      23.695  -2.289 -18.934  1.00  0.00    -0.116 N 
HETATM   14  O1  UNL     1      22.938  -2.889 -18.148  1.00  0.00    -0.532 OA
HETATM   15  O2  UNL     1      24.994  -1.997 -18.603  1.00  0.00    -0.532 OA
ENDBRANCH   1  13
TORSDOF 1
ENDMDL
