MODEL 8
REMARK VINA RESULT: -4.661282595      3.609      4.517
REMARK  1 active torsions:
REMARK  status: ('A' for Active; 'I' for Inactive)
REMARK    1  A    between atoms: N1_2  and  C1_4 
ROOT
HETATM    1  C1  UNL     1      22.638  -0.728 -23.166  1.00  0.00     0.105 A 
HETATM    2  C2  UNL     1      23.585  -1.587 -22.655  1.00  0.00     0.038 A 
HETATM    3  C3  UNL     1      24.843  -1.182 -22.265  1.00  0.00     0.036 A 
HETATM    4  C4  UNL     1      25.187   0.138 -22.385  1.00  0.00     0.077 A 
HETATM    5  N2  UNL     1      26.313   0.823 -22.097  1.00  0.00    -0.284 N 
ATOM      6  H2  UNL     1      27.174   0.441 -21.706  1.00  0.00     0.188 HD
HETATM    7  N3  UNL     1      26.085   2.084 -22.417  1.00  0.00    -0.242 N 
ATOM      8  H3  UNL     1      26.762   2.839 -22.308  1.00  0.00     0.208 HD
HETATM    9  N4  UNL     1      24.867   2.238 -22.897  1.00  0.00    -0.284 N 
ATOM     10  H4  UNL     1      24.454   3.115 -23.214  1.00  0.00     0.188 HD
HETATM   11  C5  UNL     1      24.267   1.040 -22.894  1.00  0.00     0.080 A 
HETATM   12  C6  UNL     1      23.010   0.603 -23.277  1.00  0.00     0.069 A 
ENDROOT
BRANCH   1  13
HETATM   13  N1  UNL     1      21.347  -1.147 -23.565  1.00  0.00    -0.116 N 
HETATM   14  O1  UNL     1      21.142  -2.363 -23.737  1.00  0.00    -0.532 OA
HETATM   15  O2  UNL     1      20.358  -0.214 -23.752  1.00  0.00    -0.532 OA
ENDBRANCH   1  13
TORSDOF 1
ENDMDL
