MODEL 4
REMARK VINA RESULT: -5.718469152      2.854      4.765
REMARK  1 active torsions:
REMARK  status: ('A' for Active; 'I' for Inactive)
REMARK    1  A    between atoms: N1_2  and  C1_4 
ROOT
HETATM    1  C1  UNL     1      22.430  -0.981 -22.462  1.00  0.00     0.105 A 
HETATM    2  C2  UNL     1      21.327  -1.156 -21.655  1.00  0.00     0.038 A 
HETATM    3  C3  UNL     1      21.397  -1.654 -20.372  1.00  0.00     0.036 A 
HETATM    4  C4  UNL     1      22.618  -1.999 -19.856  1.00  0.00     0.077 A 
HETATM    5  N2  UNL     1      23.002  -2.500 -18.664  1.00  0.00    -0.284 N 
ATOM      6  H2  UNL     1      22.396  -2.727 -17.876  1.00  0.00     0.188 HD
HETATM    7  N3  UNL     1      24.315  -2.639 -18.714  1.00  0.00    -0.242 N 
ATOM      8  H3  UNL     1      24.886  -2.999 -17.950  1.00  0.00     0.208 HD
HETATM    9  N4  UNL     1      24.788  -2.251 -19.880  1.00  0.00    -0.284 N 
ATOM     10  H4  UNL     1      25.768  -2.261 -20.163  1.00  0.00     0.188 HD
HETATM   11  C5  UNL     1      23.756  -1.840 -20.630  1.00  0.00     0.080 A 
HETATM   12  C6  UNL     1      23.654  -1.337 -21.916  1.00  0.00     0.069 A 
ENDROOT
BRANCH   1  13
HETATM   13  N1  UNL     1      22.354  -0.469 -23.778  1.00  0.00    -0.116 N 
HETATM   14  O1  UNL     1      23.132  -0.921 -24.638  1.00  0.00    -0.532 OA
HETATM   15  O2  UNL     1      21.435   0.507 -24.076  1.00  0.00    -0.532 OA
ENDBRANCH   1  13
TORSDOF 1
ENDMDL
