MODEL 1
REMARK VINA RESULT: -6.476449031      0.000      0.000
REMARK  1 active torsions:
REMARK  status: ('A' for Active; 'I' for Inactive)
REMARK    1  A    between atoms: N1_2  and  C1_4 
ROOT
HETATM    1  C1  UNL     1      23.576  -1.890 -20.284  1.00  0.00     0.105 A 
HETATM    2  C2  UNL     1      24.514  -1.815 -21.289  1.00  0.00     0.038 A 
HETATM    3  C3  UNL     1      24.213  -1.452 -22.583  1.00  0.00     0.036 A 
HETATM    4  C4  UNL     1      22.917  -1.147 -22.906  1.00  0.00     0.077 A 
HETATM    5  N2  UNL     1      22.322  -0.767 -24.056  1.00  0.00    -0.284 N 
ATOM      6  H2  UNL     1      22.776  -0.630 -24.959  1.00  0.00     0.188 HD
HETATM    7  N3  UNL     1      21.039  -0.605 -23.787  1.00  0.00    -0.242 N 
ATOM      8  H3  UNL     1      20.338  -0.318 -24.469  1.00  0.00     0.208 HD
HETATM    9  N4  UNL     1      20.785  -0.863 -22.520  1.00  0.00    -0.284 N 
ATOM     10  H4  UNL     1      19.872  -0.810 -22.069  1.00  0.00     0.188 HD
HETATM   11  C5  UNL     1      21.937  -1.208 -21.928  1.00  0.00     0.080 A 
HETATM   12  C6  UNL     1      22.272  -1.575 -20.636  1.00  0.00     0.069 A 
ENDROOT
BRANCH   1  13
HETATM   13  N1  UNL     1      23.890  -2.262 -18.956  1.00  0.00    -0.116 N 
HETATM   14  O1  UNL     1      22.994  -2.761 -18.250  1.00  0.00    -0.532 OA
HETATM   15  O2  UNL     1      25.161  -2.065 -18.478  1.00  0.00    -0.532 OA
ENDBRANCH   1  13
TORSDOF 1
ENDMDL
