MODEL 6
REMARK VINA RESULT: -8.295024904      2.873      5.484
REMARK  11 active torsions:
REMARK  status: ('A' for Active; 'I' for Inactive)
REMARK    1  A    between atoms: N1_2  and  C3_4 
REMARK       I    between atoms: N2_7  and  C6_8 
REMARK    2  A    between atoms: C6_8  and  C7_10 
REMARK    3  A    between atoms: C7_10  and  C8_11 
REMARK    4  A    between atoms: C7_10  and  N4_22 
REMARK    5  A    between atoms: C8_11  and  N3_12 
REMARK       I    between atoms: N3_12  and  C9_14 
REMARK    6  A    between atoms: C9_14  and  C10_16 
REMARK    7  A    between atoms: N4_22  and  S2_24 
REMARK    8  A    between atoms: S2_24  and  C14_27 
REMARK    9  A    between atoms: C18_31  and  N5_32 
REMARK   10  A    between atoms: C24_39  and  O6_40 
REMARK   11  A    between atoms: O6_40  and  C25_41 
ROOT
HETATM    1  C7  UNL     1      36.300 -26.378 -38.213  1.00  0.00     0.203 C 
ENDROOT
BRANCH   1   2
HETATM    2  C6  UNL     1      36.302 -27.736 -37.713  1.00  0.00     0.244 C 
HETATM    3  N2  UNL     1      35.863 -28.072 -36.411  1.00  0.00    -0.348 N 
HETATM    4  C5  UNL     1      35.199 -27.123 -35.515  1.00  0.00     0.128 C 
HETATM    5  C26 UNL     1      35.955 -29.302 -35.683  1.00  0.00     0.150 C 
HETATM    6  C4  UNL     1      34.273 -27.975 -34.658  1.00  0.00     0.046 C 
HETATM    7  C3  UNL     1      34.570 -29.387 -35.084  1.00  0.00     0.097 C 
HETATM    8  O1  UNL     1      36.697 -28.644 -38.497  1.00  0.00    -0.271 OA
BRANCH   7   9
HETATM    9  N1  UNL     1      34.392 -30.350 -34.073  1.00  0.00    -0.415 N 
HETATM   10  C1  UNL     1      33.314 -31.251 -34.263  1.00  0.00     0.143 C 
HETATM   11  C2  UNL     1      35.501 -30.773 -33.314  1.00  0.00     0.143 C 
ENDBRANCH   7   9
ENDBRANCH   1   2
BRANCH   1  12
HETATM   12  C8  UNL     1      36.010 -26.191 -39.726  1.00  0.00     0.158 C 
BRANCH  12  13
HETATM   13  N3  UNL     1      34.836 -25.491 -40.081  1.00  0.00    -0.354 N 
HETATM   14  C9  UNL     1      34.644 -24.322 -40.857  1.00  0.00     0.258 C 
HETATM   15  O2  UNL     1      35.637 -23.744 -41.310  1.00  0.00    -0.267 OA
ATOM     16  H3  UNL     1      33.976 -25.898 -39.714  1.00  0.00     0.162 HD
BRANCH  14  17
HETATM   17  C10 UNL     1      33.325 -23.754 -41.139  1.00  0.00     0.074 A 
HETATM   18  C11 UNL     1      32.144 -24.404 -41.375  1.00  0.00     0.027 A 
HETATM   19  C12 UNL     1      31.087 -23.604 -41.648  1.00  0.00     0.033 A 
HETATM   20  C13 UNL     1      31.250 -22.263 -41.671  1.00  0.00     0.075 A 
HETATM   21 CL1  UNL     1      30.048 -20.999 -41.975  1.00  0.00    -0.076 Cl
HETATM   22  S1  UNL     1      32.923 -22.085 -41.308  1.00  0.00    -0.072 SA
ENDBRANCH  14  17
ENDBRANCH  12  13
ENDBRANCH   1  12
BRANCH   1  23
HETATM   23  N4  UNL     1      37.422 -25.591 -37.846  1.00  0.00    -0.300 N 
ATOM     24  H4  UNL     1      38.340 -25.949 -38.107  1.00  0.00     0.173 HD
BRANCH  23  25
HETATM   25  S2  UNL     1      37.386 -24.180 -37.051  1.00  0.00     0.262 S 
HETATM   26  O3  UNL     1      36.317 -23.199 -37.670  1.00  0.00    -0.200 OA
HETATM   27  O4  UNL     1      38.728 -23.383 -37.317  1.00  0.00    -0.200 OA
BRANCH  25  28
HETATM   28  C14 UNL     1      37.196 -24.111 -35.361  1.00  0.00     0.115 A 
HETATM   29  C15 UNL     1      35.980 -23.572 -34.881  1.00  0.00     0.028 A 
HETATM   30  C16 UNL     1      35.767 -23.408 -33.535  1.00  0.00     0.004 A 
HETATM   31  C17 UNL     1      36.728 -23.762 -32.618  1.00  0.00     0.033 A 
HETATM   32  C18 UNL     1      37.933 -24.296 -33.077  1.00  0.00     0.072 A 
HETATM   33  C24 UNL     1      38.147 -24.467 -34.405  1.00  0.00     0.125 A 
BRANCH  32  34
HETATM   34  N5  UNL     1      38.902 -24.490 -32.056  1.00  0.00    -0.315 N 
HETATM   35  C19 UNL     1      40.065 -23.593 -31.991  1.00  0.00     0.132 C 
HETATM   36  C20 UNL     1      41.076 -24.131 -31.059  1.00  0.00     0.021 C 
HETATM   37  C21 UNL     1      40.615 -24.523 -29.697  1.00  0.00     0.011 C 
HETATM   38  C22 UNL     1      39.202 -25.069 -29.658  1.00  0.00     0.103 C 
HETATM   39  C23 UNL     1      38.791 -25.467 -31.053  1.00  0.00     0.224 C 
HETATM   40  O5  UNL     1      38.364 -26.619 -31.332  1.00  0.00    -0.273 OA
ENDBRANCH  32  34
BRANCH  33  41
HETATM   41  O6  UNL     1      39.319 -25.013 -34.810  1.00  0.00    -0.286 OA
BRANCH  41  42
HETATM   42  C25 UNL     1      39.643 -26.355 -34.860  1.00  0.00     0.505 C 
HETATM   43  F1  UNL     1      40.493 -26.725 -33.795  1.00  0.00    -0.184 F 
HETATM   44  F2  UNL     1      38.547 -27.215 -34.712  1.00  0.00    -0.184 F 
ENDBRANCH  41  42
ENDBRANCH  33  41
ENDBRANCH  25  28
ENDBRANCH  23  25
ENDBRANCH   1  23
TORSDOF 11
ENDMDL
