MODEL 4
REMARK VINA RESULT: -8.344825584      1.607      1.956
REMARK  11 active torsions:
REMARK  status: ('A' for Active; 'I' for Inactive)
REMARK    1  A    between atoms: N1_2  and  C3_4 
REMARK       I    between atoms: N2_7  and  C6_8 
REMARK    2  A    between atoms: C6_8  and  C7_10 
REMARK    3  A    between atoms: C7_10  and  C8_11 
REMARK    4  A    between atoms: C7_10  and  N4_22 
REMARK    5  A    between atoms: C8_11  and  N3_12 
REMARK       I    between atoms: N3_12  and  C9_14 
REMARK    6  A    between atoms: C9_14  and  C10_16 
REMARK    7  A    between atoms: N4_22  and  S2_24 
REMARK    8  A    between atoms: S2_24  and  C14_27 
REMARK    9  A    between atoms: C18_31  and  N5_32 
REMARK   10  A    between atoms: C24_39  and  O6_40 
REMARK   11  A    between atoms: O6_40  and  C25_41 
ROOT
HETATM    1  C7  UNL     1      36.486 -26.606 -39.260  1.00  0.00     0.203 C 
ENDROOT
BRANCH   1   2
HETATM    2  C6  UNL     1      36.928 -25.427 -38.546  1.00  0.00     0.244 C 
HETATM    3  N2  UNL     1      38.247 -25.280 -38.055  1.00  0.00    -0.348 N 
HETATM    4  C5  UNL     1      39.332 -26.209 -38.373  1.00  0.00     0.128 C 
HETATM    5  C26 UNL     1      38.815 -24.292 -37.188  1.00  0.00     0.150 C 
HETATM    6  C4  UNL     1      40.596 -25.362 -38.338  1.00  0.00     0.046 C 
HETATM    7  C3  UNL     1      40.120 -24.006 -37.894  1.00  0.00     0.097 C 
HETATM    8  O1  UNL     1      36.091 -24.495 -38.387  1.00  0.00    -0.271 OA
BRANCH   7   9
HETATM    9  N1  UNL     1      41.068 -23.266 -37.162  1.00  0.00    -0.415 N 
HETATM   10  C1  UNL     1      41.527 -23.868 -35.963  1.00  0.00     0.143 C 
HETATM   11  C2  UNL     1      41.919 -22.369 -37.836  1.00  0.00     0.143 C 
ENDBRANCH   7   9
ENDBRANCH   1   2
BRANCH   1  12
HETATM   12  C8  UNL     1      35.934 -26.390 -40.693  1.00  0.00     0.158 C 
BRANCH  12  13
HETATM   13  N3  UNL     1      34.746 -25.636 -40.826  1.00  0.00    -0.354 N 
HETATM   14  C9  UNL     1      34.530 -24.293 -41.217  1.00  0.00     0.258 C 
HETATM   15  O2  UNL     1      35.511 -23.588 -41.473  1.00  0.00    -0.267 OA
ATOM     16  H3  UNL     1      33.895 -26.151 -40.600  1.00  0.00     0.162 HD
BRANCH  14  17
HETATM   17  C10 UNL     1      33.200 -23.691 -41.319  1.00  0.00     0.074 A 
HETATM   18  C11 UNL     1      31.984 -24.311 -41.424  1.00  0.00     0.027 A 
HETATM   19  C12 UNL     1      30.921 -23.483 -41.544  1.00  0.00     0.033 A 
HETATM   20  C13 UNL     1      31.110 -22.145 -41.553  1.00  0.00     0.075 A 
HETATM   21 CL1  UNL     1      29.909 -20.850 -41.673  1.00  0.00    -0.076 Cl
HETATM   22  S1  UNL     1      32.819 -22.010 -41.394  1.00  0.00    -0.072 SA
ENDBRANCH  14  17
ENDBRANCH  12  13
ENDBRANCH   1  12
BRANCH   1  23
HETATM   23  N4  UNL     1      35.611 -27.461 -38.541  1.00  0.00    -0.300 N 
ATOM     24  H4  UNL     1      34.613 -27.359 -38.726  1.00  0.00     0.173 HD
BRANCH  23  25
HETATM   25  S2  UNL     1      36.042 -28.582 -37.453  1.00  0.00     0.262 S 
HETATM   26  O3  UNL     1      36.700 -29.834 -38.151  1.00  0.00    -0.200 OA
HETATM   27  O4  UNL     1      34.748 -29.230 -36.813  1.00  0.00    -0.200 OA
BRANCH  25  28
HETATM   28  C14 UNL     1      37.017 -28.198 -36.112  1.00  0.00     0.115 A 
HETATM   29  C15 UNL     1      38.162 -29.001 -35.910  1.00  0.00     0.028 A 
HETATM   30  C16 UNL     1      38.967 -28.814 -34.814  1.00  0.00     0.004 A 
HETATM   31  C17 UNL     1      38.682 -27.842 -33.884  1.00  0.00     0.033 A 
HETATM   32  C18 UNL     1      37.554 -27.041 -34.071  1.00  0.00     0.072 A 
HETATM   33  C24 UNL     1      36.760 -27.216 -35.155  1.00  0.00     0.125 A 
BRANCH  32  34
HETATM   34  N5  UNL     1      37.279 -26.172 -32.981  1.00  0.00    -0.315 N 
HETATM   35  C19 UNL     1      36.617 -26.711 -31.785  1.00  0.00     0.132 C 
HETATM   36  C20 UNL     1      36.171 -25.611 -30.907  1.00  0.00     0.021 C 
HETATM   37  C21 UNL     1      37.173 -24.566 -30.549  1.00  0.00     0.011 C 
HETATM   38  C22 UNL     1      38.183 -24.283 -31.644  1.00  0.00     0.103 C 
HETATM   39  C23 UNL     1      37.655 -24.819 -32.950  1.00  0.00     0.224 C 
HETATM   40  O5  UNL     1      37.547 -24.105 -33.982  1.00  0.00    -0.273 OA
ENDBRANCH  32  34
BRANCH  33  41
HETATM   41  O6  UNL     1      35.690 -26.402 -35.316  1.00  0.00    -0.286 OA
BRANCH  41  42
HETATM   42  C25 UNL     1      34.454 -26.516 -34.709  1.00  0.00     0.505 C 
HETATM   43  F1  UNL     1      34.325 -27.739 -34.017  1.00  0.00    -0.184 F 
HETATM   44  F2  UNL     1      34.210 -25.555 -33.719  1.00  0.00    -0.184 F 
ENDBRANCH  41  42
ENDBRANCH  33  41
ENDBRANCH  25  28
ENDBRANCH  23  25
ENDBRANCH   1  23
TORSDOF 11
ENDMDL
