MODEL 5
REMARK VINA RESULT: -8.311138858      3.855      8.698
REMARK  11 active torsions:
REMARK  status: ('A' for Active; 'I' for Inactive)
REMARK    1  A    between atoms: N1_2  and  C3_4 
REMARK       I    between atoms: N2_7  and  C6_8 
REMARK    2  A    between atoms: C6_8  and  C7_10 
REMARK    3  A    between atoms: C7_10  and  C8_11 
REMARK    4  A    between atoms: C7_10  and  N4_22 
REMARK    5  A    between atoms: C8_11  and  N3_12 
REMARK       I    between atoms: N3_12  and  C9_14 
REMARK    6  A    between atoms: C9_14  and  C10_16 
REMARK    7  A    between atoms: N4_22  and  S2_24 
REMARK    8  A    between atoms: S2_24  and  C14_27 
REMARK    9  A    between atoms: C18_31  and  N5_32 
REMARK   10  A    between atoms: C24_39  and  O6_40 
REMARK   11  A    between atoms: O6_40  and  C25_41 
ROOT
HETATM    1  C7  UNL     1      38.657 -24.367 -38.082  1.00  0.00     0.203 C 
ENDROOT
BRANCH   1   2
HETATM    2  C6  UNL     1      37.506 -23.526 -38.333  1.00  0.00     0.244 C 
HETATM    3  N2  UNL     1      36.726 -23.627 -39.509  1.00  0.00    -0.348 N 
HETATM    4  C5  UNL     1      36.889 -24.698 -40.494  1.00  0.00     0.128 C 
HETATM    5  C26 UNL     1      35.685 -22.784 -40.014  1.00  0.00     0.150 C 
HETATM    6  C4  UNL     1      35.506 -24.889 -41.098  1.00  0.00     0.046 C 
HETATM    7  C3  UNL     1      34.672 -23.812 -40.458  1.00  0.00     0.097 C 
HETATM    8  O1  UNL     1      37.192 -22.689 -37.441  1.00  0.00    -0.271 OA
BRANCH   7   9
HETATM    9  N1  UNL     1      33.619 -23.336 -41.263  1.00  0.00    -0.415 N 
HETATM   10  C1  UNL     1      32.534 -24.229 -41.451  1.00  0.00     0.143 C 
HETATM   11  C2  UNL     1      33.375 -21.951 -41.338  1.00  0.00     0.143 C 
ENDBRANCH   7   9
ENDBRANCH   1   2
BRANCH   1  12
HETATM   12  C8  UNL     1      38.427 -25.619 -37.196  1.00  0.00     0.158 C 
BRANCH  12  13
HETATM   13  N3  UNL     1      37.460 -25.521 -36.170  1.00  0.00    -0.354 N 
HETATM   14  C9  UNL     1      37.450 -24.782 -34.963  1.00  0.00     0.258 C 
HETATM   15  O2  UNL     1      38.442 -24.104 -34.678  1.00  0.00    -0.267 OA
ATOM     16  H3  UNL     1      36.622 -26.081 -36.327  1.00  0.00     0.162 HD
BRANCH  14  17
HETATM   17  C10 UNL     1      36.326 -24.791 -34.025  1.00  0.00     0.074 A 
HETATM   18  C11 UNL     1      35.514 -25.834 -33.670  1.00  0.00     0.027 A 
HETATM   19  C12 UNL     1      34.524 -25.527 -32.801  1.00  0.00     0.033 A 
HETATM   20  C13 UNL     1      34.396 -24.260 -32.350  1.00  0.00     0.075 A 
HETATM   21 CL1  UNL     1      33.219 -23.597 -31.206  1.00  0.00    -0.076 Cl
HETATM   22  S1  UNL     1      35.685 -23.448 -33.152  1.00  0.00    -0.072 SA
ENDBRANCH  14  17
ENDBRANCH  12  13
ENDBRANCH   1  12
BRANCH   1  23
HETATM   23  N4  UNL     1      39.825 -23.689 -37.648  1.00  0.00    -0.300 N 
ATOM     24  H4  UNL     1      40.213 -23.970 -36.748  1.00  0.00     0.173 HD
BRANCH  23  25
HETATM   25  S2  UNL     1      40.601 -22.509 -38.443  1.00  0.00     0.262 S 
HETATM   26  O3  UNL     1      40.140 -21.084 -37.949  1.00  0.00    -0.200 OA
HETATM   27  O4  UNL     1      40.127 -22.482 -39.953  1.00  0.00    -0.200 OA
BRANCH  25  28
HETATM   28  C14 UNL     1      42.300 -22.468 -38.544  1.00  0.00     0.115 A 
HETATM   29  C15 UNL     1      42.863 -22.658 -39.827  1.00  0.00     0.028 A 
HETATM   30  C16 UNL     1      44.224 -22.715 -39.995  1.00  0.00     0.004 A 
HETATM   31  C17 UNL     1      45.076 -22.590 -38.923  1.00  0.00     0.033 A 
HETATM   32  C18 UNL     1      44.534 -22.401 -37.650  1.00  0.00     0.072 A 
HETATM   33  C24 UNL     1      43.191 -22.337 -37.479  1.00  0.00     0.125 A 
BRANCH  32  34
HETATM   34  N5  UNL     1      45.496 -22.428 -36.605  1.00  0.00    -0.315 N 
HETATM   35  C19 UNL     1      46.293 -21.224 -36.334  1.00  0.00     0.132 C 
HETATM   36  C20 UNL     1      47.410 -21.543 -35.423  1.00  0.00     0.021 C 
HETATM   37  C21 UNL     1      47.084 -22.273 -34.165  1.00  0.00     0.011 C 
HETATM   38  C22 UNL     1      45.932 -23.249 -34.300  1.00  0.00     0.103 C 
HETATM   39  C23 UNL     1      45.699 -23.534 -35.762  1.00  0.00     0.224 C 
HETATM   40  O5  UNL     1      45.683 -24.702 -36.232  1.00  0.00    -0.273 OA
ENDBRANCH  32  34
BRANCH  33  41
HETATM   41  O6  UNL     1      42.703 -22.126 -36.233  1.00  0.00    -0.286 OA
BRANCH  41  42
HETATM   42  C25 UNL     1      42.723 -20.945 -35.516  1.00  0.00     0.505 C 
HETATM   43  F1  UNL     1      43.563 -21.036 -34.385  1.00  0.00    -0.184 F 
HETATM   44  F2  UNL     1      43.248 -19.854 -36.222  1.00  0.00    -0.184 F 
ENDBRANCH  41  42
ENDBRANCH  33  41
ENDBRANCH  25  28
ENDBRANCH  23  25
ENDBRANCH   1  23
TORSDOF 11
ENDMDL
