MODEL 3
REMARK VINA RESULT: -8.398811745      3.670      7.917
REMARK  11 active torsions:
REMARK  status: ('A' for Active; 'I' for Inactive)
REMARK    1  A    between atoms: N1_2  and  C3_4 
REMARK       I    between atoms: N2_7  and  C6_8 
REMARK    2  A    between atoms: C6_8  and  C7_10 
REMARK    3  A    between atoms: C7_10  and  C8_11 
REMARK    4  A    between atoms: C7_10  and  N4_22 
REMARK    5  A    between atoms: C8_11  and  N3_12 
REMARK       I    between atoms: N3_12  and  C9_14 
REMARK    6  A    between atoms: C9_14  and  C10_16 
REMARK    7  A    between atoms: N4_22  and  S2_24 
REMARK    8  A    between atoms: S2_24  and  C14_27 
REMARK    9  A    between atoms: C18_31  and  N5_32 
REMARK   10  A    between atoms: C24_39  and  O6_40 
REMARK   11  A    between atoms: O6_40  and  C25_41 
ROOT
HETATM    1  C7  UNL     1      38.128 -23.843 -37.991  1.00  0.00     0.203 C 
ENDROOT
BRANCH   1   2
HETATM    2  C6  UNL     1      37.089 -23.006 -38.555  1.00  0.00     0.244 C 
HETATM    3  N2  UNL     1      36.321 -23.393 -39.678  1.00  0.00    -0.348 N 
HETATM    4  C5  UNL     1      36.371 -24.733 -40.264  1.00  0.00     0.128 C 
HETATM    5  C26 UNL     1      35.395 -22.648 -40.476  1.00  0.00     0.150 C 
HETATM    6  C4  UNL     1      34.984 -24.957 -40.849  1.00  0.00     0.046 C 
HETATM    7  C3  UNL     1      34.273 -23.649 -40.626  1.00  0.00     0.097 C 
HETATM    8  O1  UNL     1      36.863 -21.900 -37.989  1.00  0.00    -0.271 OA
BRANCH   7   9
HETATM    9  N1  UNL     1      33.298 -23.344 -41.594  1.00  0.00    -0.415 N 
HETATM   10  C1  UNL     1      32.168 -24.200 -41.621  1.00  0.00     0.143 C 
HETATM   11  C2  UNL     1      33.149 -22.015 -42.034  1.00  0.00     0.143 C 
ENDBRANCH   7   9
ENDBRANCH   1   2
BRANCH   1  12
HETATM   12  C8  UNL     1      37.683 -24.901 -36.948  1.00  0.00     0.158 C 
BRANCH  12  13
HETATM   13  N3  UNL     1      36.923 -24.449 -35.847  1.00  0.00    -0.354 N 
HETATM   14  C9  UNL     1      36.121 -25.149 -34.913  1.00  0.00     0.258 C 
HETATM   15  O2  UNL     1      35.995 -26.372 -35.043  1.00  0.00    -0.267 OA
ATOM     16  H3  UNL     1      36.957 -23.441 -35.698  1.00  0.00     0.162 HD
BRANCH  14  17
HETATM   17  C10 UNL     1      35.419 -24.496 -33.808  1.00  0.00     0.074 A 
HETATM   18  C11 UNL     1      35.456 -23.182 -33.426  1.00  0.00     0.027 A 
HETATM   19  C12 UNL     1      34.724 -22.878 -32.329  1.00  0.00     0.033 A 
HETATM   20  C13 UNL     1      34.026 -23.847 -31.698  1.00  0.00     0.075 A 
HETATM   21 CL1  UNL     1      32.982 -23.722 -30.274  1.00  0.00    -0.076 Cl
HETATM   22  S1  UNL     1      34.388 -25.241 -32.642  1.00  0.00    -0.072 SA
ENDBRANCH  14  17
ENDBRANCH  12  13
ENDBRANCH   1  12
BRANCH   1  23
HETATM   23  N4  UNL     1      39.270 -23.153 -37.508  1.00  0.00    -0.300 N 
ATOM     24  H4  UNL     1      39.221 -22.791 -36.556  1.00  0.00     0.173 HD
BRANCH  23  25
HETATM   25  S2  UNL     1      40.645 -22.885 -38.323  1.00  0.00     0.262 S 
HETATM   26  O3  UNL     1      40.501 -21.658 -39.303  1.00  0.00    -0.200 OA
HETATM   27  O4  UNL     1      40.900 -24.068 -39.343  1.00  0.00    -0.200 OA
BRANCH  25  28
HETATM   28  C14 UNL     1      42.136 -22.703 -37.523  1.00  0.00     0.115 A 
HETATM   29  C15 UNL     1      43.255 -22.393 -38.329  1.00  0.00     0.028 A 
HETATM   30  C16 UNL     1      44.511 -22.300 -37.783  1.00  0.00     0.004 A 
HETATM   31  C17 UNL     1      44.715 -22.506 -36.439  1.00  0.00     0.033 A 
HETATM   32  C18 UNL     1      43.619 -22.812 -35.630  1.00  0.00     0.072 A 
HETATM   33  C24 UNL     1      42.376 -22.898 -36.162  1.00  0.00     0.125 A 
BRANCH  32  34
HETATM   34  N5  UNL     1      43.966 -23.143 -34.293  1.00  0.00    -0.315 N 
HETATM   35  C19 UNL     1      44.524 -24.472 -34.005  1.00  0.00     0.132 C 
HETATM   36  C20 UNL     1      44.546 -24.715 -32.549  1.00  0.00     0.021 C 
HETATM   37  C21 UNL     1      45.166 -23.668 -31.687  1.00  0.00     0.011 C 
HETATM   38  C22 UNL     1      44.979 -22.256 -32.204  1.00  0.00     0.103 C 
HETATM   39  C23 UNL     1      43.862 -22.246 -33.216  1.00  0.00     0.224 C 
HETATM   40  O5  UNL     1      42.868 -21.479 -33.123  1.00  0.00    -0.273 OA
ENDBRANCH  32  34
BRANCH  33  41
HETATM   41  O6  UNL     1      41.334 -23.170 -35.340  1.00  0.00    -0.286 OA
BRANCH  41  42
HETATM   42  C25 UNL     1      40.961 -24.404 -34.845  1.00  0.00     0.505 C 
HETATM   43  F1  UNL     1      39.674 -24.365 -34.265  1.00  0.00    -0.184 F 
HETATM   44  F2  UNL     1      40.847 -25.404 -35.820  1.00  0.00    -0.184 F 
ENDBRANCH  41  42
ENDBRANCH  33  41
ENDBRANCH  25  28
ENDBRANCH  23  25
ENDBRANCH   1  23
TORSDOF 11
ENDMDL
