MODEL 15
REMARK VINA RESULT: -7.040347327      1.710      7.105
REMARK  5 active torsions:
REMARK  status: ('A' for Active; 'I' for Inactive)
REMARK    1  A    between atoms: O1_2  and  C2_3 
REMARK    2  A    between atoms: C6_11  and  N3_12 
REMARK    3  A    between atoms: N3_12  and  C7_14 
REMARK    4  A    between atoms: C11_18  and  O2_19 
REMARK    5  A    between atoms: C15_24  and  O3_25 
ROOT
HETATM    1  C2  UNL     1      65.125  23.394  20.519  1.00  0.00     0.103 A 
HETATM    2  C3  UNL     1      66.084  22.870  21.359  1.00  0.00     0.070 A 
HETATM    3  C4  UNL     1      65.785  22.232  22.549  1.00  0.00     0.050 A 
HETATM    4  N1  UNL     1      66.753  21.736  23.340  1.00  0.00    -0.351 N 
ATOM      5  H1  UNL     1      67.730  21.826  23.065  1.00  0.00     0.166 HD
HETATM    6  C5  UNL     1      66.431  21.116  24.503  1.00  0.00     0.182 A 
HETATM    7  N2  UNL     1      65.147  21.003  24.858  1.00  0.00    -0.338 N 
ATOM      8  H2  UNL     1      64.919  20.536  25.735  1.00  0.00     0.168 HD
HETATM    9  C6  UNL     1      64.138  21.487  24.094  1.00  0.00     0.119 A 
HETATM   10  C13 UNL     1      64.444  22.126  22.896  1.00  0.00     0.038 A 
HETATM   11  C14 UNL     1      63.478  22.649  22.060  1.00  0.00     0.057 A 
HETATM   12  C15 UNL     1      63.793  23.293  20.856  1.00  0.00     0.102 A 
ENDROOT
BRANCH   9  13
HETATM   13  N3  UNL     1      62.797  21.340  24.477  1.00  0.00    -0.342 N 
ATOM     14  H3  UNL     1      62.129  21.989  24.060  1.00  0.00     0.167 HD
BRANCH  13  15
HETATM   15  C7  UNL     1      62.269  20.384  25.383  1.00  0.00     0.036 A 
HETATM   16  C8  UNL     1      62.810  19.097  25.384  1.00  0.00     0.029 A 
HETATM   17  C9  UNL     1      62.343  18.107  26.225  1.00  0.00     0.005 A 
HETATM   18  C10 UNL     1      61.312  18.349  27.109  1.00  0.00     0.036 A 
HETATM   19  C11 UNL     1      60.765  19.601  27.126  1.00  0.00     0.067 A 
HETATM   20  C12 UNL     1      61.247  20.602  26.268  1.00  0.00     0.066 A 
BRANCH  19  21
HETATM   21  O2  UNL     1      59.734  19.857  28.005  1.00  0.00    -0.361 OA
ATOM     22  H2  UNL     1      59.100  20.528  27.778  1.00  0.00     0.217 HD
ENDBRANCH  19  21
ENDBRANCH  13  15
ENDBRANCH   9  13
BRANCH  12  23
HETATM   23  O3  UNL     1      62.804  23.812  20.031  1.00  0.00    -0.353 OA
HETATM   24  C16 UNL     1      62.147  24.997  20.444  1.00  0.00     0.210 C 
ENDBRANCH  12  23
BRANCH   1  25
HETATM   25  O1  UNL     1      65.421  24.028  19.335  1.00  0.00    -0.353 OA
HETATM   26  C1  UNL     1      66.539  24.815  19.077  1.00  0.00     0.210 C 
ENDBRANCH   1  25
TORSDOF 5
ENDMDL
