MODEL 12
REMARK VINA RESULT: -7.081832207      2.149      7.253
REMARK  5 active torsions:
REMARK  status: ('A' for Active; 'I' for Inactive)
REMARK    1  A    between atoms: O1_2  and  C2_3 
REMARK    2  A    between atoms: C6_11  and  N3_12 
REMARK    3  A    between atoms: N3_12  and  C7_14 
REMARK    4  A    between atoms: C11_18  and  O2_19 
REMARK    5  A    between atoms: C15_24  and  O3_25 
ROOT
HETATM    1  C2  UNL     1      64.510  23.331  22.475  1.00  0.00     0.103 A 
HETATM    2  C3  UNL     1      65.531  22.539  22.955  1.00  0.00     0.070 A 
HETATM    3  C4  UNL     1      65.323  21.446  23.776  1.00  0.00     0.050 A 
HETATM    4  N1  UNL     1      66.348  20.700  24.223  1.00  0.00    -0.351 N 
ATOM      5  H1  UNL     1      67.303  20.936  23.955  1.00  0.00     0.166 HD
HETATM    6  C5  UNL     1      66.115  19.634  25.030  1.00  0.00     0.182 A 
HETATM    7  N2  UNL     1      64.860  19.332  25.378  1.00  0.00    -0.338 N 
ATOM      8  H2  UNL     1      64.699  18.529  25.985  1.00  0.00     0.168 HD
HETATM    9  C6  UNL     1      63.796  20.053  24.953  1.00  0.00     0.119 A 
HETATM   10  C13 UNL     1      64.010  21.151  24.124  1.00  0.00     0.038 A 
HETATM   11  C14 UNL     1      62.982  21.941  23.648  1.00  0.00     0.057 A 
HETATM   12  C15 UNL     1      63.205  23.045  22.816  1.00  0.00     0.102 A 
ENDROOT
BRANCH   9  13
HETATM   13  N3  UNL     1      62.485  19.706  25.315  1.00  0.00    -0.342 N 
ATOM     14  H3  UNL     1      61.740  20.308  24.965  1.00  0.00     0.167 HD
BRANCH  13  15
HETATM   15  C7  UNL     1      62.087  18.606  26.118  1.00  0.00     0.036 A 
HETATM   16  C8  UNL     1      62.566  17.336  25.794  1.00  0.00     0.029 A 
HETATM   17  C9  UNL     1      62.215  16.213  26.516  1.00  0.00     0.005 A 
HETATM   18  C10 UNL     1      61.367  16.300  27.601  1.00  0.00     0.036 A 
HETATM   19  C11 UNL     1      60.884  17.534  27.939  1.00  0.00     0.067 A 
HETATM   20  C12 UNL     1      61.247  18.669  27.198  1.00  0.00     0.066 A 
BRANCH  19  21
HETATM   21  O2  UNL     1      60.035  17.635  29.021  1.00  0.00    -0.361 OA
ATOM     22  H2  UNL     1      59.673  18.487  29.235  1.00  0.00     0.217 HD
ENDBRANCH  19  21
ENDBRANCH  13  15
ENDBRANCH   9  13
BRANCH  12  23
HETATM   23  O3  UNL     1      62.156  23.825  22.349  1.00  0.00    -0.353 OA
HETATM   24  C16 UNL     1      60.918  23.187  22.087  1.00  0.00     0.210 C 
ENDBRANCH  12  23
BRANCH   1  25
HETATM   25  O1  UNL     1      64.716  24.418  21.658  1.00  0.00    -0.353 OA
HETATM   26  C1  UNL     1      65.399  25.583  21.991  1.00  0.00     0.210 C 
ENDBRANCH   1  25
TORSDOF 5
ENDMDL
