MODEL 1
REMARK VINA RESULT: -7.643352233      0.000      0.000
REMARK  5 active torsions:
REMARK  status: ('A' for Active; 'I' for Inactive)
REMARK    1  A    between atoms: O1_2  and  C2_3 
REMARK    2  A    between atoms: C6_11  and  N3_12 
REMARK    3  A    between atoms: N3_12  and  C7_14 
REMARK    4  A    between atoms: C11_18  and  O2_19 
REMARK    5  A    between atoms: C15_24  and  O3_25 
ROOT
HETATM    1  C2  UNL     1      62.032  19.634  25.988  1.00  0.00     0.103 A 
HETATM    2  C3  UNL     1      63.312  19.181  25.755  1.00  0.00     0.070 A 
HETATM    3  C4  UNL     1      64.193  19.802  24.889  1.00  0.00     0.050 A 
HETATM    4  N1  UNL     1      65.434  19.324  24.690  1.00  0.00    -0.351 N 
ATOM      5  H1  UNL     1      65.742  18.488  25.184  1.00  0.00     0.166 HD
HETATM    6  C5  UNL     1      66.277  19.953  23.833  1.00  0.00     0.182 A 
HETATM    7  N2  UNL     1      65.865  21.049  23.187  1.00  0.00    -0.338 N 
ATOM      8  H2  UNL     1      66.508  21.512  22.545  1.00  0.00     0.168 HD
HETATM    9  C6  UNL     1      64.625  21.567  23.356  1.00  0.00     0.119 A 
HETATM   10  C13 UNL     1      63.742  20.939  24.230  1.00  0.00     0.038 A 
HETATM   11  C14 UNL     1      62.461  21.400  24.458  1.00  0.00     0.057 A 
HETATM   12  C15 UNL     1      61.577  20.762  25.339  1.00  0.00     0.102 A 
ENDROOT
BRANCH   9  13
HETATM   13  N3  UNL     1      64.221  22.730  22.682  1.00  0.00    -0.342 N 
ATOM     14  H3  UNL     1      63.255  23.027  22.823  1.00  0.00     0.167 HD
BRANCH  13  15
HETATM   15  C7  UNL     1      65.013  23.537  21.826  1.00  0.00     0.036 A 
HETATM   16  C8  UNL     1      65.659  24.650  22.366  1.00  0.00     0.029 A 
HETATM   17  C9  UNL     1      66.436  25.492  21.597  1.00  0.00     0.005 A 
HETATM   18  C10 UNL     1      66.610  25.267  20.247  1.00  0.00     0.036 A 
HETATM   19  C11 UNL     1      65.988  24.183  19.693  1.00  0.00     0.067 A 
HETATM   20  C12 UNL     1      65.199  23.333  20.484  1.00  0.00     0.066 A 
BRANCH  19  21
HETATM   21  O2  UNL     1      66.153  23.947  18.346  1.00  0.00    -0.361 OA
ATOM     22  H2  UNL     1      66.612  24.595  17.824  1.00  0.00     0.217 HD
ENDBRANCH  19  21
ENDBRANCH  13  15
ENDBRANCH   9  13
BRANCH  12  23
HETATM   23  O3  UNL     1      60.293  21.243  25.552  1.00  0.00    -0.353 OA
HETATM   24  C16 UNL     1      60.152  22.534  26.118  1.00  0.00     0.210 C 
ENDBRANCH  12  23
BRANCH   1  25
HETATM   25  O1  UNL     1      61.155  19.017  26.850  1.00  0.00    -0.353 OA
HETATM   26  C1  UNL     1      61.127  17.663  27.169  1.00  0.00     0.210 C 
ENDBRANCH   1  25
TORSDOF 5
ENDMDL
