MODEL 2
REMARK VINA RESULT: -7.591992537      1.726      1.855
REMARK  5 active torsions:
REMARK  status: ('A' for Active; 'I' for Inactive)
REMARK    1  A    between atoms: O1_2  and  C2_3 
REMARK    2  A    between atoms: C6_11  and  N3_12 
REMARK    3  A    between atoms: N3_12  and  C7_14 
REMARK    4  A    between atoms: C11_18  and  O2_19 
REMARK    5  A    between atoms: C15_24  and  O3_25 
ROOT
HETATM    1  C2  UNL     1      61.655  20.337  25.778  1.00  0.00     0.103 A 
HETATM    2  C3  UNL     1      62.807  19.606  25.968  1.00  0.00     0.070 A 
HETATM    3  C4  UNL     1      63.953  19.784  25.216  1.00  0.00     0.050 A 
HETATM    4  N1  UNL     1      65.056  19.047  25.434  1.00  0.00    -0.351 N 
ATOM      5  H1  UNL     1      65.058  18.340  26.168  1.00  0.00     0.166 HD
HETATM    6  C5  UNL     1      66.167  19.242  24.679  1.00  0.00     0.182 A 
HETATM    7  N2  UNL     1      66.156  20.170  23.717  1.00  0.00    -0.338 N 
ATOM      8  H2  UNL     1      66.997  20.306  23.156  1.00  0.00     0.168 HD
HETATM    9  C6  UNL     1      65.069  20.936  23.460  1.00  0.00     0.119 A 
HETATM   10  C13 UNL     1      63.918  20.755  24.222  1.00  0.00     0.038 A 
HETATM   11  C14 UNL     1      62.767  21.491  24.025  1.00  0.00     0.057 A 
HETATM   12  C15 UNL     1      61.611  21.301  24.794  1.00  0.00     0.102 A 
ENDROOT
BRANCH   9  13
HETATM   13  N3  UNL     1      65.087  21.918  22.458  1.00  0.00    -0.342 N 
ATOM     14  H3  UNL     1      64.347  21.868  21.757  1.00  0.00     0.167 HD
BRANCH  13  15
HETATM   15  C7  UNL     1      66.025  22.973  22.315  1.00  0.00     0.036 A 
HETATM   16  C8  UNL     1      65.547  24.276  22.177  1.00  0.00     0.029 A 
HETATM   17  C9  UNL     1      66.394  25.355  22.020  1.00  0.00     0.005 A 
HETATM   18  C10 UNL     1      67.763  25.189  21.993  1.00  0.00     0.036 A 
HETATM   19  C11 UNL     1      68.256  23.921  22.126  1.00  0.00     0.067 A 
HETATM   20  C12 UNL     1      67.387  22.831  22.285  1.00  0.00     0.066 A 
BRANCH  19  21
HETATM   21  O2  UNL     1      69.623  23.741  22.101  1.00  0.00    -0.361 OA
ATOM     22  H2  UNL     1      70.007  23.098  22.687  1.00  0.00     0.217 HD
ENDBRANCH  19  21
ENDBRANCH  13  15
ENDBRANCH   9  13
BRANCH  12  23
HETATM   23  O3  UNL     1      60.465  22.054  24.578  1.00  0.00    -0.353 OA
HETATM   24  C16 UNL     1      60.200  22.499  23.259  1.00  0.00     0.210 C 
ENDBRANCH  12  23
BRANCH   1  25
HETATM   25  O1  UNL     1      60.514  20.161  26.526  1.00  0.00    -0.353 OA
HETATM   26  C1  UNL     1      60.439  19.602  27.798  1.00  0.00     0.210 C 
ENDBRANCH   1  25
TORSDOF 5
ENDMDL
