MODEL 3
REMARK VINA RESULT: -7.410781080      1.530      2.947
REMARK  5 active torsions:
REMARK  status: ('A' for Active; 'I' for Inactive)
REMARK    1  A    between atoms: O1_2  and  C2_3 
REMARK    2  A    between atoms: C6_11  and  N3_12 
REMARK    3  A    between atoms: N3_12  and  C7_14 
REMARK    4  A    between atoms: C11_18  and  O2_19 
REMARK    5  A    between atoms: C15_24  and  O3_25 
ROOT
HETATM    1  C2  UNL     1      61.693  20.097  25.698  1.00  0.00     0.103 A 
HETATM    2  C3  UNL     1      60.970  21.171  25.226  1.00  0.00     0.070 A 
HETATM    3  C4  UNL     1      61.475  22.090  24.325  1.00  0.00     0.050 A 
HETATM    4  N1  UNL     1      60.734  23.125  23.891  1.00  0.00    -0.351 N 
ATOM      5  H1  UNL     1      59.779  23.243  24.226  1.00  0.00     0.166 HD
HETATM    6  C5  UNL     1      61.256  24.013  23.007  1.00  0.00     0.182 A 
HETATM    7  N2  UNL     1      62.510  23.852  22.572  1.00  0.00    -0.338 N 
ATOM      8  H2  UNL     1      62.891  24.527  21.909  1.00  0.00     0.168 HD
HETATM    9  C6  UNL     1      63.293  22.826  22.981  1.00  0.00     0.119 A 
HETATM   10  C13 UNL     1      62.780  21.902  23.887  1.00  0.00     0.038 A 
HETATM   11  C14 UNL     1      63.511  20.829  24.356  1.00  0.00     0.057 A 
HETATM   12  C15 UNL     1      62.988  19.904  25.270  1.00  0.00     0.102 A 
ENDROOT
BRANCH   9  13
HETATM   13  N3  UNL     1      64.601  22.666  22.497  1.00  0.00    -0.342 N 
ATOM     14  H3  UNL     1      65.099  21.827  22.795  1.00  0.00     0.167 HD
BRANCH  13  15
HETATM   15  C7  UNL     1      65.304  23.548  21.636  1.00  0.00     0.036 A 
HETATM   16  C8  UNL     1      65.900  24.683  22.187  1.00  0.00     0.029 A 
HETATM   17  C9  UNL     1      66.590  25.596  21.415  1.00  0.00     0.005 A 
HETATM   18  C10 UNL     1      66.720  25.425  20.053  1.00  0.00     0.036 A 
HETATM   19  C11 UNL     1      66.144  24.321  19.489  1.00  0.00     0.067 A 
HETATM   20  C12 UNL     1      65.445  23.397  20.282  1.00  0.00     0.066 A 
BRANCH  19  21
HETATM   21  O2  UNL     1      66.266  24.137  18.128  1.00  0.00    -0.361 OA
ATOM     22  H2  UNL     1      66.329  24.904  17.570  1.00  0.00     0.217 HD
ENDBRANCH  19  21
ENDBRANCH  13  15
ENDBRANCH   9  13
BRANCH  12  23
HETATM   23  O3  UNL     1      63.742  18.832  25.727  1.00  0.00    -0.353 OA
HETATM   24  C16 UNL     1      65.109  19.058  26.022  1.00  0.00     0.210 C 
ENDBRANCH  12  23
BRANCH   1  25
HETATM   25  O1  UNL     1      61.192  19.182  26.595  1.00  0.00    -0.353 OA
HETATM   26  C1  UNL     1      60.534  19.470  27.787  1.00  0.00     0.210 C 
ENDBRANCH   1  25
TORSDOF 5
ENDMDL
