MODEL 18
REMARK VINA RESULT: -5.458132762      2.979      4.227
REMARK  12 active torsions:
REMARK  status: ('A' for Active; 'I' for Inactive)
REMARK    1  A    between atoms: C2_2  and  C3_3 
REMARK    2  A    between atoms: C3_3  and  C4_4 
REMARK    3  A    between atoms: C4_4  and  C5_5 
REMARK    4  A    between atoms: C5_5  and  C6_6 
REMARK    5  A    between atoms: C6_6  and  C7_7 
REMARK    6  A    between atoms: C7_7  and  O1_8 
REMARK    7  A    between atoms: O1_8  and  C8_9 
REMARK    8  A    between atoms: C9_11  and  C10_12 
REMARK    9  A    between atoms: C10_12  and  O3_13 
REMARK   10  A    between atoms: C11_15  and  O4_16 
REMARK   11  A    between atoms: C12_18  and  O5_19 
REMARK   12  A    between atoms: C13_21  and  O6_22 
ROOT
HETATM    1  C8  UNL     1      18.896  -6.021   8.259  1.00  0.00     0.291 C 
HETATM    2  O2  UNL     1      20.244  -5.811   8.260  1.00  0.00    -0.348 OA
HETATM    3  C9  UNL     1      20.997  -6.459   7.363  1.00  0.00     0.179 C 
HETATM    4  C11 UNL     1      20.364  -7.035   6.160  1.00  0.00     0.180 C 
HETATM    5  C12 UNL     1      18.911  -7.390   6.302  1.00  0.00     0.183 C 
HETATM    6  C13 UNL     1      18.640  -7.445   7.812  1.00  0.00     0.204 C 
ENDROOT
BRANCH   1   7
HETATM    7  O1  UNL     1      18.373  -5.746   9.496  1.00  0.00    -0.359 OA
BRANCH   7   8
HETATM    8  C7  UNL     1      17.868  -4.465   9.557  1.00  0.00     0.171 C 
BRANCH   8   9
HETATM    9  C6  UNL     1      16.623  -4.341  10.368  1.00  0.00     0.026 C 
BRANCH   9  10
HETATM   10  C5  UNL     1      16.083  -5.678  10.826  1.00  0.00     0.002 C 
BRANCH  10  11
HETATM   11  C4  UNL     1      14.936  -6.151   9.983  1.00  0.00     0.000 C 
BRANCH  11  12
HETATM   12  C3  UNL     1      13.595  -5.724  10.526  1.00  0.00    -0.000 C 
BRANCH  12  13
HETATM   13  C2  UNL     1      12.785  -4.961   9.529  1.00  0.00    -0.005 C 
HETATM   14  C1  UNL     1      12.925  -3.487   9.837  1.00  0.00     0.005 C 
ENDBRANCH  12  13
ENDBRANCH  11  12
ENDBRANCH  10  11
ENDBRANCH   9  10
ENDBRANCH   8   9
ENDBRANCH   7   8
ENDBRANCH   1   7
BRANCH   6  15
HETATM   15  O6  UNL     1      17.376  -7.891   8.091  1.00  0.00    -0.388 OA
ATOM     16  H6  UNL     1      17.352  -8.614   8.706  1.00  0.00     0.210 HD
ENDBRANCH   6  15
BRANCH   3  17
HETATM   17  C10 UNL     1      22.128  -5.531   6.896  1.00  0.00     0.198 C 
BRANCH  17  18
HETATM   18  O3  UNL     1      21.604  -4.739   5.863  1.00  0.00    -0.398 OA
ATOM     19  H3  UNL     1      22.339  -4.471   5.322  1.00  0.00     0.209 HD
ENDBRANCH  17  18
ENDBRANCH   3  17
BRANCH   5  20
HETATM   20  O5  UNL     1      18.117  -6.321   5.830  1.00  0.00    -0.390 OA
ATOM     21  H5  UNL     1      17.274  -6.654   5.547  1.00  0.00     0.210 HD
ENDBRANCH   5  20
BRANCH   4  22
HETATM   22  O4  UNL     1      21.031  -8.223   5.779  1.00  0.00    -0.390 OA
ATOM     23  H4  UNL     1      21.635  -8.046   5.067  1.00  0.00     0.210 HD
ENDBRANCH   4  22
TORSDOF 12
ENDMDL
