MODEL 6
REMARK VINA RESULT: -6.071300100      2.068      2.703
REMARK  12 active torsions:
REMARK  status: ('A' for Active; 'I' for Inactive)
REMARK    1  A    between atoms: C2_2  and  C3_3 
REMARK    2  A    between atoms: C3_3  and  C4_4 
REMARK    3  A    between atoms: C4_4  and  C5_5 
REMARK    4  A    between atoms: C5_5  and  C6_6 
REMARK    5  A    between atoms: C6_6  and  C7_7 
REMARK    6  A    between atoms: C7_7  and  O1_8 
REMARK    7  A    between atoms: O1_8  and  C8_9 
REMARK    8  A    between atoms: C9_11  and  C10_12 
REMARK    9  A    between atoms: C10_12  and  O3_13 
REMARK   10  A    between atoms: C11_15  and  O4_16 
REMARK   11  A    between atoms: C12_18  and  O5_19 
REMARK   12  A    between atoms: C13_21  and  O6_22 
ROOT
HETATM    1  C8  UNL     1      18.405  -6.007   7.850  1.00  0.00     0.291 C 
HETATM    2  O2  UNL     1      19.700  -5.632   8.061  1.00  0.00    -0.348 OA
HETATM    3  C9  UNL     1      20.667  -6.234   7.359  1.00  0.00     0.179 C 
HETATM    4  C11 UNL     1      20.326  -6.956   6.118  1.00  0.00     0.180 C 
HETATM    5  C12 UNL     1      18.920  -7.479   6.040  1.00  0.00     0.183 C 
HETATM    6  C13 UNL     1      18.394  -7.476   7.483  1.00  0.00     0.204 C 
ENDROOT
BRANCH   1   7
HETATM    7  O1  UNL     1      17.643  -5.725   8.953  1.00  0.00    -0.359 OA
BRANCH   7   8
HETATM    8  C7  UNL     1      18.113  -4.615   9.621  1.00  0.00     0.171 C 
BRANCH   8   9
HETATM    9  C6  UNL     1      18.213  -4.792  11.098  1.00  0.00     0.026 C 
BRANCH   9  10
HETATM   10  C5  UNL     1      19.636  -4.988  11.573  1.00  0.00     0.002 C 
BRANCH  10  11
HETATM   11  C4  UNL     1      20.101  -6.405  11.418  1.00  0.00     0.000 C 
BRANCH  11  12
HETATM   12  C3  UNL     1      20.808  -6.927  12.644  1.00  0.00    -0.000 C 
BRANCH  12  13
HETATM   13  C2  UNL     1      19.952  -6.881  13.869  1.00  0.00    -0.005 C 
HETATM   14  C1  UNL     1      20.720  -6.161  14.954  1.00  0.00     0.005 C 
ENDBRANCH  12  13
ENDBRANCH  11  12
ENDBRANCH  10  11
ENDBRANCH   9  10
ENDBRANCH   8   9
ENDBRANCH   7   8
ENDBRANCH   1   7
BRANCH   6  15
HETATM   15  O6  UNL     1      17.157  -8.058   7.579  1.00  0.00    -0.388 OA
ATOM     16  H6  UNL     1      17.096  -8.716   8.262  1.00  0.00     0.210 HD
ENDBRANCH   6  15
BRANCH   3  17
HETATM   17  C10 UNL     1      21.752  -5.202   7.016  1.00  0.00     0.198 C 
BRANCH  17  18
HETATM   18  O3  UNL     1      21.566  -4.849   5.671  1.00  0.00    -0.398 OA
ATOM     19  H3  UNL     1      20.822  -5.348   5.355  1.00  0.00     0.209 HD
ENDBRANCH  17  18
ENDBRANCH   3  17
BRANCH   5  20
HETATM   20  O5  UNL     1      18.108  -6.547   5.356  1.00  0.00    -0.390 OA
ATOM     21  H5  UNL     1      17.439  -6.217   5.946  1.00  0.00     0.210 HD
ENDBRANCH   5  20
BRANCH   4  22
HETATM   22  O4  UNL     1      21.178  -8.073   5.952  1.00  0.00    -0.390 OA
ATOM     23  H4  UNL     1      21.972  -7.958   6.462  1.00  0.00     0.210 HD
ENDBRANCH   4  22
TORSDOF 12
ENDMDL
