MODEL 8
REMARK VINA RESULT: -5.944103349      1.976      2.600
REMARK  12 active torsions:
REMARK  status: ('A' for Active; 'I' for Inactive)
REMARK    1  A    between atoms: C2_2  and  C3_3 
REMARK    2  A    between atoms: C3_3  and  C4_4 
REMARK    3  A    between atoms: C4_4  and  C5_5 
REMARK    4  A    between atoms: C5_5  and  C6_6 
REMARK    5  A    between atoms: C6_6  and  C7_7 
REMARK    6  A    between atoms: C7_7  and  O1_8 
REMARK    7  A    between atoms: O1_8  and  C8_9 
REMARK    8  A    between atoms: C9_11  and  C10_12 
REMARK    9  A    between atoms: C10_12  and  O3_13 
REMARK   10  A    between atoms: C11_15  and  O4_16 
REMARK   11  A    between atoms: C12_18  and  O5_19 
REMARK   12  A    between atoms: C13_21  and  O6_22 
ROOT
HETATM    1  C8  UNL     1      18.970  -5.995   8.261  1.00  0.00     0.291 C 
HETATM    2  O2  UNL     1      20.317  -5.787   8.233  1.00  0.00    -0.348 OA
HETATM    3  C9  UNL     1      21.052  -6.444   7.328  1.00  0.00     0.179 C 
HETATM    4  C11 UNL     1      20.395  -7.032   6.144  1.00  0.00     0.180 C 
HETATM    5  C12 UNL     1      18.946  -7.385   6.318  1.00  0.00     0.183 C 
HETATM    6  C13 UNL     1      18.704  -7.424   7.833  1.00  0.00     0.204 C 
ENDROOT
BRANCH   1   7
HETATM    7  O1  UNL     1      18.470  -5.707   9.504  1.00  0.00    -0.359 OA
BRANCH   7   8
HETATM    8  C7  UNL     1      19.270  -4.806  10.173  1.00  0.00     0.171 C 
BRANCH   8   9
HETATM    9  C6  UNL     1      19.585  -5.200  11.577  1.00  0.00     0.026 C 
BRANCH   9  10
HETATM   10  C5  UNL     1      20.100  -6.618  11.689  1.00  0.00     0.002 C 
BRANCH  10  11
HETATM   11  C4  UNL     1      20.903  -6.838  12.936  1.00  0.00     0.000 C 
BRANCH  11  12
HETATM   12  C3  UNL     1      20.056  -6.849  14.185  1.00  0.00    -0.000 C 
BRANCH  12  13
HETATM   13  C2  UNL     1      20.715  -6.163  15.337  1.00  0.00    -0.005 C 
HETATM   14  C1  UNL     1      20.433  -4.682  15.227  1.00  0.00     0.005 C 
ENDBRANCH  12  13
ENDBRANCH  11  12
ENDBRANCH  10  11
ENDBRANCH   9  10
ENDBRANCH   8   9
ENDBRANCH   7   8
ENDBRANCH   1   7
BRANCH   6  15
HETATM   15  O6  UNL     1      17.445  -7.865   8.141  1.00  0.00    -0.388 OA
ATOM     16  H6  UNL     1      17.433  -8.595   8.750  1.00  0.00     0.210 HD
ENDBRANCH   6  15
BRANCH   3  17
HETATM   17  C10 UNL     1      22.175  -5.523   6.830  1.00  0.00     0.198 C 
BRANCH  17  18
HETATM   18  O3  UNL     1      21.622  -4.716   5.824  1.00  0.00    -0.398 OA
ATOM     19  H3  UNL     1      22.297  -4.100   5.563  1.00  0.00     0.209 HD
ENDBRANCH  17  18
ENDBRANCH   3  17
BRANCH   5  20
HETATM   20  O5  UNL     1      18.143  -6.320   5.851  1.00  0.00    -0.390 OA
ATOM     21  H5  UNL     1      18.310  -5.545   6.375  1.00  0.00     0.210 HD
ENDBRANCH   5  20
BRANCH   4  22
HETATM   22  O4  UNL     1      21.054  -8.225   5.762  1.00  0.00    -0.390 OA
ATOM     23  H4  UNL     1      20.493  -8.975   5.922  1.00  0.00     0.210 HD
ENDBRANCH   4  22
TORSDOF 12
ENDMDL
