MODEL 1
REMARK VINA RESULT: -8.784387252      0.000      0.000
REMARK  13 active torsions:
REMARK  status: ('A' for Active; 'I' for Inactive)
REMARK    1  A    between atoms: C2_2  and  C3_3 
REMARK    2  A    between atoms: C2_2  and  C16_34 
REMARK    3  A    between atoms: C3_3  and  P1_4 
REMARK    4  A    between atoms: P1_4  and  C4_7 
REMARK    5  A    between atoms: C4_7  and  C5_8 
REMARK    6  A    between atoms: C4_7  and  N1_15 
REMARK    7  A    between atoms: C5_8  and  C6_9 
REMARK       I    between atoms: N1_15  and  C12_17 
REMARK    8  A    between atoms: C12_17  and  C13_19 
REMARK    9  A    between atoms: C13_19  and  N2_20 
REMARK   10  A    between atoms: C13_19  and  C14_24 
REMARK   11  A    between atoms: C14_24  and  C15_25 
REMARK       I    between atoms: C16_34  and  N7_36 
REMARK   12  A    between atoms: N7_36  and  C17_38 
REMARK   13  A    between atoms: C17_38  and  C19_40 
ROOT
HETATM    1  C4  UNL     1      -8.959 -22.614 -21.921  1.00  0.00     0.180 C 
ENDROOT
BRANCH   1   2
HETATM    2  P1  UNL     1      -9.127 -23.994 -20.788  1.00  0.00     0.130 P 
HETATM    3  O1  UNL     1      -7.745 -24.261 -20.190  1.00  0.00    -0.666 OA
HETATM    4  O2  UNL     1      -9.627 -25.413 -21.536  1.00  0.00    -0.666 OA
BRANCH   2   5
HETATM    5  C3  UNL     1     -10.199 -23.601 -19.384  1.00  0.00     0.119 C 
BRANCH   5   6
HETATM    6  C2  UNL     1     -10.288 -22.121 -19.125  1.00  0.00     0.083 C 
HETATM    7  C1  UNL     1     -11.639 -21.667 -18.701  1.00  0.00     0.020 C 
BRANCH   6   8
HETATM    8  C16 UNL     1      -9.306 -21.761 -18.072  1.00  0.00     0.222 C 
HETATM    9  O4  UNL     1      -8.369 -20.982 -18.311  1.00  0.00    -0.273 OA
HETATM   10  N7  UNL     1      -9.402 -22.296 -16.741  1.00  0.00    -0.348 N 
ATOM     11  H7  UNL     1     -10.167 -22.936 -16.529  1.00  0.00     0.163 HD
BRANCH  10  12
HETATM   12  C17 UNL     1      -8.477 -21.973 -15.701  1.00  0.00     0.169 C 
HETATM   13  C18 UNL     1      -9.181 -21.397 -14.471  1.00  0.00     0.042 C 
BRANCH  12  14
HETATM   14  C19 UNL     1      -7.606 -23.095 -15.316  1.00  0.00     0.253 C 
HETATM   15  N8  UNL     1      -7.695 -23.711 -14.044  1.00  0.00    -0.060 NA
HETATM   16  O5  UNL     1      -6.761 -23.513 -16.143  1.00  0.00    -0.275 OA
ENDBRANCH  12  14
ENDBRANCH  10  12
ENDBRANCH   6   8
ENDBRANCH   5   6
ENDBRANCH   2   5
ENDBRANCH   1   2
BRANCH   1  17
HETATM   17  C5  UNL     1      -9.418 -23.004 -23.289  1.00  0.00     0.074 C 
BRANCH  17  18
HETATM   18  C6  UNL     1      -9.932 -21.903 -24.116  1.00  0.00    -0.056 A 
HETATM   19  C7  UNL     1      -9.238 -21.474 -25.223  1.00  0.00     0.007 A 
HETATM   20  C8  UNL     1      -9.698 -20.448 -26.024  1.00  0.00     0.001 A 
HETATM   21  C9  UNL     1     -10.882 -19.823 -25.729  1.00  0.00     0.000 A 
HETATM   22  C10 UNL     1     -11.594 -20.230 -24.633  1.00  0.00     0.001 A 
HETATM   23  C11 UNL     1     -11.116 -21.274 -23.826  1.00  0.00     0.007 A 
ENDBRANCH  17  18
ENDBRANCH   1  17
BRANCH   1  24
HETATM   24  N1  UNL     1      -7.554 -22.274 -22.034  1.00  0.00    -0.345 N 
HETATM   25  C12 UNL     1      -7.041 -20.973 -21.795  1.00  0.00     0.249 C 
HETATM   26  O3  UNL     1      -7.873 -20.088 -21.468  1.00  0.00    -0.271 OA
ATOM     27  H1  UNL     1      -6.899 -23.009 -22.300  1.00  0.00     0.163 HD
BRANCH  25  28
HETATM   28  C13 UNL     1      -5.595 -20.646 -21.919  1.00  0.00     0.281 C 
BRANCH  28  29
HETATM   29  N2  UNL     1      -5.181 -20.494 -23.281  1.00  0.00    -0.066 N 
ATOM     30  H23 UNL     1      -5.985 -20.371 -23.897  1.00  0.00     0.275 HD
ATOM     31  H22 UNL     1      -4.722 -19.595 -23.427  1.00  0.00     0.275 HD
ATOM     32  H21 UNL     1      -4.590 -21.262 -23.599  1.00  0.00     0.275 HD
ENDBRANCH  28  29
BRANCH  28  33
HETATM   33  C14 UNL     1      -4.720 -21.704 -21.284  1.00  0.00     0.121 C 
BRANCH  33  34
HETATM   34  C15 UNL     1      -4.853 -21.529 -19.795  1.00  0.00     0.115 A 
HETATM   35  N3  UNL     1      -5.777 -22.034 -18.973  1.00  0.00    -0.272 N 
HETATM   36  N4  UNL     1      -5.488 -21.610 -17.757  1.00  0.00    -0.227 N 
ATOM     37  H3  UNL     1      -6.560 -22.635 -19.236  1.00  0.00     0.190 HD
HETATM   38  N5  UNL     1      -4.416 -20.862 -17.809  1.00  0.00    -0.227 N 
ATOM     39  H4  UNL     1      -6.016 -21.830 -16.913  1.00  0.00     0.210 HD
HETATM   40  N6  UNL     1      -4.022 -20.808 -19.056  1.00  0.00    -0.272 N 
ATOM     41  H5  UNL     1      -3.967 -20.402 -17.017  1.00  0.00     0.210 HD
ATOM     42  H6  UNL     1      -3.209 -20.297 -19.401  1.00  0.00     0.190 HD
ENDBRANCH  33  34
ENDBRANCH  28  33
ENDBRANCH  25  28
ENDBRANCH   1  24
TORSDOF 13
ENDMDL
