MODEL 2
REMARK VINA RESULT: -8.594208630     11.553     15.736
REMARK  13 active torsions:
REMARK  status: ('A' for Active; 'I' for Inactive)
REMARK    1  A    between atoms: C2_2  and  C3_3 
REMARK    2  A    between atoms: C2_2  and  C16_34 
REMARK    3  A    between atoms: C3_3  and  P1_4 
REMARK    4  A    between atoms: P1_4  and  C4_7 
REMARK    5  A    between atoms: C4_7  and  C5_8 
REMARK    6  A    between atoms: C4_7  and  N1_15 
REMARK    7  A    between atoms: C5_8  and  C6_9 
REMARK       I    between atoms: N1_15  and  C12_17 
REMARK    8  A    between atoms: C12_17  and  C13_19 
REMARK    9  A    between atoms: C13_19  and  N2_20 
REMARK   10  A    between atoms: C13_19  and  C14_24 
REMARK   11  A    between atoms: C14_24  and  C15_25 
REMARK       I    between atoms: C16_34  and  N7_36 
REMARK   12  A    between atoms: N7_36  and  C17_38 
REMARK   13  A    between atoms: C17_38  and  C19_40 
ROOT
HETATM    1  C4  UNL     1       2.797 -15.827 -22.330  1.00  0.00     0.180 C 
ENDROOT
BRANCH   1   2
HETATM    2  P1  UNL     1       3.345 -14.983 -23.814  1.00  0.00     0.130 P 
HETATM    3  O1  UNL     1       3.506 -13.504 -23.461  1.00  0.00    -0.666 OA
HETATM    4  O2  UNL     1       2.243 -15.075 -25.079  1.00  0.00    -0.666 OA
BRANCH   2   5
HETATM    5  C3  UNL     1       4.982 -15.536 -24.352  1.00  0.00     0.119 C 
BRANCH   5   6
HETATM    6  C2  UNL     1       5.952 -14.397 -24.507  1.00  0.00     0.083 C 
HETATM    7  C1  UNL     1       7.262 -14.630 -23.843  1.00  0.00     0.020 C 
BRANCH   6   8
HETATM    8  C16 UNL     1       6.180 -14.158 -25.953  1.00  0.00     0.222 C 
HETATM    9  O4  UNL     1       7.216 -14.555 -26.511  1.00  0.00    -0.273 OA
HETATM   10  N7  UNL     1       5.215 -13.464 -26.762  1.00  0.00    -0.348 N 
ATOM     11  H7  UNL     1       4.358 -13.133 -26.319  1.00  0.00     0.163 HD
BRANCH  10  12
HETATM   12  C17 UNL     1       5.399 -13.216 -28.157  1.00  0.00     0.169 C 
HETATM   13  C18 UNL     1       4.451 -14.056 -29.015  1.00  0.00     0.042 C 
BRANCH  12  14
HETATM   14  C19 UNL     1       5.298 -11.793 -28.523  1.00  0.00     0.253 C 
HETATM   15  N8  UNL     1       6.435 -11.030 -28.884  1.00  0.00    -0.060 NA
HETATM   16  O5  UNL     1       4.170 -11.247 -28.511  1.00  0.00    -0.275 OA
ENDBRANCH  12  14
ENDBRANCH  10  12
ENDBRANCH   6   8
ENDBRANCH   5   6
ENDBRANCH   2   5
ENDBRANCH   1   2
BRANCH   1  17
HETATM   17  C5  UNL     1       3.867 -16.740 -21.823  1.00  0.00     0.074 C 
BRANCH  17  18
HETATM   18  C6  UNL     1       4.765 -16.158 -20.817  1.00  0.00    -0.056 A 
HETATM   19  C7  UNL     1       4.271 -15.351 -19.819  1.00  0.00     0.007 A 
HETATM   20  C8  UNL     1       5.089 -14.794 -18.854  1.00  0.00     0.001 A 
HETATM   21  C9  UNL     1       6.438 -15.040 -18.871  1.00  0.00     0.000 A 
HETATM   22  C10 UNL     1       6.956 -15.840 -19.853  1.00  0.00     0.001 A 
HETATM   23  C11 UNL     1       6.116 -16.399 -20.828  1.00  0.00     0.007 A 
ENDBRANCH  17  18
ENDBRANCH   1  17
BRANCH   1  24
HETATM   24  N1  UNL     1       1.660 -16.663 -22.662  1.00  0.00    -0.345 N 
HETATM   25  C12 UNL     1       0.320 -16.197 -22.670  1.00  0.00     0.249 C 
HETATM   26  O3  UNL     1       0.139 -14.989 -22.369  1.00  0.00    -0.271 OA
ATOM     27  H1  UNL     1       1.832 -17.639 -22.904  1.00  0.00     0.163 HD
BRANCH  25  28
HETATM   28  C13 UNL     1      -0.832 -17.072 -23.013  1.00  0.00     0.281 C 
BRANCH  28  29
HETATM   29  N2  UNL     1      -0.639 -17.775 -24.245  1.00  0.00    -0.066 N 
ATOM     30  H23 UNL     1       0.082 -17.329 -24.813  1.00  0.00     0.275 HD
ATOM     31  H22 UNL     1      -0.189 -18.677 -24.087  1.00  0.00     0.275 HD
ATOM     32  H21 UNL     1      -1.505 -17.886 -24.773  1.00  0.00     0.275 HD
ENDBRANCH  28  29
BRANCH  28  33
HETATM   33  C14 UNL     1      -2.124 -16.293 -23.123  1.00  0.00     0.121 C 
BRANCH  33  34
HETATM   34  C15 UNL     1      -2.773 -16.353 -21.766  1.00  0.00     0.115 A 
HETATM   35  N3  UNL     1      -2.861 -17.387 -20.926  1.00  0.00    -0.272 N 
HETATM   36  N4  UNL     1      -3.518 -16.967 -19.861  1.00  0.00    -0.227 N 
ATOM     37  H3  UNL     1      -2.491 -18.326 -21.078  1.00  0.00     0.190 HD
HETATM   38  N5  UNL     1      -3.834 -15.708 -20.022  1.00  0.00    -0.227 N 
ATOM     39  H4  UNL     1      -3.743 -17.533 -19.043  1.00  0.00     0.210 HD
HETATM   40  N6  UNL     1      -3.380 -15.325 -21.189  1.00  0.00    -0.272 N 
ATOM     41  H5  UNL     1      -4.344 -15.127 -19.357  1.00  0.00     0.210 HD
ATOM     42  H6  UNL     1      -3.477 -14.391 -21.588  1.00  0.00     0.190 HD
ENDBRANCH  33  34
ENDBRANCH  28  33
ENDBRANCH  25  28
ENDBRANCH   1  24
TORSDOF 13
ENDMDL
