MODEL 3
REMARK VINA RESULT: -8.522613723     14.845     17.001
REMARK  13 active torsions:
REMARK  status: ('A' for Active; 'I' for Inactive)
REMARK    1  A    between atoms: C2_2  and  C3_3 
REMARK    2  A    between atoms: C2_2  and  C16_34 
REMARK    3  A    between atoms: C3_3  and  P1_4 
REMARK    4  A    between atoms: P1_4  and  C4_7 
REMARK    5  A    between atoms: C4_7  and  C5_8 
REMARK    6  A    between atoms: C4_7  and  N1_15 
REMARK    7  A    between atoms: C5_8  and  C6_9 
REMARK       I    between atoms: N1_15  and  C12_17 
REMARK    8  A    between atoms: C12_17  and  C13_19 
REMARK    9  A    between atoms: C13_19  and  N2_20 
REMARK   10  A    between atoms: C13_19  and  C14_24 
REMARK   11  A    between atoms: C14_24  and  C15_25 
REMARK       I    between atoms: C16_34  and  N7_36 
REMARK   12  A    between atoms: N7_36  and  C17_38 
REMARK   13  A    between atoms: C17_38  and  C19_40 
ROOT
HETATM    1  C4  UNL     1       4.316 -13.090 -23.187  1.00  0.00     0.180 C 
ENDROOT
BRANCH   1   2
HETATM    2  P1  UNL     1       3.582 -13.483 -21.599  1.00  0.00     0.130 P 
HETATM    3  O1  UNL     1       2.090 -13.720 -21.835  1.00  0.00    -0.666 OA
HETATM    4  O2  UNL     1       3.715 -12.238 -20.477  1.00  0.00    -0.666 OA
BRANCH   2   5
HETATM    5  C3  UNL     1       4.219 -15.031 -20.913  1.00  0.00     0.119 C 
BRANCH   5   6
HETATM    6  C2  UNL     1       5.337 -14.808 -19.931  1.00  0.00     0.083 C 
HETATM    7  C1  UNL     1       5.072 -15.376 -18.582  1.00  0.00     0.020 C 
BRANCH   6   8
HETATM    8  C16 UNL     1       6.576 -15.416 -20.474  1.00  0.00     0.222 C 
HETATM    9  O4  UNL     1       7.546 -14.711 -20.798  1.00  0.00    -0.273 OA
HETATM   10  N7  UNL     1       6.704 -16.838 -20.645  1.00  0.00    -0.348 N 
ATOM     11  H7  UNL     1       5.917 -17.431 -20.383  1.00  0.00     0.163 HD
BRANCH  10  12
HETATM   12  C17 UNL     1       7.881 -17.460 -21.164  1.00  0.00     0.169 C 
HETATM   13  C18 UNL     1       8.420 -18.536 -20.220  1.00  0.00     0.042 C 
BRANCH  12  14
HETATM   14  C19 UNL     1       7.711 -18.005 -22.521  1.00  0.00     0.253 C 
HETATM   15  N8  UNL     1       8.798 -18.540 -23.255  1.00  0.00    -0.060 NA
HETATM   16  O5  UNL     1       6.569 -17.990 -23.038  1.00  0.00    -0.275 OA
ENDBRANCH  12  14
ENDBRANCH  10  12
ENDBRANCH   6   8
ENDBRANCH   5   6
ENDBRANCH   2   5
ENDBRANCH   1   2
BRANCH   1  17
HETATM   17  C5  UNL     1       3.850 -14.054 -24.230  1.00  0.00     0.074 C 
BRANCH  17  18
HETATM   18  C6  UNL     1       4.106 -13.650 -25.619  1.00  0.00    -0.056 A 
HETATM   19  C7  UNL     1       3.963 -12.337 -26.005  1.00  0.00     0.007 A 
HETATM   20  C8  UNL     1       4.203 -11.924 -27.301  1.00  0.00     0.001 A 
HETATM   21  C9  UNL     1       4.599 -12.832 -28.250  1.00  0.00     0.000 A 
HETATM   22  C10 UNL     1       4.749 -14.145 -27.893  1.00  0.00     0.001 A 
HETATM   23  C11 UNL     1       4.502 -14.553 -26.573  1.00  0.00     0.007 A 
ENDBRANCH  17  18
ENDBRANCH   1  17
BRANCH   1  24
HETATM   24  N1  UNL     1       5.754 -13.248 -23.087  1.00  0.00    -0.345 N 
HETATM   25  C12 UNL     1       6.658 -12.158 -23.000  1.00  0.00     0.249 C 
HETATM   26  O3  UNL     1       6.156 -11.005 -23.012  1.00  0.00    -0.271 OA
ATOM     27  H1  UNL     1       6.136 -14.193 -23.079  1.00  0.00     0.163 HD
BRANCH  25  28
HETATM   28  C13 UNL     1       8.130 -12.343 -22.900  1.00  0.00     0.281 C 
BRANCH  28  29
HETATM   29  N2  UNL     1       8.797 -11.180 -22.400  1.00  0.00    -0.066 N 
ATOM     30  H23 UNL     1       8.381 -10.867 -21.523  1.00  0.00     0.275 HD
ATOM     31  H22 UNL     1       9.733 -11.409 -22.065  1.00  0.00     0.275 HD
ATOM     32  H21 UNL     1       8.828 -10.422 -23.082  1.00  0.00     0.275 HD
ENDBRANCH  28  29
BRANCH  28  33
HETATM   33  C14 UNL     1       8.749 -12.694 -24.235  1.00  0.00     0.121 C 
BRANCH  33  34
HETATM   34  C15 UNL     1       9.350 -14.066 -24.078  1.00  0.00     0.115 A 
HETATM   35  N3  UNL     1       9.987 -14.584 -23.025  1.00  0.00    -0.272 N 
HETATM   36  N4  UNL     1      10.334 -15.816 -23.350  1.00  0.00    -0.227 N 
ATOM     37  H3  UNL     1      10.171 -14.117 -22.137  1.00  0.00     0.190 HD
HETATM   38  N5  UNL     1       9.929 -16.067 -24.568  1.00  0.00    -0.227 N 
ATOM     39  H4  UNL     1      10.838 -16.467 -22.748  1.00  0.00     0.210 HD
HETATM   40  N6  UNL     1       9.324 -14.998 -25.021  1.00  0.00    -0.272 N 
ATOM     41  H5  UNL     1      10.060 -16.942 -25.076  1.00  0.00     0.210 HD
ATOM     42  H6  UNL     1       8.903 -14.899 -25.944  1.00  0.00     0.190 HD
ENDBRANCH  33  34
ENDBRANCH  28  33
ENDBRANCH  25  28
ENDBRANCH   1  24
TORSDOF 13
ENDMDL
