MODEL 2
REMARK VINA RESULT: -13.150705808      0.715      1.019
REMARK  8 active torsions:
REMARK  status: ('A' for Active; 'I' for Inactive)
REMARK       I    between atoms: C1_2  and  N1_3 
REMARK    1  A    between atoms: C1_2  and  C18_28 
REMARK    2  A    between atoms: N1_3  and  C2_5 
REMARK    3  A    between atoms: C2_5  and  C3_6 
REMARK    4  A    between atoms: C2_5  and  C12_17 
REMARK    5  A    between atoms: C3_6  and  C4_7 
REMARK       I    between atoms: C12_17  and  N3_19 
REMARK    6  A    between atoms: N3_19  and  C13_21 
REMARK    7  A    between atoms: C21_31  and  N5_32 
REMARK    8  A    between atoms: N6_35  and  C24_36 
ROOT
HETATM    1  O1  UNL     1      -9.010  57.093  -1.734  1.00  0.00    -0.268 OA
HETATM    2  C1  UNL     1      -8.329  57.375  -2.790  1.00  0.00     0.255 C 
HETATM    3  N1  UNL     1      -8.129  58.739  -3.095  1.00  0.00    -0.343 N 
ATOM      4  H1  UNL     1      -7.592  59.007  -3.920  1.00  0.00     0.163 HD
ENDROOT
BRANCH   3   5
HETATM    5  C2  UNL     1      -8.703  59.778  -2.210  1.00  0.00     0.181 C 
BRANCH   5   6
HETATM    6  C3  UNL     1      -9.016  60.942  -3.087  1.00  0.00     0.075 C 
BRANCH   6   7
HETATM    7  C4  UNL     1      -9.784  62.032  -2.503  1.00  0.00    -0.028 A 
HETATM    8  C5  UNL     1     -11.172  62.057  -2.314  1.00  0.00     0.096 A 
HETATM    9  N2  UNL     1     -11.476  63.230  -1.735  1.00  0.00    -0.365 N 
HETATM   10  C6  UNL     1     -10.377  63.978  -1.532  1.00  0.00     0.042 A 
ATOM     11  H2  UNL     1     -12.421  63.518  -1.483  1.00  0.00     0.165 HD
HETATM   12  C7  UNL     1     -10.177  65.240  -0.977  1.00  0.00     0.030 A 
HETATM   13  C11 UNL     1      -9.303  63.228  -2.015  1.00  0.00    -0.002 A 
HETATM   14  C8  UNL     1      -8.915  65.759  -0.898  1.00  0.00     0.002 A 
HETATM   15  C9  UNL     1      -7.832  65.030  -1.371  1.00  0.00     0.001 A 
HETATM   16  C10 UNL     1      -8.047  63.786  -1.917  1.00  0.00     0.014 A 
ENDBRANCH   6   7
ENDBRANCH   5   6
BRANCH   5  17
HETATM   17  C12 UNL     1      -7.631  60.077  -1.187  1.00  0.00     0.245 C 
HETATM   18  O2  UNL     1      -7.748  59.676  -0.011  1.00  0.00    -0.271 OA
HETATM   19  N3  UNL     1      -6.504  60.818  -1.591  1.00  0.00    -0.325 N 
ATOM     20  H3  UNL     1      -6.467  61.122  -2.564  1.00  0.00     0.169 HD
BRANCH  19  21
HETATM   21  C13 UNL     1      -5.424  61.174  -0.758  1.00  0.00     0.037 A 
HETATM   22  C14 UNL     1      -4.108  60.851  -1.135  1.00  0.00     0.046 A 
HETATM   23  C15 UNL     1      -3.010  61.176  -0.376  1.00  0.00     0.090 A 
HETATM   24  N4  UNL     1      -3.158  61.832   0.785  1.00  0.00    -0.375 N 
HETATM   25  C16 UNL     1      -4.390  62.156   1.175  1.00  0.00     0.090 A 
ATOM     26  H4  UNL     1      -2.348  62.077   1.354  1.00  0.00     0.164 HD
HETATM   27  C17 UNL     1      -5.537  61.838   0.421  1.00  0.00     0.046 A 
ENDBRANCH  19  21
ENDBRANCH   5  17
ENDBRANCH   3   5
BRANCH   2  28
HETATM   28  C18 UNL     1      -7.830  56.255  -3.569  1.00  0.00     0.070 A 
HETATM   29  C19 UNL     1      -8.792  55.396  -4.121  1.00  0.00     0.022 A 
HETATM   30  C20 UNL     1      -8.362  54.319  -4.844  1.00  0.00     0.030 A 
HETATM   31  C21 UNL     1      -7.042  54.027  -5.060  1.00  0.00     0.033 A 
HETATM   32  C32 UNL     1      -6.112  54.878  -4.514  1.00  0.00     0.072 A 
HETATM   33  C33 UNL     1      -6.486  55.998  -3.763  1.00  0.00     0.134 A 
HETATM   34  F3  UNL     1      -5.549  56.818  -3.249  1.00  0.00    -0.205 F 
BRANCH  31  35
HETATM   35  N5  UNL     1      -6.636  52.896  -5.820  1.00  0.00    -0.378 N 
HETATM   36  C22 UNL     1      -5.989  53.173  -7.077  1.00  0.00     0.143 C 
HETATM   37  C23 UNL     1      -5.355  51.934  -7.640  1.00  0.00     0.143 C 
HETATM   38  N6  UNL     1      -6.319  50.865  -7.480  1.00  0.00    -0.375 N 
HETATM   39  C30 UNL     1      -6.678  50.428  -6.153  1.00  0.00     0.143 C 
HETATM   40  C31 UNL     1      -6.917  51.603  -5.255  1.00  0.00     0.143 C 
BRANCH  38  41
HETATM   41  C24 UNL     1      -6.885  50.282  -8.636  1.00  0.00     0.069 A 
HETATM   42  C25 UNL     1      -6.167  49.379  -9.401  1.00  0.00     0.035 A 
HETATM   43  C26 UNL     1      -6.763  48.833 -10.517  1.00  0.00     0.044 A 
HETATM   44  C27 UNL     1      -8.052  49.195 -10.846  1.00  0.00     0.119 A 
HETATM   45  F1  UNL     1      -8.662  48.667 -11.947  1.00  0.00    -0.206 F 
HETATM   46  C28 UNL     1      -8.763  50.104 -10.069  1.00  0.00     0.086 A 
HETATM   47  C29 UNL     1      -8.185  50.657  -8.954  1.00  0.00     0.145 A 
HETATM   48  F2  UNL     1      -8.854  51.536  -8.190  1.00  0.00    -0.204 F 
ENDBRANCH  38  41
ENDBRANCH  31  35
ENDBRANCH   2  28
TORSDOF 8
ENDMDL
