MODEL 1
REMARK VINA RESULT: -13.275040401      0.000      0.000
REMARK  8 active torsions:
REMARK  status: ('A' for Active; 'I' for Inactive)
REMARK       I    between atoms: C1_2  and  N1_3 
REMARK    1  A    between atoms: C1_2  and  C18_28 
REMARK    2  A    between atoms: N1_3  and  C2_5 
REMARK    3  A    between atoms: C2_5  and  C3_6 
REMARK    4  A    between atoms: C2_5  and  C12_17 
REMARK    5  A    between atoms: C3_6  and  C4_7 
REMARK       I    between atoms: C12_17  and  N3_19 
REMARK    6  A    between atoms: N3_19  and  C13_21 
REMARK    7  A    between atoms: C21_31  and  N5_32 
REMARK    8  A    between atoms: N6_35  and  C24_36 
ROOT
HETATM    1  O1  UNL     1      -9.050  57.127  -1.767  1.00  0.00    -0.268 OA
HETATM    2  C1  UNL     1      -8.360  57.415  -2.815  1.00  0.00     0.255 C 
HETATM    3  N1  UNL     1      -8.154  58.781  -3.107  1.00  0.00    -0.343 N 
ATOM      4  H1  UNL     1      -7.609  59.054  -3.925  1.00  0.00     0.163 HD
ENDROOT
BRANCH   3   5
HETATM    5  C2  UNL     1      -8.733  59.815  -2.219  1.00  0.00     0.181 C 
BRANCH   5   6
HETATM    6  C3  UNL     1      -9.045  60.983  -3.090  1.00  0.00     0.075 C 
BRANCH   6   7
HETATM    7  C4  UNL     1      -9.790  62.082  -2.494  1.00  0.00    -0.028 A 
HETATM    8  C5  UNL     1     -11.175  62.130  -2.293  1.00  0.00     0.096 A 
HETATM    9  N2  UNL     1     -11.455  63.305  -1.706  1.00  0.00    -0.365 N 
HETATM   10  C6  UNL     1     -10.341  64.033  -1.507  1.00  0.00     0.042 A 
ATOM     11  H2  UNL     1     -12.392  63.608  -1.444  1.00  0.00     0.165 HD
HETATM   12  C7  UNL     1     -10.115  65.288  -0.948  1.00  0.00     0.030 A 
HETATM   13  C11 UNL     1      -9.284  63.267  -2.003  1.00  0.00    -0.002 A 
HETATM   14  C8  UNL     1      -8.844  65.785  -0.876  1.00  0.00     0.002 A 
HETATM   15  C9  UNL     1      -7.777  65.040  -1.362  1.00  0.00     0.001 A 
HETATM   16  C10 UNL     1      -8.018  63.803  -1.913  1.00  0.00     0.014 A 
ENDBRANCH   6   7
ENDBRANCH   5   6
BRANCH   5  17
HETATM   17  C12 UNL     1      -7.664  60.111  -1.190  1.00  0.00     0.245 C 
HETATM   18  O2  UNL     1      -7.802  59.737  -0.008  1.00  0.00    -0.271 OA
HETATM   19  N3  UNL     1      -6.518  60.819  -1.597  1.00  0.00    -0.325 N 
ATOM     20  H3  UNL     1      -6.464  61.102  -2.576  1.00  0.00     0.169 HD
BRANCH  19  21
HETATM   21  C13 UNL     1      -5.438  61.168  -0.761  1.00  0.00     0.037 A 
HETATM   22  C14 UNL     1      -4.119  60.874  -1.153  1.00  0.00     0.046 A 
HETATM   23  C15 UNL     1      -3.022  61.194  -0.390  1.00  0.00     0.090 A 
HETATM   24  N4  UNL     1      -3.174  61.816   0.789  1.00  0.00    -0.375 N 
HETATM   25  C16 UNL     1      -4.408  62.111   1.193  1.00  0.00     0.090 A 
ATOM     26  H4  UNL     1      -2.365  62.057   1.361  1.00  0.00     0.164 HD
HETATM   27  C17 UNL     1      -5.555  61.797   0.437  1.00  0.00     0.046 A 
ENDBRANCH  19  21
ENDBRANCH   5  17
ENDBRANCH   3   5
BRANCH   2  28
HETATM   28  C18 UNL     1      -7.856  56.300  -3.598  1.00  0.00     0.070 A 
HETATM   29  C19 UNL     1      -8.813  55.416  -4.118  1.00  0.00     0.022 A 
HETATM   30  C20 UNL     1      -8.379  54.343  -4.844  1.00  0.00     0.030 A 
HETATM   31  C21 UNL     1      -7.058  54.079  -5.093  1.00  0.00     0.033 A 
HETATM   32  C32 UNL     1      -6.134  54.954  -4.578  1.00  0.00     0.072 A 
HETATM   33  C33 UNL     1      -6.513  56.072  -3.826  1.00  0.00     0.134 A 
HETATM   34  F3  UNL     1      -5.580  56.917  -3.344  1.00  0.00    -0.205 F 
BRANCH  31  35
HETATM   35  N5  UNL     1      -6.648  52.951  -5.855  1.00  0.00    -0.378 N 
HETATM   36  C22 UNL     1      -6.038  53.232  -7.130  1.00  0.00     0.143 C 
HETATM   37  C23 UNL     1      -5.392  52.002  -7.700  1.00  0.00     0.143 C 
HETATM   38  N6  UNL     1      -6.330  50.915  -7.509  1.00  0.00    -0.375 N 
HETATM   39  C30 UNL     1      -6.646  50.480  -6.170  1.00  0.00     0.143 C 
HETATM   40  C31 UNL     1      -6.887  51.657  -5.275  1.00  0.00     0.143 C 
BRANCH  38  41
HETATM   41  C24 UNL     1      -6.912  50.312  -8.646  1.00  0.00     0.069 A 
HETATM   42  C25 UNL     1      -8.248  50.514  -8.952  1.00  0.00     0.035 A 
HETATM   43  C26 UNL     1      -8.770  49.907 -10.074  1.00  0.00     0.044 A 
HETATM   44  C27 UNL     1      -7.960  49.119 -10.862  1.00  0.00     0.119 A 
HETATM   45  F1  UNL     1      -8.455  48.510 -11.978  1.00  0.00    -0.206 F 
HETATM   46  C28 UNL     1      -6.619  48.925 -10.544  1.00  0.00     0.086 A 
HETATM   47  C29 UNL     1      -6.082  49.521  -9.430  1.00  0.00     0.145 A 
HETATM   48  F2  UNL     1      -4.790  49.346  -9.105  1.00  0.00    -0.204 F 
ENDBRANCH  38  41
ENDBRANCH  31  35
ENDBRANCH   2  28
TORSDOF 8
ENDMDL
