MODEL 3
REMARK VINA RESULT: -13.111832044      1.142      1.352
REMARK  8 active torsions:
REMARK  status: ('A' for Active; 'I' for Inactive)
REMARK       I    between atoms: C1_2  and  N1_3 
REMARK    1  A    between atoms: C1_2  and  C18_28 
REMARK    2  A    between atoms: N1_3  and  C2_5 
REMARK    3  A    between atoms: C2_5  and  C3_6 
REMARK    4  A    between atoms: C2_5  and  C12_17 
REMARK    5  A    between atoms: C3_6  and  C4_7 
REMARK       I    between atoms: C12_17  and  N3_19 
REMARK    6  A    between atoms: N3_19  and  C13_21 
REMARK    7  A    between atoms: C21_31  and  N5_32 
REMARK    8  A    between atoms: N6_35  and  C24_36 
ROOT
HETATM    1  O1  UNL     1      -9.123  57.529  -1.524  1.00  0.00    -0.268 OA
HETATM    2  C1  UNL     1      -8.530  57.707  -2.652  1.00  0.00     0.255 C 
HETATM    3  N1  UNL     1      -8.170  59.027  -3.001  1.00  0.00    -0.343 N 
ATOM      4  H1  UNL     1      -7.694  59.213  -3.884  1.00  0.00     0.163 HD
ENDROOT
BRANCH   3   5
HETATM    5  C2  UNL     1      -8.487  60.140  -2.078  1.00  0.00     0.181 C 
BRANCH   5   6
HETATM    6  C3  UNL     1      -8.860  61.299  -2.938  1.00  0.00     0.075 C 
BRANCH   6   7
HETATM    7  C4  UNL     1      -9.713  62.321  -2.349  1.00  0.00    -0.028 A 
HETATM    8  C5  UNL     1     -11.100  62.240  -2.173  1.00  0.00     0.096 A 
HETATM    9  N2  UNL     1     -11.497  63.380  -1.585  1.00  0.00    -0.365 N 
HETATM   10  C6  UNL     1     -10.459  64.207  -1.364  1.00  0.00     0.042 A 
ATOM     11  H2  UNL     1     -12.463  63.593  -1.338  1.00  0.00     0.165 HD
HETATM   12  C7  UNL     1     -10.360  65.474  -0.795  1.00  0.00     0.030 A 
HETATM   13  C11 UNL     1      -9.328  63.545  -1.845  1.00  0.00    -0.002 A 
HETATM   14  C8  UNL     1      -9.142  66.087  -0.700  1.00  0.00     0.002 A 
HETATM   15  C9  UNL     1      -8.003  65.447  -1.171  1.00  0.00     0.001 A 
HETATM   16  C10 UNL     1      -8.118  64.195  -1.731  1.00  0.00     0.014 A 
ENDBRANCH   6   7
ENDBRANCH   5   6
BRANCH   5  17
HETATM   17  C12 UNL     1      -7.225  60.377  -1.278  1.00  0.00     0.245 C 
HETATM   18  O2  UNL     1      -7.061  59.818  -0.174  1.00  0.00    -0.271 OA
HETATM   19  N3  UNL     1      -6.246  61.239  -1.807  1.00  0.00    -0.325 N 
ATOM     20  H3  UNL     1      -6.439  61.669  -2.712  1.00  0.00     0.169 HD
BRANCH  19  21
HETATM   21  C13 UNL     1      -5.022  61.556  -1.185  1.00  0.00     0.037 A 
HETATM   22  C14 UNL     1      -4.950  62.624  -0.272  1.00  0.00     0.046 A 
HETATM   23  C15 UNL     1      -3.792  62.980   0.375  1.00  0.00     0.090 A 
HETATM   24  N4  UNL     1      -2.656  62.303   0.153  1.00  0.00    -0.375 N 
HETATM   25  C16 UNL     1      -2.684  61.284  -0.705  1.00  0.00     0.090 A 
ATOM     26  H4  UNL     1      -1.791  62.561   0.630  1.00  0.00     0.164 HD
HETATM   27  C17 UNL     1      -3.854  60.892  -1.385  1.00  0.00     0.046 A 
ENDBRANCH  19  21
ENDBRANCH   5  17
ENDBRANCH   3   5
BRANCH   2  28
HETATM   28  C18 UNL     1      -8.286  56.525  -3.461  1.00  0.00     0.070 A 
HETATM   29  C19 UNL     1      -9.382  55.679  -3.681  1.00  0.00     0.022 A 
HETATM   30  C20 UNL     1      -9.189  54.546  -4.420  1.00  0.00     0.030 A 
HETATM   31  C21 UNL     1      -7.983  54.187  -4.960  1.00  0.00     0.033 A 
HETATM   32  C32 UNL     1      -6.920  55.026  -4.736  1.00  0.00     0.072 A 
HETATM   33  C33 UNL     1      -7.050  56.202  -3.987  1.00  0.00     0.134 A 
HETATM   34  F3  UNL     1      -5.988  57.009  -3.796  1.00  0.00    -0.205 F 
BRANCH  31  35
HETATM   35  N5  UNL     1      -7.825  52.999  -5.725  1.00  0.00    -0.378 N 
HETATM   36  C22 UNL     1      -6.504  52.747  -6.242  1.00  0.00     0.143 C 
HETATM   37  C23 UNL     1      -6.392  51.347  -6.772  1.00  0.00     0.143 C 
HETATM   38  N6  UNL     1      -7.591  51.098  -7.545  1.00  0.00    -0.375 N 
HETATM   39  C30 UNL     1      -8.869  51.051  -6.874  1.00  0.00     0.143 C 
HETATM   40  C31 UNL     1      -8.995  52.181  -5.899  1.00  0.00     0.143 C 
BRANCH  38  41
HETATM   41  C24 UNL     1      -7.475  50.911  -8.940  1.00  0.00     0.069 A 
HETATM   42  C25 UNL     1      -7.362  51.994  -9.796  1.00  0.00     0.035 A 
HETATM   43  C26 UNL     1      -7.247  51.761 -11.149  1.00  0.00     0.044 A 
HETATM   44  C27 UNL     1      -7.246  50.466 -11.619  1.00  0.00     0.119 A 
HETATM   45  F1  UNL     1      -7.132  50.212 -12.955  1.00  0.00    -0.206 F 
HETATM   46  C28 UNL     1      -7.360  49.386 -10.750  1.00  0.00     0.086 A 
HETATM   47  C29 UNL     1      -7.476  49.600  -9.399  1.00  0.00     0.145 A 
HETATM   48  F2  UNL     1      -7.587  48.571  -8.541  1.00  0.00    -0.204 F 
ENDBRANCH  38  41
ENDBRANCH  31  35
ENDBRANCH   2  28
TORSDOF 8
ENDMDL
