MODEL 1
REMARK VINA RESULT: -8.529503234      0.000      0.000
REMARK  13 active torsions:
REMARK  status: ('A' for Active; 'I' for Inactive)
REMARK    1  A    between atoms: O1_1  and  C1_3 
REMARK    2  A    between atoms: C1_3  and  C2_4 
REMARK    3  A    between atoms: C3_6  and  O3_7 
REMARK    4  A    between atoms: O3_7  and  C4_8 
REMARK    5  A    between atoms: C5_9  and  O4_10 
REMARK    6  A    between atoms: C7_14  and  O6_15 
REMARK    7  A    between atoms: O6_15  and  C8_16 
REMARK    8  A    between atoms: C10_19  and  O8_20 
REMARK    9  A    between atoms: C11_22  and  O9_23 
REMARK   10  A    between atoms: C12_25  and  O10_26 
REMARK   11  A    between atoms: C13_28  and  O11_29 
REMARK   12  A    between atoms: C14_31  and  O12_32 
REMARK   13  A    between atoms: C15_34  and  O13_35 
ROOT
HETATM    1  C4  UNL     1     -13.926  19.890 -10.039  1.00  0.00     0.189 C 
HETATM    2  C5  UNL     1     -14.804  21.069 -10.460  1.00  0.00     0.173 C 
HETATM    3  C6  UNL     1     -13.993  22.084 -11.223  1.00  0.00     0.205 C 
HETATM    4  O5  UNL     1     -13.045  21.519 -12.051  1.00  0.00    -0.356 OA
HETATM    5  C7  UNL     1     -13.395  20.220 -12.445  1.00  0.00     0.291 C 
HETATM    6  C13 UNL     1     -13.176  19.349 -11.221  1.00  0.00     0.205 C 
ENDROOT
BRANCH   1   7
HETATM    7  O3  UNL     1     -13.113  20.345  -9.024  1.00  0.00    -0.348 OA
BRANCH   7   8
HETATM    8  C3  UNL     1     -13.753  20.564  -7.826  1.00  0.00     0.292 C 
HETATM    9  O2  UNL     1     -12.970  21.406  -7.066  1.00  0.00    -0.348 OA
HETATM   10  C2  UNL     1     -12.863  20.876  -5.798  1.00  0.00     0.179 C 
HETATM   11  C15 UNL     1     -13.051  19.399  -5.898  1.00  0.00     0.182 C 
HETATM   12  C14 UNL     1     -13.875  19.238  -7.126  1.00  0.00     0.204 C 
BRANCH  10  13
HETATM   13  C1  UNL     1     -13.926  21.452  -4.910  1.00  0.00     0.198 C 
BRANCH  13  14
HETATM   14  O1  UNL     1     -13.821  22.831  -4.942  1.00  0.00    -0.398 OA
ATOM     15  H1  UNL     1     -14.607  23.201  -4.556  1.00  0.00     0.209 HD
ENDBRANCH  13  14
ENDBRANCH  10  13
BRANCH  11  16
HETATM   16  O13 UNL     1     -11.815  18.766  -6.054  1.00  0.00    -0.390 OA
ATOM     17  H13 UNL     1     -11.888  18.058  -6.683  1.00  0.00     0.210 HD
ENDBRANCH  11  16
BRANCH  12  18
HETATM   18  O12 UNL     1     -15.203  18.910  -6.848  1.00  0.00    -0.388 OA
ATOM     19  H12 UNL     1     -15.663  18.598  -7.619  1.00  0.00     0.210 HD
ENDBRANCH  12  18
ENDBRANCH   7   8
ENDBRANCH   1   7
BRANCH   2  20
HETATM   20  O4  UNL     1     -15.933  20.652 -11.146  1.00  0.00    -0.391 OA
ATOM     21  H4  UNL     1     -16.206  21.288 -11.797  1.00  0.00     0.210 HD
ENDBRANCH   2  20
BRANCH   6  22
HETATM   22  O11 UNL     1     -13.549  18.028 -11.510  1.00  0.00    -0.388 OA
ATOM     23  H11 UNL     1     -13.974  17.961 -12.357  1.00  0.00     0.210 HD
ENDBRANCH   6  22
BRANCH   5  24
HETATM   24  O6  UNL     1     -12.515  19.782 -13.419  1.00  0.00    -0.348 OA
BRANCH  24  25
HETATM   25  C8  UNL     1     -13.099  19.512 -14.628  1.00  0.00     0.180 C 
HETATM   26  C9  UNL     1     -14.577  19.345 -14.604  1.00  0.00     0.205 C 
HETATM   27  O7  UNL     1     -14.860  17.984 -14.403  1.00  0.00    -0.356 OA
HETATM   28  C10 UNL     1     -14.814  17.379 -15.662  1.00  0.00     0.288 C 
HETATM   29  C11 UNL     1     -13.448  17.709 -16.249  1.00  0.00     0.204 C 
HETATM   30  C12 UNL     1     -12.503  18.208 -15.169  1.00  0.00     0.182 C 
BRANCH  28  31
HETATM   31  O8  UNL     1     -15.822  17.996 -16.437  1.00  0.00    -0.369 OA
ATOM     32  H8  UNL     1     -15.375  18.568 -17.049  1.00  0.00     0.212 HD
ENDBRANCH  28  31
BRANCH  29  33
HETATM   33  O9  UNL     1     -12.940  16.504 -16.772  1.00  0.00    -0.388 OA
ATOM     34  H9  UNL     1     -11.995  16.595 -16.784  1.00  0.00     0.210 HD
ENDBRANCH  29  33
BRANCH  30  35
HETATM   35  O10 UNL     1     -11.261  18.409 -15.721  1.00  0.00    -0.390 OA
ATOM     36  H10 UNL     1     -11.250  18.198 -16.647  1.00  0.00     0.210 HD
ENDBRANCH  30  35
ENDBRANCH  24  25
ENDBRANCH   5  24
TORSDOF 13
ENDMDL
