MODEL 3
REMARK VINA RESULT: -8.417528491      3.268      5.716
REMARK  13 active torsions:
REMARK  status: ('A' for Active; 'I' for Inactive)
REMARK    1  A    between atoms: O1_1  and  C1_3 
REMARK    2  A    between atoms: C1_3  and  C2_4 
REMARK    3  A    between atoms: C3_6  and  O3_7 
REMARK    4  A    between atoms: O3_7  and  C4_8 
REMARK    5  A    between atoms: C5_9  and  O4_10 
REMARK    6  A    between atoms: C7_14  and  O6_15 
REMARK    7  A    between atoms: O6_15  and  C8_16 
REMARK    8  A    between atoms: C10_19  and  O8_20 
REMARK    9  A    between atoms: C11_22  and  O9_23 
REMARK   10  A    between atoms: C12_25  and  O10_26 
REMARK   11  A    between atoms: C13_28  and  O11_29 
REMARK   12  A    between atoms: C14_31  and  O12_32 
REMARK   13  A    between atoms: C15_34  and  O13_35 
ROOT
HETATM    1  C4  UNL     1     -14.768  18.982 -13.994  1.00  0.00     0.189 C 
HETATM    2  C5  UNL     1     -14.067  19.944 -14.953  1.00  0.00     0.173 C 
HETATM    3  C6  UNL     1     -13.818  19.275 -16.282  1.00  0.00     0.205 C 
HETATM    4  O5  UNL     1     -14.840  18.435 -16.672  1.00  0.00    -0.356 OA
HETATM    5  C7  UNL     1     -16.068  18.797 -16.105  1.00  0.00     0.291 C 
HETATM    6  C13 UNL     1     -15.982  18.386 -14.647  1.00  0.00     0.205 C 
ENDROOT
BRANCH   1   7
HETATM    7  O3  UNL     1     -13.829  18.050 -13.610  1.00  0.00    -0.348 OA
BRANCH   7   8
HETATM    8  C3  UNL     1     -13.804  17.779 -12.261  1.00  0.00     0.292 C 
HETATM    9  O2  UNL     1     -14.870  18.424 -11.672  1.00  0.00    -0.348 OA
HETATM   10  C2  UNL     1     -14.411  19.093 -10.557  1.00  0.00     0.179 C 
HETATM   11  C15 UNL     1     -12.964  19.396 -10.762  1.00  0.00     0.182 C 
HETATM   12  C14 UNL     1     -12.522  18.337 -11.708  1.00  0.00     0.204 C 
BRANCH  10  13
HETATM   13  C1  UNL     1     -14.569  18.230  -9.341  1.00  0.00     0.198 C 
BRANCH  13  14
HETATM   14  O1  UNL     1     -15.910  17.920  -9.196  1.00  0.00    -0.398 OA
ATOM     15  H1  UNL     1     -15.993  17.251  -8.526  1.00  0.00     0.209 HD
ENDBRANCH  13  14
ENDBRANCH  10  13
BRANCH  11  16
HETATM   16  O13 UNL     1     -12.815  20.660 -11.340  1.00  0.00    -0.390 OA
ATOM     17  H13 UNL     1     -12.977  21.336 -10.693  1.00  0.00     0.210 HD
ENDBRANCH  11  16
BRANCH  12  18
HETATM   18  O12 UNL     1     -11.741  17.355 -11.097  1.00  0.00    -0.388 OA
ATOM     19  H12 UNL     1     -11.729  17.445 -10.151  1.00  0.00     0.210 HD
ENDBRANCH  12  18
ENDBRANCH   7   8
ENDBRANCH   1   7
BRANCH   2  20
HETATM   20  O4  UNL     1     -14.748  21.144 -15.072  1.00  0.00    -0.391 OA
ATOM     21  H4  UNL     1     -14.663  21.678 -14.291  1.00  0.00     0.210 HD
ENDBRANCH   2  20
BRANCH   6  22
HETATM   22  O11 UNL     1     -17.161  18.757 -13.981  1.00  0.00    -0.388 OA
ATOM     23  H11 UNL     1     -17.646  17.997 -13.679  1.00  0.00     0.210 HD
ENDBRANCH   6  22
BRANCH   5  24
HETATM   24  O6  UNL     1     -17.080  18.047 -16.680  1.00  0.00    -0.348 OA
BRANCH  24  25
HETATM   25  C8  UNL     1     -18.067  18.789 -17.272  1.00  0.00     0.180 C 
HETATM   26  C9  UNL     1     -19.340  18.891 -16.508  1.00  0.00     0.205 C 
HETATM   27  O7  UNL     1     -20.179  17.840 -16.914  1.00  0.00    -0.356 OA
HETATM   28  C10 UNL     1     -20.837  18.282 -18.065  1.00  0.00     0.288 C 
HETATM   29  C11 UNL     1     -19.753  18.703 -19.048  1.00  0.00     0.204 C 
HETATM   30  C12 UNL     1     -18.400  18.154 -18.626  1.00  0.00     0.182 C 
BRANCH  28  31
HETATM   31  O8  UNL     1     -21.593  19.413 -17.683  1.00  0.00    -0.369 OA
ATOM     32  H8  UNL     1     -21.133  20.170 -18.027  1.00  0.00     0.212 HD
ENDBRANCH  28  31
BRANCH  29  33
HETATM   33  O9  UNL     1     -20.102  18.139 -20.290  1.00  0.00    -0.388 OA
ATOM     34  H9  UNL     1     -20.883  18.593 -20.580  1.00  0.00     0.210 HD
ENDBRANCH  29  33
BRANCH  30  35
HETATM   35  O10 UNL     1     -17.468  18.480 -19.582  1.00  0.00    -0.390 OA
ATOM     36  H10 UNL     1     -17.874  18.864 -20.350  1.00  0.00     0.210 HD
ENDBRANCH  30  35
ENDBRANCH  24  25
ENDBRANCH   5  24
TORSDOF 13
ENDMDL
