MODEL 2
REMARK VINA RESULT: -8.503303488      3.287      5.829
REMARK  13 active torsions:
REMARK  status: ('A' for Active; 'I' for Inactive)
REMARK    1  A    between atoms: O1_1  and  C1_3 
REMARK    2  A    between atoms: C1_3  and  C2_4 
REMARK    3  A    between atoms: C3_6  and  O3_7 
REMARK    4  A    between atoms: O3_7  and  C4_8 
REMARK    5  A    between atoms: C5_9  and  O4_10 
REMARK    6  A    between atoms: C7_14  and  O6_15 
REMARK    7  A    between atoms: O6_15  and  C8_16 
REMARK    8  A    between atoms: C10_19  and  O8_20 
REMARK    9  A    between atoms: C11_22  and  O9_23 
REMARK   10  A    between atoms: C12_25  and  O10_26 
REMARK   11  A    between atoms: C13_28  and  O11_29 
REMARK   12  A    between atoms: C14_31  and  O12_32 
REMARK   13  A    between atoms: C15_34  and  O13_35 
ROOT
HETATM    1  C4  UNL     1     -14.459  19.010 -14.160  1.00  0.00     0.189 C 
HETATM    2  C5  UNL     1     -13.969  20.156 -15.044  1.00  0.00     0.173 C 
HETATM    3  C6  UNL     1     -13.803  19.689 -16.468  1.00  0.00     0.205 C 
HETATM    4  O5  UNL     1     -14.773  18.793 -16.867  1.00  0.00    -0.356 OA
HETATM    5  C7  UNL     1     -15.961  18.941 -16.139  1.00  0.00     0.291 C 
HETATM    6  C13 UNL     1     -15.672  18.365 -14.765  1.00  0.00     0.205 C 
ENDROOT
BRANCH   1   7
HETATM    7  O3  UNL     1     -13.394  18.150 -13.998  1.00  0.00    -0.348 OA
BRANCH   7   8
HETATM    8  C3  UNL     1     -12.818  18.175 -12.749  1.00  0.00     0.292 C 
HETATM    9  O2  UNL     1     -12.901  16.909 -12.210  1.00  0.00    -0.348 OA
HETATM   10  C2  UNL     1     -13.382  17.016 -10.922  1.00  0.00     0.179 C 
HETATM   11  C15 UNL     1     -14.190  18.267 -10.832  1.00  0.00     0.182 C 
HETATM   12  C14 UNL     1     -13.613  19.128 -11.899  1.00  0.00     0.204 C 
BRANCH  10  13
HETATM   13  C1  UNL     1     -12.239  17.094  -9.953  1.00  0.00     0.198 C 
BRANCH  13  14
HETATM   14  O1  UNL     1     -12.519  18.080  -9.025  1.00  0.00    -0.398 OA
ATOM     15  H1  UNL     1     -13.098  18.716  -9.428  1.00  0.00     0.209 HD
ENDBRANCH  13  14
ENDBRANCH  10  13
BRANCH  11  16
HETATM   16  O13 UNL     1     -15.534  17.993 -11.101  1.00  0.00    -0.390 OA
ATOM     17  H13 UNL     1     -15.607  17.440 -11.870  1.00  0.00     0.210 HD
ENDBRANCH  11  16
BRANCH  12  18
HETATM   18  O12 UNL     1     -12.826  20.164 -11.394  1.00  0.00    -0.388 OA
ATOM     19  H12 UNL     1     -13.285  20.996 -11.396  1.00  0.00     0.210 HD
ENDBRANCH  12  18
ENDBRANCH   7   8
ENDBRANCH   1   7
BRANCH   2  20
HETATM   20  O4  UNL     1     -14.776  21.276 -14.933  1.00  0.00    -0.391 OA
ATOM     21  H4  UNL     1     -15.072  21.585 -15.781  1.00  0.00     0.210 HD
ENDBRANCH   2  20
BRANCH   6  22
HETATM   22  O11 UNL     1     -16.801  18.514 -13.944  1.00  0.00    -0.388 OA
ATOM     23  H11 UNL     1     -17.512  18.948 -14.403  1.00  0.00     0.210 HD
ENDBRANCH   6  22
BRANCH   5  24
HETATM   24  O6  UNL     1     -16.950  18.157 -16.709  1.00  0.00    -0.348 OA
BRANCH  24  25
HETATM   25  C8  UNL     1     -17.978  18.866 -17.271  1.00  0.00     0.180 C 
HETATM   26  C9  UNL     1     -19.172  19.061 -16.405  1.00  0.00     0.205 C 
HETATM   27  O7  UNL     1     -20.060  17.997 -16.637  1.00  0.00    -0.356 OA
HETATM   28  C10 UNL     1     -20.817  18.350 -17.757  1.00  0.00     0.288 C 
HETATM   29  C11 UNL     1     -19.824  18.661 -18.869  1.00  0.00     0.204 C 
HETATM   30  C12 UNL     1     -18.445  18.123 -18.527  1.00  0.00     0.182 C 
BRANCH  28  31
HETATM   31  O8  UNL     1     -21.518  19.526 -17.409  1.00  0.00    -0.369 OA
ATOM     32  H8  UNL     1     -22.433  19.359 -17.603  1.00  0.00     0.212 HD
ENDBRANCH  28  31
BRANCH  29  33
HETATM   33  O9  UNL     1     -20.295  17.998 -20.019  1.00  0.00    -0.388 OA
ATOM     34  H9  UNL     1     -19.910  18.446 -20.762  1.00  0.00     0.210 HD
ENDBRANCH  29  33
BRANCH  30  35
HETATM   35  O10 UNL     1     -17.603  18.344 -19.589  1.00  0.00    -0.390 OA
ATOM     36  H10 UNL     1     -17.949  19.002 -20.180  1.00  0.00     0.210 HD
ENDBRANCH  30  35
ENDBRANCH  24  25
ENDBRANCH   5  24
TORSDOF 13
ENDMDL
