MODEL 4
REMARK VINA RESULT: -4.418063681      5.918      7.305
REMARK  4 active torsions:
REMARK  status: ('A' for Active; 'I' for Inactive)
REMARK    1  A    between atoms: O1_2  and  C2_3 
REMARK    2  A    between atoms: C5_7  and  O3_8 
REMARK    3  A    between atoms: C6_10  and  O4_11 
REMARK    4  A    between atoms: C7_13  and  O5_14 
ROOT
HETATM    1  C2  UNL     1     -38.438  19.726  -7.189  1.00  0.00     0.290 C 
HETATM    2  O2  UNL     1     -38.588  21.028  -7.710  1.00  0.00    -0.351 OA
HETATM    3  C3  UNL     1     -39.966  21.207  -7.847  1.00  0.00     0.152 C 
HETATM    4  C4  UNL     1     -40.190  22.632  -8.332  1.00  0.00     0.042 C 
HETATM    5  C5  UNL     1     -40.632  20.188  -8.688  1.00  0.00     0.178 C 
HETATM    6  C6  UNL     1     -39.808  19.051  -9.141  1.00  0.00     0.183 C 
HETATM    7  C7  UNL     1     -38.554  18.806  -8.382  1.00  0.00     0.204 C 
ENDROOT
BRANCH   1   8
HETATM    8  O1  UNL     1     -37.253  19.552  -6.524  1.00  0.00    -0.363 OA
HETATM    9  C1  UNL     1     -37.482  19.615  -5.143  1.00  0.00     0.204 C 
ENDBRANCH   1   8
BRANCH   7  10
HETATM   10  O5  UNL     1     -38.438  17.499  -7.899  1.00  0.00    -0.388 OA
ATOM     11  H5  UNL     1     -38.305  16.937  -8.653  1.00  0.00     0.210 HD
ENDBRANCH   7  10
BRANCH   6  12
HETATM   12  O4  UNL     1     -39.451  19.193 -10.503  1.00  0.00    -0.390 OA
ATOM     13  H4  UNL     1     -38.623  18.765 -10.686  1.00  0.00     0.210 HD
ENDBRANCH   6  12
BRANCH   5  14
HETATM   14  O3  UNL     1     -41.221  20.859  -9.785  1.00  0.00    -0.390 OA
ATOM     15  H3  UNL     1     -41.158  20.285 -10.539  1.00  0.00     0.210 HD
ENDBRANCH   5  14
TORSDOF 4
ENDMDL
