MODEL 2
REMARK VINA RESULT: -4.577981521      1.565      3.067
REMARK  4 active torsions:
REMARK  status: ('A' for Active; 'I' for Inactive)
REMARK    1  A    between atoms: O1_2  and  C2_3 
REMARK    2  A    between atoms: C5_7  and  O3_8 
REMARK    3  A    between atoms: C6_10  and  O4_11 
REMARK    4  A    between atoms: C7_13  and  O5_14 
ROOT
HETATM    1  C2  UNL     1     -45.388  15.511  -8.228  1.00  0.00     0.290 C 
HETATM    2  O2  UNL     1     -45.224  14.256  -8.849  1.00  0.00    -0.351 OA
HETATM    3  C3  UNL     1     -44.134  13.670  -8.201  1.00  0.00     0.152 C 
HETATM    4  C4  UNL     1     -43.963  12.273  -8.780  1.00  0.00     0.042 C 
HETATM    5  C5  UNL     1     -42.896  14.480  -8.241  1.00  0.00     0.178 C 
HETATM    6  C6  UNL     1     -43.001  15.836  -8.809  1.00  0.00     0.183 C 
HETATM    7  C7  UNL     1     -44.368  16.414  -8.884  1.00  0.00     0.204 C 
ENDROOT
BRANCH   1   8
HETATM    8  O1  UNL     1     -46.660  16.005  -8.352  1.00  0.00    -0.363 OA
HETATM    9  C1  UNL     1     -47.316  15.340  -9.397  1.00  0.00     0.204 C 
ENDBRANCH   1   8
BRANCH   7  10
HETATM   10  O5  UNL     1     -44.482  17.665  -8.270  1.00  0.00    -0.388 OA
ATOM     11  H5  UNL     1     -44.912  18.239  -8.894  1.00  0.00     0.210 HD
ENDBRANCH   7  10
BRANCH   6  12
HETATM   12  O4  UNL     1     -42.455  15.884 -10.114  1.00  0.00    -0.390 OA
ATOM     13  H4  UNL     1     -41.759  16.528 -10.170  1.00  0.00     0.210 HD
ENDBRANCH   6  12
BRANCH   5  14
HETATM   14  O3  UNL     1     -41.911  13.720  -8.914  1.00  0.00    -0.390 OA
ATOM     15  H3  UNL     1     -41.080  13.886  -8.486  1.00  0.00     0.210 HD
ENDBRANCH   5  14
TORSDOF 4
ENDMDL
