MODEL 8
REMARK VINA RESULT: -4.086486058      6.855      8.888
REMARK  4 active torsions:
REMARK  status: ('A' for Active; 'I' for Inactive)
REMARK    1  A    between atoms: O1_2  and  C2_3 
REMARK    2  A    between atoms: C5_7  and  O3_8 
REMARK    3  A    between atoms: C6_10  and  O4_11 
REMARK    4  A    between atoms: C7_13  and  O5_14 
ROOT
HETATM    1  C2  UNL     1     -38.332  19.630  -6.245  1.00  0.00     0.290 C 
HETATM    2  O2  UNL     1     -37.367  18.967  -5.460  1.00  0.00    -0.351 OA
HETATM    3  C3  UNL     1     -37.397  19.616  -4.223  1.00  0.00     0.152 C 
HETATM    4  C4  UNL     1     -36.427  18.885  -3.306  1.00  0.00     0.042 C 
HETATM    5  C5  UNL     1     -37.154  21.074  -4.295  1.00  0.00     0.178 C 
HETATM    6  C6  UNL     1     -37.065  21.673  -5.640  1.00  0.00     0.183 C 
HETATM    7  C7  UNL     1     -37.642  20.876  -6.754  1.00  0.00     0.204 C 
ENDROOT
BRANCH   1   8
HETATM    8  O1  UNL     1     -38.808  18.856  -7.271  1.00  0.00    -0.363 OA
HETATM    9  C1  UNL     1     -37.742  18.478  -8.098  1.00  0.00     0.204 C 
ENDBRANCH   1   8
BRANCH   7  10
HETATM   10  O5  UNL     1     -38.582  21.576  -7.516  1.00  0.00    -0.388 OA
ATOM     11  H5  UNL     1     -38.271  21.564  -8.414  1.00  0.00     0.210 HD
ENDBRANCH   7  10
BRANCH   6  12
HETATM   12  O4  UNL     1     -35.721  21.957  -5.982  1.00  0.00    -0.390 OA
ATOM     13  H4  UNL     1     -35.174  21.186  -5.886  1.00  0.00     0.210 HD
ENDBRANCH   6  12
BRANCH   5  14
HETATM   14  O3  UNL     1     -35.993  21.350  -3.536  1.00  0.00    -0.390 OA
ATOM     15  H3  UNL     1     -36.052  20.849  -2.731  1.00  0.00     0.210 HD
ENDBRANCH   5  14
TORSDOF 4
ENDMDL
