MODEL 10
REMARK VINA RESULT: -4.058376327      4.228      5.499
REMARK  4 active torsions:
REMARK  status: ('A' for Active; 'I' for Inactive)
REMARK    1  A    between atoms: O1_2  and  C2_3 
REMARK    2  A    between atoms: C5_7  and  O3_8 
REMARK    3  A    between atoms: C6_10  and  O4_11 
REMARK    4  A    between atoms: C7_13  and  O5_14 
ROOT
HETATM    1  C2  UNL     1     -41.136  18.899  -6.819  1.00  0.00     0.290 C 
HETATM    2  O2  UNL     1     -39.905  18.330  -7.203  1.00  0.00    -0.351 OA
HETATM    3  C3  UNL     1     -39.383  19.204  -8.159  1.00  0.00     0.152 C 
HETATM    4  C4  UNL     1     -38.010  18.678  -8.551  1.00  0.00     0.042 C 
HETATM    5  C5  UNL     1     -40.274  19.442  -9.316  1.00  0.00     0.178 C 
HETATM    6  C6  UNL     1     -41.629  18.864  -9.248  1.00  0.00     0.183 C 
HETATM    7  C7  UNL     1     -42.115  18.487  -7.895  1.00  0.00     0.204 C 
ENDROOT
BRANCH   1   8
HETATM    8  O1  UNL     1     -41.545  18.495  -5.576  1.00  0.00    -0.363 OA
HETATM    9  C1  UNL     1     -41.325  19.528  -4.656  1.00  0.00     0.204 C 
ENDBRANCH   1   8
BRANCH   7  10
HETATM   10  O5  UNL     1     -43.347  19.060  -7.562  1.00  0.00    -0.388 OA
ATOM     11  H5  UNL     1     -43.845  19.129  -8.368  1.00  0.00     0.210 HD
ENDBRANCH   7  10
BRANCH   6  12
HETATM   12  O4  UNL     1     -41.734  17.713 -10.065  1.00  0.00    -0.390 OA
ATOM     13  H4  UNL     1     -42.563  17.271  -9.928  1.00  0.00     0.210 HD
ENDBRANCH   6  12
BRANCH   5  14
HETATM   14  O3  UNL     1     -39.592  19.005 -10.476  1.00  0.00    -0.390 OA
ATOM     15  H3  UNL     1     -40.202  18.487 -10.988  1.00  0.00     0.210 HD
ENDBRANCH   5  14
TORSDOF 4
ENDMDL
