MODEL 4
REMARK VINA RESULT: -9.277703362      5.905     12.965
REMARK  14 active torsions:
REMARK  status: ('A' for Active; 'I' for Inactive)
REMARK    1  A    between atoms: C2_2  and  N1_3 
REMARK    2  A    between atoms: N1_3  and  C3_4 
REMARK    3  A    between atoms: N1_3  and  C5_8 
REMARK    4  A    between atoms: C3_4  and  C4_5 
REMARK    5  A    between atoms: C4_5  and  O1_6 
REMARK    6  A    between atoms: C5_8  and  C6_9 
REMARK    7  A    between atoms: C6_9  and  C7_10 
REMARK    8  A    between atoms: C7_10  and  O2_11 
REMARK    9  A    between atoms: O2_11  and  C8_12 
REMARK   10  A    between atoms: C12_16  and  N2_17 
REMARK   11  A    between atoms: N2_17  and  C13_19 
REMARK   12  A    between atoms: C15_21  and  C16_22 
REMARK   13  A    between atoms: C16_22  and  C17_23 
REMARK       I    between atoms: C17_23  and  N3_25 
REMARK   14  A    between atoms: N3_25  and  C18_27 
ROOT
HETATM    1  C8  UNL     1       9.718 -25.488   4.613  1.00  0.00     0.070 A 
HETATM    2  C9  UNL     1      11.056 -25.255   4.814  1.00  0.00     0.038 A 
HETATM    3  C10 UNL     1      12.040 -26.224   4.573  1.00  0.00     0.020 A 
HETATM    4  C11 UNL     1      11.695 -27.464   4.118  1.00  0.00     0.035 A 
HETATM    5  C12 UNL     1      12.612 -28.446   3.868  1.00  0.00     0.120 A 
HETATM    6  N6  UNL     1      12.173 -29.632   3.422  1.00  0.00    -0.338 N 
ATOM      7  H6  UNL     1      12.860 -30.363   3.234  1.00  0.00     0.168 HD
HETATM    8  C24 UNL     1      10.877 -29.905   3.212  1.00  0.00     0.182 A 
HETATM    9  N7  UNL     1       9.994 -28.925   3.466  1.00  0.00    -0.351 N 
ATOM     10  H7  UNL     1       9.005 -29.120   3.311  1.00  0.00     0.166 HD
HETATM   11  C25 UNL     1      10.332 -27.704   3.913  1.00  0.00     0.049 A 
HETATM   12  C26 UNL     1       9.372 -26.738   4.156  1.00  0.00     0.067 A 
ENDROOT
BRANCH   5  13
HETATM   13  N2  UNL     1      13.990 -28.246   4.060  1.00  0.00    -0.327 N 
ATOM     14  H2  UNL     1      14.284 -27.439   4.609  1.00  0.00     0.169 HD
BRANCH  13  15
HETATM   15  C13 UNL     1      14.998 -29.101   3.536  1.00  0.00     0.123 A 
HETATM   16  C14 UNL     1      15.899 -28.926   2.512  1.00  0.00     0.076 A 
HETATM   17  C15 UNL     1      16.691 -30.072   2.378  1.00  0.00     0.038 A 
HETATM   18  N4  UNL     1      16.242 -30.906   3.326  1.00  0.00    -0.303 N 
HETATM   19  N5  UNL     1      15.260 -30.355   4.004  1.00  0.00    -0.285 N 
ATOM     20  H4  UNL     1      16.612 -31.841   3.499  1.00  0.00     0.186 HD
ATOM     21  H5  UNL     1      14.763 -30.802   4.774  1.00  0.00     0.188 HD
BRANCH  17  22
HETATM   22  C16 UNL     1      17.781 -30.311   1.407  1.00  0.00     0.161 C 
BRANCH  22  23
HETATM   23  C17 UNL     1      19.085 -30.369   2.161  1.00  0.00     0.227 C 
HETATM   24  O3  UNL     1      19.970 -31.154   1.765  1.00  0.00    -0.273 OA
HETATM   25  N3  UNL     1      19.312 -29.559   3.288  1.00  0.00    -0.327 N 
ATOM     26  H3  UNL     1      18.550 -28.940   3.564  1.00  0.00     0.169 HD
BRANCH  25  27
HETATM   27  C18 UNL     1      20.485 -29.511   4.085  1.00  0.00     0.037 A 
HETATM   28  C19 UNL     1      21.380 -28.448   3.890  1.00  0.00     0.029 A 
HETATM   29  C20 UNL     1      22.531 -28.339   4.614  1.00  0.00     0.005 A 
HETATM   30  C21 UNL     1      22.876 -29.269   5.577  1.00  0.00     0.042 A 
HETATM   31  C22 UNL     1      22.025 -30.328   5.799  1.00  0.00     0.118 A 
HETATM   32  F1  UNL     1      22.309 -31.275   6.730  1.00  0.00    -0.206 F 
HETATM   33  C23 UNL     1      20.852 -30.413   5.041  1.00  0.00     0.071 A 
ENDBRANCH  25  27
ENDBRANCH  22  23
ENDBRANCH  17  22
ENDBRANCH  13  15
ENDBRANCH   5  13
BRANCH   1  34
HETATM   34  O2  UNL     1       8.776 -24.503   4.864  1.00  0.00    -0.351 OA
BRANCH  34  35
HETATM   35  C7  UNL     1       8.886 -23.608   5.955  1.00  0.00     0.177 C 
BRANCH  35  36
HETATM   36  C6  UNL     1       7.533 -23.160   6.441  1.00  0.00     0.057 C 
BRANCH  36  37
HETATM   37  C5  UNL     1       6.905 -24.128   7.398  1.00  0.00     0.274 C 
BRANCH  37  38
HETATM   38  N1  UNL     1       5.860 -24.913   6.815  1.00  0.00     0.090 N 
BRANCH  38  39
HETATM   39  C2  UNL     1       6.253 -26.257   6.496  1.00  0.00     0.268 C 
HETATM   40  C1  UNL     1       5.729 -27.287   7.440  1.00  0.00     0.037 C 
ENDBRANCH  38  39
BRANCH  38  41
HETATM   41  C3  UNL     1       5.358 -24.249   5.629  1.00  0.00     0.298 C 
BRANCH  41  42
HETATM   42  C4  UNL     1       5.041 -25.263   4.524  1.00  0.00     0.194 C 
BRANCH  42  43
HETATM   43  O1  UNL     1       3.673 -25.249   4.280  1.00  0.00    -0.399 OA
ATOM     44  H1  UNL     1       3.486 -24.590   3.621  1.00  0.00     0.209 HD
ENDBRANCH  42  43
ENDBRANCH  41  42
ENDBRANCH  38  41
ENDBRANCH  37  38
ENDBRANCH  36  37
ENDBRANCH  35  36
ENDBRANCH  34  35
ENDBRANCH   1  34
TORSDOF 14
ENDMDL
