MODEL 3
REMARK VINA RESULT: -9.350075488      5.975     12.969
REMARK  14 active torsions:
REMARK  status: ('A' for Active; 'I' for Inactive)
REMARK    1  A    between atoms: C2_2  and  N1_3 
REMARK    2  A    between atoms: N1_3  and  C3_4 
REMARK    3  A    between atoms: N1_3  and  C5_8 
REMARK    4  A    between atoms: C3_4  and  C4_5 
REMARK    5  A    between atoms: C4_5  and  O1_6 
REMARK    6  A    between atoms: C5_8  and  C6_9 
REMARK    7  A    between atoms: C6_9  and  C7_10 
REMARK    8  A    between atoms: C7_10  and  O2_11 
REMARK    9  A    between atoms: O2_11  and  C8_12 
REMARK   10  A    between atoms: C12_16  and  N2_17 
REMARK   11  A    between atoms: N2_17  and  C13_19 
REMARK   12  A    between atoms: C15_21  and  C16_22 
REMARK   13  A    between atoms: C16_22  and  C17_23 
REMARK       I    between atoms: C17_23  and  N3_25 
REMARK   14  A    between atoms: N3_25  and  C18_27 
ROOT
HETATM    1  C8  UNL     1      10.148 -25.027   5.043  1.00  0.00     0.070 A 
HETATM    2  C9  UNL     1      11.508 -24.942   5.216  1.00  0.00     0.038 A 
HETATM    3  C10 UNL     1      12.383 -25.984   4.877  1.00  0.00     0.020 A 
HETATM    4  C11 UNL     1      11.902 -27.148   4.351  1.00  0.00     0.035 A 
HETATM    5  C12 UNL     1      12.709 -28.196   4.004  1.00  0.00     0.120 A 
HETATM    6  N6  UNL     1      12.142 -29.298   3.494  1.00  0.00    -0.338 N 
ATOM      7  H6  UNL     1      12.746 -30.078   3.234  1.00  0.00     0.168 HD
HETATM    8  C24 UNL     1      10.820 -29.426   3.308  1.00  0.00     0.182 A 
HETATM    9  N7  UNL     1      10.047 -28.384   3.657  1.00  0.00    -0.351 N 
ATOM     10  H7  UNL     1       9.040 -28.469   3.521  1.00  0.00     0.166 HD
HETATM   11  C25 UNL     1      10.518 -27.238   4.175  1.00  0.00     0.049 A 
HETATM   12  C26 UNL     1       9.667 -26.201   4.514  1.00  0.00     0.067 A 
ENDROOT
BRANCH   5  13
HETATM   13  N2  UNL     1      14.104 -28.147   4.165  1.00  0.00    -0.327 N 
ATOM     14  H2  UNL     1      14.493 -27.413   4.755  1.00  0.00     0.169 HD
BRANCH  13  15
HETATM   15  C13 UNL     1      15.007 -29.061   3.554  1.00  0.00     0.123 A 
HETATM   16  C14 UNL     1      15.815 -28.941   2.448  1.00  0.00     0.076 A 
HETATM   17  C15 UNL     1      16.524 -30.131   2.248  1.00  0.00     0.038 A 
HETATM   18  N4  UNL     1      16.120 -30.935   3.242  1.00  0.00    -0.303 N 
HETATM   19  N5  UNL     1      15.241 -30.326   4.005  1.00  0.00    -0.285 N 
ATOM     20  H4  UNL     1      16.451 -31.889   3.385  1.00  0.00     0.186 HD
ATOM     21  H5  UNL     1      14.795 -30.742   4.822  1.00  0.00     0.188 HD
BRANCH  17  22
HETATM   22  C16 UNL     1      17.500 -30.435   1.180  1.00  0.00     0.161 C 
BRANCH  22  23
HETATM   23  C17 UNL     1      18.886 -30.171   1.712  1.00  0.00     0.227 C 
HETATM   24  O3  UNL     1      19.821 -30.030   0.900  1.00  0.00    -0.273 OA
HETATM   25  N3  UNL     1      19.131 -30.084   3.095  1.00  0.00    -0.327 N 
ATOM     26  H3  UNL     1      18.326 -30.210   3.708  1.00  0.00     0.169 HD
BRANCH  25  27
HETATM   27  C18 UNL     1      20.376 -29.839   3.729  1.00  0.00     0.037 A 
HETATM   28  C19 UNL     1      20.807 -28.511   3.862  1.00  0.00     0.029 A 
HETATM   29  C20 UNL     1      21.996 -28.200   4.455  1.00  0.00     0.005 A 
HETATM   30  C21 UNL     1      22.838 -29.177   4.955  1.00  0.00     0.042 A 
HETATM   31  C22 UNL     1      22.452 -30.493   4.843  1.00  0.00     0.118 A 
HETATM   32  F1  UNL     1      23.236 -31.498   5.314  1.00  0.00    -0.206 F 
HETATM   33  C23 UNL     1      21.227 -30.781   4.230  1.00  0.00     0.071 A 
ENDBRANCH  25  27
ENDBRANCH  22  23
ENDBRANCH  17  22
ENDBRANCH  13  15
ENDBRANCH   5  13
BRANCH   1  34
HETATM   34  O2  UNL     1       9.317 -23.974   5.391  1.00  0.00    -0.351 OA
BRANCH  34  35
HETATM   35  C7  UNL     1       7.913 -24.029   5.224  1.00  0.00     0.177 C 
BRANCH  35  36
HETATM   36  C6  UNL     1       7.191 -23.710   6.508  1.00  0.00     0.057 C 
BRANCH  36  37
HETATM   37  C5  UNL     1       6.482 -24.895   7.091  1.00  0.00     0.274 C 
BRANCH  37  38
HETATM   38  N1  UNL     1       5.190 -25.127   6.520  1.00  0.00     0.090 N 
BRANCH  38  39
HETATM   39  C2  UNL     1       4.101 -24.832   7.409  1.00  0.00     0.268 C 
HETATM   40  C1  UNL     1       3.759 -23.382   7.495  1.00  0.00     0.037 C 
ENDBRANCH  38  39
BRANCH  38  41
HETATM   41  C3  UNL     1       5.100 -26.499   6.063  1.00  0.00     0.298 C 
BRANCH  41  42
HETATM   42  C4  UNL     1       5.608 -27.470   7.136  1.00  0.00     0.194 C 
BRANCH  42  43
HETATM   43  O1  UNL     1       4.944 -28.681   6.996  1.00  0.00    -0.399 OA
ATOM     44  H1  UNL     1       4.460 -28.673   6.178  1.00  0.00     0.209 HD
ENDBRANCH  42  43
ENDBRANCH  41  42
ENDBRANCH  38  41
ENDBRANCH  37  38
ENDBRANCH  36  37
ENDBRANCH  35  36
ENDBRANCH  34  35
ENDBRANCH   1  34
TORSDOF 14
ENDMDL
