MODEL 2
REMARK VINA RESULT: -9.352806467      5.900     13.323
REMARK  14 active torsions:
REMARK  status: ('A' for Active; 'I' for Inactive)
REMARK    1  A    between atoms: C2_2  and  N1_3 
REMARK    2  A    between atoms: N1_3  and  C3_4 
REMARK    3  A    between atoms: N1_3  and  C5_8 
REMARK    4  A    between atoms: C3_4  and  C4_5 
REMARK    5  A    between atoms: C4_5  and  O1_6 
REMARK    6  A    between atoms: C5_8  and  C6_9 
REMARK    7  A    between atoms: C6_9  and  C7_10 
REMARK    8  A    between atoms: C7_10  and  O2_11 
REMARK    9  A    between atoms: O2_11  and  C8_12 
REMARK   10  A    between atoms: C12_16  and  N2_17 
REMARK   11  A    between atoms: N2_17  and  C13_19 
REMARK   12  A    between atoms: C15_21  and  C16_22 
REMARK   13  A    between atoms: C16_22  and  C17_23 
REMARK       I    between atoms: C17_23  and  N3_25 
REMARK   14  A    between atoms: N3_25  and  C18_27 
ROOT
HETATM    1  C8  UNL     1       9.660 -25.490   4.603  1.00  0.00     0.070 A 
HETATM    2  C9  UNL     1      10.991 -25.261   4.851  1.00  0.00     0.038 A 
HETATM    3  C10 UNL     1      11.984 -26.219   4.605  1.00  0.00     0.020 A 
HETATM    4  C11 UNL     1      11.656 -27.443   4.098  1.00  0.00     0.035 A 
HETATM    5  C12 UNL     1      12.583 -28.413   3.840  1.00  0.00     0.120 A 
HETATM    6  N6  UNL     1      12.162 -29.584   3.341  1.00  0.00    -0.338 N 
ATOM      7  H6  UNL     1      12.856 -30.307   3.147  1.00  0.00     0.168 HD
HETATM    8  C24 UNL     1      10.874 -29.852   3.083  1.00  0.00     0.182 A 
HETATM    9  N7  UNL     1       9.980 -28.884   3.345  1.00  0.00    -0.351 N 
ATOM     10  H7  UNL     1       8.997 -29.076   3.153  1.00  0.00     0.166 HD
HETATM   11  C25 UNL     1      10.301 -27.679   3.844  1.00  0.00     0.049 A 
HETATM   12  C26 UNL     1       9.332 -26.724   4.092  1.00  0.00     0.067 A 
ENDROOT
BRANCH   5  13
HETATM   13  N2  UNL     1      13.954 -28.218   4.080  1.00  0.00    -0.327 N 
ATOM     14  H2  UNL     1      14.231 -27.419   4.649  1.00  0.00     0.169 HD
BRANCH  13  15
HETATM   15  C13 UNL     1      14.978 -29.067   3.577  1.00  0.00     0.123 A 
HETATM   16  C14 UNL     1      15.867 -28.907   2.540  1.00  0.00     0.076 A 
HETATM   17  C15 UNL     1      16.685 -30.038   2.439  1.00  0.00     0.038 A 
HETATM   18  N4  UNL     1      16.265 -30.847   3.421  1.00  0.00    -0.303 N 
HETATM   19  N5  UNL     1      15.275 -30.296   4.087  1.00  0.00    -0.285 N 
ATOM     20  H4  UNL     1      16.659 -31.766   3.623  1.00  0.00     0.186 HD
ATOM     21  H5  UNL     1      14.796 -30.727   4.877  1.00  0.00     0.188 HD
BRANCH  17  22
HETATM   22  C16 UNL     1      17.772 -30.285   1.467  1.00  0.00     0.161 C 
BRANCH  22  23
HETATM   23  C17 UNL     1      19.085 -30.273   2.209  1.00  0.00     0.227 C 
HETATM   24  O3  UNL     1      20.007 -31.009   1.804  1.00  0.00    -0.273 OA
HETATM   25  N3  UNL     1      19.279 -29.452   3.334  1.00  0.00    -0.327 N 
ATOM     26  H3  UNL     1      18.487 -28.874   3.617  1.00  0.00     0.169 HD
BRANCH  25  27
HETATM   27  C18 UNL     1      20.455 -29.341   4.120  1.00  0.00     0.037 A 
HETATM   28  C19 UNL     1      21.409 -28.378   3.759  1.00  0.00     0.029 A 
HETATM   29  C20 UNL     1      22.566 -28.218   4.463  1.00  0.00     0.005 A 
HETATM   30  C21 UNL     1      22.861 -28.995   5.568  1.00  0.00     0.042 A 
HETATM   31  C22 UNL     1      21.951 -29.953   5.954  1.00  0.00     0.118 A 
HETATM   32  F1  UNL     1      22.183 -30.749   7.031  1.00  0.00    -0.206 F 
HETATM   33  C23 UNL     1      20.773 -30.094   5.213  1.00  0.00     0.071 A 
ENDBRANCH  25  27
ENDBRANCH  22  23
ENDBRANCH  17  22
ENDBRANCH  13  15
ENDBRANCH   5  13
BRANCH   1  34
HETATM   34  O2  UNL     1       8.707 -24.516   4.860  1.00  0.00    -0.351 OA
BRANCH  34  35
HETATM   35  C7  UNL     1       8.803 -23.634   5.962  1.00  0.00     0.177 C 
BRANCH  35  36
HETATM   36  C6  UNL     1       7.484 -22.969   6.254  1.00  0.00     0.057 C 
BRANCH  36  37
HETATM   37  C5  UNL     1       6.573 -23.815   7.091  1.00  0.00     0.274 C 
BRANCH  37  38
HETATM   38  N1  UNL     1       5.425 -23.112   7.577  1.00  0.00     0.090 N 
BRANCH  38  39
HETATM   39  C2  UNL     1       4.199 -23.852   7.462  1.00  0.00     0.268 C 
HETATM   40  C1  UNL     1       4.379 -25.334   7.463  1.00  0.00     0.037 C 
ENDBRANCH  38  39
BRANCH  38  41
HETATM   41  C3  UNL     1       5.305 -21.844   6.889  1.00  0.00     0.298 C 
BRANCH  41  42
HETATM   42  C4  UNL     1       4.800 -20.749   7.838  1.00  0.00     0.194 C 
BRANCH  42  43
HETATM   43  O1  UNL     1       5.617 -20.718   8.961  1.00  0.00    -0.399 OA
ATOM     44  H1  UNL     1       5.083 -20.867   9.733  1.00  0.00     0.209 HD
ENDBRANCH  42  43
ENDBRANCH  41  42
ENDBRANCH  38  41
ENDBRANCH  37  38
ENDBRANCH  36  37
ENDBRANCH  35  36
ENDBRANCH  34  35
ENDBRANCH   1  34
TORSDOF 14
ENDMDL
