MODEL 15
REMARK VINA RESULT: -9.012448418      1.943      3.072
REMARK  14 active torsions:
REMARK  status: ('A' for Active; 'I' for Inactive)
REMARK    1  A    between atoms: C2_2  and  N1_3 
REMARK    2  A    between atoms: N1_3  and  C3_4 
REMARK    3  A    between atoms: N1_3  and  C5_8 
REMARK    4  A    between atoms: C3_4  and  C4_5 
REMARK    5  A    between atoms: C4_5  and  O1_6 
REMARK    6  A    between atoms: C5_8  and  C6_9 
REMARK    7  A    between atoms: C6_9  and  C7_10 
REMARK    8  A    between atoms: C7_10  and  O2_11 
REMARK    9  A    between atoms: O2_11  and  C8_12 
REMARK   10  A    between atoms: C12_16  and  N2_17 
REMARK   11  A    between atoms: N2_17  and  C13_19 
REMARK   12  A    between atoms: C15_21  and  C16_22 
REMARK   13  A    between atoms: C16_22  and  C17_23 
REMARK       I    between atoms: C17_23  and  N3_25 
REMARK   14  A    between atoms: N3_25  and  C18_27 
ROOT
HETATM    1  C8  UNL     1      11.313 -28.587   3.895  1.00  0.00     0.070 A 
HETATM    2  C9  UNL     1       9.965 -28.365   3.753  1.00  0.00     0.038 A 
HETATM    3  C10 UNL     1       9.354 -27.153   4.103  1.00  0.00     0.020 A 
HETATM    4  C11 UNL     1      10.095 -26.125   4.610  1.00  0.00     0.035 A 
HETATM    5  C12 UNL     1       9.551 -24.923   4.969  1.00  0.00     0.120 A 
HETATM    6  N6  UNL     1      10.363 -23.974   5.457  1.00  0.00    -0.338 N 
ATOM      7  H6  UNL     1       9.955 -23.077   5.722  1.00  0.00     0.168 HD
HETATM    8  C24 UNL     1      11.683 -24.145   5.614  1.00  0.00     0.182 A 
HETATM    9  N7  UNL     1      12.195 -25.335   5.256  1.00  0.00    -0.351 N 
ATOM     10  H7  UNL     1      13.199 -25.478   5.370  1.00  0.00     0.166 HD
HETATM   11  C25 UNL     1      11.468 -26.348   4.756  1.00  0.00     0.049 A 
HETATM   12  C26 UNL     1      12.057 -27.550   4.407  1.00  0.00     0.067 A 
ENDROOT
BRANCH   5  13
HETATM   13  N2  UNL     1       8.177 -24.658   4.838  1.00  0.00    -0.327 N 
ATOM     14  H2  UNL     1       7.725 -24.896   3.956  1.00  0.00     0.169 HD
BRANCH  13  15
HETATM   15  C13 UNL     1       7.379 -24.077   5.862  1.00  0.00     0.123 A 
HETATM   16  C14 UNL     1       7.341 -22.802   6.374  1.00  0.00     0.076 A 
HETATM   17  C15 UNL     1       6.374 -22.725   7.383  1.00  0.00     0.038 A 
HETATM   18  N4  UNL     1       5.857 -23.960   7.449  1.00  0.00    -0.303 N 
HETATM   19  N5  UNL     1       6.432 -24.753   6.573  1.00  0.00    -0.285 N 
ATOM     20  H4  UNL     1       5.119 -24.245   8.093  1.00  0.00     0.186 HD
ATOM     21  H5  UNL     1       6.201 -25.737   6.442  1.00  0.00     0.188 HD
BRANCH  17  22
HETATM   22  C16 UNL     1       6.004 -21.546   8.195  1.00  0.00     0.161 C 
BRANCH  22  23
HETATM   23  C17 UNL     1       4.697 -21.001   7.675  1.00  0.00     0.227 C 
HETATM   24  O3  UNL     1       4.027 -21.704   6.893  1.00  0.00    -0.273 OA
HETATM   25  N3  UNL     1       4.234 -19.729   8.057  1.00  0.00    -0.327 N 
ATOM     26  H3  UNL     1       4.829 -19.203   8.698  1.00  0.00     0.169 HD
BRANCH  25  27
HETATM   27  C18 UNL     1       3.031 -19.098   7.649  1.00  0.00     0.037 A 
HETATM   28  C19 UNL     1       2.555 -18.018   8.406  1.00  0.00     0.029 A 
HETATM   29  C20 UNL     1       1.402 -17.366   8.078  1.00  0.00     0.005 A 
HETATM   30  C21 UNL     1       0.643 -17.737   6.983  1.00  0.00     0.042 A 
HETATM   31  C22 UNL     1       1.075 -18.793   6.214  1.00  0.00     0.118 A 
HETATM   32  F1  UNL     1       0.373 -19.205   5.127  1.00  0.00    -0.206 F 
HETATM   33  C23 UNL     1       2.261 -19.442   6.575  1.00  0.00     0.071 A 
ENDBRANCH  25  27
ENDBRANCH  22  23
ENDBRANCH  17  22
ENDBRANCH  13  15
ENDBRANCH   5  13
BRANCH   1  34
HETATM   34  O2  UNL     1      11.879 -29.800   3.537  1.00  0.00    -0.351 OA
BRANCH  34  35
HETATM   35  C7  UNL     1      11.738 -30.350   2.241  1.00  0.00     0.177 C 
BRANCH  35  36
HETATM   36  C6  UNL     1      13.018 -30.247   1.454  1.00  0.00     0.057 C 
BRANCH  36  37
HETATM   37  C5  UNL     1      13.922 -31.428   1.649  1.00  0.00     0.274 C 
BRANCH  37  38
HETATM   38  N1  UNL     1      15.110 -31.124   2.386  1.00  0.00     0.090 N 
BRANCH  38  39
HETATM   39  C2  UNL     1      15.188 -31.786   3.659  1.00  0.00     0.268 C 
HETATM   40  C1  UNL     1      14.219 -32.909   3.823  1.00  0.00     0.037 C 
ENDBRANCH  38  39
BRANCH  38  41
HETATM   41  C3  UNL     1      15.217 -29.691   2.566  1.00  0.00     0.298 C 
BRANCH  41  42
HETATM   42  C4  UNL     1      16.682 -29.240   2.528  1.00  0.00     0.194 C 
BRANCH  42  43
HETATM   43  O1  UNL     1      16.855 -28.363   1.465  1.00  0.00    -0.399 OA
ATOM     44  H1  UNL     1      17.474 -28.743   0.851  1.00  0.00     0.209 HD
ENDBRANCH  42  43
ENDBRANCH  41  42
ENDBRANCH  38  41
ENDBRANCH  37  38
ENDBRANCH  36  37
ENDBRANCH  35  36
ENDBRANCH  34  35
ENDBRANCH   1  34
TORSDOF 14
ENDMDL
