MODEL 17
REMARK VINA RESULT: -7.884244609      4.749      6.741
REMARK  13 active torsions:
REMARK  status: ('A' for Active; 'I' for Inactive)
REMARK    1  A    between atoms: C2_2  and  C3_3 
REMARK    2  A    between atoms: C3_3  and  N1_4 
REMARK       I    between atoms: N1_4  and  C4_5 
REMARK    3  A    between atoms: N1_4  and  C12_19 
REMARK       I    between atoms: C4_5  and  N2_7 
REMARK    4  A    between atoms: N2_7  and  C5_9 
REMARK    5  A    between atoms: C5_9  and  C6_10 
REMARK    6  A    between atoms: C5_9  and  C11_16 
REMARK    7  A    between atoms: C6_10  and  S1_11 
REMARK    8  A    between atoms: S1_11  and  C7_12 
REMARK    9  A    between atoms: C7_12  and  C8_13 
REMARK   10  A    between atoms: C12_19  and  O4_20 
REMARK   11  A    between atoms: C12_19  and  C13_22 
REMARK   12  A    between atoms: C17_26  and  C18_27 
REMARK   13  A    between atoms: C19_28  and  C20_29 
ROOT
HETATM    1  C12 UNL     1     -16.491 -25.068 -12.653  1.00  0.00     0.156 C 
ENDROOT
BRANCH   1   2
HETATM    2  N1  UNL     1     -17.726 -24.713 -13.248  1.00  0.00    -0.280 N 
HETATM    3  C4  UNL     1     -18.882 -25.134 -12.478  1.00  0.00     0.325 C 
HETATM    4  O1  UNL     1     -18.698 -25.453 -11.232  1.00  0.00    -0.247 OA
HETATM    5  N2  UNL     1     -20.190 -25.229 -12.968  1.00  0.00    -0.327 N 
ATOM      6  H2  UNL     1     -20.318 -24.982 -13.950  1.00  0.00     0.165 HD
BRANCH   2   7
HETATM    7  C3  UNL     1     -17.929 -24.119 -14.535  1.00  0.00     0.135 C 
BRANCH   7   8
HETATM    8  C2  UNL     1     -17.644 -22.627 -14.521  1.00  0.00     0.016 C 
HETATM    9  C1  UNL     1     -18.837 -21.798 -14.101  1.00  0.00     0.006 C 
ENDBRANCH   7   8
ENDBRANCH   2   7
BRANCH   5  10
HETATM   10  C5  UNL     1     -21.376 -25.631 -12.259  1.00  0.00     0.196 C 
BRANCH  10  11
HETATM   11  C6  UNL     1     -22.218 -24.455 -11.892  1.00  0.00     0.110 C 
BRANCH  11  12
HETATM   12  S1  UNL     1     -22.115 -24.098 -10.086  1.00  0.00    -0.166 SA
BRANCH  12  13
HETATM   13  C7  UNL     1     -20.700 -23.147  -9.612  1.00  0.00     0.077 C 
BRANCH  13  14
HETATM   14  C8  UNL     1     -20.196 -22.173 -10.667  1.00  0.00    -0.013 C 
HETATM   15  C9  UNL     1     -18.689 -22.014 -10.358  1.00  0.00     0.010 C 
HETATM   16  C10 UNL     1     -20.779 -20.787 -10.462  1.00  0.00     0.010 C 
ENDBRANCH  13  14
ENDBRANCH  12  13
ENDBRANCH  11  12
ENDBRANCH  10  11
BRANCH  10  17
HETATM   17  C11 UNL     1     -22.164 -26.709 -12.926  1.00  0.00     0.197 C 
HETATM   18  O2  UNL     1     -23.330 -26.693 -13.282  1.00  0.00    -0.646 OA
HETATM   19  O3  UNL     1     -21.463 -27.952 -13.183  1.00  0.00    -0.646 OA
ENDBRANCH  10  17
ENDBRANCH   5  10
ENDBRANCH   1   2
BRANCH   1  20
HETATM   20  O4  UNL     1     -16.058 -26.306 -12.848  1.00  0.00    -0.345 OA
ATOM     21  H4  UNL     1     -15.898 -26.836 -12.076  1.00  0.00     0.219 HD
ENDBRANCH   1  20
BRANCH   1  22
HETATM   22  C13 UNL     1     -15.566 -24.277 -11.855  1.00  0.00     0.016 A 
HETATM   23  C14 UNL     1     -15.616 -24.153 -10.527  1.00  0.00     0.016 A 
HETATM   24  C15 UNL     1     -14.776 -23.285  -9.828  1.00  0.00     0.002 A 
HETATM   25  C16 UNL     1     -13.883 -22.541 -10.543  1.00  0.00     0.020 A 
HETATM   26  C17 UNL     1     -13.771 -22.604 -11.932  1.00  0.00     0.019 A 
HETATM   27  C26 UNL     1     -14.626 -23.478 -12.542  1.00  0.00     0.036 A 
BRANCH  26  28
HETATM   28  C18 UNL     1     -12.820 -21.760 -12.610  1.00  0.00    -0.061 C 
HETATM   29  C19 UNL     1     -12.046 -21.055 -13.204  1.00  0.00    -0.058 C 
BRANCH  29  30
HETATM   30  C20 UNL     1     -11.159 -20.228 -13.942  1.00  0.00     0.056 A 
HETATM   31  C21 UNL     1     -10.097 -20.828 -14.655  1.00  0.00     0.027 A 
HETATM   32  C22 UNL     1      -9.231 -20.043 -15.376  1.00  0.00     0.044 A 
HETATM   33  C23 UNL     1      -9.375 -18.669 -15.423  1.00  0.00     0.119 A 
HETATM   34  F1  UNL     1      -8.499 -17.945 -16.154  1.00  0.00    -0.206 F 
HETATM   35  C24 UNL     1     -10.393 -18.078 -14.738  1.00  0.00     0.086 A 
HETATM   36  C25 UNL     1     -11.266 -18.876 -14.009  1.00  0.00     0.138 A 
HETATM   37  F2  UNL     1     -12.268 -18.242 -13.333  1.00  0.00    -0.204 F 
ENDBRANCH  29  30
ENDBRANCH  26  28
ENDBRANCH   1  22
TORSDOF 13
ENDMDL
