MODEL 18
REMARK VINA RESULT: -8.669418197      2.165      2.533
REMARK  13 active torsions:
REMARK  status: ('A' for Active; 'I' for Inactive)
REMARK    1  A    between atoms: C2_2  and  C3_3 
REMARK    2  A    between atoms: C3_3  and  N1_4 
REMARK       I    between atoms: N1_4  and  C4_5 
REMARK    3  A    between atoms: N1_4  and  C15_23 
REMARK       I    between atoms: C4_5  and  N2_7 
REMARK    4  A    between atoms: N2_7  and  C5_9 
REMARK    5  A    between atoms: C5_9  and  C6_10 
REMARK    6  A    between atoms: C5_9  and  C14_20 
REMARK    7  A    between atoms: C6_10  and  S1_11 
REMARK    8  A    between atoms: S1_11  and  C7_12 
REMARK    9  A    between atoms: C7_12  and  C8_13 
REMARK   10  A    between atoms: C15_23  and  O4_24 
REMARK   11  A    between atoms: C15_23  and  C16_26 
REMARK   12  A    between atoms: C20_30  and  C21_31 
REMARK   13  A    between atoms: C22_32  and  C23_33 
ROOT
HETATM    1  N1  UNL     1     -17.784 -25.157 -12.655  1.00  0.00    -0.280 N 
HETATM    2  C4  UNL     1     -18.013 -26.540 -12.240  1.00  0.00     0.325 C 
HETATM    3  O1  UNL     1     -18.112 -26.826 -10.996  1.00  0.00    -0.247 OA
HETATM    4  N2  UNL     1     -18.142 -27.616 -13.111  1.00  0.00    -0.327 N 
ATOM      5  H2  UNL     1     -18.076 -27.439 -14.113  1.00  0.00     0.165 HD
ENDROOT
BRANCH   1   6
HETATM    6  C3  UNL     1     -17.660 -24.967 -14.058  1.00  0.00     0.135 C 
BRANCH   6   7
HETATM    7  C2  UNL     1     -18.456 -23.769 -14.490  1.00  0.00     0.016 C 
HETATM    8  C1  UNL     1     -17.634 -22.497 -14.454  1.00  0.00     0.006 C 
ENDBRANCH   6   7
ENDBRANCH   1   6
BRANCH   1   9
HETATM    9  C15 UNL     1     -17.726 -24.250 -11.597  1.00  0.00     0.156 C 
BRANCH   9  10
HETATM   10  O4  UNL     1     -18.870 -23.715 -11.241  1.00  0.00    -0.345 OA
ATOM     11  H4  UNL     1     -19.231 -24.021 -10.416  1.00  0.00     0.219 HD
ENDBRANCH   9  10
BRANCH   9  12
HETATM   12  C16 UNL     1     -16.577 -23.835 -10.849  1.00  0.00     0.016 A 
HETATM   13  C17 UNL     1     -16.341 -23.967  -9.512  1.00  0.00     0.016 A 
HETATM   14  C18 UNL     1     -15.198 -23.460  -8.933  1.00  0.00     0.002 A 
HETATM   15  C19 UNL     1     -14.262 -22.805  -9.687  1.00  0.00     0.020 A 
HETATM   16  C20 UNL     1     -14.431 -22.634 -11.046  1.00  0.00     0.019 A 
HETATM   17  C29 UNL     1     -15.576 -23.151 -11.582  1.00  0.00     0.036 A 
BRANCH  16  18
HETATM   18  C21 UNL     1     -13.445 -21.944 -11.842  1.00  0.00    -0.061 C 
HETATM   19  C22 UNL     1     -12.635 -21.350 -12.510  1.00  0.00    -0.058 C 
BRANCH  19  20
HETATM   20  C23 UNL     1     -11.678 -20.616 -13.301  1.00  0.00     0.056 A 
HETATM   21  C24 UNL     1     -11.638 -19.235 -13.313  1.00  0.00     0.027 A 
HETATM   22  C25 UNL     1     -10.721 -18.531 -14.071  1.00  0.00     0.044 A 
HETATM   23  C26 UNL     1      -9.798 -19.192 -14.856  1.00  0.00     0.119 A 
HETATM   24  F1  UNL     1      -8.881 -18.533 -15.615  1.00  0.00    -0.206 F 
HETATM   25  C27 UNL     1      -9.831 -20.571 -14.850  1.00  0.00     0.086 A 
HETATM   26  C28 UNL     1     -10.749 -21.267 -14.091  1.00  0.00     0.138 A 
HETATM   27  F2  UNL     1     -10.793 -22.638 -14.076  1.00  0.00    -0.204 F 
ENDBRANCH  19  20
ENDBRANCH  16  18
ENDBRANCH   9  12
ENDBRANCH   1   9
BRANCH   4  28
HETATM   28  C5  UNL     1     -18.365 -28.979 -12.662  1.00  0.00     0.196 C 
BRANCH  28  29
HETATM   29  C6  UNL     1     -19.102 -29.815 -13.660  1.00  0.00     0.110 C 
BRANCH  29  30
HETATM   30  S1  UNL     1     -19.493 -28.844 -15.133  1.00  0.00    -0.162 SA
BRANCH  30  31
HETATM   31  C7  UNL     1     -18.536 -29.405 -16.569  1.00  0.00     0.112 C 
BRANCH  31  32
HETATM   32  C8  UNL     1     -17.159 -29.668 -16.110  1.00  0.00    -0.049 A 
HETATM   33  C9  UNL     1     -16.743 -30.960 -15.909  1.00  0.00     0.009 A 
HETATM   34  C10 UNL     1     -15.453 -31.239 -15.478  1.00  0.00     0.019 A 
HETATM   35  C11 UNL     1     -14.593 -30.198 -15.253  1.00  0.00     0.011 A 
HETATM   36 BR1  UNL     1     -12.809 -30.550 -14.658  1.00  0.00    -0.051 Br
HETATM   37  C12 UNL     1     -15.001 -28.900 -15.452  1.00  0.00     0.019 A 
HETATM   38  C13 UNL     1     -16.290 -28.629 -15.882  1.00  0.00     0.009 A 
ENDBRANCH  31  32
ENDBRANCH  30  31
ENDBRANCH  29  30
ENDBRANCH  28  29
BRANCH  28  39
HETATM   39  C14 UNL     1     -17.058 -29.585 -12.361  1.00  0.00     0.197 C 
HETATM   40  O2  UNL     1     -16.954 -30.816 -12.221  1.00  0.00    -0.646 OA
HETATM   41  O3  UNL     1     -15.939 -28.791 -12.232  1.00  0.00    -0.646 OA
ENDBRANCH  28  39
ENDBRANCH   4  28
TORSDOF 13
ENDMDL
