MODEL 8
REMARK VINA RESULT: -9.022851434      3.914      5.604
REMARK  13 active torsions:
REMARK  status: ('A' for Active; 'I' for Inactive)
REMARK    1  A    between atoms: C2_2  and  C3_3 
REMARK    2  A    between atoms: C3_3  and  N1_4 
REMARK       I    between atoms: N1_4  and  C4_5 
REMARK    3  A    between atoms: N1_4  and  C15_23 
REMARK       I    between atoms: C4_5  and  N2_7 
REMARK    4  A    between atoms: N2_7  and  C5_9 
REMARK    5  A    between atoms: C5_9  and  C6_10 
REMARK    6  A    between atoms: C5_9  and  C14_20 
REMARK    7  A    between atoms: C6_10  and  S1_11 
REMARK    8  A    between atoms: S1_11  and  C7_12 
REMARK    9  A    between atoms: C7_12  and  C8_13 
REMARK   10  A    between atoms: C15_23  and  O4_24 
REMARK   11  A    between atoms: C15_23  and  C16_26 
REMARK   12  A    between atoms: C20_30  and  C21_31 
REMARK   13  A    between atoms: C22_32  and  C23_33 
ROOT
HETATM    1  N1  UNL     1     -17.806 -24.801 -13.222  1.00  0.00    -0.280 N 
HETATM    2  C4  UNL     1     -18.984 -25.332 -12.538  1.00  0.00     0.325 C 
HETATM    3  O1  UNL     1     -18.842 -26.113 -11.534  1.00  0.00    -0.247 OA
HETATM    4  N2  UNL     1     -20.298 -25.051 -12.894  1.00  0.00    -0.327 N 
ATOM      5  H2  UNL     1     -20.465 -24.429 -13.686  1.00  0.00     0.165 HD
ENDROOT
BRANCH   1   6
HETATM    6  C3  UNL     1     -18.088 -23.972 -14.341  1.00  0.00     0.135 C 
BRANCH   6   7
HETATM    7  C2  UNL     1     -17.735 -22.545 -14.029  1.00  0.00     0.016 C 
HETATM    8  C1  UNL     1     -18.964 -21.701 -13.759  1.00  0.00     0.006 C 
ENDBRANCH   6   7
ENDBRANCH   1   6
BRANCH   1   9
HETATM    9  C15 UNL     1     -16.596 -25.199 -12.655  1.00  0.00     0.156 C 
BRANCH   9  10
HETATM   10  O4  UNL     1     -16.190 -26.408 -12.965  1.00  0.00    -0.345 OA
ATOM     11  H4  UNL     1     -15.499 -26.765 -12.419  1.00  0.00     0.219 HD
ENDBRANCH   9  10
BRANCH   9  12
HETATM   12  C16 UNL     1     -15.739 -24.452 -11.782  1.00  0.00     0.016 A 
HETATM   13  C17 UNL     1     -15.746 -24.411 -10.419  1.00  0.00     0.016 A 
HETATM   14  C18 UNL     1     -14.884 -23.590  -9.723  1.00  0.00     0.002 A 
HETATM   15  C19 UNL     1     -13.993 -22.789 -10.384  1.00  0.00     0.020 A 
HETATM   16  C20 UNL     1     -13.928 -22.778 -11.764  1.00  0.00     0.019 A 
HETATM   17  C29 UNL     1     -14.797 -23.605 -12.416  1.00  0.00     0.036 A 
BRANCH  16  18
HETATM   18  C21 UNL     1     -12.989 -21.933 -12.462  1.00  0.00    -0.061 C 
HETATM   19  C22 UNL     1     -12.199 -21.244 -13.058  1.00  0.00    -0.058 C 
BRANCH  19  20
HETATM   20  C23 UNL     1     -11.255 -20.437 -13.793  1.00  0.00     0.056 A 
HETATM   21  C24 UNL     1     -10.223 -20.994 -14.524  1.00  0.00     0.027 A 
HETATM   22  C25 UNL     1      -9.319 -20.220 -15.227  1.00  0.00     0.044 A 
HETATM   23  C26 UNL     1      -9.415 -18.844 -15.225  1.00  0.00     0.119 A 
HETATM   24  F1  UNL     1      -8.543 -18.051 -15.906  1.00  0.00    -0.206 F 
HETATM   25  C27 UNL     1     -10.442 -18.280 -14.497  1.00  0.00     0.086 A 
HETATM   26  C28 UNL     1     -11.342 -19.058 -13.798  1.00  0.00     0.138 A 
HETATM   27  F2  UNL     1     -12.368 -18.510 -13.070  1.00  0.00    -0.204 F 
ENDBRANCH  19  20
ENDBRANCH  16  18
ENDBRANCH   9  12
ENDBRANCH   1   9
BRANCH   4  28
HETATM   28  C5  UNL     1     -21.446 -25.601 -12.194  1.00  0.00     0.196 C 
BRANCH  28  29
HETATM   29  C6  UNL     1     -22.466 -24.568 -11.833  1.00  0.00     0.110 C 
BRANCH  29  30
HETATM   30  S1  UNL     1     -21.769 -23.367 -10.676  1.00  0.00    -0.162 SA
BRANCH  30  31
HETATM   31  C7  UNL     1     -20.719 -24.174  -9.437  1.00  0.00     0.112 C 
BRANCH  31  32
HETATM   32  C8  UNL     1     -19.628 -23.240  -9.101  1.00  0.00    -0.049 A 
HETATM   33  C9  UNL     1     -19.034 -22.501 -10.092  1.00  0.00     0.009 A 
HETATM   34  C10 UNL     1     -18.005 -21.613  -9.807  1.00  0.00     0.019 A 
HETATM   35  C11 UNL     1     -17.587 -21.484  -8.510  1.00  0.00     0.011 A 
HETATM   36 BR1  UNL     1     -16.171 -20.270  -8.084  1.00  0.00    -0.051 Br
HETATM   37  C12 UNL     1     -18.176 -22.221  -7.509  1.00  0.00     0.019 A 
HETATM   38  C13 UNL     1     -19.203 -23.104  -7.802  1.00  0.00     0.009 A 
ENDBRANCH  31  32
ENDBRANCH  30  31
ENDBRANCH  29  30
ENDBRANCH  28  29
BRANCH  28  39
HETATM   39  C14 UNL     1     -22.053 -26.635 -13.047  1.00  0.00     0.197 C 
HETATM   40  O2  UNL     1     -21.521 -27.754 -13.152  1.00  0.00    -0.646 OA
HETATM   41  O3  UNL     1     -23.218 -26.371 -13.735  1.00  0.00    -0.646 OA
ENDBRANCH  28  39
ENDBRANCH   4  28
TORSDOF 13
ENDMDL
