MODEL 7
REMARK VINA RESULT: -9.037500231      1.929      2.234
REMARK  13 active torsions:
REMARK  status: ('A' for Active; 'I' for Inactive)
REMARK    1  A    between atoms: C2_2  and  C3_3 
REMARK    2  A    between atoms: C3_3  and  N1_4 
REMARK       I    between atoms: N1_4  and  C4_5 
REMARK    3  A    between atoms: N1_4  and  C15_23 
REMARK       I    between atoms: C4_5  and  N2_7 
REMARK    4  A    between atoms: N2_7  and  C5_9 
REMARK    5  A    between atoms: C5_9  and  C6_10 
REMARK    6  A    between atoms: C5_9  and  C14_20 
REMARK    7  A    between atoms: C6_10  and  S1_11 
REMARK    8  A    between atoms: S1_11  and  C7_12 
REMARK    9  A    between atoms: C7_12  and  C8_13 
REMARK   10  A    between atoms: C15_23  and  O4_24 
REMARK   11  A    between atoms: C15_23  and  C16_26 
REMARK   12  A    between atoms: C20_30  and  C21_31 
REMARK   13  A    between atoms: C22_32  and  C23_33 
ROOT
HETATM    1  N1  UNL     1     -17.133 -25.916 -13.173  1.00  0.00    -0.280 N 
HETATM    2  C4  UNL     1     -17.916 -27.145 -13.061  1.00  0.00     0.325 C 
HETATM    3  O1  UNL     1     -17.508 -28.096 -12.307  1.00  0.00    -0.247 OA
HETATM    4  N2  UNL     1     -19.114 -27.382 -13.724  1.00  0.00    -0.327 N 
ATOM      5  H2  UNL     1     -19.485 -26.652 -14.333  1.00  0.00     0.165 HD
ENDROOT
BRANCH   1   6
HETATM    6  C3  UNL     1     -17.668 -24.945 -14.062  1.00  0.00     0.135 C 
BRANCH   6   7
HETATM    7  C2  UNL     1     -17.918 -23.657 -13.332  1.00  0.00     0.016 C 
HETATM    8  C1  UNL     1     -17.388 -22.459 -14.093  1.00  0.00     0.006 C 
ENDBRANCH   6   7
ENDBRANCH   1   6
BRANCH   1   9
HETATM    9  C15 UNL     1     -15.985 -25.902 -12.381  1.00  0.00     0.156 C 
BRANCH   9  10
HETATM   10  O4  UNL     1     -15.290 -27.015 -12.362  1.00  0.00    -0.345 OA
ATOM     11  H4  UNL     1     -14.825 -27.198 -11.554  1.00  0.00     0.219 HD
ENDBRANCH   9  10
BRANCH   9  12
HETATM   12  C16 UNL     1     -15.469 -24.824 -11.590  1.00  0.00     0.016 A 
HETATM   13  C17 UNL     1     -15.807 -24.468 -10.318  1.00  0.00     0.016 A 
HETATM   14  C18 UNL     1     -15.253 -23.360  -9.713  1.00  0.00     0.002 A 
HETATM   15  C19 UNL     1     -14.341 -22.583 -10.376  1.00  0.00     0.020 A 
HETATM   16  C20 UNL     1     -13.950 -22.882 -11.665  1.00  0.00     0.019 A 
HETATM   17  C29 UNL     1     -14.522 -23.987 -12.230  1.00  0.00     0.036 A 
BRANCH  16  18
HETATM   18  C21 UNL     1     -12.990 -22.063 -12.366  1.00  0.00    -0.061 C 
HETATM   19  C22 UNL     1     -12.201 -21.378 -12.969  1.00  0.00    -0.058 C 
BRANCH  19  20
HETATM   20  C23 UNL     1     -11.278 -20.550 -13.706  1.00  0.00     0.056 A 
HETATM   21  C24 UNL     1     -10.244 -21.084 -14.450  1.00  0.00     0.027 A 
HETATM   22  C25 UNL     1      -9.359 -20.290 -15.156  1.00  0.00     0.044 A 
HETATM   23  C26 UNL     1      -9.477 -18.916 -15.142  1.00  0.00     0.119 A 
HETATM   24  F1  UNL     1      -8.624 -18.104 -15.825  1.00  0.00    -0.206 F 
HETATM   25  C27 UNL     1     -10.506 -18.375 -14.400  1.00  0.00     0.086 A 
HETATM   26  C28 UNL     1     -11.387 -19.172 -13.699  1.00  0.00     0.138 A 
HETATM   27  F2  UNL     1     -12.414 -18.647 -12.958  1.00  0.00    -0.204 F 
ENDBRANCH  19  20
ENDBRANCH  16  18
ENDBRANCH   9  12
ENDBRANCH   1   9
BRANCH   4  28
HETATM   28  C5  UNL     1     -19.865 -28.619 -13.592  1.00  0.00     0.196 C 
BRANCH  28  29
HETATM   29  C6  UNL     1     -19.044 -29.839 -13.870  1.00  0.00     0.110 C 
BRANCH  29  30
HETATM   30  S1  UNL     1     -18.970 -30.161 -15.647  1.00  0.00    -0.162 SA
BRANCH  30  31
HETATM   31  C7  UNL     1     -17.739 -29.107 -16.460  1.00  0.00     0.112 C 
BRANCH  31  32
HETATM   32  C8  UNL     1     -16.406 -29.544 -16.000  1.00  0.00    -0.049 A 
HETATM   33  C9  UNL     1     -16.017 -30.847 -16.177  1.00  0.00     0.009 A 
HETATM   34  C10 UNL     1     -14.770 -31.287 -15.755  1.00  0.00     0.019 A 
HETATM   35  C11 UNL     1     -13.925 -30.393 -15.153  1.00  0.00     0.011 A 
HETATM   36 BR1  UNL     1     -12.199 -30.968 -14.560  1.00  0.00    -0.051 Br
HETATM   37  C12 UNL     1     -14.306 -29.085 -14.972  1.00  0.00     0.019 A 
HETATM   38  C13 UNL     1     -15.552 -28.653 -15.396  1.00  0.00     0.009 A 
ENDBRANCH  31  32
ENDBRANCH  30  31
ENDBRANCH  29  30
ENDBRANCH  28  29
BRANCH  28  39
HETATM   39  C14 UNL     1     -20.416 -28.680 -12.229  1.00  0.00     0.197 C 
HETATM   40  O2  UNL     1     -20.253 -29.695 -11.531  1.00  0.00    -0.646 OA
HETATM   41  O3  UNL     1     -21.118 -27.610 -11.716  1.00  0.00    -0.646 OA
ENDBRANCH  28  39
ENDBRANCH   4  28
TORSDOF 13
ENDMDL
