MODEL 10
REMARK VINA RESULT: -8.848869270      5.469      7.192
REMARK  13 active torsions:
REMARK  status: ('A' for Active; 'I' for Inactive)
REMARK    1  A    between atoms: C2_2  and  C3_3 
REMARK    2  A    between atoms: C3_3  and  N1_4 
REMARK       I    between atoms: N1_4  and  C4_5 
REMARK    3  A    between atoms: N1_4  and  C15_23 
REMARK       I    between atoms: C4_5  and  N2_7 
REMARK    4  A    between atoms: N2_7  and  C5_9 
REMARK    5  A    between atoms: C5_9  and  C6_10 
REMARK    6  A    between atoms: C5_9  and  C14_20 
REMARK    7  A    between atoms: C6_10  and  S1_11 
REMARK    8  A    between atoms: S1_11  and  C7_12 
REMARK    9  A    between atoms: C7_12  and  C8_13 
REMARK   10  A    between atoms: C15_23  and  O4_24 
REMARK   11  A    between atoms: C15_23  and  C16_26 
REMARK   12  A    between atoms: C20_30  and  C21_31 
REMARK   13  A    between atoms: C22_32  and  C23_33 
ROOT
HETATM    1  N1  UNL     1     -17.315 -22.128  -7.783  1.00  0.00    -0.280 N 
HETATM    2  C4  UNL     1     -18.361 -21.163  -8.121  1.00  0.00     0.325 C 
HETATM    3  O1  UNL     1     -18.123 -20.233  -8.968  1.00  0.00    -0.247 OA
HETATM    4  N2  UNL     1     -19.643 -21.168  -7.585  1.00  0.00    -0.327 N 
ATOM      5  H2  UNL     1     -19.885 -21.892  -6.909  1.00  0.00     0.165 HD
ENDROOT
BRANCH   1   6
HETATM    6  C3  UNL     1     -17.685 -23.093  -6.808  1.00  0.00     0.135 C 
BRANCH   6   7
HETATM    7  C2  UNL     1     -18.277 -24.301  -7.477  1.00  0.00     0.016 C 
HETATM    8  C1  UNL     1     -17.596 -25.583  -7.042  1.00  0.00     0.006 C 
ENDBRANCH   6   7
ENDBRANCH   1   6
BRANCH   1   9
HETATM    9  C15 UNL     1     -16.123 -21.937  -8.481  1.00  0.00     0.156 C 
BRANCH   9  10
HETATM   10  O4  UNL     1     -15.387 -20.924  -8.089  1.00  0.00    -0.345 OA
ATOM     11  H4  UNL     1     -14.557 -20.817  -8.539  1.00  0.00     0.219 HD
ENDBRANCH   9  10
BRANCH   9  12
HETATM   12  C16 UNL     1     -15.600 -22.712  -9.567  1.00  0.00     0.016 A 
HETATM   13  C17 UNL     1     -15.866 -24.010  -9.888  1.00  0.00     0.016 A 
HETATM   14  C18 UNL     1     -15.232 -24.631 -10.943  1.00  0.00     0.002 A 
HETATM   15  C19 UNL     1     -14.312 -23.959 -11.701  1.00  0.00     0.020 A 
HETATM   16  C20 UNL     1     -13.991 -22.643 -11.436  1.00  0.00     0.019 A 
HETATM   17  C29 UNL     1     -14.641 -22.063 -10.384  1.00  0.00     0.036 A 
BRANCH  16  18
HETATM   18  C21 UNL     1     -13.021 -21.933 -12.234  1.00  0.00    -0.061 C 
HETATM   19  C22 UNL     1     -12.216 -21.321 -12.892  1.00  0.00    -0.058 C 
BRANCH  19  20
HETATM   20  C23 UNL     1     -11.254 -20.569 -13.660  1.00  0.00     0.056 A 
HETATM   21  C24 UNL     1     -10.238 -21.182 -14.369  1.00  0.00     0.027 A 
HETATM   22  C25 UNL     1      -9.316 -20.461 -15.105  1.00  0.00     0.044 A 
HETATM   23  C26 UNL     1      -9.376 -19.084 -15.158  1.00  0.00     0.119 A 
HETATM   24  F1  UNL     1      -8.485 -18.343 -15.872  1.00  0.00    -0.206 F 
HETATM   25  C27 UNL     1     -10.386 -18.464 -14.452  1.00  0.00     0.086 A 
HETATM   26  C28 UNL     1     -11.304 -19.189 -13.721  1.00  0.00     0.138 A 
HETATM   27  F2  UNL     1     -12.314 -18.586 -13.015  1.00  0.00    -0.204 F 
ENDBRANCH  19  20
ENDBRANCH  16  18
ENDBRANCH   9  12
ENDBRANCH   1   9
BRANCH   4  28
HETATM   28  C5  UNL     1     -20.657 -20.190  -7.942  1.00  0.00     0.196 C 
BRANCH  28  29
HETATM   29  C6  UNL     1     -22.038 -20.764  -7.992  1.00  0.00     0.110 C 
BRANCH  29  30
HETATM   30  S1  UNL     1     -22.364 -21.485  -9.617  1.00  0.00    -0.162 SA
BRANCH  30  31
HETATM   31  C7  UNL     1     -21.598 -23.121  -9.781  1.00  0.00     0.112 C 
BRANCH  31  32
HETATM   32  C8  UNL     1     -20.511 -23.006 -10.772  1.00  0.00    -0.049 A 
HETATM   33  C9  UNL     1     -19.783 -24.116 -11.117  1.00  0.00     0.009 A 
HETATM   34  C10 UNL     1     -18.754 -24.038 -12.047  1.00  0.00     0.019 A 
HETATM   35  C11 UNL     1     -18.474 -22.828 -12.620  1.00  0.00     0.011 A 
HETATM   36 BR1  UNL     1     -17.062 -22.689 -13.905  1.00  0.00    -0.051 Br
HETATM   37  C12 UNL     1     -19.198 -21.710 -12.281  1.00  0.00     0.019 A 
HETATM   38  C13 UNL     1     -20.223 -21.794 -11.353  1.00  0.00     0.009 A 
ENDBRANCH  31  32
ENDBRANCH  30  31
ENDBRANCH  29  30
ENDBRANCH  28  29
BRANCH  28  39
HETATM   39  C14 UNL     1     -20.601 -19.092  -6.964  1.00  0.00     0.197 C 
HETATM   40  O2  UNL     1     -20.670 -17.909  -7.342  1.00  0.00    -0.646 OA
HETATM   41  O3  UNL     1     -20.472 -19.366  -5.619  1.00  0.00    -0.646 OA
ENDBRANCH  28  39
ENDBRANCH   4  28
TORSDOF 13
ENDMDL
