MODEL 9
REMARK VINA RESULT: -8.858496529      1.762      2.108
REMARK  13 active torsions:
REMARK  status: ('A' for Active; 'I' for Inactive)
REMARK    1  A    between atoms: C2_2  and  C3_3 
REMARK    2  A    between atoms: C3_3  and  N1_4 
REMARK       I    between atoms: N1_4  and  C4_5 
REMARK    3  A    between atoms: N1_4  and  C15_23 
REMARK       I    between atoms: C4_5  and  N2_7 
REMARK    4  A    between atoms: N2_7  and  C5_9 
REMARK    5  A    between atoms: C5_9  and  C6_10 
REMARK    6  A    between atoms: C5_9  and  C14_20 
REMARK    7  A    between atoms: C6_10  and  S1_11 
REMARK    8  A    between atoms: S1_11  and  C7_12 
REMARK    9  A    between atoms: C7_12  and  C8_13 
REMARK   10  A    between atoms: C15_23  and  O4_24 
REMARK   11  A    between atoms: C15_23  and  C16_26 
REMARK   12  A    between atoms: C20_30  and  C21_31 
REMARK   13  A    between atoms: C22_32  and  C23_33 
ROOT
HETATM    1  N1  UNL     1     -17.387 -26.217 -13.230  1.00  0.00    -0.280 N 
HETATM    2  C4  UNL     1     -17.717 -27.544 -13.747  1.00  0.00     0.325 C 
HETATM    3  O1  UNL     1     -16.819 -28.456 -13.785  1.00  0.00    -0.247 OA
HETATM    4  N2  UNL     1     -18.969 -27.920 -14.216  1.00  0.00    -0.327 N 
ATOM      5  H2  UNL     1     -19.721 -27.230 -14.202  1.00  0.00     0.165 HD
ENDROOT
BRANCH   1   6
HETATM    6  C3  UNL     1     -18.454 -25.279 -13.267  1.00  0.00     0.135 C 
BRANCH   6   7
HETATM    7  C2  UNL     1     -18.286 -24.351 -14.436  1.00  0.00     0.016 C 
HETATM    8  C1  UNL     1     -17.751 -22.997 -14.015  1.00  0.00     0.006 C 
ENDBRANCH   6   7
ENDBRANCH   1   6
BRANCH   1   9
HETATM    9  C15 UNL     1     -16.071 -26.094 -12.784  1.00  0.00     0.156 C 
BRANCH   9  10
HETATM   10  O4  UNL     1     -15.232 -27.003 -13.221  1.00  0.00    -0.345 OA
ATOM     11  H4  UNL     1     -14.411 -26.675 -13.570  1.00  0.00     0.219 HD
ENDBRANCH   9  10
BRANCH   9  12
HETATM   12  C16 UNL     1     -15.522 -25.099 -11.911  1.00  0.00     0.016 A 
HETATM   13  C17 UNL     1     -15.788 -24.888 -10.590  1.00  0.00     0.016 A 
HETATM   14  C18 UNL     1     -15.213 -23.843  -9.901  1.00  0.00     0.002 A 
HETATM   15  C19 UNL     1     -14.352 -22.981 -10.527  1.00  0.00     0.020 A 
HETATM   16  C20 UNL     1     -14.034 -23.132 -11.862  1.00  0.00     0.019 A 
HETATM   17  C29 UNL     1     -14.625 -24.180 -12.509  1.00  0.00     0.036 A 
BRANCH  16  18
HETATM   18  C21 UNL     1     -13.128 -22.224 -12.523  1.00  0.00    -0.061 C 
HETATM   19  C22 UNL     1     -12.354 -21.480 -13.073  1.00  0.00    -0.058 C 
BRANCH  19  20
HETATM   20  C23 UNL     1     -11.415 -20.611 -13.740  1.00  0.00     0.056 A 
HETATM   21  C24 UNL     1     -11.555 -19.237 -13.738  1.00  0.00     0.027 A 
HETATM   22  C25 UNL     1     -10.655 -18.404 -14.377  1.00  0.00     0.044 A 
HETATM   23  C26 UNL     1      -9.568 -18.923 -15.049  1.00  0.00     0.119 A 
HETATM   24  F1  UNL     1      -8.662 -18.135 -15.689  1.00  0.00    -0.206 F 
HETATM   25  C27 UNL     1      -9.421 -20.295 -15.056  1.00  0.00     0.086 A 
HETATM   26  C28 UNL     1     -10.322 -21.120 -14.416  1.00  0.00     0.138 A 
HETATM   27  F2  UNL     1     -10.188 -22.485 -14.415  1.00  0.00    -0.204 F 
ENDBRANCH  19  20
ENDBRANCH  16  18
ENDBRANCH   9  12
ENDBRANCH   1   9
BRANCH   4  28
HETATM   28  C5  UNL     1     -19.261 -29.249 -14.727  1.00  0.00     0.196 C 
BRANCH  28  29
HETATM   29  C6  UNL     1     -19.924 -30.135 -13.721  1.00  0.00     0.110 C 
BRANCH  29  30
HETATM   30  S1  UNL     1     -19.013 -31.685 -13.542  1.00  0.00    -0.162 SA
BRANCH  30  31
HETATM   31  C7  UNL     1     -18.260 -32.194 -15.112  1.00  0.00     0.112 C 
BRANCH  31  32
HETATM   32  C8  UNL     1     -16.810 -31.941 -15.013  1.00  0.00    -0.049 A 
HETATM   33  C9  UNL     1     -16.196 -31.125 -15.928  1.00  0.00     0.009 A 
HETATM   34  C10 UNL     1     -14.833 -30.868 -15.860  1.00  0.00     0.019 A 
HETATM   35  C11 UNL     1     -14.102 -31.447 -14.858  1.00  0.00     0.011 A 
HETATM   36 BR1  UNL     1     -12.222 -31.113 -14.738  1.00  0.00    -0.051 Br
HETATM   37  C12 UNL     1     -14.709 -32.266 -13.936  1.00  0.00     0.019 A 
HETATM   38  C13 UNL     1     -16.069 -32.518 -14.009  1.00  0.00     0.009 A 
ENDBRANCH  31  32
ENDBRANCH  30  31
ENDBRANCH  29  30
ENDBRANCH  28  29
BRANCH  28  39
HETATM   39  C14 UNL     1     -20.114 -29.107 -15.918  1.00  0.00     0.197 C 
HETATM   40  O2  UNL     1     -19.748 -29.572 -17.011  1.00  0.00    -0.646 OA
HETATM   41  O3  UNL     1     -21.326 -28.458 -15.829  1.00  0.00    -0.646 OA
ENDBRANCH  28  39
ENDBRANCH   4  28
TORSDOF 13
ENDMDL
