MODEL 6
REMARK VINA RESULT: -9.047699503      3.742      5.429
REMARK  13 active torsions:
REMARK  status: ('A' for Active; 'I' for Inactive)
REMARK    1  A    between atoms: C2_2  and  C3_3 
REMARK    2  A    between atoms: C3_3  and  N1_4 
REMARK       I    between atoms: N1_4  and  C4_5 
REMARK    3  A    between atoms: N1_4  and  C15_23 
REMARK       I    between atoms: C4_5  and  N2_7 
REMARK    4  A    between atoms: N2_7  and  C5_9 
REMARK    5  A    between atoms: C5_9  and  C6_10 
REMARK    6  A    between atoms: C5_9  and  C14_20 
REMARK    7  A    between atoms: C6_10  and  S1_11 
REMARK    8  A    between atoms: S1_11  and  C7_12 
REMARK    9  A    between atoms: C7_12  and  C8_13 
REMARK   10  A    between atoms: C15_23  and  O4_24 
REMARK   11  A    between atoms: C15_23  and  C16_26 
REMARK   12  A    between atoms: C20_30  and  C21_31 
REMARK   13  A    between atoms: C22_32  and  C23_33 
ROOT
HETATM    1  N1  UNL     1     -18.029 -24.851 -13.410  1.00  0.00    -0.280 N 
HETATM    2  C4  UNL     1     -19.196 -25.390 -12.713  1.00  0.00     0.325 C 
HETATM    3  O1  UNL     1     -19.038 -26.211 -11.744  1.00  0.00    -0.247 OA
HETATM    4  N2  UNL     1     -20.514 -25.077 -13.021  1.00  0.00    -0.327 N 
ATOM      5  H2  UNL     1     -20.693 -24.422 -13.783  1.00  0.00     0.165 HD
ENDROOT
BRANCH   1   6
HETATM    6  C3  UNL     1     -18.328 -23.976 -14.488  1.00  0.00     0.135 C 
BRANCH   6   7
HETATM    7  C2  UNL     1     -17.838 -22.590 -14.180  1.00  0.00     0.016 C 
HETATM    8  C1  UNL     1     -18.973 -21.650 -13.827  1.00  0.00     0.006 C 
ENDBRANCH   6   7
ENDBRANCH   1   6
BRANCH   1   9
HETATM    9  C15 UNL     1     -16.809 -25.289 -12.893  1.00  0.00     0.156 C 
BRANCH   9  10
HETATM   10  O4  UNL     1     -16.409 -26.471 -13.297  1.00  0.00    -0.345 OA
ATOM     11  H4  UNL     1     -15.470 -26.582 -13.385  1.00  0.00     0.219 HD
ENDBRANCH   9  10
BRANCH   9  12
HETATM   12  C16 UNL     1     -15.939 -24.607 -11.981  1.00  0.00     0.016 A 
HETATM   13  C17 UNL     1     -15.959 -24.622 -10.618  1.00  0.00     0.016 A 
HETATM   14  C18 UNL     1     -15.079 -23.860  -9.880  1.00  0.00     0.002 A 
HETATM   15  C19 UNL     1     -14.155 -23.061 -10.499  1.00  0.00     0.020 A 
HETATM   16  C20 UNL     1     -14.075 -22.994 -11.875  1.00  0.00     0.019 A 
HETATM   17  C29 UNL     1     -14.964 -23.765 -12.570  1.00  0.00     0.036 A 
BRANCH  16  18
HETATM   18  C21 UNL     1     -13.103 -22.152 -12.529  1.00  0.00    -0.061 C 
HETATM   19  C22 UNL     1     -12.306 -21.440 -13.089  1.00  0.00    -0.058 C 
BRANCH  19  20
HETATM   20  C23 UNL     1     -11.373 -20.572 -13.764  1.00  0.00     0.056 A 
HETATM   21  C24 UNL     1     -11.519 -19.198 -13.771  1.00  0.00     0.027 A 
HETATM   22  C25 UNL     1     -10.625 -18.365 -14.418  1.00  0.00     0.044 A 
HETATM   23  C26 UNL     1      -9.539 -18.884 -15.093  1.00  0.00     0.119 A 
HETATM   24  F1  UNL     1      -8.639 -18.095 -15.741  1.00  0.00    -0.206 F 
HETATM   25  C27 UNL     1      -9.387 -20.255 -15.092  1.00  0.00     0.086 A 
HETATM   26  C28 UNL     1     -10.282 -21.080 -14.443  1.00  0.00     0.138 A 
HETATM   27  F2  UNL     1     -10.142 -22.444 -14.435  1.00  0.00    -0.204 F 
ENDBRANCH  19  20
ENDBRANCH  16  18
ENDBRANCH   9  12
ENDBRANCH   1   9
BRANCH   4  28
HETATM   28  C5  UNL     1     -21.651 -25.636 -12.309  1.00  0.00     0.196 C 
BRANCH  28  29
HETATM   29  C6  UNL     1     -22.651 -24.603 -11.892  1.00  0.00     0.110 C 
BRANCH  29  30
HETATM   30  S1  UNL     1     -21.904 -23.430 -10.738  1.00  0.00    -0.162 SA
BRANCH  30  31
HETATM   31  C7  UNL     1     -20.867 -24.275  -9.513  1.00  0.00     0.112 C 
BRANCH  31  32
HETATM   32  C8  UNL     1     -19.734 -23.383  -9.198  1.00  0.00    -0.049 A 
HETATM   33  C9  UNL     1     -19.217 -23.361  -7.928  1.00  0.00     0.009 A 
HETATM   34  C10 UNL     1     -18.151 -22.532  -7.602  1.00  0.00     0.019 A 
HETATM   35  C11 UNL     1     -17.619 -21.729  -8.574  1.00  0.00     0.011 A 
HETATM   36 BR1  UNL     1     -16.151 -20.576  -8.155  1.00  0.00    -0.051 Br
HETATM   37  C12 UNL     1     -18.131 -21.744  -9.850  1.00  0.00     0.019 A 
HETATM   38  C13 UNL     1     -19.195 -22.573 -10.168  1.00  0.00     0.009 A 
ENDBRANCH  31  32
ENDBRANCH  30  31
ENDBRANCH  29  30
ENDBRANCH  28  29
BRANCH  28  39
HETATM   39  C14 UNL     1     -22.290 -26.637 -13.178  1.00  0.00     0.197 C 
HETATM   40  O2  UNL     1     -23.199 -26.304 -13.957  1.00  0.00    -0.646 OA
HETATM   41  O3  UNL     1     -21.885 -27.954 -13.133  1.00  0.00    -0.646 OA
ENDBRANCH  28  39
ENDBRANCH   4  28
TORSDOF 13
ENDMDL
