MODEL 1
REMARK VINA RESULT: -9.416429140      0.000      0.000
REMARK  13 active torsions:
REMARK  status: ('A' for Active; 'I' for Inactive)
REMARK    1  A    between atoms: C2_2  and  C3_3 
REMARK    2  A    between atoms: C3_3  and  N1_4 
REMARK       I    between atoms: N1_4  and  C4_5 
REMARK    3  A    between atoms: N1_4  and  C15_23 
REMARK       I    between atoms: C4_5  and  N2_7 
REMARK    4  A    between atoms: N2_7  and  C5_9 
REMARK    5  A    between atoms: C5_9  and  C6_10 
REMARK    6  A    between atoms: C5_9  and  C14_20 
REMARK    7  A    between atoms: C6_10  and  S1_11 
REMARK    8  A    between atoms: S1_11  and  C7_12 
REMARK    9  A    between atoms: C7_12  and  C8_13 
REMARK   10  A    between atoms: C15_23  and  O4_24 
REMARK   11  A    between atoms: C15_23  and  C16_26 
REMARK   12  A    between atoms: C20_30  and  C21_31 
REMARK   13  A    between atoms: C22_32  and  C23_33 
ROOT
HETATM    1  N1  UNL     1     -19.030 -24.695 -13.104  1.00  0.00    -0.280 N 
HETATM    2  C4  UNL     1     -19.179 -25.865 -13.969  1.00  0.00     0.325 C 
HETATM    3  O1  UNL     1     -18.279 -26.137 -14.837  1.00  0.00    -0.247 OA
HETATM    4  N2  UNL     1     -20.255 -26.744 -13.929  1.00  0.00    -0.327 N 
ATOM      5  H2  UNL     1     -20.997 -26.573 -13.251  1.00  0.00     0.165 HD
ENDROOT
BRANCH   1   6
HETATM    6  C3  UNL     1     -20.107 -24.476 -12.204  1.00  0.00     0.135 C 
BRANCH   6   7
HETATM    7  C2  UNL     1     -20.311 -23.003 -11.991  1.00  0.00     0.016 C 
HETATM    8  C1  UNL     1     -19.864 -22.560 -10.612  1.00  0.00     0.006 C 
ENDBRANCH   6   7
ENDBRANCH   1   6
BRANCH   1   9
HETATM    9  C15 UNL     1     -17.846 -23.987 -13.310  1.00  0.00     0.156 C 
BRANCH   9  10
HETATM   10  O4  UNL     1     -17.805 -23.243 -14.390  1.00  0.00    -0.345 OA
ATOM     11  H4  UNL     1     -17.302 -22.440 -14.319  1.00  0.00     0.219 HD
ENDBRANCH   9  10
BRANCH   9  12
HETATM   12  C16 UNL     1     -16.672 -23.969 -12.488  1.00  0.00     0.016 A 
HETATM   13  C17 UNL     1     -16.476 -24.563 -11.276  1.00  0.00     0.016 A 
HETATM   14  C18 UNL     1     -15.296 -24.402 -10.583  1.00  0.00     0.002 A 
HETATM   15  C19 UNL     1     -14.281 -23.637 -11.093  1.00  0.00     0.020 A 
HETATM   16  C20 UNL     1     -14.407 -23.006 -12.315  1.00  0.00     0.019 A 
HETATM   17  C29 UNL     1     -15.591 -23.191 -12.971  1.00  0.00     0.036 A 
BRANCH  16  18
HETATM   18  C21 UNL     1     -13.340 -22.199 -12.854  1.00  0.00    -0.061 C 
HETATM   19  C22 UNL     1     -12.460 -21.519 -13.322  1.00  0.00    -0.058 C 
BRANCH  19  20
HETATM   20  C23 UNL     1     -11.427 -20.691 -13.895  1.00  0.00     0.056 A 
HETATM   21  C24 UNL     1     -11.507 -19.312 -13.899  1.00  0.00     0.027 A 
HETATM   22  C25 UNL     1     -10.517 -18.519 -14.448  1.00  0.00     0.044 A 
HETATM   23  C26 UNL     1      -9.397 -19.083 -15.022  1.00  0.00     0.119 A 
HETATM   24  F1  UNL     1      -8.403 -18.334 -15.572  1.00  0.00    -0.206 F 
HETATM   25  C27 UNL     1      -9.309 -20.460 -15.023  1.00  0.00     0.086 A 
HETATM   26  C28 UNL     1     -10.300 -21.246 -14.472  1.00  0.00     0.138 A 
HETATM   27  F2  UNL     1     -10.226 -22.616 -14.466  1.00  0.00    -0.204 F 
ENDBRANCH  19  20
ENDBRANCH  16  18
ENDBRANCH   9  12
ENDBRANCH   1   9
BRANCH   4  28
HETATM   28  C5  UNL     1     -20.373 -27.896 -14.807  1.00  0.00     0.196 C 
BRANCH  28  29
HETATM   29  C6  UNL     1     -19.753 -29.134 -14.242  1.00  0.00     0.110 C 
BRANCH  29  30
HETATM   30  S1  UNL     1     -18.933 -30.083 -15.543  1.00  0.00    -0.162 SA
BRANCH  30  31
HETATM   31  C7  UNL     1     -17.701 -29.079 -16.418  1.00  0.00     0.112 C 
BRANCH  31  32
HETATM   32  C8  UNL     1     -16.367 -29.519 -15.967  1.00  0.00    -0.049 A 
HETATM   33  C9  UNL     1     -15.954 -30.804 -16.211  1.00  0.00     0.009 A 
HETATM   34  C10 UNL     1     -14.704 -31.246 -15.799  1.00  0.00     0.019 A 
HETATM   35  C11 UNL     1     -13.881 -30.375 -15.138  1.00  0.00     0.011 A 
HETATM   36 BR1  UNL     1     -12.153 -30.954 -14.557  1.00  0.00    -0.051 Br
HETATM   37  C12 UNL     1     -14.286 -29.085 -14.889  1.00  0.00     0.019 A 
HETATM   38  C13 UNL     1     -15.535 -28.650 -15.303  1.00  0.00     0.009 A 
ENDBRANCH  31  32
ENDBRANCH  30  31
ENDBRANCH  29  30
ENDBRANCH  28  29
BRANCH  28  39
HETATM   39  C14 UNL     1     -21.801 -28.123 -15.079  1.00  0.00     0.197 C 
HETATM   40  O2  UNL     1     -22.405 -29.057 -14.523  1.00  0.00    -0.646 OA
HETATM   41  O3  UNL     1     -22.481 -27.301 -15.951  1.00  0.00    -0.646 OA
ENDBRANCH  28  39
ENDBRANCH   4  28
TORSDOF 13
ENDMDL
