MODEL 5
REMARK VINA RESULT: -6.542269426      3.626      6.335
REMARK  4 active torsions:
REMARK  status: ('A' for Active; 'I' for Inactive)
REMARK    1  A    between atoms: C2_2  and  C3_3 
REMARK    2  A    between atoms: C5_5  and  C6_6 
REMARK    3  A    between atoms: C9_11  and  C10_12 
REMARK    4  A    between atoms: C12_15  and  O3_16 
ROOT
HETATM    1  C6  UNL     1     -15.338  32.564 -28.011  1.00  0.00     0.080 C 
HETATM    2  C7  UNL     1     -14.143  33.387 -28.420  1.00  0.00     0.039 C 
HETATM    3  S1  UNL     1     -15.471  31.103 -29.076  1.00  0.00    -0.066 SA
HETATM    4  C8  UNL     1     -17.208  31.316 -29.382  1.00  0.00     0.226 C 
HETATM    5  O1  UNL     1     -17.970  30.480 -29.843  1.00  0.00    -0.280 OA
HETATM    6  C9  UNL     1     -17.508  32.668 -28.971  1.00  0.00     0.097 C 
HETATM    7  C12 UNL     1     -16.590  33.270 -28.303  1.00  0.00     0.084 C 
ENDROOT
BRANCH   1   8
HETATM    8  C5  UNL     1     -15.254  32.088 -26.615  1.00  0.00     0.007 C 
HETATM    9  C3  UNL     1     -14.343  31.303 -26.117  1.00  0.00    -0.065 C 
HETATM   10  C4  UNL     1     -13.244  30.793 -26.969  1.00  0.00     0.048 C 
BRANCH   9  11
HETATM   11  C2  UNL     1     -14.375  30.906 -24.718  1.00  0.00    -0.004 C 
HETATM   12  C1  UNL     1     -14.218  31.765 -23.735  1.00  0.00     0.012 C 
ENDBRANCH   9  11
ENDBRANCH   1   8
BRANCH   7  13
HETATM   13  O3  UNL     1     -16.702  34.606 -27.812  1.00  0.00    -0.362 OA
ATOM     14  H3  UNL     1     -17.579  34.968 -27.755  1.00  0.00     0.217 HD
ENDBRANCH   7  13
BRANCH   6  15
HETATM   15  C10 UNL     1     -18.801  33.274 -29.324  1.00  0.00     0.162 C 
HETATM   16  C11 UNL     1     -19.269  33.403 -30.711  1.00  0.00     0.097 C 
HETATM   17  O2  UNL     1     -19.555  33.709 -28.419  1.00  0.00    -0.293 OA
ENDBRANCH   6  15
TORSDOF 4
ENDMDL
