MODEL 2
REMARK VINA RESULT: -6.968070336      2.943      5.623
REMARK  4 active torsions:
REMARK  status: ('A' for Active; 'I' for Inactive)
REMARK    1  A    between atoms: C2_2  and  C3_3 
REMARK    2  A    between atoms: C5_5  and  C6_6 
REMARK    3  A    between atoms: C9_11  and  C10_12 
REMARK    4  A    between atoms: C12_15  and  O3_16 
ROOT
HETATM    1  C6  UNL     1     -18.607  34.662 -30.662  1.00  0.00     0.080 C 
HETATM    2  C7  UNL     1     -19.112  33.503 -31.482  1.00  0.00     0.039 C 
HETATM    3  S1  UNL     1     -20.000  35.499 -29.857  1.00  0.00    -0.066 SA
HETATM    4  C8  UNL     1     -19.466  37.128 -30.324  1.00  0.00     0.226 C 
HETATM    5  O1  UNL     1     -19.862  38.182 -29.852  1.00  0.00    -0.280 OA
HETATM    6  C9  UNL     1     -18.481  36.928 -31.363  1.00  0.00     0.097 C 
HETATM    7  C12 UNL     1     -18.068  35.721 -31.521  1.00  0.00     0.084 C 
ENDROOT
BRANCH   1   8
HETATM    8  C5  UNL     1     -17.669  34.245 -29.599  1.00  0.00     0.007 C 
HETATM    9  C3  UNL     1     -17.546  33.050 -29.097  1.00  0.00    -0.065 C 
HETATM   10  C4  UNL     1     -18.396  31.940 -29.586  1.00  0.00     0.048 C 
BRANCH   9  11
HETATM   11  C2  UNL     1     -16.578  32.770 -28.048  1.00  0.00    -0.004 C 
HETATM   12  C1  UNL     1     -15.612  31.890 -28.194  1.00  0.00     0.012 C 
ENDBRANCH   9  11
ENDBRANCH   1   8
BRANCH   7  13
HETATM   13  O3  UNL     1     -17.100  35.328 -32.494  1.00  0.00    -0.362 OA
ATOM     14  H3  UNL     1     -16.278  35.805 -32.496  1.00  0.00     0.217 HD
ENDBRANCH   7  13
BRANCH   6  15
HETATM   15  C10 UNL     1     -18.015  38.070 -32.164  1.00  0.00     0.162 C 
HETATM   16  C11 UNL     1     -18.915  39.130 -32.640  1.00  0.00     0.097 C 
HETATM   17  O2  UNL     1     -16.802  38.164 -32.469  1.00  0.00    -0.293 OA
ENDBRANCH   6  15
TORSDOF 4
ENDMDL
