MODEL 10
REMARK VINA RESULT: -5.935602288      1.930      3.839
REMARK  4 active torsions:
REMARK  status: ('A' for Active; 'I' for Inactive)
REMARK    1  A    between atoms: C2_2  and  C3_3 
REMARK    2  A    between atoms: C5_5  and  C6_6 
REMARK    3  A    between atoms: C9_11  and  C10_12 
REMARK    4  A    between atoms: C12_15  and  O3_16 
ROOT
HETATM    1  C6  UNL     1     -18.877  35.069 -30.122  1.00  0.00     0.080 C 
HETATM    2  C7  UNL     1     -19.437  35.987 -29.066  1.00  0.00     0.039 C 
HETATM    3  S1  UNL     1     -20.176  34.638 -31.311  1.00  0.00    -0.066 SA
HETATM    4  C8  UNL     1     -19.809  32.899 -31.288  1.00  0.00     0.226 C 
HETATM    5  O1  UNL     1     -20.186  32.069 -32.100  1.00  0.00    -0.280 OA
HETATM    6  C9  UNL     1     -18.983  32.696 -30.119  1.00  0.00     0.097 C 
HETATM    7  C12 UNL     1     -18.533  33.761 -29.556  1.00  0.00     0.084 C 
ENDROOT
BRANCH   1   8
HETATM    8  C5  UNL     1     -17.768  35.681 -30.883  1.00  0.00     0.007 C 
HETATM    9  C3  UNL     1     -17.834  36.742 -31.633  1.00  0.00    -0.065 C 
HETATM   10  C4  UNL     1     -19.115  37.469 -31.794  1.00  0.00     0.048 C 
BRANCH   9  11
HETATM   11  C2  UNL     1     -16.661  37.244 -32.332  1.00  0.00    -0.004 C 
HETATM   12  C1  UNL     1     -16.466  38.525 -32.556  1.00  0.00     0.012 C 
ENDBRANCH   9  11
ENDBRANCH   1   8
BRANCH   7  13
HETATM   13  O3  UNL     1     -17.703  33.762 -28.395  1.00  0.00    -0.362 OA
ATOM     14  H3  UNL     1     -18.085  34.111 -27.597  1.00  0.00     0.217 HD
ENDBRANCH   7  13
BRANCH   6  15
HETATM   15  C10 UNL     1     -18.707  31.333 -29.642  1.00  0.00     0.162 C 
HETATM   16  C11 UNL     1     -17.350  30.772 -29.572  1.00  0.00     0.097 C 
HETATM   17  O2  UNL     1     -19.655  30.596 -29.275  1.00  0.00    -0.293 OA
ENDBRANCH   6  15
TORSDOF 4
ENDMDL
