MODEL 4
REMARK VINA RESULT: -6.795687937      3.131      5.815
REMARK  4 active torsions:
REMARK  status: ('A' for Active; 'I' for Inactive)
REMARK    1  A    between atoms: C2_2  and  C3_3 
REMARK    2  A    between atoms: C5_5  and  C6_6 
REMARK    3  A    between atoms: C9_11  and  C10_12 
REMARK    4  A    between atoms: C12_15  and  O3_16 
ROOT
HETATM    1  C6  UNL     1     -18.503  35.162 -30.922  1.00  0.00     0.080 C 
HETATM    2  C7  UNL     1     -18.764  34.129 -31.987  1.00  0.00     0.039 C 
HETATM    3  S1  UNL     1     -20.002  35.420 -29.936  1.00  0.00    -0.066 SA
HETATM    4  C8  UNL     1     -19.911  37.193 -30.011  1.00  0.00     0.226 C 
HETATM    5  O1  UNL     1     -20.519  37.980 -29.303  1.00  0.00    -0.280 OA
HETATM    6  C9  UNL     1     -18.975  37.485 -31.074  1.00  0.00     0.097 C 
HETATM    7  C12 UNL     1     -18.293  36.488 -31.512  1.00  0.00     0.084 C 
ENDROOT
BRANCH   1   8
HETATM    8  C5  UNL     1     -17.425  34.766 -29.992  1.00  0.00     0.007 C 
HETATM    9  C3  UNL     1     -17.315  33.626 -29.372  1.00  0.00    -0.065 C 
HETATM   10  C4  UNL     1     -18.332  32.567 -29.565  1.00  0.00     0.048 C 
BRANCH   9  11
HETATM   11  C2  UNL     1     -16.200  33.360 -28.477  1.00  0.00    -0.004 C 
HETATM   12  C1  UNL     1     -14.946  33.503 -28.848  1.00  0.00     0.012 C 
ENDBRANCH   9  11
ENDBRANCH   1   8
BRANCH   7  13
HETATM   13  O3  UNL     1     -17.323  36.579 -32.556  1.00  0.00    -0.362 OA
ATOM     14  H3  UNL     1     -17.655  36.674 -33.441  1.00  0.00     0.217 HD
ENDBRANCH   7  13
BRANCH   6  15
HETATM   15  C10 UNL     1     -18.853  38.857 -31.588  1.00  0.00     0.162 C 
HETATM   16  C11 UNL     1     -19.248  40.039 -30.809  1.00  0.00     0.097 C 
HETATM   17  O2  UNL     1     -18.395  39.053 -32.740  1.00  0.00    -0.293 OA
ENDBRANCH   6  15
TORSDOF 4
ENDMDL
