MODEL 16
REMARK VINA RESULT: -9.034949271      1.958      2.584
REMARK  5 active torsions:
REMARK  status: ('A' for Active; 'I' for Inactive)
REMARK    1  A    between atoms: C2_2  and  O1_3 
REMARK    2  A    between atoms: C2_2  and  C16_26 
REMARK    3  A    between atoms: O1_3  and  C3_4 
REMARK    4  A    between atoms: C5_6  and  C6_7 
REMARK    5  A    between atoms: N2_11  and  C8_12 
ROOT
HETATM    1  C3  UNL     1     -16.782 -15.870  11.630  1.00  0.00     0.117 A 
HETATM    2  C4  UNL     1     -18.114 -15.619  11.203  1.00  0.00     0.054 A 
HETATM    3  C5  UNL     1     -18.789 -16.524  10.450  1.00  0.00    -0.005 A 
HETATM    4  C14 UNL     1     -18.161 -17.713  10.093  1.00  0.00     0.101 A 
HETATM    5  N4  UNL     1     -16.907 -17.981  10.478  1.00  0.00    -0.351 N 
ATOM      6  H4  UNL     1     -16.459 -18.857  10.210  1.00  0.00     0.166 HD
HETATM    7  C15 UNL     1     -16.230 -17.054  11.244  1.00  0.00     0.150 A 
HETATM    8  N5  UNL     1     -14.892 -17.375  11.613  1.00  0.00    -0.080 NA
ENDROOT
BRANCH   3   9
HETATM    9  C6  UNL     1     -20.157 -16.311  10.000  1.00  0.00     0.009 A 
HETATM   10  C7  UNL     1     -21.258 -17.108  10.288  1.00  0.00     0.121 A 
HETATM   11  N1  UNL     1     -22.314 -16.585   9.647  1.00  0.00    -0.309 N 
HETATM   12  N2  UNL     1     -21.973 -15.502   8.958  1.00  0.00    -0.298 N 
ATOM     13  H1  UNL     1     -23.258 -16.970   9.683  1.00  0.00     0.186 HD
HETATM   14  C13 UNL     1     -20.658 -15.329   9.171  1.00  0.00     0.124 A 
BRANCH  12  15
HETATM   15  C8  UNL     1     -22.848 -14.669   8.114  1.00  0.00     0.110 C 
HETATM   16  C9  UNL     1     -21.992 -13.568   7.556  1.00  0.00     0.055 C 
HETATM   17  C10 UNL     1     -22.784 -12.435   6.970  1.00  0.00     0.234 C 
HETATM   18  N3  UNL     1     -23.863 -11.988   7.799  1.00  0.00    -0.075 N 
HETATM   19  C11 UNL     1     -23.841 -12.613   9.116  1.00  0.00     0.234 C 
ATOM     20  H32 UNL     1     -23.875 -10.971   7.874  1.00  0.00     0.277 HD
ATOM     21  H31 UNL     1     -24.763 -12.128   7.341  1.00  0.00     0.277 HD
HETATM   22  C12 UNL     1     -23.973 -14.126   8.949  1.00  0.00     0.055 C 
ENDBRANCH  12  15
ENDBRANCH   3   9
BRANCH   1  23
HETATM   23  O1  UNL     1     -16.175 -14.909  12.385  1.00  0.00    -0.311 OA
BRANCH  23  24
HETATM   24  C2  UNL     1     -15.965 -13.570  12.272  1.00  0.00     0.063 C 
HETATM   25  C1  UNL     1     -15.819 -12.879  13.621  1.00  0.00     0.077 C 
BRANCH  24  26
HETATM   26  C16 UNL     1     -15.041 -13.073  11.251  1.00  0.00     0.040 A 
HETATM   27  C17 UNL     1     -15.457 -12.215  10.241  1.00  0.00     0.048 A 
HETATM   28 CL1  UNL     1     -17.164 -11.827  10.160  1.00  0.00    -0.083 Cl
HETATM   29  C18 UNL     1     -14.606 -11.693   9.327  1.00  0.00     0.028 A 
HETATM   30  C19 UNL     1     -13.266 -12.030   9.403  1.00  0.00     0.046 A 
HETATM   31  C20 UNL     1     -12.813 -12.859  10.368  1.00  0.00     0.139 A 
HETATM   32  F1  UNL     1     -11.478 -13.200  10.464  1.00  0.00    -0.204 F 
HETATM   33  C21 UNL     1     -13.701 -13.393  11.308  1.00  0.00     0.086 A 
HETATM   34 CL2  UNL     1     -12.992 -14.413  12.554  1.00  0.00    -0.080 Cl
ENDBRANCH  24  26
ENDBRANCH  23  24
ENDBRANCH   1  23
TORSDOF 5
ENDMDL
