MODEL 1
REMARK VINA RESULT: -9.749011058      0.000      0.000
REMARK  5 active torsions:
REMARK  status: ('A' for Active; 'I' for Inactive)
REMARK    1  A    between atoms: C2_2  and  O1_3 
REMARK    2  A    between atoms: C2_2  and  C16_26 
REMARK    3  A    between atoms: O1_3  and  C3_4 
REMARK    4  A    between atoms: C5_6  and  C6_7 
REMARK    5  A    between atoms: N2_11  and  C8_12 
ROOT
HETATM    1  C3  UNL     1     -15.032 -15.714  11.446  1.00  0.00     0.117 A 
HETATM    2  C4  UNL     1     -16.419 -15.792  11.146  1.00  0.00     0.054 A 
HETATM    3  C5  UNL     1     -17.023 -16.989  10.938  1.00  0.00    -0.005 A 
HETATM    4  C14 UNL     1     -16.266 -18.155  11.020  1.00  0.00     0.101 A 
HETATM    5  N4  UNL     1     -14.957 -18.116  11.299  1.00  0.00    -0.351 N 
ATOM      6  H4  UNL     1     -14.415 -18.979  11.356  1.00  0.00     0.166 HD
HETATM    7  C15 UNL     1     -14.354 -16.894  11.509  1.00  0.00     0.150 A 
HETATM    8  N5  UNL     1     -12.955 -16.903  11.784  1.00  0.00    -0.080 NA
ENDROOT
BRANCH   3   9
HETATM    9  C6  UNL     1     -18.442 -17.115  10.640  1.00  0.00     0.009 A 
HETATM   10  C7  UNL     1     -19.146 -18.296  10.439  1.00  0.00     0.121 A 
HETATM   11  N1  UNL     1     -20.413 -17.966  10.149  1.00  0.00    -0.309 N 
HETATM   12  N2  UNL     1     -20.581 -16.649  10.144  1.00  0.00    -0.298 N 
ATOM     13  H1  UNL     1     -21.154 -18.641   9.956  1.00  0.00     0.186 HD
HETATM   14  C13 UNL     1     -19.381 -16.125  10.444  1.00  0.00     0.124 A 
BRANCH  12  15
HETATM   15  C8  UNL     1     -21.821 -15.908   9.849  1.00  0.00     0.110 C 
HETATM   16  C9  UNL     1     -22.753 -16.875   9.176  1.00  0.00     0.055 C 
HETATM   17  C10 UNL     1     -23.912 -16.208   8.493  1.00  0.00     0.234 C 
HETATM   18  N3  UNL     1     -23.544 -15.079   7.692  1.00  0.00    -0.075 N 
HETATM   19  C11 UNL     1     -22.099 -14.936   7.570  1.00  0.00     0.234 C 
ATOM     20  H32 UNL     1     -23.990 -15.116   6.775  1.00  0.00     0.277 HD
ATOM     21  H31 UNL     1     -23.971 -14.222   8.044  1.00  0.00     0.277 HD
HETATM   22  C12 UNL     1     -21.502 -14.738   8.962  1.00  0.00     0.055 C 
ENDBRANCH  12  15
ENDBRANCH   3   9
BRANCH   1  23
HETATM   23  O1  UNL     1     -14.503 -14.472  11.642  1.00  0.00    -0.311 OA
BRANCH  23  24
HETATM   24  C2  UNL     1     -14.706 -13.456  12.524  1.00  0.00     0.063 C 
HETATM   25  C1  UNL     1     -13.847 -13.579  13.775  1.00  0.00     0.077 C 
BRANCH  24  26
HETATM   26  C16 UNL     1     -14.825 -12.085  12.022  1.00  0.00     0.040 A 
HETATM   27  C17 UNL     1     -15.903 -11.275  12.355  1.00  0.00     0.048 A 
HETATM   28 CL1  UNL     1     -17.186 -11.985  13.314  1.00  0.00    -0.083 Cl
HETATM   29  C18 UNL     1     -16.000  -9.985  11.955  1.00  0.00     0.028 A 
HETATM   30  C19 UNL     1     -14.981  -9.454  11.183  1.00  0.00     0.046 A 
HETATM   31  C20 UNL     1     -13.912 -10.202  10.836  1.00  0.00     0.139 A 
HETATM   32  F1  UNL     1     -12.883  -9.686  10.072  1.00  0.00    -0.204 F 
HETATM   33  C21 UNL     1     -13.822 -11.534  11.254  1.00  0.00     0.086 A 
HETATM   34 CL2  UNL     1     -12.358 -12.395  10.793  1.00  0.00    -0.080 Cl
ENDBRANCH  24  26
ENDBRANCH  23  24
ENDBRANCH   1  23
TORSDOF 5
ENDMDL
