MODEL 4
REMARK VINA RESULT: -9.467987941      4.401      8.050
REMARK  5 active torsions:
REMARK  status: ('A' for Active; 'I' for Inactive)
REMARK    1  A    between atoms: C2_2  and  O1_3 
REMARK    2  A    between atoms: C2_2  and  C16_26 
REMARK    3  A    between atoms: O1_3  and  C3_4 
REMARK    4  A    between atoms: C5_6  and  C6_7 
REMARK    5  A    between atoms: N2_11  and  C8_12 
ROOT
HETATM    1  C3  UNL     1     -14.694 -13.489  13.094  1.00  0.00     0.117 A 
HETATM    2  C4  UNL     1     -15.133 -12.140  13.003  1.00  0.00     0.054 A 
HETATM    3  C5  UNL     1     -14.431 -11.136  13.586  1.00  0.00    -0.005 A 
HETATM    4  C14 UNL     1     -13.265 -11.438  14.283  1.00  0.00     0.101 A 
HETATM    5  N4  UNL     1     -12.824 -12.697  14.388  1.00  0.00    -0.351 N 
ATOM      6  H4  UNL     1     -11.967 -12.904  14.902  1.00  0.00     0.166 HD
HETATM    7  C15 UNL     1     -13.545 -13.711  13.791  1.00  0.00     0.150 A 
HETATM    8  N5  UNL     1     -13.045 -15.037  13.947  1.00  0.00    -0.080 NA
ENDROOT
BRANCH   3   9
HETATM    9  C6  UNL     1     -14.840  -9.741  13.509  1.00  0.00     0.009 A 
HETATM   10  C7  UNL     1     -14.774  -8.799  14.529  1.00  0.00     0.121 A 
HETATM   11  N1  UNL     1     -15.287  -7.654  14.055  1.00  0.00    -0.309 N 
HETATM   12  N2  UNL     1     -15.685  -7.788  12.795  1.00  0.00    -0.298 N 
ATOM     13  H1  UNL     1     -15.362  -6.791  14.594  1.00  0.00     0.186 HD
HETATM   14  C13 UNL     1     -15.413  -9.059  12.456  1.00  0.00     0.124 A 
BRANCH  12  15
HETATM   15  C8  UNL     1     -16.316  -6.762  11.945  1.00  0.00     0.110 C 
HETATM   16  C9  UNL     1     -17.686  -6.514  12.510  1.00  0.00     0.055 C 
HETATM   17  C10 UNL     1     -18.592  -5.770  11.571  1.00  0.00     0.234 C 
HETATM   18  N3  UNL     1     -18.582  -6.274  10.230  1.00  0.00    -0.075 N 
HETATM   19  C11 UNL     1     -17.830  -7.517  10.114  1.00  0.00     0.234 C 
ATOM     20  H32 UNL     1     -19.530  -6.381   9.869  1.00  0.00     0.277 HD
ATOM     21  H31 UNL     1     -18.237  -5.573   9.575  1.00  0.00     0.277 HD
HETATM   22  C12 UNL     1     -16.383  -7.261  10.530  1.00  0.00     0.055 C 
ENDBRANCH  12  15
ENDBRANCH   3   9
BRANCH   1  23
HETATM   23  O1  UNL     1     -15.456 -14.438  12.479  1.00  0.00    -0.311 OA
BRANCH  23  24
HETATM   24  C2  UNL     1     -15.761 -14.759  11.192  1.00  0.00     0.063 C 
HETATM   25  C1  UNL     1     -14.584 -14.576  10.244  1.00  0.00     0.077 C 
BRANCH  24  26
HETATM   26  C16 UNL     1     -16.556 -15.958  10.922  1.00  0.00     0.040 A 
HETATM   27  C17 UNL     1     -16.029 -17.235  11.068  1.00  0.00     0.048 A 
HETATM   28 CL1  UNL     1     -14.333 -17.369  11.483  1.00  0.00    -0.083 Cl
HETATM   29  C18 UNL     1     -16.766 -18.356  10.887  1.00  0.00     0.028 A 
HETATM   30  C19 UNL     1     -18.100 -18.223  10.542  1.00  0.00     0.046 A 
HETATM   31  C20 UNL     1     -18.658 -17.002  10.391  1.00  0.00     0.139 A 
HETATM   32  F1  UNL     1     -19.989 -16.849  10.055  1.00  0.00    -0.204 F 
HETATM   33  C21 UNL     1     -17.887 -15.850  10.581  1.00  0.00     0.086 A 
HETATM   34 CL2  UNL     1     -18.732 -14.315  10.415  1.00  0.00    -0.080 Cl
ENDBRANCH  24  26
ENDBRANCH  23  24
ENDBRANCH   1  23
TORSDOF 5
ENDMDL
