MODEL 2
REMARK VINA RESULT: -9.569872058      1.134      1.621
REMARK  5 active torsions:
REMARK  status: ('A' for Active; 'I' for Inactive)
REMARK    1  A    between atoms: C2_2  and  O1_3 
REMARK    2  A    between atoms: C2_2  and  C16_26 
REMARK    3  A    between atoms: O1_3  and  C3_4 
REMARK    4  A    between atoms: C5_6  and  C6_7 
REMARK    5  A    between atoms: N2_11  and  C8_12 
ROOT
HETATM    1  C3  UNL     1     -15.334 -15.554  11.530  1.00  0.00     0.117 A 
HETATM    2  C4  UNL     1     -16.637 -15.217  11.073  1.00  0.00     0.054 A 
HETATM    3  C5  UNL     1     -17.506 -16.178  10.670  1.00  0.00    -0.005 A 
HETATM    4  C14 UNL     1     -17.109 -17.512  10.707  1.00  0.00     0.101 A 
HETATM    5  N4  UNL     1     -15.890 -17.863  11.132  1.00  0.00    -0.351 N 
ATOM      6  H4  UNL     1     -15.612 -18.845  11.154  1.00  0.00     0.166 HD
HETATM    7  C15 UNL     1     -15.014 -16.878  11.540  1.00  0.00     0.150 A 
HETATM    8  N5  UNL     1     -13.720 -17.300  11.965  1.00  0.00    -0.080 NA
ENDROOT
BRANCH   3   9
HETATM    9  C6  UNL     1     -18.852 -15.878  10.205  1.00  0.00     0.009 A 
HETATM   10  C7  UNL     1     -19.999 -16.626  10.443  1.00  0.00     0.121 A 
HETATM   11  N1  UNL     1     -21.013 -16.025   9.803  1.00  0.00    -0.309 N 
HETATM   12  N2  UNL     1     -20.603 -14.937   9.161  1.00  0.00    -0.298 N 
ATOM     13  H1  UNL     1     -21.977 -16.361   9.809  1.00  0.00     0.186 HD
HETATM   14  C13 UNL     1     -19.286 -14.841   9.404  1.00  0.00     0.124 A 
BRANCH  12  15
HETATM   15  C8  UNL     1     -21.418 -14.029   8.334  1.00  0.00     0.110 C 
HETATM   16  C9  UNL     1     -21.667 -12.798   9.159  1.00  0.00     0.055 C 
HETATM   17  C10 UNL     1     -22.766 -11.930   8.617  1.00  0.00     0.234 C 
HETATM   18  N3  UNL     1     -23.948 -12.649   8.246  1.00  0.00    -0.075 N 
HETATM   19  C11 UNL     1     -23.891 -14.049   8.649  1.00  0.00     0.234 C 
ATOM     20  H32 UNL     1     -24.786 -12.195   8.609  1.00  0.00     0.277 HD
ATOM     21  H31 UNL     1     -24.135 -12.561   7.247  1.00  0.00     0.277 HD
HETATM   22  C12 UNL     1     -22.701 -14.714   7.960  1.00  0.00     0.055 C 
ENDBRANCH  12  15
ENDBRANCH   3   9
BRANCH   1  23
HETATM   23  O1  UNL     1     -14.522 -14.529  11.919  1.00  0.00    -0.311 OA
BRANCH  23  24
HETATM   24  C2  UNL     1     -14.642 -13.448  12.735  1.00  0.00     0.063 C 
HETATM   25  C1  UNL     1     -13.681 -13.489  13.916  1.00  0.00     0.077 C 
BRANCH  24  26
HETATM   26  C16 UNL     1     -14.794 -12.116  12.144  1.00  0.00     0.040 A 
HETATM   27  C17 UNL     1     -15.885 -11.307  12.433  1.00  0.00     0.048 A 
HETATM   28 CL1  UNL     1     -17.144 -11.977  13.451  1.00  0.00    -0.083 Cl
HETATM   29  C18 UNL     1     -16.012 -10.049  11.949  1.00  0.00     0.028 A 
HETATM   30  C19 UNL     1     -15.011  -9.551  11.133  1.00  0.00     0.046 A 
HETATM   31  C20 UNL     1     -13.930 -10.299  10.826  1.00  0.00     0.139 A 
HETATM   32  F1  UNL     1     -12.918  -9.815  10.019  1.00  0.00    -0.204 F 
HETATM   33  C21 UNL     1     -13.809 -11.598  11.331  1.00  0.00     0.086 A 
HETATM   34 CL2  UNL     1     -12.332 -12.459  10.914  1.00  0.00    -0.080 Cl
ENDBRANCH  24  26
ENDBRANCH  23  24
ENDBRANCH   1  23
TORSDOF 5
ENDMDL
