MODEL 5
REMARK VINA RESULT: -9.374806801      4.535      7.877
REMARK  5 active torsions:
REMARK  status: ('A' for Active; 'I' for Inactive)
REMARK    1  A    between atoms: C2_2  and  O1_3 
REMARK    2  A    between atoms: C2_2  and  C16_26 
REMARK    3  A    between atoms: O1_3  and  C3_4 
REMARK    4  A    between atoms: C5_6  and  C6_7 
REMARK    5  A    between atoms: N2_11  and  C8_12 
ROOT
HETATM    1  C3  UNL     1     -14.864 -13.475  13.290  1.00  0.00     0.117 A 
HETATM    2  C4  UNL     1     -15.472 -12.199  13.439  1.00  0.00     0.054 A 
HETATM    3  C5  UNL     1     -14.831 -11.190  14.080  1.00  0.00    -0.005 A 
HETATM    4  C14 UNL     1     -13.558 -11.414  14.598  1.00  0.00     0.101 A 
HETATM    5  N4  UNL     1     -12.957 -12.604  14.476  1.00  0.00    -0.351 N 
ATOM      6  H4  UNL     1     -12.024 -12.755  14.861  1.00  0.00     0.166 HD
HETATM    7  C15 UNL     1     -13.618 -13.623  13.822  1.00  0.00     0.150 A 
HETATM    8  N5  UNL     1     -12.946 -14.877  13.735  1.00  0.00    -0.080 NA
ENDROOT
BRANCH   3   9
HETATM    9  C6  UNL     1     -15.412  -9.866  14.245  1.00  0.00     0.009 A 
HETATM   10  C7  UNL     1     -14.814  -8.766  14.847  1.00  0.00     0.121 A 
HETATM   11  N1  UNL     1     -15.703  -7.762  14.829  1.00  0.00    -0.309 N 
HETATM   12  N2  UNL     1     -16.843  -8.135  14.257  1.00  0.00    -0.298 N 
ATOM     13  H1  UNL     1     -15.527  -6.830  15.206  1.00  0.00     0.186 HD
HETATM   14  C13 UNL     1     -16.670  -9.418  13.898  1.00  0.00     0.124 A 
BRANCH  12  15
HETATM   15  C8  UNL     1     -18.057  -7.321  14.071  1.00  0.00     0.110 C 
HETATM   16  C9  UNL     1     -19.227  -8.258  14.178  1.00  0.00     0.055 C 
HETATM   17  C10 UNL     1     -20.510  -7.670  13.665  1.00  0.00     0.234 C 
HETATM   18  N3  UNL     1     -20.384  -7.014  12.397  1.00  0.00    -0.075 N 
HETATM   19  C11 UNL     1     -19.072  -7.222  11.797  1.00  0.00     0.234 C 
ATOM     20  H32 UNL     1     -21.130  -7.295  11.761  1.00  0.00     0.277 HD
ATOM     21  H31 UNL     1     -20.601  -6.021  12.473  1.00  0.00     0.277 HD
HETATM   22  C12 UNL     1     -18.005  -6.650  12.728  1.00  0.00     0.055 C 
ENDBRANCH  12  15
ENDBRANCH   3   9
BRANCH   1  23
HETATM   23  O1  UNL     1     -15.575 -14.435  12.632  1.00  0.00    -0.311 OA
BRANCH  23  24
HETATM   24  C2  UNL     1     -15.852 -14.721  11.331  1.00  0.00     0.063 C 
HETATM   25  C1  UNL     1     -14.674 -14.455  10.404  1.00  0.00     0.077 C 
BRANCH  24  26
HETATM   26  C16 UNL     1     -16.594 -15.942  11.008  1.00  0.00     0.040 A 
HETATM   27  C17 UNL     1     -16.018 -17.201  11.122  1.00  0.00     0.048 A 
HETATM   28 CL1  UNL     1     -14.324 -17.280  11.561  1.00  0.00    -0.083 Cl
HETATM   29  C18 UNL     1     -16.706 -18.344  10.891  1.00  0.00     0.028 A 
HETATM   30  C19 UNL     1     -18.038 -18.252  10.528  1.00  0.00     0.046 A 
HETATM   31  C20 UNL     1     -18.643 -17.051  10.407  1.00  0.00     0.139 A 
HETATM   32  F1  UNL     1     -19.974 -16.940  10.054  1.00  0.00    -0.204 F 
HETATM   33  C21 UNL     1     -17.923 -15.875  10.648  1.00  0.00     0.086 A 
HETATM   34 CL2  UNL     1     -18.827 -14.370  10.518  1.00  0.00    -0.080 Cl
ENDBRANCH  24  26
ENDBRANCH  23  24
ENDBRANCH   1  23
TORSDOF 5
ENDMDL
