MODEL 9
REMARK VINA RESULT: -9.243009057      4.416      7.817
REMARK  5 active torsions:
REMARK  status: ('A' for Active; 'I' for Inactive)
REMARK    1  A    between atoms: C2_2  and  O1_3 
REMARK    2  A    between atoms: C2_2  and  C16_26 
REMARK    3  A    between atoms: O1_3  and  C3_4 
REMARK    4  A    between atoms: C5_6  and  C6_7 
REMARK    5  A    between atoms: N2_11  and  C8_12 
ROOT
HETATM    1  C3  UNL     1     -14.446 -13.460  12.788  1.00  0.00     0.117 A 
HETATM    2  C4  UNL     1     -14.899 -12.117  12.686  1.00  0.00     0.054 A 
HETATM    3  C5  UNL     1     -14.369 -11.139  13.463  1.00  0.00    -0.005 A 
HETATM    4  C14 UNL     1     -13.366 -11.463  14.372  1.00  0.00     0.101 A 
HETATM    5  N4  UNL     1     -12.916 -12.718  14.494  1.00  0.00    -0.351 N 
ATOM      6  H4  UNL     1     -12.180 -12.942  15.164  1.00  0.00     0.166 HD
HETATM    7  C15 UNL     1     -13.462 -13.705  13.699  1.00  0.00     0.150 A 
HETATM    8  N5  UNL     1     -12.964 -15.028  13.879  1.00  0.00    -0.080 NA
ENDROOT
BRANCH   3   9
HETATM    9  C6  UNL     1     -14.796  -9.751  13.384  1.00  0.00     0.009 A 
HETATM   10  C7  UNL     1     -14.725  -8.801  14.395  1.00  0.00     0.121 A 
HETATM   11  N1  UNL     1     -15.261  -7.666  13.923  1.00  0.00    -0.309 N 
HETATM   12  N2  UNL     1     -15.680  -7.814  12.671  1.00  0.00    -0.298 N 
ATOM     13  H1  UNL     1     -15.338  -6.800  14.457  1.00  0.00     0.186 HD
HETATM   14  C13 UNL     1     -15.398  -9.083  12.336  1.00  0.00     0.124 A 
BRANCH  12  15
HETATM   15  C8  UNL     1     -16.339  -6.802  11.825  1.00  0.00     0.110 C 
HETATM   16  C9  UNL     1     -17.667  -6.503  12.463  1.00  0.00     0.055 C 
HETATM   17  C10 UNL     1     -18.612  -5.770  11.555  1.00  0.00     0.234 C 
HETATM   18  N3  UNL     1     -18.695  -6.319  10.234  1.00  0.00    -0.075 N 
HETATM   19  C11 UNL     1     -17.978  -7.583  10.116  1.00  0.00     0.234 C 
ATOM     20  H32 UNL     1     -19.665  -6.416   9.935  1.00  0.00     0.277 HD
ATOM     21  H31 UNL     1     -18.376  -5.648   9.536  1.00  0.00     0.277 HD
HETATM   22  C12 UNL     1     -16.503  -7.347  10.435  1.00  0.00     0.055 C 
ENDBRANCH  12  15
ENDBRANCH   3   9
BRANCH   1  23
HETATM   23  O1  UNL     1     -15.030 -14.383  11.971  1.00  0.00    -0.311 OA
BRANCH  23  24
HETATM   24  C2  UNL     1     -15.748 -14.344  10.816  1.00  0.00     0.063 C 
HETATM   25  C1  UNL     1     -14.869 -14.354   9.573  1.00  0.00     0.077 C 
BRANCH  24  26
HETATM   26  C16 UNL     1     -16.953 -15.167  10.694  1.00  0.00     0.040 A 
HETATM   27  C17 UNL     1     -18.188 -14.615  10.378  1.00  0.00     0.048 A 
HETATM   28 CL1  UNL     1     -18.285 -12.872  10.238  1.00  0.00    -0.083 Cl
HETATM   29  C18 UNL     1     -19.300 -15.365  10.196  1.00  0.00     0.028 A 
HETATM   30  C19 UNL     1     -19.200 -16.739  10.331  1.00  0.00     0.046 A 
HETATM   31  C20 UNL     1     -18.021 -17.322  10.634  1.00  0.00     0.139 A 
HETATM   32  F1  UNL     1     -17.901 -18.692  10.765  1.00  0.00    -0.204 F 
HETATM   33  C21 UNL     1     -16.878 -16.537  10.820  1.00  0.00     0.086 A 
HETATM   34 CL2  UNL     1     -15.384 -17.407  11.154  1.00  0.00    -0.080 Cl
ENDBRANCH  24  26
ENDBRANCH  23  24
ENDBRANCH   1  23
TORSDOF 5
ENDMDL
