MODEL 9
REMARK VINA RESULT: -5.931521774      2.499      3.525
REMARK  1 active torsions:
REMARK  status: ('A' for Active; 'I' for Inactive)
REMARK    1  A    between atoms: C4_7  and  C5_8 
ROOT
HETATM    1 CL1  UNL     1      26.155  20.650   6.976  1.00  0.00    -0.063 Cl
HETATM    2  C1  UNL     1      26.868  19.689   8.256  1.00  0.00     0.119 A 
HETATM    3  C2  UNL     1      26.918  18.315   8.167  1.00  0.00     0.130 A 
HETATM    4  N1  UNL     1      27.481  17.644   9.185  1.00  0.00    -0.370 N 
ATOM      5  H1  UNL     1      27.532  16.626   9.147  1.00  0.00     0.164 HD
HETATM    6  C3  UNL     1      27.981  18.299  10.266  1.00  0.00     0.121 A 
HETATM    7  C4  UNL     1      27.933  19.672  10.362  1.00  0.00     0.094 A 
HETATM    8  N5  UNL     1      27.373  20.342   9.345  1.00  0.00    -0.342 N 
ATOM      9  H5  UNL     1      27.323  21.360   9.385  1.00  0.00     0.167 HD
ENDROOT
BRANCH   7  10
HETATM   10  C5  UNL     1      28.487  20.330  11.549  1.00  0.00     0.149 A 
HETATM   11  N2  UNL     1      28.639  21.651  11.746  1.00  0.00    -0.283 N 
HETATM   12  N3  UNL     1      29.173  21.836  12.940  1.00  0.00    -0.294 N 
ATOM     13  H2  UNL     1      28.385  22.385  11.085  1.00  0.00     0.188 HD
HETATM   14  C6  UNL     1      29.373  20.647  13.529  1.00  0.00     0.199 A 
ATOM     15  H3  UNL     1      29.397  22.743  13.351  1.00  0.00     0.187 HD
HETATM   16  N4  UNL     1      28.945  19.720  12.658  1.00  0.00    -0.335 N 
ATOM     17  H4  UNL     1      28.963  18.712  12.813  1.00  0.00     0.168 HD
ENDBRANCH   7  10
TORSDOF 1
ENDMDL
