MODEL 2
REMARK VINA RESULT: -6.314133459      2.703      3.834
REMARK  1 active torsions:
REMARK  status: ('A' for Active; 'I' for Inactive)
REMARK    1  A    between atoms: C4_7  and  C5_8 
ROOT
HETATM    1 CL1  UNL     1      29.689  19.533  13.556  1.00  0.00    -0.063 Cl
HETATM    2  C1  UNL     1      28.736  19.999  14.951  1.00  0.00     0.119 A 
HETATM    3  C2  UNL     1      27.941  19.082  15.603  1.00  0.00     0.130 A 
HETATM    4  N1  UNL     1      27.239  19.509  16.665  1.00  0.00    -0.370 N 
ATOM      5  H1  UNL     1      26.642  18.853  17.169  1.00  0.00     0.164 HD
HETATM    6  C3  UNL     1      27.310  20.801  17.080  1.00  0.00     0.121 A 
HETATM    7  C4  UNL     1      28.103  21.722  16.433  1.00  0.00     0.094 A 
HETATM    8  N5  UNL     1      28.805  21.296  15.373  1.00  0.00    -0.342 N 
ATOM      9  H5  UNL     1      29.402  21.954  14.872  1.00  0.00     0.167 HD
ENDROOT
BRANCH   7  10
HETATM   10  C5  UNL     1      28.145  23.105  16.920  1.00  0.00     0.149 A 
HETATM   11  N2  UNL     1      29.239  23.855  17.131  1.00  0.00    -0.283 N 
HETATM   12  N3  UNL     1      28.854  25.041  17.570  1.00  0.00    -0.294 N 
ATOM     13  H2  UNL     1      30.204  23.560  16.978  1.00  0.00     0.188 HD
HETATM   14  C6  UNL     1      27.514  25.073  17.650  1.00  0.00     0.199 A 
ATOM     15  H3  UNL     1      29.477  25.812  17.811  1.00  0.00     0.187 HD
HETATM   16  N4  UNL     1      27.085  23.868  17.245  1.00  0.00    -0.335 N 
ATOM     17  H4  UNL     1      26.109  23.577  17.190  1.00  0.00     0.168 HD
ENDBRANCH   7  10
TORSDOF 1
ENDMDL
