MODEL 3
REMARK VINA RESULT: -6.268009179      2.130      5.094
REMARK  1 active torsions:
REMARK  status: ('A' for Active; 'I' for Inactive)
REMARK    1  A    between atoms: C4_7  and  C5_8 
ROOT
HETATM    1 CL1  UNL     1      28.694  22.213  11.969  1.00  0.00    -0.063 Cl
HETATM    2  C1  UNL     1      28.839  20.601  12.642  1.00  0.00     0.119 A 
HETATM    3  C2  UNL     1      29.275  20.410  13.935  1.00  0.00     0.130 A 
HETATM    4  N1  UNL     1      29.361  19.147  14.384  1.00  0.00    -0.370 N 
ATOM      5  H1  UNL     1      29.680  18.975  15.337  1.00  0.00     0.164 HD
HETATM    6  C3  UNL     1      29.030  18.096  13.589  1.00  0.00     0.121 A 
HETATM    7  C4  UNL     1      28.594  18.280  12.295  1.00  0.00     0.094 A 
HETATM    8  N5  UNL     1      28.507  19.541  11.847  1.00  0.00    -0.342 N 
ATOM      9  H5  UNL     1      28.187  19.711  10.894  1.00  0.00     0.167 HD
ENDROOT
BRANCH   7  10
HETATM   10  C5  UNL     1      28.249  17.112  11.479  1.00  0.00     0.149 A 
HETATM   11  N2  UNL     1      28.715  15.860  11.619  1.00  0.00    -0.283 N 
HETATM   12  N3  UNL     1      28.161  15.102  10.689  1.00  0.00    -0.294 N 
ATOM     13  H2  UNL     1      29.382  15.548  12.325  1.00  0.00     0.188 HD
HETATM   14  C6  UNL     1      27.336  15.849   9.938  1.00  0.00     0.199 A 
ATOM     15  H3  UNL     1      28.334  14.105  10.561  1.00  0.00     0.187 HD
HETATM   16  N4  UNL     1      27.398  17.092  10.436  1.00  0.00    -0.335 N 
ATOM     17  H4  UNL     1      26.880  17.897  10.081  1.00  0.00     0.168 HD
ENDBRANCH   7  10
TORSDOF 1
ENDMDL
