MODEL 6
REMARK VINA RESULT: -5.975829588      2.412      3.494
REMARK  1 active torsions:
REMARK  status: ('A' for Active; 'I' for Inactive)
REMARK    1  A    between atoms: C4_7  and  C5_8 
ROOT
HETATM    1 CL1  UNL     1      26.430  20.959   7.238  1.00  0.00    -0.063 Cl
HETATM    2  C1  UNL     1      26.974  19.834   8.467  1.00  0.00     0.119 A 
HETATM    3  C2  UNL     1      26.801  18.476   8.309  1.00  0.00     0.130 A 
HETATM    4  N1  UNL     1      27.244  17.673   9.291  1.00  0.00    -0.370 N 
ATOM      5  H1  UNL     1      27.130  16.663   9.202  1.00  0.00     0.164 HD
HETATM    6  C3  UNL     1      27.839  18.184  10.400  1.00  0.00     0.121 A 
HETATM    7  C4  UNL     1      28.014  19.540  10.564  1.00  0.00     0.094 A 
HETATM    8  N5  UNL     1      27.574  20.342   9.584  1.00  0.00    -0.342 N 
ATOM      9  H5  UNL     1      27.689  21.352   9.674  1.00  0.00     0.167 HD
ENDROOT
BRANCH   7  10
HETATM   10  C5  UNL     1      28.664  20.041  11.780  1.00  0.00     0.149 A 
HETATM   11  N2  UNL     1      29.209  19.310  12.765  1.00  0.00    -0.283 N 
HETATM   12  N3  UNL     1      29.690  20.135  13.680  1.00  0.00    -0.294 N 
ATOM     13  H2  UNL     1      29.246  18.291  12.802  1.00  0.00     0.188 HD
HETATM   14  C6  UNL     1      29.463  21.402  13.301  1.00  0.00     0.199 A 
ATOM     15  H3  UNL     1      30.161  19.852  14.540  1.00  0.00     0.187 HD
HETATM   16  N4  UNL     1      28.827  21.333  12.122  1.00  0.00    -0.335 N 
ATOM     17  H4  UNL     1      28.516  22.133  11.571  1.00  0.00     0.168 HD
ENDBRANCH   7  10
TORSDOF 1
ENDMDL
