MODEL 1
REMARK VINA RESULT: -9.090964245      0.000      0.000
REMARK  6 active torsions:
REMARK  status: ('A' for Active; 'I' for Inactive)
REMARK    1  A    between atoms: O1_1  and  C1_3 
REMARK    2  A    between atoms: C1_3  and  C2_4 
REMARK    3  A    between atoms: C2_4  and  N1_5 
REMARK    4  A    between atoms: N1_5  and  C3_7 
REMARK    5  A    between atoms: C5_9  and  C6_10 
REMARK    6  A    between atoms: C12_24  and  C13_25 
ROOT
HETATM    1  C3  UNL     1      27.117  18.365   8.123  1.00  0.00     0.032 A 
HETATM    2  C4  UNL     1      27.503  18.793   9.399  1.00  0.00     0.061 A 
HETATM    3  C5  UNL     1      27.796  20.134   9.604  1.00  0.00     0.064 A 
HETATM    4  N5  UNL     1      27.689  20.969   8.590  1.00  0.00    -0.350 N 
ATOM      5  H5  UNL     1      27.903  21.952   8.758  1.00  0.00     0.166 HD
HETATM    6  C12 UNL     1      27.317  20.609   7.350  1.00  0.00     0.119 A 
HETATM    7  C14 UNL     1      27.020  19.254   7.116  1.00  0.00     0.063 A 
ENDROOT
BRANCH   3   8
HETATM    8  C6  UNL     1      28.506  20.577  10.826  1.00  0.00     0.087 A 
HETATM    9  N2  UNL     1      28.659  21.739  11.403  1.00  0.00    -0.297 N 
HETATM   10  N3  UNL     1      29.174  21.652  12.634  1.00  0.00    -0.298 N 
ATOM     11  H2  UNL     1      28.412  22.623  10.959  1.00  0.00     0.187 HD
HETATM   12  C7  UNL     1      29.386  20.371  12.918  1.00  0.00     0.076 A 
ATOM     13  H3  UNL     1      29.371  22.438  13.254  1.00  0.00     0.187 HD
HETATM   14  C8  UNL     1      29.856  19.723  14.066  1.00  0.00     0.119 A 
HETATM   15  C11 UNL     1      28.985  19.658  11.821  1.00  0.00     0.025 A 
HETATM   16  N4  UNL     1      29.884  18.368  14.002  1.00  0.00    -0.373 N 
HETATM   17  C9  UNL     1      29.515  17.636  12.979  1.00  0.00     0.088 A 
ATOM     18  H4  UNL     1      30.224  17.873  14.826  1.00  0.00     0.164 HD
HETATM   19  C10 UNL     1      29.039  18.299  11.823  1.00  0.00     0.033 A 
ENDBRANCH   3   8
BRANCH   1  20
HETATM   20  N1  UNL     1      26.948  16.956   7.901  1.00  0.00    -0.388 N 
ATOM     21  H1  UNL     1      26.215  16.687   7.244  1.00  0.00     0.159 HD
BRANCH  20  22
HETATM   22  C2  UNL     1      27.688  15.891   8.495  1.00  0.00     0.146 C 
BRANCH  22  23
HETATM   23  C1  UNL     1      26.756  15.038   9.372  1.00  0.00     0.183 C 
BRANCH  23  24
HETATM   24  O1  UNL     1      26.482  15.685  10.574  1.00  0.00    -0.399 OA
ATOM     25  H1  UNL     1      26.024  15.105  11.172  1.00  0.00     0.209 HD
ENDBRANCH  23  24
ENDBRANCH  22  23
ENDBRANCH  20  22
ENDBRANCH   1  20
BRANCH   6  26
HETATM   26  C13 UNL     1      27.161  21.573   6.242  1.00  0.00     0.432 C 
HETATM   27  F1  UNL     1      27.802  22.763   6.603  1.00  0.00    -0.165 F 
HETATM   28  F2  UNL     1      25.842  21.874   6.027  1.00  0.00    -0.165 F 
HETATM   29  F3  UNL     1      27.810  21.064   5.086  1.00  0.00    -0.165 F 
ENDBRANCH   6  26
TORSDOF 6
ENDMDL
