MODEL 9
REMARK VINA RESULT: -8.484704774      3.558      4.984
REMARK  6 active torsions:
REMARK  status: ('A' for Active; 'I' for Inactive)
REMARK    1  A    between atoms: O1_1  and  C1_3 
REMARK    2  A    between atoms: C1_3  and  C2_4 
REMARK    3  A    between atoms: C2_4  and  N1_5 
REMARK    4  A    between atoms: N1_5  and  C3_7 
REMARK    5  A    between atoms: C5_9  and  C6_10 
REMARK    6  A    between atoms: C12_24  and  C13_25 
ROOT
HETATM    1  C3  UNL     1      27.015  17.634   8.582  1.00  0.00     0.032 A 
HETATM    2  C4  UNL     1      27.678  18.237   9.658  1.00  0.00     0.061 A 
HETATM    3  C5  UNL     1      28.331  17.438  10.586  1.00  0.00     0.064 A 
HETATM    4  N5  UNL     1      28.318  16.131  10.418  1.00  0.00    -0.350 N 
ATOM      5  H5  UNL     1      28.808  15.558  11.105  1.00  0.00     0.166 HD
HETATM    6  C12 UNL     1      27.704  15.505   9.400  1.00  0.00     0.119 A 
HETATM    7  C14 UNL     1      27.030  16.293   8.449  1.00  0.00     0.063 A 
ENDROOT
BRANCH   3   8
HETATM    8  C6  UNL     1      28.764  17.990  11.890  1.00  0.00     0.087 A 
HETATM    9  N2  UNL     1      29.314  17.460  12.950  1.00  0.00    -0.297 N 
HETATM   10  N3  UNL     1      29.768  18.371  13.818  1.00  0.00    -0.298 N 
ATOM     11  H2  UNL     1      29.390  16.454  13.099  1.00  0.00     0.187 HD
HETATM   12  C7  UNL     1      29.516  19.583  13.336  1.00  0.00     0.076 A 
ATOM     13  H3  UNL     1      30.230  18.169  14.705  1.00  0.00     0.187 HD
HETATM   14  C8  UNL     1      29.815  20.867  13.805  1.00  0.00     0.119 A 
HETATM   15  C11 UNL     1      28.891  19.400  12.133  1.00  0.00     0.025 A 
HETATM   16  N4  UNL     1      29.440  21.887  12.992  1.00  0.00    -0.373 N 
HETATM   17  C9  UNL     1      28.838  21.771  11.834  1.00  0.00     0.088 A 
ATOM     18  H4  UNL     1      29.646  22.833  13.313  1.00  0.00     0.164 HD
HETATM   19  C10 UNL     1      28.540  20.469  11.367  1.00  0.00     0.033 A 
ENDBRANCH   3   8
BRANCH   1  20
HETATM   20  N1  UNL     1      26.236  18.467   7.710  1.00  0.00    -0.388 N 
ATOM     21  H1  UNL     1      25.596  17.986   7.077  1.00  0.00     0.159 HD
BRANCH  20  22
HETATM   22  C2  UNL     1      26.254  19.892   7.628  1.00  0.00     0.146 C 
BRANCH  22  23
HETATM   23  C1  UNL     1      27.059  20.330   6.395  1.00  0.00     0.183 C 
BRANCH  23  24
HETATM   24  O1  UNL     1      27.169  19.285   5.481  1.00  0.00    -0.399 OA
ATOM     25  H1  UNL     1      28.075  19.014   5.386  1.00  0.00     0.209 HD
ENDBRANCH  23  24
ENDBRANCH  22  23
ENDBRANCH  20  22
ENDBRANCH   1  20
BRANCH   6  26
HETATM   26  C13 UNL     1      27.744  14.042   9.210  1.00  0.00     0.432 C 
HETATM   27  F1  UNL     1      26.871  13.711   8.168  1.00  0.00    -0.165 F 
HETATM   28  F2  UNL     1      27.305  13.382  10.327  1.00  0.00    -0.165 F 
HETATM   29  F3  UNL     1      29.053  13.658   8.816  1.00  0.00    -0.165 F 
ENDBRANCH   6  26
TORSDOF 6
ENDMDL
