MODEL 2
REMARK VINA RESULT: -8.913834122      1.140      1.183
REMARK  6 active torsions:
REMARK  status: ('A' for Active; 'I' for Inactive)
REMARK    1  A    between atoms: O1_1  and  C1_3 
REMARK    2  A    between atoms: C1_3  and  C2_4 
REMARK    3  A    between atoms: C2_4  and  N1_5 
REMARK    4  A    between atoms: N1_5  and  C3_7 
REMARK    5  A    between atoms: C5_9  and  C6_10 
REMARK    6  A    between atoms: C12_24  and  C13_25 
ROOT
HETATM    1  C3  UNL     1      27.126  18.322   8.137  1.00  0.00     0.032 A 
HETATM    2  C4  UNL     1      27.508  18.761   9.411  1.00  0.00     0.061 A 
HETATM    3  C5  UNL     1      27.798  20.104   9.607  1.00  0.00     0.064 A 
HETATM    4  N5  UNL     1      27.691  20.931   8.586  1.00  0.00    -0.350 N 
ATOM      5  H5  UNL     1      27.902  21.916   8.747  1.00  0.00     0.166 HD
HETATM    6  C12 UNL     1      27.323  20.561   7.348  1.00  0.00     0.119 A 
HETATM    7  C14 UNL     1      27.029  19.204   7.123  1.00  0.00     0.063 A 
ENDROOT
BRANCH   3   8
HETATM    8  C6  UNL     1      28.503  20.558  10.827  1.00  0.00     0.087 A 
HETATM    9  N2  UNL     1      28.650  21.724  11.396  1.00  0.00    -0.297 N 
HETATM   10  N3  UNL     1      29.164  21.647  12.629  1.00  0.00    -0.298 N 
ATOM     11  H2  UNL     1      28.400  22.605  10.946  1.00  0.00     0.187 HD
HETATM   12  C7  UNL     1      29.382  20.369  12.922  1.00  0.00     0.076 A 
ATOM     13  H3  UNL     1      29.356  22.438  13.244  1.00  0.00     0.187 HD
HETATM   14  C8  UNL     1      29.852  19.731  14.074  1.00  0.00     0.119 A 
HETATM   15  C11 UNL     1      28.985  19.648  11.829  1.00  0.00     0.025 A 
HETATM   16  N4  UNL     1      29.886  18.376  14.018  1.00  0.00    -0.373 N 
HETATM   17  C9  UNL     1      29.522  17.635  13.000  1.00  0.00     0.088 A 
ATOM     18  H4  UNL     1      30.227  17.887  14.846  1.00  0.00     0.164 HD
HETATM   19  C10 UNL     1      29.046  18.289  11.839  1.00  0.00     0.033 A 
ENDBRANCH   3   8
BRANCH   1  20
HETATM   20  N1  UNL     1      26.961  16.912   7.926  1.00  0.00    -0.388 N 
ATOM     21  H1  UNL     1      26.021  16.599   7.683  1.00  0.00     0.159 HD
BRANCH  20  22
HETATM   22  C2  UNL     1      27.961  15.898   8.018  1.00  0.00     0.146 C 
BRANCH  22  23
HETATM   23  C1  UNL     1      27.643  14.764   7.030  1.00  0.00     0.183 C 
BRANCH  23  24
HETATM   24  O1  UNL     1      28.739  14.499   6.214  1.00  0.00    -0.399 OA
ATOM     25  H1  UNL     1      28.489  13.944   5.484  1.00  0.00     0.209 HD
ENDBRANCH  23  24
ENDBRANCH  22  23
ENDBRANCH  20  22
ENDBRANCH   1  20
BRANCH   6  26
HETATM   26  C13 UNL     1      27.167  21.516   6.233  1.00  0.00     0.432 C 
HETATM   27  F1  UNL     1      27.810  22.707   6.582  1.00  0.00    -0.165 F 
HETATM   28  F2  UNL     1      25.848  21.818   6.017  1.00  0.00    -0.165 F 
HETATM   29  F3  UNL     1      27.813  20.996   5.080  1.00  0.00    -0.165 F 
ENDBRANCH   6  26
TORSDOF 6
ENDMDL
