MODEL 8
REMARK VINA RESULT: -8.504165443      1.515      1.808
REMARK  6 active torsions:
REMARK  status: ('A' for Active; 'I' for Inactive)
REMARK    1  A    between atoms: O1_1  and  C1_3 
REMARK    2  A    between atoms: C1_3  and  C2_4 
REMARK    3  A    between atoms: C2_4  and  N1_5 
REMARK    4  A    between atoms: N1_5  and  C3_7 
REMARK    5  A    between atoms: C5_9  and  C6_10 
REMARK    6  A    between atoms: C12_24  and  C13_25 
ROOT
HETATM    1  C3  UNL     1      27.658  17.419   9.176  1.00  0.00     0.032 A 
HETATM    2  C4  UNL     1      28.029  18.201  10.277  1.00  0.00     0.061 A 
HETATM    3  C5  UNL     1      27.960  19.584  10.179  1.00  0.00     0.064 A 
HETATM    4  N5  UNL     1      27.533  20.120   9.054  1.00  0.00    -0.350 N 
ATOM      5  H5  UNL     1      27.483  21.137   9.000  1.00  0.00     0.166 HD
HETATM    6  C12 UNL     1      27.159  19.414   7.973  1.00  0.00     0.119 A 
HETATM    7  C14 UNL     1      27.225  18.010   8.046  1.00  0.00     0.063 A 
ENDROOT
BRANCH   3   8
HETATM    8  C6  UNL     1      28.632  20.449  11.177  1.00  0.00     0.087 A 
HETATM    9  N2  UNL     1      28.864  21.732  11.238  1.00  0.00    -0.297 N 
HETATM   10  N3  UNL     1      29.288  22.133  12.442  1.00  0.00    -0.298 N 
ATOM     11  H2  UNL     1      28.735  22.365  10.449  1.00  0.00     0.187 HD
HETATM   12  C7  UNL     1      29.353  21.076  13.245  1.00  0.00     0.076 A 
ATOM     13  H3  UNL     1      29.524  23.091  12.701  1.00  0.00     0.187 HD
HETATM   14  C8  UNL     1      29.681  20.937  14.599  1.00  0.00     0.119 A 
HETATM   15  C11 UNL     1      28.952  19.999  12.503  1.00  0.00     0.025 A 
HETATM   16  N4  UNL     1      29.577  19.680  15.098  1.00  0.00    -0.373 N 
HETATM   17  C9  UNL     1      29.201  18.614  14.434  1.00  0.00     0.088 A 
ATOM     18  H4  UNL     1      29.812  19.552  16.082  1.00  0.00     0.164 HD
HETATM   19  C10 UNL     1      28.869  18.764  13.067  1.00  0.00     0.033 A 
ENDBRANCH   3   8
BRANCH   1  20
HETATM   20  N1  UNL     1      27.862  15.999   9.252  1.00  0.00    -0.388 N 
ATOM     21  H1  UNL     1      27.027  15.430   9.390  1.00  0.00     0.159 HD
BRANCH  20  22
HETATM   22  C2  UNL     1      29.100  15.296   9.155  1.00  0.00     0.146 C 
BRANCH  22  23
HETATM   23  C1  UNL     1      29.092  14.098  10.119  1.00  0.00     0.183 C 
BRANCH  23  24
HETATM   24  O1  UNL     1      29.692  14.435  11.329  1.00  0.00    -0.399 OA
ATOM     25  H1  UNL     1      30.636  14.494  11.232  1.00  0.00     0.209 HD
ENDBRANCH  23  24
ENDBRANCH  22  23
ENDBRANCH  20  22
ENDBRANCH   1  20
BRANCH   6  26
HETATM   26  C13 UNL     1      26.641  20.038   6.740  1.00  0.00     0.432 C 
HETATM   27  F1  UNL     1      25.243  19.995   6.781  1.00  0.00    -0.165 F 
HETATM   28  F2  UNL     1      27.033  19.342   5.628  1.00  0.00    -0.165 F 
HETATM   29  F3  UNL     1      27.033  21.403   6.708  1.00  0.00    -0.165 F 
ENDBRANCH   6  26
TORSDOF 6
ENDMDL
