MODEL 6
REMARK VINA RESULT: -8.678331128      2.556      5.367
REMARK  6 active torsions:
REMARK  status: ('A' for Active; 'I' for Inactive)
REMARK    1  A    between atoms: O1_1  and  C1_3 
REMARK    2  A    between atoms: C1_3  and  C2_4 
REMARK    3  A    between atoms: C2_4  and  N1_5 
REMARK    4  A    between atoms: N1_5  and  C3_7 
REMARK    5  A    between atoms: C5_9  and  C6_10 
REMARK    6  A    between atoms: C12_24  and  C13_25 
ROOT
HETATM    1  C3  UNL     1      28.336  20.048  10.629  1.00  0.00     0.032 A 
HETATM    2  C4  UNL     1      28.365  18.653  10.747  1.00  0.00     0.061 A 
HETATM    3  C5  UNL     1      27.885  17.875   9.703  1.00  0.00     0.064 A 
HETATM    4  N5  UNL     1      27.427  18.475   8.622  1.00  0.00    -0.350 N 
ATOM      5  H5  UNL     1      27.083  17.889   7.861  1.00  0.00     0.166 HD
HETATM    6  C12 UNL     1      27.385  19.808   8.458  1.00  0.00     0.119 A 
HETATM    7  C14 UNL     1      27.861  20.619   9.505  1.00  0.00     0.063 A 
ENDROOT
BRANCH   3   8
HETATM    8  C6  UNL     1      27.598  16.435   9.899  1.00  0.00     0.087 A 
HETATM    9  N2  UNL     1      26.566  15.781  10.360  1.00  0.00    -0.297 N 
HETATM   10  N3  UNL     1      26.633  14.464  10.134  1.00  0.00    -0.298 N 
ATOM     11  H2  UNL     1      25.788  16.229  10.845  1.00  0.00     0.187 HD
HETATM   12  C7  UNL     1      27.765  14.200   9.489  1.00  0.00     0.076 A 
ATOM     13  H3  UNL     1      25.932  13.777  10.411  1.00  0.00     0.187 HD
HETATM   14  C8  UNL     1      28.303  13.015   8.973  1.00  0.00     0.119 A 
HETATM   15  C11 UNL     1      28.403  15.397   9.317  1.00  0.00     0.025 A 
HETATM   16  N4  UNL     1      29.480  13.149   8.312  1.00  0.00    -0.373 N 
HETATM   17  C9  UNL     1      30.136  14.267   8.120  1.00  0.00     0.088 A 
ATOM     18  H4  UNL     1      29.893  12.299   7.928  1.00  0.00     0.164 HD
HETATM   19  C10 UNL     1      29.583  15.461   8.643  1.00  0.00     0.033 A 
ENDBRANCH   3   8
BRANCH   1  20
HETATM   20  N1  UNL     1      28.712  20.835  11.770  1.00  0.00    -0.388 N 
ATOM     21  H1  UNL     1      28.664  21.847  11.657  1.00  0.00     0.159 HD
BRANCH  20  22
HETATM   22  C2  UNL     1      29.145  20.360  13.044  1.00  0.00     0.146 C 
BRANCH  22  23
HETATM   23  C1  UNL     1      30.077  21.396  13.693  1.00  0.00     0.183 C 
BRANCH  23  24
HETATM   24  O1  UNL     1      29.700  21.642  15.011  1.00  0.00    -0.399 OA
ATOM     25  H1  UNL     1      29.677  22.576  15.185  1.00  0.00     0.209 HD
ENDBRANCH  23  24
ENDBRANCH  22  23
ENDBRANCH  20  22
ENDBRANCH   1  20
BRANCH   6  26
HETATM   26  C13 UNL     1      26.910  20.454   7.219  1.00  0.00     0.432 C 
HETATM   27  F1  UNL     1      27.075  19.552   6.163  1.00  0.00    -0.165 F 
HETATM   28  F2  UNL     1      27.653  21.565   6.920  1.00  0.00    -0.165 F 
HETATM   29  F3  UNL     1      25.522  20.731   7.339  1.00  0.00    -0.165 F 
ENDBRANCH   6  26
TORSDOF 6
ENDMDL
