MODEL 7
REMARK VINA RESULT: -8.537435798      3.925      6.493
REMARK  6 active torsions:
REMARK  status: ('A' for Active; 'I' for Inactive)
REMARK    1  A    between atoms: O1_1  and  C1_3 
REMARK    2  A    between atoms: C1_3  and  C2_4 
REMARK    3  A    between atoms: C2_4  and  N1_5 
REMARK    4  A    between atoms: N1_5  and  C3_7 
REMARK    5  A    between atoms: C5_9  and  C6_10 
REMARK    6  A    between atoms: C12_24  and  C13_25 
ROOT
HETATM    1  C3  UNL     1      28.090  19.693  10.043  1.00  0.00     0.032 A 
HETATM    2  C4  UNL     1      27.569  18.459   9.634  1.00  0.00     0.061 A 
HETATM    3  C5  UNL     1      27.667  17.368  10.484  1.00  0.00     0.064 A 
HETATM    4  N5  UNL     1      28.237  17.529  11.661  1.00  0.00    -0.350 N 
ATOM      5  H5  UNL     1      28.296  16.718  12.277  1.00  0.00     0.166 HD
HETATM    6  C12 UNL     1      28.745  18.692  12.103  1.00  0.00     0.119 A 
HETATM    7  C14 UNL     1      28.663  19.813  11.256  1.00  0.00     0.063 A 
ENDROOT
BRANCH   3   8
HETATM    8  C6  UNL     1      27.429  15.993   9.985  1.00  0.00     0.087 A 
HETATM    9  N2  UNL     1      26.379  15.217   9.961  1.00  0.00    -0.297 N 
HETATM   10  N3  UNL     1      26.541  14.136   9.190  1.00  0.00    -0.298 N 
ATOM     11  H2  UNL     1      25.523  15.415  10.479  1.00  0.00     0.187 HD
HETATM   12  C7  UNL     1      27.760  14.169   8.660  1.00  0.00     0.076 A 
ATOM     13  H3  UNL     1      25.845  13.407   9.035  1.00  0.00     0.187 HD
HETATM   14  C8  UNL     1      28.420  13.328   7.757  1.00  0.00     0.119 A 
HETATM   15  C11 UNL     1      28.354  15.310   9.124  1.00  0.00     0.025 A 
HETATM   16  N4  UNL     1      29.665  13.725   7.394  1.00  0.00    -0.373 N 
HETATM   17  C9  UNL     1      30.284  14.803   7.808  1.00  0.00     0.088 A 
ATOM     18  H4  UNL     1      30.167  13.127   6.737  1.00  0.00     0.164 HD
HETATM   19  C10 UNL     1      29.608  15.649   8.720  1.00  0.00     0.033 A 
ENDBRANCH   3   8
BRANCH   1  20
HETATM   20  N1  UNL     1      28.098  20.775   9.098  1.00  0.00    -0.388 N 
ATOM     21  H1  UNL     1      28.564  21.632   9.396  1.00  0.00     0.159 HD
BRANCH  20  22
HETATM   22  C2  UNL     1      27.527  20.787   7.790  1.00  0.00     0.146 C 
BRANCH  22  23
HETATM   23  C1  UNL     1      26.075  21.284   7.863  1.00  0.00     0.183 C 
BRANCH  23  24
HETATM   24  O1  UNL     1      25.968  22.573   7.348  1.00  0.00    -0.399 OA
ATOM     25  H1  UNL     1      25.948  23.215   8.048  1.00  0.00     0.209 HD
ENDBRANCH  23  24
ENDBRANCH  22  23
ENDBRANCH  20  22
ENDBRANCH   1  20
BRANCH   6  26
HETATM   26  C13 UNL     1      29.338  18.857  13.444  1.00  0.00     0.432 C 
HETATM   27  F1  UNL     1      28.316  19.199  14.336  1.00  0.00    -0.165 F 
HETATM   28  F2  UNL     1      30.249  19.880  13.463  1.00  0.00    -0.165 F 
HETATM   29  F3  UNL     1      29.886  17.617  13.868  1.00  0.00    -0.165 F 
ENDBRANCH   6  26
TORSDOF 6
ENDMDL
