MODEL 2
REMARK VINA RESULT: -8.259663418      1.455      1.987
REMARK  9 active torsions:
REMARK  status: ('A' for Active; 'I' for Inactive)
REMARK    1  A    between atoms: C3_5  and  C4_6 
REMARK    2  A    between atoms: C4_6  and  O1_8 
REMARK    3  A    between atoms: C4_6  and  C6_10 
REMARK    4  A    between atoms: C6_10  and  O2_11 
REMARK    5  A    between atoms: C7_14  and  C8_15 
REMARK    6  A    between atoms: C11_21  and  O3_22 
REMARK    7  A    between atoms: O3_22  and  C12_23 
REMARK    8  A    between atoms: C12_23  and  C14_25 
REMARK    9  A    between atoms: C19_31  and  N4_32 
ROOT
HETATM    1  C8  UNL     1     -28.957 -20.014  59.901  1.00  0.00     0.001 A 
HETATM    2  C9  UNL     1     -27.776 -19.950  60.563  1.00  0.00     0.102 A 
HETATM    3  N2  UNL     1     -27.469 -18.906  61.387  1.00  0.00    -0.351 N 
ATOM      4  H2  UNL     1     -26.565 -18.901  61.859  1.00  0.00     0.166 HD
HETATM    5  C10 UNL     1     -28.325 -17.874  61.599  1.00  0.00     0.149 A 
HETATM    6  N3  UNL     1     -27.948 -16.825  62.494  1.00  0.00    -0.080 NA
HETATM    7  C11 UNL     1     -29.535 -17.899  60.946  1.00  0.00     0.111 A 
HETATM    8  C22 UNL     1     -29.842 -18.973  60.092  1.00  0.00     0.054 A 
ENDROOT
BRANCH   7   9
HETATM    9  O3  UNL     1     -30.464 -16.946  61.088  1.00  0.00    -0.338 OA
BRANCH   9  10
HETATM   10  C12 UNL     1     -31.537 -16.432  60.382  1.00  0.00     0.160 C 
HETATM   11  C13 UNL     1     -31.641 -14.933  60.886  1.00  0.00     0.045 C 
BRANCH  10  12
HETATM   12  C14 UNL     1     -32.753 -17.107  60.883  1.00  0.00     0.004 A 
HETATM   13  C15 UNL     1     -33.004 -16.988  62.259  1.00  0.00     0.054 A 
HETATM   14  C16 UNL     1     -34.032 -17.687  62.849  1.00  0.00     0.117 A 
HETATM   15  F1  UNL     1     -34.263 -17.538  64.204  1.00  0.00    -0.206 F 
HETATM   16  C17 UNL     1     -34.826 -18.522  62.073  1.00  0.00     0.044 A 
HETATM   17  C18 UNL     1     -34.582 -18.634  60.728  1.00  0.00     0.037 A 
HETATM   18  C19 UNL     1     -33.531 -17.916  60.117  1.00  0.00     0.084 A 
BRANCH  18  19
HETATM   19  N4  UNL     1     -33.390 -17.945  58.698  1.00  0.00    -0.197 N 
HETATM   20  N5  UNL     1     -32.450 -18.233  57.860  1.00  0.00    -0.289 N 
HETATM   21  C20 UNL     1     -32.800 -18.042  56.582  1.00  0.00     0.127 A 
ATOM     22  H5  UNL     1     -31.531 -18.572  58.144  1.00  0.00     0.188 HD
HETATM   23  C21 UNL     1     -34.097 -17.593  56.625  1.00  0.00     0.127 A 
HETATM   24  N6  UNL     1     -34.432 -17.542  57.909  1.00  0.00    -0.289 N 
ATOM     25  H6  UNL     1     -35.342 -17.244  58.259  1.00  0.00     0.188 HD
ENDBRANCH  18  19
ENDBRANCH  10  12
ENDBRANCH   9  10
ENDBRANCH   7   9
BRANCH   1  26
HETATM   26  C7  UNL     1     -29.380 -21.144  59.051  1.00  0.00     0.040 A 
HETATM   27  C2  UNL     1     -28.752 -22.116  58.348  1.00  0.00     0.024 A 
HETATM   28  C1  UNL     1     -27.241 -22.197  58.238  1.00  0.00     0.069 C 
HETATM   29  N1  UNL     1     -29.505 -22.994  57.723  1.00  0.00    -0.354 N 
HETATM   30  C3  UNL     1     -30.810 -22.937  57.784  1.00  0.00     0.088 A 
ATOM     31  H1  UNL     1     -29.063 -23.735  57.179  1.00  0.00     0.166 HD
HETATM   32  S1  UNL     1     -31.050 -21.560  58.769  1.00  0.00    -0.071 SA
BRANCH  30  33
HETATM   33  C4  UNL     1     -31.907 -23.811  57.216  1.00  0.00     0.124 C 
HETATM   34  C5  UNL     1     -33.193 -23.076  57.304  1.00  0.00     0.055 C 
BRANCH  33  35
HETATM   35  O1  UNL     1     -31.877 -24.963  58.032  1.00  0.00    -0.381 OA
ATOM     36  H1  UNL     1     -31.943 -25.681  57.413  1.00  0.00     0.211 HD
ENDBRANCH  33  35
BRANCH  33  37
HETATM   37  C6  UNL     1     -31.592 -24.176  55.805  1.00  0.00     0.208 C 
BRANCH  37  38
HETATM   38  O2  UNL     1     -31.032 -23.142  55.067  1.00  0.00    -0.397 OA
ATOM     39  H2  UNL     1     -31.585 -22.829  54.361  1.00  0.00     0.209 HD
ENDBRANCH  37  38
ENDBRANCH  33  37
ENDBRANCH  30  33
ENDBRANCH   1  26
TORSDOF 9
ENDMDL
