MODEL 4
REMARK VINA RESULT: -8.046679922      3.817      6.945
REMARK  9 active torsions:
REMARK  status: ('A' for Active; 'I' for Inactive)
REMARK    1  A    between atoms: C3_5  and  C4_6 
REMARK    2  A    between atoms: C4_6  and  O1_8 
REMARK    3  A    between atoms: C4_6  and  C6_10 
REMARK    4  A    between atoms: C6_10  and  O2_11 
REMARK    5  A    between atoms: C7_14  and  C8_15 
REMARK    6  A    between atoms: C11_21  and  O3_22 
REMARK    7  A    between atoms: O3_22  and  C12_23 
REMARK    8  A    between atoms: C12_23  and  C14_25 
REMARK    9  A    between atoms: C19_31  and  N4_32 
ROOT
HETATM    1  C8  UNL     1     -33.753 -16.327  61.229  1.00  0.00     0.001 A 
HETATM    2  C9  UNL     1     -33.585 -14.990  61.087  1.00  0.00     0.102 A 
HETATM    3  N2  UNL     1     -32.357 -14.441  60.850  1.00  0.00    -0.351 N 
ATOM      4  H2  UNL     1     -32.281 -13.429  60.755  1.00  0.00     0.166 HD
HETATM    5  C10 UNL     1     -31.235 -15.196  60.737  1.00  0.00     0.149 A 
HETATM    6  N3  UNL     1     -29.987 -14.556  60.464  1.00  0.00    -0.080 NA
HETATM    7  C11 UNL     1     -31.361 -16.559  60.875  1.00  0.00     0.111 A 
HETATM    8  C22 UNL     1     -32.627 -17.117  61.127  1.00  0.00     0.054 A 
ENDROOT
BRANCH   7   9
HETATM    9  O3  UNL     1     -30.330 -17.404  60.769  1.00  0.00    -0.338 OA
BRANCH   9  10
HETATM   10  C12 UNL     1     -29.604 -18.259  61.579  1.00  0.00     0.160 C 
HETATM   11  C13 UNL     1     -28.483 -17.329  62.206  1.00  0.00     0.045 C 
BRANCH  10  12
HETATM   12  C14 UNL     1     -28.890 -19.201  60.690  1.00  0.00     0.004 A 
HETATM   13  C15 UNL     1     -27.489 -19.197  60.783  1.00  0.00     0.054 A 
HETATM   14  C16 UNL     1     -26.726 -19.936  59.909  1.00  0.00     0.117 A 
HETATM   15  F1  UNL     1     -25.348 -19.923  60.034  1.00  0.00    -0.206 F 
HETATM   16  C17 UNL     1     -27.349 -20.690  58.923  1.00  0.00     0.044 A 
HETATM   17  C18 UNL     1     -28.718 -20.696  58.836  1.00  0.00     0.037 A 
HETATM   18  C19 UNL     1     -29.506 -19.943  59.733  1.00  0.00     0.084 A 
BRANCH  18  19
HETATM   19  N4  UNL     1     -30.926 -20.077  59.707  1.00  0.00    -0.197 N 
HETATM   20  N5  UNL     1     -31.820 -20.677  60.421  1.00  0.00    -0.289 N 
HETATM   21  C20 UNL     1     -33.062 -20.547  59.938  1.00  0.00     0.127 A 
ATOM     22  H5  UNL     1     -31.601 -21.199  61.270  1.00  0.00     0.188 HD
HETATM   23  C21 UNL     1     -32.931 -19.781  58.806  1.00  0.00     0.127 A 
HETATM   24  N6  UNL     1     -31.637 -19.509  58.686  1.00  0.00    -0.289 N 
ATOM     25  H6  UNL     1     -31.230 -18.952  57.936  1.00  0.00     0.188 HD
ENDBRANCH  18  19
ENDBRANCH  10  12
ENDBRANCH   9  10
ENDBRANCH   7   9
BRANCH   1  26
HETATM   26  C7  UNL     1     -35.058 -16.991  61.417  1.00  0.00     0.040 A 
HETATM   27  C2  UNL     1     -35.643 -17.717  62.399  1.00  0.00     0.024 A 
HETATM   28  C1  UNL     1     -34.918 -18.094  63.678  1.00  0.00     0.069 C 
HETATM   29  N1  UNL     1     -36.878 -18.122  62.200  1.00  0.00    -0.354 N 
HETATM   30  C3  UNL     1     -37.520 -17.828  61.099  1.00  0.00     0.088 A 
ATOM     31  H1  UNL     1     -37.344 -18.675  62.918  1.00  0.00     0.166 HD
HETATM   32  S1  UNL     1     -36.344 -16.930  60.242  1.00  0.00    -0.071 SA
BRANCH  30  33
HETATM   33  C4  UNL     1     -38.926 -18.115  60.621  1.00  0.00     0.124 C 
HETATM   34  C5  UNL     1     -39.040 -17.694  59.202  1.00  0.00     0.055 C 
BRANCH  33  35
HETATM   35  O1  UNL     1     -39.740 -17.350  61.485  1.00  0.00    -0.381 OA
ATOM     36  H1  UNL     1     -40.593 -17.369  61.069  1.00  0.00     0.211 HD
ENDBRANCH  33  35
BRANCH  33  37
HETATM   37  C6  UNL     1     -39.236 -19.565  60.777  1.00  0.00     0.208 C 
BRANCH  37  38
HETATM   38  O2  UNL     1     -38.115 -20.384  60.773  1.00  0.00    -0.397 OA
ATOM     39  H2  UNL     1     -38.180 -21.130  61.358  1.00  0.00     0.209 HD
ENDBRANCH  37  38
ENDBRANCH  33  37
ENDBRANCH  30  33
ENDBRANCH   1  26
TORSDOF 9
ENDMDL
