MODEL 7
REMARK VINA RESULT: -7.771272228      3.866      7.263
REMARK  9 active torsions:
REMARK  status: ('A' for Active; 'I' for Inactive)
REMARK    1  A    between atoms: C3_5  and  C4_6 
REMARK    2  A    between atoms: C4_6  and  O1_8 
REMARK    3  A    between atoms: C4_6  and  C6_10 
REMARK    4  A    between atoms: C6_10  and  O2_11 
REMARK    5  A    between atoms: C7_14  and  C8_15 
REMARK    6  A    between atoms: C11_21  and  O3_22 
REMARK    7  A    between atoms: O3_22  and  C12_23 
REMARK    8  A    between atoms: C12_23  and  C14_25 
REMARK    9  A    between atoms: C19_31  and  N4_32 
ROOT
HETATM    1  C8  UNL     1     -34.455 -21.496  58.864  1.00  0.00     0.001 A 
HETATM    2  C9  UNL     1     -34.327 -22.574  58.052  1.00  0.00     0.102 A 
HETATM    3  N2  UNL     1     -33.106 -23.024  57.641  1.00  0.00    -0.351 N 
ATOM      4  H2  UNL     1     -33.062 -23.836  57.026  1.00  0.00     0.166 HD
HETATM    5  C10 UNL     1     -31.948 -22.429  58.022  1.00  0.00     0.149 A 
HETATM    6  N3  UNL     1     -30.703 -22.968  57.573  1.00  0.00    -0.080 NA
HETATM    7  C11 UNL     1     -32.031 -21.331  58.847  1.00  0.00     0.111 A 
HETATM    8  C22 UNL     1     -33.293 -20.867  59.260  1.00  0.00     0.054 A 
ENDROOT
BRANCH   7   9
HETATM    9  O3  UNL     1     -30.959 -20.671  59.299  1.00  0.00    -0.338 OA
BRANCH   9  10
HETATM   10  C12 UNL     1     -29.974 -19.833  58.807  1.00  0.00     0.160 C 
HETATM   11  C13 UNL     1     -28.623 -20.525  59.263  1.00  0.00     0.045 C 
BRANCH  10  12
HETATM   12  C14 UNL     1     -30.053 -18.570  59.571  1.00  0.00     0.004 A 
HETATM   13  C15 UNL     1     -29.085 -18.391  60.572  1.00  0.00     0.054 A 
HETATM   14  C16 UNL     1     -29.150 -17.316  61.428  1.00  0.00     0.117 A 
HETATM   15  F1  UNL     1     -28.173 -17.159  62.396  1.00  0.00    -0.206 F 
HETATM   16  C17 UNL     1     -30.187 -16.401  61.302  1.00  0.00     0.044 A 
HETATM   17  C18 UNL     1     -31.131 -16.575  60.321  1.00  0.00     0.037 A 
HETATM   18  C19 UNL     1     -31.066 -17.674  59.437  1.00  0.00     0.084 A 
BRANCH  18  19
HETATM   19  N4  UNL     1     -31.978 -17.753  58.343  1.00  0.00    -0.197 N 
HETATM   20  N5  UNL     1     -31.935 -18.165  57.120  1.00  0.00    -0.289 N 
HETATM   21  C20 UNL     1     -33.077 -17.967  56.450  1.00  0.00     0.127 A 
ATOM     22  H5  UNL     1     -31.110 -18.600  56.704  1.00  0.00     0.188 HD
HETATM   23  C21 UNL     1     -33.925 -17.372  57.352  1.00  0.00     0.127 A 
HETATM   24  N6  UNL     1     -33.243 -17.253  58.485  1.00  0.00    -0.289 N 
ATOM     25  H6  UNL     1     -33.613 -16.845  59.343  1.00  0.00     0.188 HD
ENDBRANCH  18  19
ENDBRANCH  10  12
ENDBRANCH   9  10
ENDBRANCH   7   9
BRANCH   1  26
HETATM   26  C7  UNL     1     -35.736 -20.999  59.401  1.00  0.00     0.040 A 
HETATM   27  C2  UNL     1     -36.804 -21.550  60.026  1.00  0.00     0.024 A 
HETATM   28  C1  UNL     1     -36.923 -23.042  60.277  1.00  0.00     0.069 C 
HETATM   29  N1  UNL     1     -37.774 -20.742  60.395  1.00  0.00    -0.354 N 
HETATM   30  C3  UNL     1     -37.707 -19.455  60.175  1.00  0.00     0.088 A 
ATOM     31  H1  UNL     1     -38.594 -21.127  60.862  1.00  0.00     0.166 HD
HETATM   32  S1  UNL     1     -36.198 -19.318  59.383  1.00  0.00    -0.071 SA
BRANCH  30  33
HETATM   33  C4  UNL     1     -38.628 -18.303  60.514  1.00  0.00     0.124 C 
HETATM   34  C5  UNL     1     -38.606 -17.332  59.392  1.00  0.00     0.055 C 
BRANCH  33  35
HETATM   35  O1  UNL     1     -38.084 -17.776  61.705  1.00  0.00    -0.381 OA
ATOM     36  H1  UNL     1     -38.842 -17.650  62.264  1.00  0.00     0.211 HD
ENDBRANCH  33  35
BRANCH  33  37
HETATM   37  C6  UNL     1     -40.009 -18.808  60.761  1.00  0.00     0.208 C 
BRANCH  37  38
HETATM   38  O2  UNL     1     -40.513 -19.596  59.736  1.00  0.00    -0.397 OA
ATOM     39  H2  UNL     1     -41.370 -19.964  59.919  1.00  0.00     0.209 HD
ENDBRANCH  37  38
ENDBRANCH  33  37
ENDBRANCH  30  33
ENDBRANCH   1  26
TORSDOF 9
ENDMDL
