MODEL 1
REMARK VINA RESULT: -8.526441119      0.000      0.000
REMARK  9 active torsions:
REMARK  status: ('A' for Active; 'I' for Inactive)
REMARK    1  A    between atoms: C3_5  and  C4_6 
REMARK    2  A    between atoms: C4_6  and  O1_8 
REMARK    3  A    between atoms: C4_6  and  C6_10 
REMARK    4  A    between atoms: C6_10  and  O2_11 
REMARK    5  A    between atoms: C7_14  and  C8_15 
REMARK    6  A    between atoms: C11_21  and  O3_22 
REMARK    7  A    between atoms: O3_22  and  C12_23 
REMARK    8  A    between atoms: C12_23  and  C14_25 
REMARK    9  A    between atoms: C19_31  and  N4_32 
ROOT
HETATM    1  C8  UNL     1     -28.852 -18.427  60.900  1.00  0.00     0.001 A 
HETATM    2  C9  UNL     1     -27.954 -18.040  61.839  1.00  0.00     0.102 A 
HETATM    3  N2  UNL     1     -28.101 -16.876  62.538  1.00  0.00    -0.351 N 
ATOM      4  H2  UNL     1     -27.396 -16.626  63.230  1.00  0.00     0.166 HD
HETATM    5  C10 UNL     1     -29.153 -16.041  62.344  1.00  0.00     0.149 A 
HETATM    6  N3  UNL     1     -29.256 -14.851  63.128  1.00  0.00    -0.080 NA
HETATM    7  C11 UNL     1     -30.089 -16.396  61.399  1.00  0.00     0.111 A 
HETATM    8  C22 UNL     1     -29.927 -17.592  60.677  1.00  0.00     0.054 A 
ENDROOT
BRANCH   7   9
HETATM    9  O3  UNL     1     -31.173 -15.661  61.131  1.00  0.00    -0.338 OA
BRANCH   9  10
HETATM   10  C12 UNL     1     -32.307 -15.737  60.341  1.00  0.00     0.160 C 
HETATM   11  C13 UNL     1     -33.073 -14.383  60.645  1.00  0.00     0.045 C 
BRANCH  10  12
HETATM   12  C14 UNL     1     -33.157 -16.810  60.898  1.00  0.00     0.004 A 
HETATM   13  C15 UNL     1     -33.447 -16.721  62.269  1.00  0.00     0.054 A 
HETATM   14  C16 UNL     1     -34.115 -17.736  62.914  1.00  0.00     0.117 A 
HETATM   15  F1  UNL     1     -34.399 -17.613  64.262  1.00  0.00    -0.206 F 
HETATM   16  C17 UNL     1     -34.503 -18.862  62.200  1.00  0.00     0.044 A 
HETATM   17  C18 UNL     1     -34.221 -18.947  60.859  1.00  0.00     0.037 A 
HETATM   18  C19 UNL     1     -33.540 -17.906  60.193  1.00  0.00     0.084 A 
BRANCH  18  19
HETATM   19  N4  UNL     1     -33.385 -17.960  58.776  1.00  0.00    -0.197 N 
HETATM   20  N5  UNL     1     -32.427 -18.223  57.950  1.00  0.00    -0.289 N 
HETATM   21  C20 UNL     1     -32.774 -18.076  56.666  1.00  0.00     0.127 A 
ATOM     22  H5  UNL     1     -31.495 -18.514  58.249  1.00  0.00     0.188 HD
HETATM   23  C21 UNL     1     -34.091 -17.685  56.691  1.00  0.00     0.127 A 
HETATM   24  N6  UNL     1     -34.438 -17.622  57.971  1.00  0.00    -0.289 N 
ATOM     25  H6  UNL     1     -35.363 -17.358  58.307  1.00  0.00     0.188 HD
ENDBRANCH  18  19
ENDBRANCH  10  12
ENDBRANCH   9  10
ENDBRANCH   7   9
BRANCH   1  26
HETATM   26  C7  UNL     1     -28.792 -19.701  60.159  1.00  0.00     0.040 A 
HETATM   27  C2  UNL     1     -27.809 -20.478  59.647  1.00  0.00     0.024 A 
HETATM   28  C1  UNL     1     -26.345 -20.083  59.699  1.00  0.00     0.069 C 
HETATM   29  N1  UNL     1     -28.165 -21.602  59.063  1.00  0.00    -0.354 N 
HETATM   30  C3  UNL     1     -29.421 -21.959  58.987  1.00  0.00     0.088 A 
ATOM     31  H1  UNL     1     -27.449 -22.206  58.662  1.00  0.00     0.166 HD
HETATM   32  S1  UNL     1     -30.200 -20.651  59.765  1.00  0.00    -0.071 SA
BRANCH  30  33
HETATM   33  C4  UNL     1     -30.111 -23.182  58.425  1.00  0.00     0.124 C 
HETATM   34  C5  UNL     1     -29.906 -23.210  56.955  1.00  0.00     0.055 C 
BRANCH  33  35
HETATM   35  O1  UNL     1     -31.464 -23.002  58.785  1.00  0.00    -0.381 OA
ATOM     36  H1  UNL     1     -31.923 -23.010  57.954  1.00  0.00     0.211 HD
ENDBRANCH  33  35
BRANCH  33  37
HETATM   37  C6  UNL     1     -29.571 -24.415  59.066  1.00  0.00     0.208 C 
BRANCH  37  38
HETATM   38  O2  UNL     1     -30.338 -24.883  60.124  1.00  0.00    -0.397 OA
ATOM     39  H2  UNL     1     -31.167 -25.265  59.859  1.00  0.00     0.209 HD
ENDBRANCH  37  38
ENDBRANCH  33  37
ENDBRANCH  30  33
ENDBRANCH   1  26
TORSDOF 9
ENDMDL
