MODEL 5
REMARK VINA RESULT: -7.886114112      1.218      1.504
REMARK  9 active torsions:
REMARK  status: ('A' for Active; 'I' for Inactive)
REMARK    1  A    between atoms: C3_5  and  C4_6 
REMARK    2  A    between atoms: C4_6  and  O1_8 
REMARK    3  A    between atoms: C4_6  and  C6_10 
REMARK    4  A    between atoms: C6_10  and  O2_11 
REMARK    5  A    between atoms: C7_14  and  C8_15 
REMARK    6  A    between atoms: C11_21  and  O3_22 
REMARK    7  A    between atoms: O3_22  and  C12_23 
REMARK    8  A    between atoms: C12_23  and  C14_25 
REMARK    9  A    between atoms: C19_31  and  N4_32 
ROOT
HETATM    1  C8  UNL     1     -28.989 -18.554  60.484  1.00  0.00     0.001 A 
HETATM    2  C9  UNL     1     -27.941 -18.055  61.184  1.00  0.00     0.102 A 
HETATM    3  N2  UNL     1     -28.065 -16.946  61.971  1.00  0.00    -0.351 N 
ATOM      4  H2  UNL     1     -27.246 -16.606  62.474  1.00  0.00     0.166 HD
HETATM    5  C10 UNL     1     -29.240 -16.281  62.107  1.00  0.00     0.149 A 
HETATM    6  N3  UNL     1     -29.304 -15.142  62.967  1.00  0.00    -0.080 NA
HETATM    7  C11 UNL     1     -30.330 -16.755  61.413  1.00  0.00     0.111 A 
HETATM    8  C22 UNL     1     -30.193 -17.892  60.597  1.00  0.00     0.054 A 
ENDROOT
BRANCH   7   9
HETATM    9  O3  UNL     1     -31.542 -16.192  61.480  1.00  0.00    -0.338 OA
BRANCH   9  10
HETATM   10  C12 UNL     1     -32.652 -16.025  60.672  1.00  0.00     0.160 C 
HETATM   11  C13 UNL     1     -32.901 -14.459  60.686  1.00  0.00     0.045 C 
BRANCH  10  12
HETATM   12  C14 UNL     1     -33.804 -16.618  61.384  1.00  0.00     0.004 A 
HETATM   13  C15 UNL     1     -33.583 -16.980  62.723  1.00  0.00     0.054 A 
HETATM   14  C16 UNL     1     -34.545 -17.661  63.434  1.00  0.00     0.117 A 
HETATM   15  F1  UNL     1     -34.304 -17.991  64.756  1.00  0.00    -0.206 F 
HETATM   16  C17 UNL     1     -35.744 -17.995  62.818  1.00  0.00     0.044 A 
HETATM   17  C18 UNL     1     -35.959 -17.638  61.511  1.00  0.00     0.037 A 
HETATM   18  C19 UNL     1     -34.978 -16.936  60.779  1.00  0.00     0.084 A 
BRANCH  18  19
HETATM   19  N4  UNL     1     -35.284 -16.457  59.470  1.00  0.00    -0.197 N 
HETATM   20  N5  UNL     1     -35.843 -15.407  58.967  1.00  0.00    -0.289 N 
HETATM   21  C20 UNL     1     -35.955 -15.449  57.634  1.00  0.00     0.127 A 
ATOM     22  H5  UNL     1     -36.169 -14.622  59.532  1.00  0.00     0.188 HD
HETATM   23  C21 UNL     1     -35.402 -16.651  57.264  1.00  0.00     0.127 A 
HETATM   24  N6  UNL     1     -35.004 -17.241  58.385  1.00  0.00    -0.289 N 
ATOM     25  H6  UNL     1     -34.552 -18.153  58.430  1.00  0.00     0.188 HD
ENDBRANCH  18  19
ENDBRANCH  10  12
ENDBRANCH   9  10
ENDBRANCH   7   9
BRANCH   1  26
HETATM   26  C7  UNL     1     -28.942 -19.785  59.671  1.00  0.00     0.040 A 
HETATM   27  C2  UNL     1     -27.987 -20.677  59.318  1.00  0.00     0.024 A 
HETATM   28  C1  UNL     1     -26.531 -20.513  59.712  1.00  0.00     0.069 C 
HETATM   29  N1  UNL     1     -28.357 -21.702  58.582  1.00  0.00    -0.354 N 
HETATM   30  C3  UNL     1     -29.601 -21.859  58.212  1.00  0.00     0.088 A 
ATOM     31  H1  UNL     1     -27.660 -22.389  58.295  1.00  0.00     0.166 HD
HETATM   32  S1  UNL     1     -30.345 -20.487  58.911  1.00  0.00    -0.071 SA
BRANCH  30  33
HETATM   33  C4  UNL     1     -30.311 -22.933  57.418  1.00  0.00     0.124 C 
HETATM   34  C5  UNL     1     -29.479 -23.282  56.239  1.00  0.00     0.055 C 
BRANCH  33  35
HETATM   35  O1  UNL     1     -31.540 -22.335  57.063  1.00  0.00    -0.381 OA
ATOM     36  H1  UNL     1     -31.691 -22.637  56.176  1.00  0.00     0.211 HD
ENDBRANCH  33  35
BRANCH  33  37
HETATM   37  C6  UNL     1     -30.554 -24.129  58.276  1.00  0.00     0.208 C 
BRANCH  37  38
HETATM   38  O2  UNL     1     -30.346 -23.902  59.629  1.00  0.00    -0.397 OA
ATOM     39  H2  UNL     1     -31.036 -24.242  60.187  1.00  0.00     0.209 HD
ENDBRANCH  37  38
ENDBRANCH  33  37
ENDBRANCH  30  33
ENDBRANCH   1  26
TORSDOF 9
ENDMDL
