MODEL 8
REMARK VINA RESULT: -7.771067416      4.678      8.876
REMARK  9 active torsions:
REMARK  status: ('A' for Active; 'I' for Inactive)
REMARK    1  A    between atoms: C3_5  and  C4_6 
REMARK    2  A    between atoms: C4_6  and  O1_8 
REMARK    3  A    between atoms: C4_6  and  C6_10 
REMARK    4  A    between atoms: C6_10  and  O2_11 
REMARK    5  A    between atoms: C7_14  and  C8_15 
REMARK    6  A    between atoms: C11_21  and  O3_22 
REMARK    7  A    between atoms: O3_22  and  C12_23 
REMARK    8  A    between atoms: C12_23  and  C14_25 
REMARK    9  A    between atoms: C19_31  and  N4_32 
ROOT
HETATM    1  C8  UNL     1     -36.632 -17.870  59.270  1.00  0.00     0.001 A 
HETATM    2  C9  UNL     1     -36.879 -19.201  59.220  1.00  0.00     0.102 A 
HETATM    3  N2  UNL     1     -35.882 -20.123  59.366  1.00  0.00    -0.351 N 
ATOM      4  H2  UNL     1     -36.118 -21.114  59.315  1.00  0.00     0.166 HD
HETATM    5  C10 UNL     1     -34.590 -19.768  59.575  1.00  0.00     0.149 A 
HETATM    6  N3  UNL     1     -33.602 -20.786  59.743  1.00  0.00    -0.080 NA
HETATM    7  C11 UNL     1     -34.294 -18.425  59.633  1.00  0.00     0.111 A 
HETATM    8  C22 UNL     1     -35.324 -17.480  59.473  1.00  0.00     0.054 A 
ENDROOT
BRANCH   7   9
HETATM    9  O3  UNL     1     -33.061 -17.955  59.848  1.00  0.00    -0.338 OA
BRANCH   9  10
HETATM   10  C12 UNL     1     -32.111 -17.198  59.186  1.00  0.00     0.160 C 
HETATM   11  C13 UNL     1     -31.471 -18.214  58.149  1.00  0.00     0.045 C 
BRANCH  10  12
HETATM   12  C14 UNL     1     -31.039 -16.894  60.158  1.00  0.00     0.004 A 
HETATM   13  C15 UNL     1     -29.785 -17.467  59.896  1.00  0.00     0.054 A 
HETATM   14  C16 UNL     1     -28.758 -17.358  60.806  1.00  0.00     0.117 A 
HETATM   15  F1  UNL     1     -27.529 -17.921  60.513  1.00  0.00    -0.206 F 
HETATM   16  C17 UNL     1     -28.969 -16.676  61.997  1.00  0.00     0.044 A 
HETATM   17  C18 UNL     1     -30.195 -16.114  62.251  1.00  0.00     0.037 A 
HETATM   18  C19 UNL     1     -31.249 -16.220  61.319  1.00  0.00     0.084 A 
BRANCH  18  19
HETATM   19  N4  UNL     1     -32.465 -15.508  61.547  1.00  0.00    -0.197 N 
HETATM   20  N5  UNL     1     -33.565 -15.722  62.188  1.00  0.00    -0.289 N 
HETATM   21  C20 UNL     1     -34.463 -14.739  62.048  1.00  0.00     0.127 A 
ATOM     22  H5  UNL     1     -33.734 -16.559  62.748  1.00  0.00     0.188 HD
HETATM   23  C21 UNL     1     -33.858 -13.810  61.237  1.00  0.00     0.127 A 
HETATM   24  N6  UNL     1     -32.656 -14.294  60.947  1.00  0.00    -0.289 N 
ATOM     25  H6  UNL     1     -31.969 -13.823  60.359  1.00  0.00     0.188 HD
ENDBRANCH  18  19
ENDBRANCH  10  12
ENDBRANCH   9  10
ENDBRANCH   7   9
BRANCH   1  26
HETATM   26  C7  UNL     1     -37.668 -16.822  59.190  1.00  0.00     0.040 A 
HETATM   27  C2  UNL     1     -38.860 -16.591  59.790  1.00  0.00     0.024 A 
HETATM   28  C1  UNL     1     -39.479 -17.562  60.778  1.00  0.00     0.069 C 
HETATM   29  N1  UNL     1     -39.497 -15.487  59.466  1.00  0.00    -0.354 N 
HETATM   30  C3  UNL     1     -38.997 -14.641  58.603  1.00  0.00     0.088 A 
ATOM     31  H1  UNL     1     -40.400 -15.287  59.896  1.00  0.00     0.166 HD
HETATM   32  S1  UNL     1     -37.531 -15.411  58.177  1.00  0.00    -0.071 SA
BRANCH  30  33
HETATM   33  C4  UNL     1     -39.471 -13.304  58.079  1.00  0.00     0.124 C 
HETATM   34  C5  UNL     1     -40.581 -13.536  57.121  1.00  0.00     0.055 C 
BRANCH  33  35
HETATM   35  O1  UNL     1     -38.324 -12.756  57.466  1.00  0.00    -0.381 OA
ATOM     36  H1  UNL     1     -38.623 -11.918  57.133  1.00  0.00     0.211 HD
ENDBRANCH  33  35
BRANCH  33  37
HETATM   37  C6  UNL     1     -39.911 -12.437  59.209  1.00  0.00     0.208 C 
BRANCH  37  38
HETATM   38  O2  UNL     1     -39.344 -12.773  60.431  1.00  0.00    -0.397 OA
ATOM     39  H2  UNL     1     -39.764 -12.361  61.177  1.00  0.00     0.209 HD
ENDBRANCH  37  38
ENDBRANCH  33  37
ENDBRANCH  30  33
ENDBRANCH   1  26
TORSDOF 9
ENDMDL
