MODEL 7
REMARK VINA RESULT: -6.298447081      2.545      6.001
REMARK  10 active torsions:
REMARK  status: ('A' for Active; 'I' for Inactive)
REMARK    1  A    between atoms: O1_1  and  C1_3 
REMARK    2  A    between atoms: C1_3  and  C2_4 
REMARK    3  A    between atoms: C3_6  and  O3_7 
REMARK    4  A    between atoms: O3_7  and  C4_8 
REMARK    5  A    between atoms: C5_9  and  O4_10 
REMARK    6  A    between atoms: C8_17  and  C9_18 
REMARK    7  A    between atoms: C9_18  and  O5_19 
REMARK    8  A    between atoms: C10_21  and  O6_22 
REMARK    9  A    between atoms: C11_24  and  O7_25 
REMARK   10  A    between atoms: C12_27  and  O8_28 
ROOT
HETATM    1  C2  UNL     1      10.702  20.861  12.119  1.00  0.00     0.179 C 
HETATM    2  O2  UNL     1      10.385  20.580  13.451  1.00  0.00    -0.348 OA
HETATM    3  C3  UNL     1      10.992  19.366  13.752  1.00  0.00     0.292 C 
HETATM    4  C10 UNL     1      10.169  18.277  13.123  1.00  0.00     0.204 C 
HETATM    5  C11 UNL     1      10.176  18.499  11.631  1.00  0.00     0.183 C 
HETATM    6  C12 UNL     1       9.937  19.913  11.228  1.00  0.00     0.180 C 
ENDROOT
BRANCH   3   7
HETATM    7  O3  UNL     1      11.228  19.190  15.092  1.00  0.00    -0.350 OA
BRANCH   7   8
HETATM    8  C4  UNL     1      12.594  18.964  15.378  1.00  0.00     0.162 C 
HETATM    9  C5  UNL     1      12.974  20.204  16.181  1.00  0.00     0.173 C 
HETATM   10  C6  UNL     1      12.116  20.305  17.398  1.00  0.00     0.266 C 
HETATM   11  N1  UNL     1      11.990  19.098  18.147  1.00  0.00    -0.072 N 
HETATM   12  C7  UNL     1      11.661  17.941  17.364  1.00  0.00     0.241 C 
ATOM     13  H12 UNL     1      12.836  18.928  18.691  1.00  0.00     0.277 HD
ATOM     14  H11 UNL     1      11.315  19.218  18.903  1.00  0.00     0.277 HD
HETATM   15  C8  UNL     1      12.622  17.726  16.223  1.00  0.00     0.066 C 
BRANCH   9  16
HETATM   16  O4  UNL     1      14.322  20.297  16.414  1.00  0.00    -0.391 OA
ATOM     17  H4  UNL     1      14.650  19.606  16.978  1.00  0.00     0.210 HD
ENDBRANCH   9  16
BRANCH  15  18
HETATM   18  C9  UNL     1      13.989  17.322  16.684  1.00  0.00     0.173 C 
BRANCH  18  19
HETATM   19  O5  UNL     1      14.807  17.261  15.551  1.00  0.00    -0.400 OA
ATOM     20  H5  UNL     1      14.802  16.360  15.249  1.00  0.00     0.209 HD
ENDBRANCH  18  19
ENDBRANCH  15  18
ENDBRANCH   7   8
ENDBRANCH   3   7
BRANCH   4  21
HETATM   21  O6  UNL     1       8.885  18.207  13.633  1.00  0.00    -0.388 OA
ATOM     22  H6  UNL     1       8.425  19.037  13.596  1.00  0.00     0.210 HD
ENDBRANCH   4  21
BRANCH   1  23
HETATM   23  C1  UNL     1      10.435  22.300  11.778  1.00  0.00     0.198 C 
BRANCH  23  24
HETATM   24  O1  UNL     1       9.350  22.338  10.904  1.00  0.00    -0.398 OA
ATOM     25  H1  UNL     1       9.669  22.619  10.055  1.00  0.00     0.209 HD
ENDBRANCH  23  24
ENDBRANCH   1  23
BRANCH   5  26
HETATM   26  O7  UNL     1       9.145  17.700  11.105  1.00  0.00    -0.390 OA
ATOM     27  H7  UNL     1       8.806  18.163  10.348  1.00  0.00     0.210 HD
ENDBRANCH   5  26
BRANCH   6  28
HETATM   28  O8  UNL     1      10.453  20.075   9.929  1.00  0.00    -0.390 OA
ATOM     29  H8  UNL     1      10.849  19.245   9.688  1.00  0.00     0.210 HD
ENDBRANCH   6  28
TORSDOF 10
ENDMDL
