MODEL 13
REMARK VINA RESULT: -6.028288988      4.074      7.632
REMARK  10 active torsions:
REMARK  status: ('A' for Active; 'I' for Inactive)
REMARK    1  A    between atoms: O1_1  and  C1_3 
REMARK    2  A    between atoms: C1_3  and  C2_4 
REMARK    3  A    between atoms: C3_6  and  O3_7 
REMARK    4  A    between atoms: O3_7  and  C4_8 
REMARK    5  A    between atoms: C5_9  and  O4_10 
REMARK    6  A    between atoms: C8_17  and  C9_18 
REMARK    7  A    between atoms: C9_18  and  O5_19 
REMARK    8  A    between atoms: C10_21  and  O6_22 
REMARK    9  A    between atoms: C11_24  and  O7_25 
REMARK   10  A    between atoms: C12_27  and  O8_28 
ROOT
HETATM    1  C2  UNL     1      12.057  15.698   9.320  1.00  0.00     0.179 C 
HETATM    2  O2  UNL     1      11.854  17.044   9.640  1.00  0.00    -0.348 OA
HETATM    3  C3  UNL     1      10.556  17.139  10.129  1.00  0.00     0.292 C 
HETATM    4  C10 UNL     1       9.621  17.076   8.954  1.00  0.00     0.204 C 
HETATM    5  C11 UNL     1       9.819  15.742   8.279  1.00  0.00     0.183 C 
HETATM    6  C12 UNL     1      11.247  15.364   8.090  1.00  0.00     0.180 C 
ENDROOT
BRANCH   3   7
HETATM    7  O3  UNL     1      10.358  18.222  10.947  1.00  0.00    -0.350 OA
BRANCH   7   8
HETATM    8  C4  UNL     1      11.561  18.903  11.248  1.00  0.00     0.162 C 
HETATM    9  C5  UNL     1      11.300  20.299  10.693  1.00  0.00     0.173 C 
HETATM   10  C6  UNL     1      10.096  20.891  11.349  1.00  0.00     0.266 C 
HETATM   11  N1  UNL     1      10.068  20.775  12.770  1.00  0.00    -0.072 N 
HETATM   12  C7  UNL     1      10.346  19.458  13.267  1.00  0.00     0.241 C 
ATOM     13  H12 UNL     1      10.700  21.455  13.193  1.00  0.00     0.277 HD
ATOM     14  H11 UNL     1       9.177  21.112  13.135  1.00  0.00     0.277 HD
HETATM   15  C8  UNL     1      11.649  18.908  12.745  1.00  0.00     0.066 C 
BRANCH   9  16
HETATM   16  O4  UNL     1      12.415  21.096  10.704  1.00  0.00    -0.391 OA
ATOM     17  H4  UNL     1      13.051  20.853  10.040  1.00  0.00     0.210 HD
ENDBRANCH   9  16
BRANCH  15  18
HETATM   18  C9  UNL     1      12.843  19.627  13.291  1.00  0.00     0.173 C 
BRANCH  18  19
HETATM   19  O5  UNL     1      12.388  20.471  14.310  1.00  0.00    -0.400 OA
ATOM     20  H5  UNL     1      12.520  21.364  14.016  1.00  0.00     0.209 HD
ENDBRANCH  18  19
ENDBRANCH  15  18
ENDBRANCH   7   8
ENDBRANCH   3   7
BRANCH   4  21
HETATM   21  O6  UNL     1       9.785  18.132   8.076  1.00  0.00    -0.388 OA
ATOM     22  H6  UNL     1      10.428  17.957   7.399  1.00  0.00     0.210 HD
ENDBRANCH   4  21
BRANCH   1  23
HETATM   23  C1  UNL     1      13.516  15.386   9.139  1.00  0.00     0.198 C 
BRANCH  23  24
HETATM   24  O1  UNL     1      13.753  14.123   9.677  1.00  0.00    -0.398 OA
ATOM     25  H1  UNL     1      14.677  14.066   9.892  1.00  0.00     0.209 HD
ENDBRANCH  23  24
ENDBRANCH   1  23
BRANCH   5  26
HETATM   26  O7  UNL     1       9.207  15.838   7.017  1.00  0.00    -0.390 OA
ATOM     27  H7  UNL     1       8.939  14.959   6.780  1.00  0.00     0.210 HD
ENDBRANCH   5  26
BRANCH   6  28
HETATM   28  O8  UNL     1      11.299  13.966   7.941  1.00  0.00    -0.390 OA
ATOM     29  H8  UNL     1      10.789  13.756   7.167  1.00  0.00     0.210 HD
ENDBRANCH   6  28
TORSDOF 10
ENDMDL
