MODEL 2
REMARK VINA RESULT: -7.158458932      1.208      1.709
REMARK  10 active torsions:
REMARK  status: ('A' for Active; 'I' for Inactive)
REMARK    1  A    between atoms: O1_1  and  C1_3 
REMARK    2  A    between atoms: C1_3  and  C2_4 
REMARK    3  A    between atoms: C3_6  and  O3_7 
REMARK    4  A    between atoms: O3_7  and  C4_8 
REMARK    5  A    between atoms: C5_9  and  O4_10 
REMARK    6  A    between atoms: C8_17  and  C9_18 
REMARK    7  A    between atoms: C9_18  and  O5_19 
REMARK    8  A    between atoms: C10_21  and  O6_22 
REMARK    9  A    between atoms: C11_24  and  O7_25 
REMARK   10  A    between atoms: C12_27  and  O8_28 
ROOT
HETATM    1  C2  UNL     1      11.159  22.233  16.811  1.00  0.00     0.179 C 
HETATM    2  O2  UNL     1      11.780  22.229  15.559  1.00  0.00    -0.348 OA
HETATM    3  C3  UNL     1      11.863  20.898  15.166  1.00  0.00     0.292 C 
HETATM    4  C10 UNL     1      12.984  20.264  15.940  1.00  0.00     0.204 C 
HETATM    5  C11 UNL     1      12.636  20.347  17.405  1.00  0.00     0.183 C 
HETATM    6  C12 UNL     1      12.123  21.678  17.832  1.00  0.00     0.180 C 
ENDROOT
BRANCH   3   7
HETATM    7  O3  UNL     1      11.955  20.733  13.807  1.00  0.00    -0.350 OA
BRANCH   7   8
HETATM    8  C4  UNL     1      10.696  20.798  13.166  1.00  0.00     0.162 C 
HETATM    9  C5  UNL     1      10.987  21.676  11.953  1.00  0.00     0.173 C 
HETATM   10  C6  UNL     1      12.054  21.052  11.116  1.00  0.00     0.266 C 
HETATM   11  N1  UNL     1      11.870  19.664  10.845  1.00  0.00    -0.072 N 
HETATM   12  C7  UNL     1      11.569  18.865  11.999  1.00  0.00     0.241 C 
ATOM     13  H12 UNL     1      11.157  19.535  10.128  1.00  0.00     0.277 HD
ATOM     14  H11 UNL     1      12.682  19.288  10.356  1.00  0.00     0.277 HD
HETATM   15  C8  UNL     1      10.381  19.388  12.766  1.00  0.00     0.066 C 
BRANCH   9  16
HETATM   16  O4  UNL     1       9.854  22.038  11.271  1.00  0.00    -0.391 OA
ATOM     17  H4  UNL     1       9.167  22.366  11.840  1.00  0.00     0.210 HD
ENDBRANCH   9  16
BRANCH  15  18
HETATM   18  C9  UNL     1       9.092  19.229  12.021  1.00  0.00     0.173 C 
BRANCH  18  19
HETATM   19  O5  UNL     1       9.352  18.417  10.912  1.00  0.00    -0.400 OA
ATOM     20  H5  UNL     1       8.568  17.907  10.747  1.00  0.00     0.209 HD
ENDBRANCH  18  19
ENDBRANCH  15  18
ENDBRANCH   7   8
ENDBRANCH   3   7
BRANCH   4  21
HETATM   21  O6  UNL     1      14.217  20.828  15.666  1.00  0.00    -0.388 OA
ATOM     22  H6  UNL     1      14.718  21.025  16.449  1.00  0.00     0.210 HD
ENDBRANCH   4  21
BRANCH   1  23
HETATM   23  C1  UNL     1      10.668  23.605  17.182  1.00  0.00     0.198 C 
BRANCH  23  24
HETATM   24  O1  UNL     1      11.646  24.524  16.806  1.00  0.00    -0.398 OA
ATOM     25  H1  UNL     1      11.260  25.117  16.172  1.00  0.00     0.209 HD
ENDBRANCH  23  24
ENDBRANCH   1  23
BRANCH   5  26
HETATM   26  O7  UNL     1      13.820  20.072  18.112  1.00  0.00    -0.390 OA
ATOM     27  H7  UNL     1      13.585  20.050  19.032  1.00  0.00     0.210 HD
ENDBRANCH   5  26
BRANCH   6  28
HETATM   28  O8  UNL     1      11.389  21.488  19.018  1.00  0.00    -0.390 OA
ATOM     29  H8  UNL     1      10.756  20.802  18.840  1.00  0.00     0.210 HD
ENDBRANCH   6  28
TORSDOF 10
ENDMDL
