MODEL 3
REMARK VINA RESULT: -6.865663816      1.404      2.326
REMARK  10 active torsions:
REMARK  status: ('A' for Active; 'I' for Inactive)
REMARK    1  A    between atoms: O1_1  and  C1_3 
REMARK    2  A    between atoms: C1_3  and  C2_4 
REMARK    3  A    between atoms: C3_6  and  O3_7 
REMARK    4  A    between atoms: O3_7  and  C4_8 
REMARK    5  A    between atoms: C5_9  and  O4_10 
REMARK    6  A    between atoms: C8_17  and  C9_18 
REMARK    7  A    between atoms: C9_18  and  O5_19 
REMARK    8  A    between atoms: C10_21  and  O6_22 
REMARK    9  A    between atoms: C11_24  and  O7_25 
REMARK   10  A    between atoms: C12_27  and  O8_28 
ROOT
HETATM    1  C2  UNL     1      11.147  22.254  16.816  1.00  0.00     0.179 C 
HETATM    2  O2  UNL     1      11.754  22.299  15.558  1.00  0.00    -0.348 OA
HETATM    3  C3  UNL     1      11.824  20.985  15.108  1.00  0.00     0.292 C 
HETATM    4  C10 UNL     1      12.949  20.312  15.842  1.00  0.00     0.204 C 
HETATM    5  C11 UNL     1      12.617  20.335  17.313  1.00  0.00     0.183 C 
HETATM    6  C12 UNL     1      12.117  21.650  17.802  1.00  0.00     0.180 C 
ENDROOT
BRANCH   3   7
HETATM    7  O3  UNL     1      11.900  20.878  13.743  1.00  0.00    -0.350 OA
BRANCH   7   8
HETATM    8  C4  UNL     1      11.416  19.637  13.268  1.00  0.00     0.162 C 
HETATM    9  C5  UNL     1       9.999  19.983  12.821  1.00  0.00     0.173 C 
HETATM   10  C6  UNL     1      10.039  21.049  11.778  1.00  0.00     0.266 C 
HETATM   11  N1  UNL     1      10.981  20.829  10.730  1.00  0.00    -0.072 N 
HETATM   12  C7  UNL     1      12.299  20.477  11.176  1.00  0.00     0.241 C 
ATOM     13  H12 UNL     1      10.629  20.129  10.077  1.00  0.00     0.277 HD
ATOM     14  H11 UNL     1      11.021  21.641  10.113  1.00  0.00     0.277 HD
HETATM   15  C8  UNL     1      12.294  19.289  12.103  1.00  0.00     0.066 C 
BRANCH   9  16
HETATM   16  O4  UNL     1       9.258  18.878  12.491  1.00  0.00    -0.391 OA
ATOM     17  H4  UNL     1       8.563  18.697  13.113  1.00  0.00     0.210 HD
ENDBRANCH   9  16
BRANCH  15  18
HETATM   18  C9  UNL     1      11.926  18.013  11.411  1.00  0.00     0.173 C 
BRANCH  18  19
HETATM   19  O5  UNL     1      12.107  18.219  10.039  1.00  0.00    -0.400 OA
ATOM     20  H5  UNL     1      12.406  17.397   9.669  1.00  0.00     0.209 HD
ENDBRANCH  18  19
ENDBRANCH  15  18
ENDBRANCH   7   8
ENDBRANCH   3   7
BRANCH   4  21
HETATM   21  O6  UNL     1      14.182  20.880  15.579  1.00  0.00    -0.388 OA
ATOM     22  H6  UNL     1      14.160  21.500  14.860  1.00  0.00     0.210 HD
ENDBRANCH   4  21
BRANCH   1  23
HETATM   23  C1  UNL     1      10.669  23.612  17.250  1.00  0.00     0.198 C 
BRANCH  23  24
HETATM   24  O1  UNL     1      11.617  24.548  16.842  1.00  0.00    -0.398 OA
ATOM     25  H1  UNL     1      11.902  25.028  17.611  1.00  0.00     0.209 HD
ENDBRANCH  23  24
ENDBRANCH   1  23
BRANCH   5  26
HETATM   26  O7  UNL     1      13.807  20.023  17.995  1.00  0.00    -0.390 OA
ATOM     27  H7  UNL     1      13.595  20.029  18.921  1.00  0.00     0.210 HD
ENDBRANCH   5  26
BRANCH   6  28
HETATM   28  O8  UNL     1      11.395  21.414  18.986  1.00  0.00    -0.390 OA
ATOM     29  H8  UNL     1      12.020  21.465  19.701  1.00  0.00     0.210 HD
ENDBRANCH   6  28
TORSDOF 10
ENDMDL
