MODEL 10
REMARK VINA RESULT: -6.148030151      3.889      5.832
REMARK  10 active torsions:
REMARK  status: ('A' for Active; 'I' for Inactive)
REMARK    1  A    between atoms: O1_1  and  C1_3 
REMARK    2  A    between atoms: C1_3  and  C2_4 
REMARK    3  A    between atoms: C3_6  and  O3_7 
REMARK    4  A    between atoms: O3_7  and  C4_8 
REMARK    5  A    between atoms: C5_9  and  O4_10 
REMARK    6  A    between atoms: C8_17  and  C9_18 
REMARK    7  A    between atoms: C9_18  and  O5_19 
REMARK    8  A    between atoms: C10_21  and  O6_22 
REMARK    9  A    between atoms: C11_24  and  O7_25 
REMARK   10  A    between atoms: C12_27  and  O8_28 
ROOT
HETATM    1  C2  UNL     1      11.150  18.746  12.860  1.00  0.00     0.179 C 
HETATM    2  O2  UNL     1      10.270  18.364  11.843  1.00  0.00    -0.348 OA
HETATM    3  C3  UNL     1      11.060  18.008  10.755  1.00  0.00     0.292 C 
HETATM    4  C10 UNL     1      11.554  19.277  10.118  1.00  0.00     0.204 C 
HETATM    5  C11 UNL     1      12.387  20.010  11.139  1.00  0.00     0.183 C 
HETATM    6  C12 UNL     1      11.770  20.072  12.493  1.00  0.00     0.180 C 
ENDROOT
BRANCH   3   7
HETATM    7  O3  UNL     1      10.438  17.148   9.886  1.00  0.00    -0.350 OA
BRANCH   7   8
HETATM    8  C4  UNL     1      11.200  16.910   8.719  1.00  0.00     0.162 C 
HETATM    9  C5  UNL     1      12.019  15.681   9.102  1.00  0.00     0.173 C 
HETATM   10  C6  UNL     1      11.108  14.555   9.463  1.00  0.00     0.266 C 
HETATM   11  N1  UNL     1      10.042  14.326   8.543  1.00  0.00    -0.072 N 
HETATM   12  C7  UNL     1       9.307  15.503   8.177  1.00  0.00     0.241 C 
ATOM     13  H12 UNL     1      10.388  13.851   7.710  1.00  0.00     0.277 HD
ATOM     14  H11 UNL     1       9.410  13.612   8.904  1.00  0.00     0.277 HD
HETATM   15  C8  UNL     1      10.198  16.598   7.648  1.00  0.00     0.066 C 
BRANCH   9  16
HETATM   16  O4  UNL     1      12.983  15.372   8.178  1.00  0.00    -0.391 OA
ATOM     17  H4  UNL     1      13.754  15.923   8.249  1.00  0.00     0.210 HD
ENDBRANCH   9  16
BRANCH  15  18
HETATM   18  C9  UNL     1      10.798  16.266   6.317  1.00  0.00     0.173 C 
BRANCH  18  19
HETATM   19  O5  UNL     1       9.842  15.538   5.601  1.00  0.00    -0.400 OA
ATOM     20  H5  UNL     1      10.277  15.176   4.839  1.00  0.00     0.209 HD
ENDBRANCH  18  19
ENDBRANCH  15  18
ENDBRANCH   7   8
ENDBRANCH   3   7
BRANCH   4  21
HETATM   21  O6  UNL     1      10.533  20.064   9.617  1.00  0.00    -0.388 OA
ATOM     22  H6  UNL     1      10.687  20.993   9.739  1.00  0.00     0.210 HD
ENDBRANCH   4  21
BRANCH   1  23
HETATM   23  C1  UNL     1      10.463  18.791  14.197  1.00  0.00     0.198 C 
BRANCH  23  24
HETATM   24  O1  UNL     1      10.102  20.114  14.447  1.00  0.00    -0.398 OA
ATOM     25  H1  UNL     1      10.868  20.657  14.305  1.00  0.00     0.209 HD
ENDBRANCH  23  24
ENDBRANCH   1  23
BRANCH   5  26
HETATM   26  O7  UNL     1      12.547  21.321  10.656  1.00  0.00    -0.390 OA
ATOM     27  H7  UNL     1      12.517  21.892  11.414  1.00  0.00     0.210 HD
ENDBRANCH   5  26
BRANCH   6  28
HETATM   28  O8  UNL     1      12.804  20.304  13.419  1.00  0.00    -0.390 OA
ATOM     29  H8  UNL     1      12.417  20.779  14.146  1.00  0.00     0.210 HD
ENDBRANCH   6  28
TORSDOF 10
ENDMDL
