MODEL 5
REMARK VINA RESULT: -7.021373375      3.227      7.194
REMARK  11 active torsions:
REMARK  status: ('A' for Active; 'I' for Inactive)
REMARK    1  A    between atoms: O1_1  and  C1_3 
REMARK    2  A    between atoms: C1_3  and  C2_4 
REMARK    3  A    between atoms: C3_6  and  O3_7 
REMARK    4  A    between atoms: O3_7  and  C4_8 
REMARK    5  A    between atoms: C5_9  and  O4_10 
REMARK    6  A    between atoms: C6_12  and  O5_13 
REMARK    7  A    between atoms: C10_21  and  C11_22 
REMARK    8  A    between atoms: C11_22  and  O6_23 
REMARK    9  A    between atoms: C12_25  and  O7_26 
REMARK   10  A    between atoms: C13_28  and  O8_29 
REMARK   11  A    between atoms: C14_31  and  O9_32 
ROOT
HETATM    1  C4  UNL     1     -10.858 -18.696  11.215  1.00  0.00     0.181 C 
HETATM    2  C5  UNL     1      -9.965 -19.871  11.070  1.00  0.00     0.185 C 
HETATM    3  C6  UNL     1     -10.214 -21.032  11.956  1.00  0.00     0.217 C 
HETATM    4  C7  UNL     1     -10.857 -20.726  13.240  1.00  0.00     0.115 A 
HETATM    5  N1  UNL     1     -10.781 -21.360  14.448  1.00  0.00    -0.352 N 
ATOM      6  H1  UNL     1     -10.233 -22.196  14.652  1.00  0.00     0.166 HD
HETATM    7  C8  UNL     1     -11.556 -20.693  15.319  1.00  0.00     0.106 A 
HETATM    8  C9  UNL     1     -12.096 -19.649  14.613  1.00  0.00     0.110 A 
HETATM    9  N2  UNL     1     -11.673 -19.659  13.332  1.00  0.00    -0.334 N 
HETATM   10  C10 UNL     1     -11.949 -18.791  12.216  1.00  0.00     0.146 C 
ENDROOT
BRANCH   1  11
HETATM   11  O3  UNL     1     -10.110 -17.508  11.406  1.00  0.00    -0.348 OA
BRANCH  11  12
HETATM   12  C3  UNL     1     -10.437 -16.509  10.531  1.00  0.00     0.292 C 
HETATM   13  O2  UNL     1     -11.409 -17.005   9.631  1.00  0.00    -0.348 OA
HETATM   14  C2  UNL     1     -11.585 -15.970   8.686  1.00  0.00     0.179 C 
HETATM   15  C14 UNL     1     -10.550 -16.203   7.613  1.00  0.00     0.180 C 
HETATM   16  C13 UNL     1      -9.241 -16.525   8.343  1.00  0.00     0.183 C 
HETATM   17  C12 UNL     1      -9.304 -15.935   9.758  1.00  0.00     0.204 C 
BRANCH  14  18
HETATM   18  C1  UNL     1     -12.994 -16.040   8.160  1.00  0.00     0.198 C 
BRANCH  18  19
HETATM   19  O1  UNL     1     -13.848 -16.751   8.970  1.00  0.00    -0.398 OA
ATOM     20  H1  UNL     1     -14.676 -16.964   8.555  1.00  0.00     0.209 HD
ENDBRANCH  18  19
ENDBRANCH  14  18
BRANCH  15  21
HETATM   21  O9  UNL     1     -10.408 -15.106   6.776  1.00  0.00    -0.390 OA
ATOM     22  H9  UNL     1      -9.498 -14.913   6.590  1.00  0.00     0.210 HD
ENDBRANCH  15  21
BRANCH  16  23
HETATM   23  O8  UNL     1      -9.046 -17.900   8.417  1.00  0.00    -0.390 OA
ATOM     24  H8  UNL     1      -9.097 -18.182   9.322  1.00  0.00     0.210 HD
ENDBRANCH  16  23
BRANCH  17  25
HETATM   25  O7  UNL     1      -8.070 -16.060  10.345  1.00  0.00    -0.388 OA
ATOM     26  H7  UNL     1      -7.329 -15.959   9.759  1.00  0.00     0.210 HD
ENDBRANCH  17  25
ENDBRANCH  11  12
ENDBRANCH   1  11
BRANCH   2  27
HETATM   27  O4  UNL     1      -9.957 -20.373   9.743  1.00  0.00    -0.390 OA
ATOM     28  H4  UNL     1     -10.681 -20.966   9.582  1.00  0.00     0.210 HD
ENDBRANCH   2  27
BRANCH  10  29
HETATM   29  C11 UNL     1     -13.283 -19.074  11.558  1.00  0.00     0.192 C 
BRANCH  29  30
HETATM   30  O6  UNL     1     -13.226 -19.235  10.201  1.00  0.00    -0.399 OA
ATOM     31  H6  UNL     1     -12.580 -19.865   9.904  1.00  0.00     0.209 HD
ENDBRANCH  29  30
ENDBRANCH  10  29
BRANCH   3  32
HETATM   32  O5  UNL     1     -10.883 -22.081  11.279  1.00  0.00    -0.385 OA
ATOM     33  H5  UNL     1     -10.278 -22.741  10.961  1.00  0.00     0.210 HD
ENDBRANCH   3  32
TORSDOF 11
ENDMDL
