MODEL 3
REMARK VINA RESULT: -7.241772156      2.765      5.119
REMARK  11 active torsions:
REMARK  status: ('A' for Active; 'I' for Inactive)
REMARK    1  A    between atoms: O1_1  and  C1_3 
REMARK    2  A    between atoms: C1_3  and  C2_4 
REMARK    3  A    between atoms: C3_6  and  O3_7 
REMARK    4  A    between atoms: O3_7  and  C4_8 
REMARK    5  A    between atoms: C5_9  and  O4_10 
REMARK    6  A    between atoms: C6_12  and  O5_13 
REMARK    7  A    between atoms: C10_21  and  C11_22 
REMARK    8  A    between atoms: C11_22  and  O6_23 
REMARK    9  A    between atoms: C12_25  and  O7_26 
REMARK   10  A    between atoms: C13_28  and  O8_29 
REMARK   11  A    between atoms: C14_31  and  O9_32 
ROOT
HETATM    1  C4  UNL     1     -10.357 -17.699   9.805  1.00  0.00     0.181 C 
HETATM    2  C5  UNL     1      -9.034 -17.094  10.097  1.00  0.00     0.185 C 
HETATM    3  C6  UNL     1      -8.635 -15.910   9.301  1.00  0.00     0.217 C 
HETATM    4  C7  UNL     1      -9.232 -15.811   7.964  1.00  0.00     0.115 A 
HETATM    5  N1  UNL     1      -8.765 -15.227   6.820  1.00  0.00    -0.352 N 
ATOM      6  H1  UNL     1      -7.874 -14.740   6.717  1.00  0.00     0.166 HD
HETATM    7  C8  UNL     1      -9.683 -15.404   5.855  1.00  0.00     0.106 A 
HETATM    8  C9  UNL     1     -10.707 -16.104   6.441  1.00  0.00     0.110 A 
HETATM    9  N2  UNL     1     -10.441 -16.359   7.739  1.00  0.00    -0.334 N 
HETATM   10  C10 UNL     1     -11.186 -17.050   8.760  1.00  0.00     0.146 C 
ENDROOT
BRANCH   1  11
HETATM   11  O3  UNL     1     -10.237 -19.088   9.553  1.00  0.00    -0.348 OA
BRANCH  11  12
HETATM   12  C3  UNL     1     -10.868 -19.869  10.482  1.00  0.00     0.292 C 
HETATM   13  O2  UNL     1     -11.311 -19.037  11.537  1.00  0.00    -0.348 OA
HETATM   14  C2  UNL     1     -11.817 -19.929  12.508  1.00  0.00     0.179 C 
HETATM   15  C14 UNL     1     -10.645 -20.315  13.375  1.00  0.00     0.180 C 
HETATM   16  C13 UNL     1      -9.484 -20.611  12.419  1.00  0.00     0.183 C 
HETATM   17  C12 UNL     1     -10.056 -20.981  11.044  1.00  0.00     0.204 C 
BRANCH  14  18
HETATM   18  C1  UNL     1     -12.904 -19.226  13.278  1.00  0.00     0.198 C 
BRANCH  18  19
HETATM   19  O1  UNL     1     -13.304 -19.903  14.407  1.00  0.00    -0.398 OA
ATOM     20  H1  UNL     1     -12.903 -19.580  15.205  1.00  0.00     0.209 HD
ENDBRANCH  18  19
ENDBRANCH  14  18
BRANCH  15  21
HETATM   21  O9  UNL     1     -10.929 -21.405  14.184  1.00  0.00    -0.390 OA
ATOM     22  H9  UNL     1     -10.527 -21.329  15.041  1.00  0.00     0.210 HD
ENDBRANCH  15  21
BRANCH  16  23
HETATM   23  O8  UNL     1      -8.653 -19.503  12.299  1.00  0.00    -0.390 OA
ATOM     24  H8  UNL     1      -8.878 -19.018  11.514  1.00  0.00     0.210 HD
ENDBRANCH  16  23
BRANCH  17  25
HETATM   25  O7  UNL     1      -9.034 -21.424  10.244  1.00  0.00    -0.388 OA
ATOM     26  H7  UNL     1      -8.467 -22.079  10.635  1.00  0.00     0.210 HD
ENDBRANCH  17  25
ENDBRANCH  11  12
ENDBRANCH   1  11
BRANCH   2  27
HETATM   27  O4  UNL     1      -8.908 -16.724  11.460  1.00  0.00    -0.390 OA
ATOM     28  H4  UNL     1      -9.750 -16.544  11.861  1.00  0.00     0.210 HD
ENDBRANCH   2  27
BRANCH  10  29
HETATM   29  C11 UNL     1     -12.285 -16.203   9.369  1.00  0.00     0.192 C 
BRANCH  29  30
HETATM   30  O6  UNL     1     -12.584 -16.508  10.669  1.00  0.00    -0.399 OA
ATOM     31  H6  UNL     1     -13.124 -15.864  11.112  1.00  0.00     0.209 HD
ENDBRANCH  29  30
ENDBRANCH  10  29
BRANCH   3  32
HETATM   32  O5  UNL     1      -8.792 -14.705  10.029  1.00  0.00    -0.385 OA
ATOM     33  H5  UNL     1      -8.261 -14.002   9.672  1.00  0.00     0.210 HD
ENDBRANCH   3  32
TORSDOF 11
ENDMDL
