MODEL 4
REMARK VINA RESULT: -7.122761695      3.524      6.253
REMARK  11 active torsions:
REMARK  status: ('A' for Active; 'I' for Inactive)
REMARK    1  A    between atoms: O1_1  and  C1_3 
REMARK    2  A    between atoms: C1_3  and  C2_4 
REMARK    3  A    between atoms: C3_6  and  O3_7 
REMARK    4  A    between atoms: O3_7  and  C4_8 
REMARK    5  A    between atoms: C5_9  and  O4_10 
REMARK    6  A    between atoms: C6_12  and  O5_13 
REMARK    7  A    between atoms: C10_21  and  C11_22 
REMARK    8  A    between atoms: C11_22  and  O6_23 
REMARK    9  A    between atoms: C12_25  and  O7_26 
REMARK   10  A    between atoms: C13_28  and  O8_29 
REMARK   11  A    between atoms: C14_31  and  O9_32 
ROOT
HETATM    1  C4  UNL     1      -9.598 -15.568  10.052  1.00  0.00     0.181 C 
HETATM    2  C5  UNL     1      -8.317 -14.944   9.638  1.00  0.00     0.185 C 
HETATM    3  C6  UNL     1      -8.252 -14.353   8.282  1.00  0.00     0.217 C 
HETATM    4  C7  UNL     1      -9.163 -14.936   7.289  1.00  0.00     0.115 A 
HETATM    5  N1  UNL     1      -9.052 -15.041   5.931  1.00  0.00    -0.352 N 
ATOM      6  H1  UNL     1      -8.271 -14.707   5.366  1.00  0.00     0.166 HD
HETATM    7  C8  UNL     1     -10.153 -15.659   5.468  1.00  0.00     0.106 A 
HETATM    8  C9  UNL     1     -10.922 -15.922   6.572  1.00  0.00     0.110 A 
HETATM    9  N2  UNL     1     -10.324 -15.481   7.699  1.00  0.00    -0.334 N 
HETATM   10  C10 UNL     1     -10.720 -15.521   9.083  1.00  0.00     0.146 C 
ENDROOT
BRANCH   1  11
HETATM   11  O3  UNL     1      -9.394 -16.891  10.514  1.00  0.00    -0.348 OA
BRANCH  11  12
HETATM   12  C3  UNL     1     -10.524 -17.661  10.483  1.00  0.00     0.292 C 
HETATM   13  O2  UNL     1     -10.791 -18.113  11.797  1.00  0.00    -0.348 OA
HETATM   14  C2  UNL     1     -11.876 -19.006  11.656  1.00  0.00     0.179 C 
HETATM   15  C14 UNL     1     -11.272 -20.358  11.369  1.00  0.00     0.180 C 
HETATM   16  C13 UNL     1     -10.174 -20.125  10.325  1.00  0.00     0.183 C 
HETATM   17  C12 UNL     1     -10.481 -18.829   9.564  1.00  0.00     0.204 C 
BRANCH  14  18
HETATM   18  C1  UNL     1     -12.678 -18.985  12.930  1.00  0.00     0.198 C 
BRANCH  18  19
HETATM   19  O1  UNL     1     -12.566 -20.141  13.668  1.00  0.00    -0.398 OA
ATOM     20  H1  UNL     1     -13.169 -20.182  14.402  1.00  0.00     0.209 HD
ENDBRANCH  18  19
ENDBRANCH  14  18
BRANCH  15  21
HETATM   21  O9  UNL     1     -12.216 -21.269  10.919  1.00  0.00    -0.390 OA
ATOM     22  H9  UNL     1     -12.042 -21.556  10.031  1.00  0.00     0.210 HD
ENDBRANCH  15  21
BRANCH  16  23
HETATM   23  O8  UNL     1      -8.930 -20.026  10.937  1.00  0.00    -0.390 OA
ATOM     24  H8  UNL     1      -8.249 -20.257  10.317  1.00  0.00     0.210 HD
ENDBRANCH  16  23
BRANCH  17  25
HETATM   25  O7  UNL     1      -9.608 -18.716   8.512  1.00  0.00    -0.388 OA
ATOM     26  H7  UNL     1      -9.116 -19.502   8.306  1.00  0.00     0.210 HD
ENDBRANCH  17  25
ENDBRANCH  11  12
ENDBRANCH   1  11
BRANCH   2  27
HETATM   27  O4  UNL     1      -7.905 -13.929  10.539  1.00  0.00    -0.390 OA
ATOM     28  H4  UNL     1      -7.064 -13.557  10.297  1.00  0.00     0.210 HD
ENDBRANCH   2  27
BRANCH  10  29
HETATM   29  C11 UNL     1     -11.723 -14.446   9.445  1.00  0.00     0.192 C 
BRANCH  29  30
HETATM   30  O6  UNL     1     -11.286 -13.166   9.237  1.00  0.00    -0.399 OA
ATOM     31  H6  UNL     1     -10.399 -12.999   9.533  1.00  0.00     0.209 HD
ENDBRANCH  29  30
ENDBRANCH  10  29
BRANCH   3  32
HETATM   32  O5  UNL     1      -8.357 -12.941   8.313  1.00  0.00    -0.385 OA
ATOM     33  H5  UNL     1      -9.253 -12.654   8.448  1.00  0.00     0.210 HD
ENDBRANCH   3  32
TORSDOF 11
ENDMDL
