MODEL 3
REMARK VINA RESULT: -7.427263255      3.051      7.130
REMARK  14 active torsions:
REMARK  status: ('A' for Active; 'I' for Inactive)
REMARK    1  A    between atoms: C2_2  and  C3_3 
REMARK    2  A    between atoms: C3_3  and  N1_4 
REMARK    3  A    between atoms: N1_4  and  C4_5 
REMARK    4  A    between atoms: N1_4  and  C20_25 
REMARK    5  A    between atoms: C4_5  and  C5_6 
REMARK    6  A    between atoms: C10_11  and  C11_12 
REMARK       I    between atoms: C11_12  and  N2_14 
REMARK    7  A    between atoms: N2_14  and  C12_16 
REMARK    8  A    between atoms: C12_16  and  C13_17 
REMARK    9  A    between atoms: C16_20  and  O2_21 
REMARK   10  A    between atoms: C20_25  and  C21_26 
REMARK   11  A    between atoms: C26_31  and  C27_32 
REMARK   12  A    between atoms: C29_37  and  C30_38 
REMARK   13  A    between atoms: C30_38  and  C31_39 
REMARK   14  A    between atoms: C31_39  and  C32_40 
ROOT
HETATM    1  N1  UNL     1       9.141  35.215   0.954  1.00  0.00     0.100 N 
ENDROOT
BRANCH   1   2
HETATM    2  C3  UNL     1      10.346  36.078   1.072  1.00  0.00     0.299 C 
BRANCH   2   3
HETATM    3  C2  UNL     1       9.997  37.430   1.575  1.00  0.00    -0.007 C 
HETATM    4  C1  UNL     1       8.849  38.014   1.275  1.00  0.00     0.008 C 
ENDBRANCH   2   3
ENDBRANCH   1   2
BRANCH   1   5
HETATM    5  C4  UNL     1       9.389  33.989   1.712  1.00  0.00     0.312 C 
BRANCH   5   6
HETATM    6  C5  UNL     1       8.159  33.222   1.895  1.00  0.00    -0.014 A 
HETATM    7  C6  UNL     1       6.957  33.821   2.170  1.00  0.00     0.010 A 
HETATM    8  C7  UNL     1       5.794  33.080   2.367  1.00  0.00     0.001 A 
HETATM    9  C8  UNL     1       5.901  31.715   2.276  1.00  0.00     0.001 A 
HETATM   10  C9  UNL     1       7.111  31.110   1.999  1.00  0.00     0.017 A 
HETATM   11  C10 UNL     1       8.267  31.827   1.800  1.00  0.00     0.040 A 
BRANCH  11  12
HETATM   12  C11 UNL     1       9.538  31.217   1.453  1.00  0.00     0.252 C 
HETATM   13  O1  UNL     1      10.186  31.384   0.406  1.00  0.00    -0.268 OA
HETATM   14  N2  UNL     1      10.129  30.324   2.398  1.00  0.00    -0.353 N 
ATOM     15  H2  UNL     1       9.646  30.163   3.282  1.00  0.00     0.163 HD
BRANCH  14  16
HETATM   16  C12 UNL     1      11.381  29.637   2.163  1.00  0.00     0.161 C 
BRANCH  16  17
HETATM   17  C13 UNL     1      11.591  28.663   3.241  1.00  0.00    -0.040 A 
HETATM   18  C14 UNL     1      12.639  27.756   3.190  1.00  0.00     0.011 A 
HETATM   19  C15 UNL     1      12.799  26.892   4.242  1.00  0.00     0.037 A 
HETATM   20  C16 UNL     1      11.958  26.884   5.352  1.00  0.00     0.068 A 
HETATM   21  C18 UNL     1      10.932  27.784   5.383  1.00  0.00     0.037 A 
HETATM   22  C19 UNL     1      10.749  28.674   4.326  1.00  0.00     0.011 A 
BRANCH  20  23
HETATM   23  O2  UNL     1      12.224  25.965   6.350  1.00  0.00    -0.356 OA
HETATM   24  C17 UNL     1      13.534  25.648   6.773  1.00  0.00     0.210 C 
ENDBRANCH  20  23
ENDBRANCH  16  17
ENDBRANCH  14  16
ENDBRANCH  11  12
ENDBRANCH   5   6
ENDBRANCH   1   5
BRANCH   1  25
HETATM   25  C20 UNL     1       8.970  34.832  -0.411  1.00  0.00     0.313 C 
BRANCH  25  26
HETATM   26  C21 UNL     1       7.909  35.488  -1.154  1.00  0.00    -0.010 A 
HETATM   27  C22 UNL     1       6.588  35.277  -0.869  1.00  0.00     0.013 A 
HETATM   28  C23 UNL     1       5.565  35.912  -1.593  1.00  0.00     0.040 A 
HETATM   29  C24 UNL     1       5.898  36.774  -2.620  1.00  0.00     0.103 A 
HETATM   30  C25 UNL     1       7.221  37.005  -2.930  1.00  0.00     0.119 A 
HETATM   31  O8  UNL     1       4.893  37.424  -3.363  1.00  0.00    -0.341 OA
HETATM   32  C26 UNL     1       8.220  36.357  -2.189  1.00  0.00     0.085 A 
HETATM   33  O5  UNL     1       7.568  37.868  -3.959  1.00  0.00    -0.345 OA
HETATM   34  C28 UNL     1       6.575  38.370  -4.817  1.00  0.00     0.208 C 
HETATM   35  C29 UNL     1       5.315  38.627  -3.982  1.00  0.00     0.153 C 
BRANCH  32  36
HETATM   36  C27 UNL     1       9.594  36.610  -2.519  1.00  0.00     0.212 C 
HETATM   37  O3  UNL     1      10.305  35.888  -3.264  1.00  0.00    -0.644 OA
HETATM   38  O4  UNL     1      10.189  37.740  -1.971  1.00  0.00    -0.644 OA
ENDBRANCH  32  36
BRANCH  35  39
HETATM   39  C30 UNL     1       5.638  39.690  -2.973  1.00  0.00     0.045 C 
BRANCH  39  40
HETATM   40  C31 UNL     1       4.557  40.757  -2.932  1.00  0.00     0.116 C 
BRANCH  40  41
HETATM   41  C32 UNL     1       4.557  41.336  -1.564  1.00  0.00     0.172 C 
HETATM   42  O6  UNL     1       3.473  41.508  -0.969  1.00  0.00    -0.648 OA
HETATM   43  O7  UNL     1       5.808  41.658  -1.009  1.00  0.00    -0.648 OA
ENDBRANCH  40  41
ENDBRANCH  39  40
ENDBRANCH  35  39
ENDBRANCH  25  26
ENDBRANCH   1  25
TORSDOF 14
ENDMDL
