MODEL 2
REMARK VINA RESULT: -7.438781389      1.337      2.957
REMARK  14 active torsions:
REMARK  status: ('A' for Active; 'I' for Inactive)
REMARK    1  A    between atoms: C2_2  and  C3_3 
REMARK    2  A    between atoms: C3_3  and  N1_4 
REMARK    3  A    between atoms: N1_4  and  C4_5 
REMARK    4  A    between atoms: N1_4  and  C20_25 
REMARK    5  A    between atoms: C4_5  and  C5_6 
REMARK    6  A    between atoms: C10_11  and  C11_12 
REMARK       I    between atoms: C11_12  and  N2_14 
REMARK    7  A    between atoms: N2_14  and  C12_16 
REMARK    8  A    between atoms: C12_16  and  C13_17 
REMARK    9  A    between atoms: C16_20  and  O2_21 
REMARK   10  A    between atoms: C20_25  and  C21_26 
REMARK   11  A    between atoms: C26_31  and  C27_32 
REMARK   12  A    between atoms: C29_37  and  C30_38 
REMARK   13  A    between atoms: C30_38  and  C31_39 
REMARK   14  A    between atoms: C31_39  and  C32_40 
ROOT
HETATM    1  N1  UNL     1      10.319  33.636   0.359  1.00  0.00     0.100 N 
ENDROOT
BRANCH   1   2
HETATM    2  C3  UNL     1      10.190  34.116  -1.042  1.00  0.00     0.299 C 
BRANCH   2   3
HETATM    3  C2  UNL     1      11.470  33.976  -1.783  1.00  0.00    -0.007 C 
HETATM    4  C1  UNL     1      12.584  33.586  -1.188  1.00  0.00     0.008 C 
ENDBRANCH   2   3
ENDBRANCH   1   2
BRANCH   1   5
HETATM    5  C4  UNL     1       9.392  32.520   0.539  1.00  0.00     0.312 C 
BRANCH   5   6
HETATM    6  C5  UNL     1      10.020  31.424   1.275  1.00  0.00    -0.014 A 
HETATM    7  C6  UNL     1      11.204  30.860   0.877  1.00  0.00     0.010 A 
HETATM    8  C7  UNL     1      11.783  29.800   1.571  1.00  0.00     0.001 A 
HETATM    9  C8  UNL     1      11.114  29.338   2.676  1.00  0.00     0.001 A 
HETATM   10  C9  UNL     1       9.921  29.904   3.078  1.00  0.00     0.017 A 
HETATM   11  C10 UNL     1       9.338  30.952   2.405  1.00  0.00     0.040 A 
BRANCH  11  12
HETATM   12  C11 UNL     1       8.114  31.601   2.840  1.00  0.00     0.252 C 
HETATM   13  O1  UNL     1       7.972  32.347   3.824  1.00  0.00    -0.268 OA
HETATM   14  N2  UNL     1       6.930  31.373   2.074  1.00  0.00    -0.353 N 
ATOM     15  H2  UNL     1       6.993  30.779   1.247  1.00  0.00     0.163 HD
BRANCH  14  16
HETATM   16  C12 UNL     1       5.644  31.944   2.414  1.00  0.00     0.161 C 
BRANCH  16  17
HETATM   17  C13 UNL     1       5.362  33.049   1.490  1.00  0.00    -0.040 A 
HETATM   18  C14 UNL     1       4.340  32.958   0.557  1.00  0.00     0.011 A 
HETATM   19  C15 UNL     1       4.108  34.035  -0.257  1.00  0.00     0.037 A 
HETATM   20  C16 UNL     1       4.851  35.211  -0.190  1.00  0.00     0.068 A 
HETATM   21  C18 UNL     1       5.853  35.281   0.735  1.00  0.00     0.037 A 
HETATM   22  C19 UNL     1       6.108  34.199   1.575  1.00  0.00     0.011 A 
BRANCH  20  23
HETATM   23  O2  UNL     1       4.518  36.229  -1.064  1.00  0.00    -0.356 OA
HETATM   24  C17 UNL     1       5.442  37.210  -1.488  1.00  0.00     0.210 C 
ENDBRANCH  20  23
ENDBRANCH  16  17
ENDBRANCH  14  16
ENDBRANCH  11  12
ENDBRANCH   5   6
ENDBRANCH   1   5
BRANCH   1  25
HETATM   25  C20 UNL     1       9.901  34.671   1.249  1.00  0.00     0.313 C 
BRANCH  25  26
HETATM   26  C21 UNL     1      10.847  35.739   1.511  1.00  0.00    -0.010 A 
HETATM   27  C22 UNL     1      12.117  35.490   1.954  1.00  0.00     0.013 A 
HETATM   28  C23 UNL     1      13.029  36.529   2.208  1.00  0.00     0.040 A 
HETATM   29  C24 UNL     1      12.636  37.838   2.008  1.00  0.00     0.103 A 
HETATM   30  C25 UNL     1      11.363  38.120   1.563  1.00  0.00     0.119 A 
HETATM   31  O8  UNL     1      13.529  38.899   2.256  1.00  0.00    -0.341 OA
HETATM   32  C26 UNL     1      10.475  37.061   1.317  1.00  0.00     0.085 A 
HETATM   33  O5  UNL     1      10.957  39.430   1.358  1.00  0.00    -0.345 OA
HETATM   34  C28 UNL     1      11.775  40.490   1.778  1.00  0.00     0.208 C 
HETATM   35  C29 UNL     1      13.234  40.085   1.539  1.00  0.00     0.153 C 
BRANCH  32  36
HETATM   36  C27 UNL     1       9.153  37.367   0.849  1.00  0.00     0.212 C 
HETATM   37  O3  UNL     1       8.161  37.603   1.585  1.00  0.00    -0.644 OA
HETATM   38  O4  UNL     1       8.950  37.406  -0.525  1.00  0.00    -0.644 OA
ENDBRANCH  32  36
BRANCH  35  39
HETATM   39  C30 UNL     1      13.428  39.906   0.061  1.00  0.00     0.045 C 
BRANCH  39  40
HETATM   40  C31 UNL     1      14.855  39.492  -0.261  1.00  0.00     0.116 C 
BRANCH  40  41
HETATM   41  C32 UNL     1      14.785  38.223  -1.030  1.00  0.00     0.172 C 
HETATM   42  O6  UNL     1      13.671  37.729  -1.302  1.00  0.00    -0.648 OA
HETATM   43  O7  UNL     1      16.007  37.644  -1.416  1.00  0.00    -0.648 OA
ENDBRANCH  40  41
ENDBRANCH  39  40
ENDBRANCH  35  39
ENDBRANCH  25  26
ENDBRANCH   1  25
TORSDOF 14
ENDMDL
