MODEL 1
REMARK VINA RESULT: -7.657318836      0.000      0.000
REMARK  14 active torsions:
REMARK  status: ('A' for Active; 'I' for Inactive)
REMARK    1  A    between atoms: C2_2  and  C3_3 
REMARK    2  A    between atoms: C3_3  and  N1_4 
REMARK    3  A    between atoms: N1_4  and  C4_5 
REMARK    4  A    between atoms: N1_4  and  C20_25 
REMARK    5  A    between atoms: C4_5  and  C5_6 
REMARK    6  A    between atoms: C10_11  and  C11_12 
REMARK       I    between atoms: C11_12  and  N2_14 
REMARK    7  A    between atoms: N2_14  and  C12_16 
REMARK    8  A    between atoms: C12_16  and  C13_17 
REMARK    9  A    between atoms: C16_20  and  O2_21 
REMARK   10  A    between atoms: C20_25  and  C21_26 
REMARK   11  A    between atoms: C26_31  and  C27_32 
REMARK   12  A    between atoms: C29_37  and  C30_38 
REMARK   13  A    between atoms: C30_38  and  C31_39 
REMARK   14  A    between atoms: C31_39  and  C32_40 
ROOT
HETATM    1  N1  UNL     1      10.495  33.740   0.485  1.00  0.00     0.100 N 
ENDROOT
BRANCH   1   2
HETATM    2  C3  UNL     1      10.640  34.037  -0.965  1.00  0.00     0.299 C 
BRANCH   2   3
HETATM    3  C2  UNL     1      12.016  33.744  -1.443  1.00  0.00    -0.007 C 
HETATM    4  C1  UNL     1      12.841  34.700  -1.831  1.00  0.00     0.008 C 
ENDBRANCH   2   3
ENDBRANCH   1   2
BRANCH   1   5
HETATM    5  C4  UNL     1       9.504  32.674   0.628  1.00  0.00     0.312 C 
BRANCH   5   6
HETATM    6  C5  UNL     1      10.071  31.514   1.312  1.00  0.00    -0.014 A 
HETATM    7  C6  UNL     1      11.248  30.934   0.917  1.00  0.00     0.010 A 
HETATM    8  C7  UNL     1      11.769  29.813   1.561  1.00  0.00     0.001 A 
HETATM    9  C8  UNL     1      11.048  29.308   2.614  1.00  0.00     0.001 A 
HETATM   10  C9  UNL     1       9.862  29.891   3.014  1.00  0.00     0.017 A 
HETATM   11  C10 UNL     1       9.337  30.997   2.390  1.00  0.00     0.040 A 
BRANCH  11  12
HETATM   12  C11 UNL     1       8.121  31.661   2.826  1.00  0.00     0.252 C 
HETATM   13  O1  UNL     1       7.977  32.366   3.840  1.00  0.00    -0.268 OA
HETATM   14  N2  UNL     1       6.950  31.502   2.025  1.00  0.00    -0.353 N 
ATOM     15  H2  UNL     1       7.016  30.944   1.173  1.00  0.00     0.163 HD
BRANCH  14  16
HETATM   16  C12 UNL     1       5.673  32.094   2.362  1.00  0.00     0.161 C 
BRANCH  16  17
HETATM   17  C13 UNL     1       5.481  33.296   1.541  1.00  0.00    -0.040 A 
HETATM   18  C14 UNL     1       6.220  34.446   1.773  1.00  0.00     0.011 A 
HETATM   19  C15 UNL     1       6.015  35.525   0.953  1.00  0.00     0.037 A 
HETATM   20  C16 UNL     1       5.101  35.516  -0.098  1.00  0.00     0.068 A 
HETATM   21  C18 UNL     1       4.383  34.375  -0.310  1.00  0.00     0.037 A 
HETATM   22  C19 UNL     1       4.574  33.263   0.510  1.00  0.00     0.011 A 
BRANCH  20  23
HETATM   23  O2  UNL     1       4.987  36.666  -0.856  1.00  0.00    -0.356 OA
HETATM   24  C17 UNL     1       6.084  37.262  -1.518  1.00  0.00     0.210 C 
ENDBRANCH  20  23
ENDBRANCH  16  17
ENDBRANCH  14  16
ENDBRANCH  11  12
ENDBRANCH   5   6
ENDBRANCH   1   5
BRANCH   1  25
HETATM   25  C20 UNL     1       9.967  34.888   1.148  1.00  0.00     0.313 C 
BRANCH  25  26
HETATM   26  C21 UNL     1      10.403  36.187   0.669  1.00  0.00    -0.010 A 
HETATM   27  C22 UNL     1       9.662  36.918  -0.218  1.00  0.00     0.013 A 
HETATM   28  C23 UNL     1      10.089  38.174  -0.681  1.00  0.00     0.040 A 
HETATM   29  C24 UNL     1      11.291  38.687  -0.231  1.00  0.00     0.103 A 
HETATM   30  C25 UNL     1      12.060  37.973   0.662  1.00  0.00     0.119 A 
HETATM   31  O8  UNL     1      11.745  39.944  -0.679  1.00  0.00    -0.341 OA
HETATM   32  C26 UNL     1      11.606  36.722   1.107  1.00  0.00     0.085 A 
HETATM   33  O5  UNL     1      13.267  38.478   1.120  1.00  0.00    -0.345 OA
HETATM   34  C28 UNL     1      13.809  39.636   0.538  1.00  0.00     0.208 C 
HETATM   35  C29 UNL     1      12.650  40.582   0.203  1.00  0.00     0.153 C 
BRANCH  32  36
HETATM   36  C27 UNL     1      12.414  35.990   2.040  1.00  0.00     0.212 C 
HETATM   37  O3  UNL     1      13.314  35.169   1.730  1.00  0.00    -0.644 OA
HETATM   38  O4  UNL     1      12.183  36.202   3.394  1.00  0.00    -0.644 OA
ENDBRANCH  32  36
BRANCH  35  39
HETATM   39  C30 UNL     1      11.988  40.976   1.492  1.00  0.00     0.045 C 
BRANCH  39  40
HETATM   40  C31 UNL     1      10.716  41.768   1.238  1.00  0.00     0.116 C 
BRANCH  40  41
HETATM   41  C32 UNL     1       9.628  41.117   2.012  1.00  0.00     0.172 C 
HETATM   42  O6  UNL     1       9.870  40.659   3.148  1.00  0.00    -0.648 OA
HETATM   43  O7  UNL     1       8.361  41.060   1.404  1.00  0.00    -0.648 OA
ENDBRANCH  40  41
ENDBRANCH  39  40
ENDBRANCH  35  39
ENDBRANCH  25  26
ENDBRANCH   1  25
TORSDOF 14
ENDMDL
