MODEL 3
REMARK VINA RESULT: -8.647065860      2.756      5.523
REMARK  2 active torsions:
REMARK  status: ('A' for Active; 'I' for Inactive)
REMARK    1  A    between atoms: C3_4  and  N1_5 
REMARK    2  A    between atoms: C9_15  and  C10_16 
ROOT
HETATM    1  O1  UNL     1      28.491  51.369   3.330  1.00  0.00    -0.287 OA
HETATM    2  C1  UNL     1      28.112  51.003   2.199  1.00  0.00     0.189 A 
HETATM    3  C2  UNL     1      26.960  50.265   1.973  1.00  0.00     0.112 A 
HETATM    4  C3  UNL     1      26.559  49.870   0.715  1.00  0.00     0.150 A 
HETATM    5  O2  UNL     1      27.330  50.230  -0.283  1.00  0.00    -0.292 OA
HETATM    6  C8  UNL     1      28.418  50.914  -0.178  1.00  0.00     0.103 A 
HETATM    7  C9  UNL     1      29.123  51.216  -1.319  1.00  0.00     0.009 A 
HETATM    8  C16 UNL     1      30.283  51.950  -1.174  1.00  0.00     0.015 A 
HETATM    9  C17 UNL     1      30.733  52.373   0.066  1.00  0.00     0.002 A 
HETATM   10  C18 UNL     1      30.016  52.062   1.199  1.00  0.00     0.018 A 
HETATM   11  C19 UNL     1      28.855  51.332   1.085  1.00  0.00     0.049 A 
ENDROOT
BRANCH   4  12
HETATM   12  N1  UNL     1      25.371  49.116   0.548  1.00  0.00    -0.358 N 
HETATM   13  C4  UNL     1      25.190  47.800   1.105  1.00  0.00     0.152 C 
HETATM   14  C5  UNL     1      23.886  47.650   1.839  1.00  0.00     0.252 C 
HETATM   15  N2  UNL     1      22.972  48.739   1.548  1.00  0.00    -0.072 N 
HETATM   16  C6  UNL     1      22.990  48.901   0.090  1.00  0.00     0.252 C 
ATOM     17  H22 UNL     1      22.037  48.599   1.931  1.00  0.00     0.277 HD
ATOM     18  H21 UNL     1      23.185  49.597   2.056  1.00  0.00     0.277 HD
HETATM   19  C7  UNL     1      24.272  49.675  -0.214  1.00  0.00     0.152 C 
ENDBRANCH   4  12
BRANCH   7  20
HETATM   20  C10 UNL     1      28.663  50.782  -2.600  1.00  0.00    -0.023 A 
HETATM   21  C11 UNL     1      27.549  51.355  -3.186  1.00  0.00     0.012 A 
HETATM   22  C12 UNL     1      27.146  50.900  -4.425  1.00  0.00     0.001 A 
HETATM   23  C13 UNL     1      27.794  49.904  -5.107  1.00  0.00     0.000 A 
HETATM   24  C14 UNL     1      28.897  49.342  -4.516  1.00  0.00     0.001 A 
HETATM   25  C15 UNL     1      29.341  49.761  -3.280  1.00  0.00     0.012 A 
ENDBRANCH   7  20
TORSDOF 2
ENDMDL
