MODEL 1
REMARK VINA RESULT: -8.894800726      0.000      0.000
REMARK  2 active torsions:
REMARK  status: ('A' for Active; 'I' for Inactive)
REMARK    1  A    between atoms: C3_4  and  N1_5 
REMARK    2  A    between atoms: C9_15  and  C10_16 
ROOT
HETATM    1  O1  UNL     1      22.064  49.052  -0.225  1.00  0.00    -0.287 OA
HETATM    2  C1  UNL     1      23.121  49.669  -0.468  1.00  0.00     0.189 A 
HETATM    3  C2  UNL     1      23.210  50.719  -1.370  1.00  0.00     0.112 A 
HETATM    4  C3  UNL     1      24.388  51.387  -1.626  1.00  0.00     0.150 A 
HETATM    5  O2  UNL     1      25.446  50.980  -0.966  1.00  0.00    -0.292 OA
HETATM    6  C8  UNL     1      25.467  50.016  -0.109  1.00  0.00     0.103 A 
HETATM    7  C9  UNL     1      26.656  49.703   0.506  1.00  0.00     0.009 A 
HETATM    8  C16 UNL     1      26.646  48.667   1.418  1.00  0.00     0.015 A 
HETATM    9  C17 UNL     1      25.492  47.961   1.713  1.00  0.00     0.002 A 
HETATM   10  C18 UNL     1      24.309  48.286   1.089  1.00  0.00     0.018 A 
HETATM   11  C19 UNL     1      24.289  49.316   0.175  1.00  0.00     0.049 A 
ENDROOT
BRANCH   4  12
HETATM   12  N1  UNL     1      24.416  52.453  -2.560  1.00  0.00    -0.358 N 
HETATM   13  C4  UNL     1      25.536  53.346  -2.700  1.00  0.00     0.152 C 
HETATM   14  C5  UNL     1      25.964  53.526  -4.130  1.00  0.00     0.252 C 
HETATM   15  N2  UNL     1      24.967  53.031  -5.061  1.00  0.00    -0.072 N 
HETATM   16  C6  UNL     1      23.682  53.566  -4.596  1.00  0.00     0.252 C 
ATOM     17  H22 UNL     1      25.173  53.254  -6.035  1.00  0.00     0.277 HD
ATOM     18  H21 UNL     1      24.973  52.017  -5.163  1.00  0.00     0.277 HD
HETATM   19  C7  UNL     1      23.274  52.674  -3.424  1.00  0.00     0.152 C 
ENDBRANCH   4  12
BRANCH   7  20
HETATM   20  C10 UNL     1      27.849  50.428   0.204  1.00  0.00    -0.023 A 
HETATM   21  C11 UNL     1      28.270  50.591  -1.103  1.00  0.00     0.012 A 
HETATM   22  C12 UNL     1      29.429  51.301  -1.340  1.00  0.00     0.001 A 
HETATM   23  C13 UNL     1      30.189  51.855  -0.344  1.00  0.00     0.000 A 
HETATM   24  C14 UNL     1      29.763  51.687   0.949  1.00  0.00     0.001 A 
HETATM   25  C15 UNL     1      28.612  50.986   1.240  1.00  0.00     0.012 A 
ENDBRANCH   7  20
TORSDOF 2
ENDMDL
