MODEL 4
REMARK VINA RESULT: -8.532939592      2.044      4.756
REMARK  2 active torsions:
REMARK  status: ('A' for Active; 'I' for Inactive)
REMARK    1  A    between atoms: C3_4  and  N1_5 
REMARK    2  A    between atoms: C9_15  and  C10_16 
ROOT
HETATM    1  O1  UNL     1      30.470  52.307  -2.092  1.00  0.00    -0.287 OA
HETATM    2  C1  UNL     1      29.325  51.819  -1.994  1.00  0.00     0.189 A 
HETATM    3  C2  UNL     1      28.478  51.620  -3.074  1.00  0.00     0.112 A 
HETATM    4  C3  UNL     1      27.217  51.080  -2.945  1.00  0.00     0.150 A 
HETATM    5  O2  UNL     1      26.842  50.755  -1.730  1.00  0.00    -0.292 OA
HETATM    6  C8  UNL     1      27.554  50.900  -0.664  1.00  0.00     0.103 A 
HETATM    7  C9  UNL     1      27.024  50.512   0.543  1.00  0.00     0.009 A 
HETATM    8  C16 UNL     1      27.810  50.680   1.665  1.00  0.00     0.015 A 
HETATM    9  C17 UNL     1      29.085  51.217   1.594  1.00  0.00     0.002 A 
HETATM   10  C18 UNL     1      29.601  51.601   0.378  1.00  0.00     0.018 A 
HETATM   11  C19 UNL     1      28.839  51.445  -0.759  1.00  0.00     0.049 A 
ENDROOT
BRANCH   4  12
HETATM   12  N1  UNL     1      26.396  50.901  -4.087  1.00  0.00    -0.358 N 
HETATM   13  C4  UNL     1      24.983  51.178  -4.090  1.00  0.00     0.152 C 
HETATM   14  C5  UNL     1      24.555  52.016  -5.262  1.00  0.00     0.252 C 
HETATM   15  N2  UNL     1      25.582  52.082  -6.285  1.00  0.00    -0.072 N 
HETATM   16  C6  UNL     1      26.040  50.703  -6.486  1.00  0.00     0.252 C 
ATOM     17  H22 UNL     1      25.272  52.537  -7.144  1.00  0.00     0.277 HD
ATOM     18  H21 UNL     1      26.335  52.733  -6.066  1.00  0.00     0.277 HD
HETATM   19  C7  UNL     1      26.985  50.418  -5.319  1.00  0.00     0.152 C 
ENDBRANCH   4  12
BRANCH   7  20
HETATM   20  C10 UNL     1      25.710  49.957   0.621  1.00  0.00    -0.023 A 
HETATM   21  C11 UNL     1      24.591  50.760   0.494  1.00  0.00     0.012 A 
HETATM   22  C12 UNL     1      23.344  50.174   0.576  1.00  0.00     0.001 A 
HETATM   23  C13 UNL     1      23.156  48.832   0.781  1.00  0.00     0.000 A 
HETATM   24  C14 UNL     1      24.273  48.046   0.906  1.00  0.00     0.001 A 
HETATM   25  C15 UNL     1      25.541  48.581   0.831  1.00  0.00     0.012 A 
ENDBRANCH   7  20
TORSDOF 2
ENDMDL
