MODEL 2
REMARK VINA RESULT: -8.704322369      2.263      5.004
REMARK  2 active torsions:
REMARK  status: ('A' for Active; 'I' for Inactive)
REMARK    1  A    between atoms: C3_4  and  N1_5 
REMARK    2  A    between atoms: C9_15  and  C10_16 
ROOT
HETATM    1  O1  UNL     1      30.901  52.408  -1.202  1.00  0.00    -0.287 OA
HETATM    2  C1  UNL     1      29.792  51.842  -1.276  1.00  0.00     0.189 A 
HETATM    3  C2  UNL     1      29.167  51.522  -2.473  1.00  0.00     0.112 A 
HETATM    4  C3  UNL     1      27.941  50.897  -2.533  1.00  0.00     0.150 A 
HETATM    5  O2  UNL     1      27.375  50.609  -1.385  1.00  0.00    -0.292 OA
HETATM    6  C8  UNL     1      27.872  50.864  -0.222  1.00  0.00     0.103 A 
HETATM    7  C9  UNL     1      27.160  50.501   0.896  1.00  0.00     0.009 A 
HETATM    8  C16 UNL     1      27.718  50.787   2.126  1.00  0.00     0.015 A 
HETATM    9  C17 UNL     1      28.947  51.414   2.245  1.00  0.00     0.002 A 
HETATM   10  C18 UNL     1      29.648  51.771   1.116  1.00  0.00     0.018 A 
HETATM   11  C19 UNL     1      29.116  51.498  -0.124  1.00  0.00     0.049 A 
ENDROOT
BRANCH   4  12
HETATM   12  N1  UNL     1      27.353  50.596  -3.787  1.00  0.00    -0.358 N 
HETATM   13  C4  UNL     1      26.045  51.057  -4.172  1.00  0.00     0.152 C 
HETATM   14  C5  UNL     1      26.024  51.681  -5.540  1.00  0.00     0.252 C 
HETATM   15  N2  UNL     1      27.233  51.390  -6.287  1.00  0.00    -0.072 N 
HETATM   16  C6  UNL     1      27.466  49.950  -6.131  1.00  0.00     0.252 C 
ATOM     17  H22 UNL     1      27.193  51.693  -7.260  1.00  0.00     0.277 HD
ATOM     18  H21 UNL     1      28.030  51.963  -6.012  1.00  0.00     0.277 HD
HETATM   19  C7  UNL     1      28.085  49.789  -4.743  1.00  0.00     0.152 C 
ENDBRANCH   4  12
BRANCH   7  20
HETATM   20  C10 UNL     1      25.892  49.854   0.778  1.00  0.00    -0.023 A 
HETATM   21  C11 UNL     1      25.766  48.493   0.987  1.00  0.00     0.012 A 
HETATM   22  C12 UNL     1      24.518  47.917   0.860  1.00  0.00     0.001 A 
HETATM   23  C13 UNL     1      23.392  48.627   0.535  1.00  0.00     0.000 A 
HETATM   24  C14 UNL     1      23.528  49.975   0.330  1.00  0.00     0.001 A 
HETATM   25  C15 UNL     1      24.752  50.600   0.444  1.00  0.00     0.012 A 
ENDBRANCH   7  20
TORSDOF 2
ENDMDL
