MODEL 1
REMARK VINA RESULT: -7.868060976      0.000      0.000
REMARK  4 active torsions:
REMARK  status: ('A' for Active; 'I' for Inactive)
REMARK    1  A    between atoms: C2_2  and  O1_3 
REMARK    2  A    between atoms: C2_2  and  C3_5 
REMARK    3  A    between atoms: C3_5  and  O2_6 
REMARK    4  A    between atoms: C3_5  and  C4_8 
ROOT
HETATM    1  C4  UNL     1       2.950   2.738  54.453  1.00  0.00     0.131 C 
HETATM    2  C5  UNL     1       4.048   3.722  54.100  1.00  0.00     0.149 C 
HETATM    3  N1  UNL     1       3.488   5.064  54.146  1.00  0.00    -0.372 N 
ATOM      4  H1  UNL     1       3.668   5.713  53.379  1.00  0.00     0.161 HD
HETATM    5  C6  UNL     1       2.692   5.480  55.251  1.00  0.00     0.136 A 
HETATM    6  N2  UNL     1       2.575   6.766  55.623  1.00  0.00    -0.315 N 
ATOM      7  H2  UNL     1       3.080   7.473  55.088  1.00  0.00     0.170 HD
HETATM    8  C7  UNL     1       1.826   7.167  56.664  1.00  0.00     0.196 A 
HETATM    9  N3  UNL     1       1.702   8.527  57.056  1.00  0.00    -0.063 NA
HETATM   10  N4  UNL     1       1.164   6.232  57.364  1.00  0.00    -0.295 N 
ATOM     11  H4  UNL     1       0.590   6.519  58.157  1.00  0.00     0.171 HD
HETATM   12  C8  UNL     1       1.237   4.914  57.045  1.00  0.00     0.278 A 
HETATM   13  O3  UNL     1       0.617   4.039  57.701  1.00  0.00    -0.265 OA
HETATM   14  C9  UNL     1       2.013   4.515  55.969  1.00  0.00     0.141 A 
HETATM   15  N5  UNL     1       2.152   3.174  55.558  1.00  0.00    -0.374 N 
ATOM     16  H5  UNL     1       1.647   2.462  56.086  1.00  0.00     0.160 HD
ENDROOT
BRANCH   1  17
HETATM   17  C3  UNL     1       2.148   2.490  53.195  1.00  0.00     0.170 C 
BRANCH  17  18
HETATM   18  C2  UNL     1       1.550   1.085  53.185  1.00  0.00     0.145 C 
HETATM   19  C1  UNL     1       2.291   0.273  52.157  1.00  0.00     0.042 C 
BRANCH  18  20
HETATM   20  O1  UNL     1       0.204   1.103  52.870  1.00  0.00    -0.393 OA
ATOM     21  H1  UNL     1      -0.286   0.682  53.566  1.00  0.00     0.210 HD
ENDBRANCH  18  20
ENDBRANCH  17  18
BRANCH  17  22
HETATM   22  O2  UNL     1       3.064   2.532  52.128  1.00  0.00    -0.391 OA
ATOM     23  H2  UNL     1       2.598   2.922  51.397  1.00  0.00     0.210 HD
ENDBRANCH  17  22
ENDBRANCH   1  17
TORSDOF 4
ENDMDL
