MODEL 2
REMARK VINA RESULT: -7.025325296      3.101      5.397
REMARK  4 active torsions:
REMARK  status: ('A' for Active; 'I' for Inactive)
REMARK    1  A    between atoms: C2_2  and  O1_3 
REMARK    2  A    between atoms: C2_2  and  C3_5 
REMARK    3  A    between atoms: C3_5  and  O2_6 
REMARK    4  A    between atoms: C3_5  and  C4_8 
ROOT
HETATM    1  C4  UNL     1      -0.440   1.345  54.398  1.00  0.00     0.131 C 
HETATM    2  C5  UNL     1      -0.242   2.831  54.620  1.00  0.00     0.149 C 
HETATM    3  N1  UNL     1       1.185   3.085  54.752  1.00  0.00    -0.372 N 
ATOM      4  H1  UNL     1       1.526   3.670  55.515  1.00  0.00     0.161 HD
HETATM    5  C6  UNL     1       2.110   2.525  53.825  1.00  0.00     0.136 A 
HETATM    6  N2  UNL     1       3.303   3.083  53.558  1.00  0.00    -0.315 N 
ATOM      7  H2  UNL     1       3.555   3.944  54.042  1.00  0.00     0.170 HD
HETATM    8  C7  UNL     1       4.181   2.560  52.684  1.00  0.00     0.196 A 
HETATM    9  N3  UNL     1       5.443   3.149  52.403  1.00  0.00    -0.063 NA
HETATM   10  N4  UNL     1       3.844   1.425  52.051  1.00  0.00    -0.295 N 
ATOM     11  H4  UNL     1       4.500   1.015  51.385  1.00  0.00     0.171 HD
HETATM   12  C8  UNL     1       2.656   0.809  52.272  1.00  0.00     0.278 A 
HETATM   13  O3  UNL     1       2.341  -0.254  51.678  1.00  0.00    -0.265 OA
HETATM   14  C9  UNL     1       1.760   1.358  53.175  1.00  0.00     0.141 A 
HETATM   15  N5  UNL     1       0.503   0.793  53.473  1.00  0.00    -0.374 N 
ATOM     16  H5  UNL     1       0.246  -0.071  52.995  1.00  0.00     0.160 HD
ENDROOT
BRANCH   1  17
HETATM   17  C3  UNL     1      -0.406   0.680  55.757  1.00  0.00     0.170 C 
BRANCH  17  18
HETATM   18  C2  UNL     1      -1.752   0.797  56.467  1.00  0.00     0.145 C 
HETATM   19  C1  UNL     1      -1.845  -0.317  57.474  1.00  0.00     0.042 C 
BRANCH  18  20
HETATM   20  O1  UNL     1      -2.810   0.701  55.580  1.00  0.00    -0.393 OA
ATOM     21  H1  UNL     1      -2.540   1.036  54.733  1.00  0.00     0.210 HD
ENDBRANCH  18  20
ENDBRANCH  17  18
BRANCH  17  22
HETATM   22  O2  UNL     1       0.510   1.413  56.533  1.00  0.00    -0.391 OA
ATOM     23  H2  UNL     1       1.315   1.445  56.029  1.00  0.00     0.210 HD
ENDBRANCH  17  22
ENDBRANCH   1  17
TORSDOF 4
ENDMDL
