MODEL 5
REMARK VINA RESULT: -6.869110784      2.587      5.707
REMARK  4 active torsions:
REMARK  status: ('A' for Active; 'I' for Inactive)
REMARK    1  A    between atoms: C2_2  and  O1_3 
REMARK    2  A    between atoms: C2_2  and  C3_5 
REMARK    3  A    between atoms: C3_5  and  O2_6 
REMARK    4  A    between atoms: C3_5  and  C4_8 
ROOT
HETATM    1  C4  UNL     1       1.521   3.668  56.427  1.00  0.00     0.131 C 
HETATM    2  C5  UNL     1       0.320   2.869  55.960  1.00  0.00     0.149 C 
HETATM    3  N1  UNL     1       0.406   2.720  54.516  1.00  0.00    -0.372 N 
ATOM      4  H1  UNL     1      -0.414   2.906  53.938  1.00  0.00     0.161 HD
HETATM    5  C6  UNL     1       1.625   2.316  53.900  1.00  0.00     0.136 A 
HETATM    6  N2  UNL     1       1.670   1.681  52.717  1.00  0.00    -0.315 N 
ATOM      7  H2  UNL     1       0.790   1.481  52.241  1.00  0.00     0.170 HD
HETATM    8  C7  UNL     1       2.816   1.296  52.130  1.00  0.00     0.196 A 
HETATM    9  N3  UNL     1       2.863   0.625  50.878  1.00  0.00    -0.063 NA
HETATM   10  N4  UNL     1       3.971   1.563  52.761  1.00  0.00    -0.295 N 
ATOM     11  H4  UNL     1       4.850   1.278  52.329  1.00  0.00     0.171 HD
HETATM   12  C8  UNL     1       4.000   2.200  53.959  1.00  0.00     0.278 A 
HETATM   13  O3  UNL     1       5.082   2.449  54.550  1.00  0.00    -0.265 OA
HETATM   14  C9  UNL     1       2.811   2.591  54.553  1.00  0.00     0.141 A 
HETATM   15  N5  UNL     1       2.737   3.259  55.793  1.00  0.00    -0.374 N 
ATOM     16  H5  UNL     1       3.613   3.465  56.273  1.00  0.00     0.160 HD
ENDROOT
BRANCH   1  17
HETATM   17  C3  UNL     1       1.197   5.131  56.215  1.00  0.00     0.170 C 
BRANCH  17  18
HETATM   18  C2  UNL     1       2.458   5.942  55.928  1.00  0.00     0.145 C 
HETATM   19  C1  UNL     1       2.209   7.360  56.369  1.00  0.00     0.042 C 
BRANCH  18  20
HETATM   20  O1  UNL     1       2.779   5.933  54.582  1.00  0.00    -0.393 OA
ATOM     21  H1  UNL     1       2.455   5.131  54.189  1.00  0.00     0.210 HD
ENDBRANCH  18  20
ENDBRANCH  17  18
BRANCH  17  22
HETATM   22  O2  UNL     1       0.699   5.606  57.442  1.00  0.00    -0.391 OA
ATOM     23  H2  UNL     1       0.359   4.846  57.900  1.00  0.00     0.210 HD
ENDBRANCH  17  22
ENDBRANCH   1  17
TORSDOF 4
ENDMDL
