MODEL 3
REMARK VINA RESULT: -6.968205624      2.377      5.981
REMARK  4 active torsions:
REMARK  status: ('A' for Active; 'I' for Inactive)
REMARK    1  A    between atoms: C2_2  and  O1_3 
REMARK    2  A    between atoms: C2_2  and  C3_5 
REMARK    3  A    between atoms: C3_5  and  O2_6 
REMARK    4  A    between atoms: C3_5  and  C4_8 
ROOT
HETATM    1  C4  UNL     1       2.162   6.118  56.559  1.00  0.00     0.131 C 
HETATM    2  C5  UNL     1       1.349   5.087  57.316  1.00  0.00     0.149 C 
HETATM    3  N1  UNL     1       0.664   4.246  56.346  1.00  0.00    -0.372 N 
ATOM      4  H1  UNL     1      -0.329   4.043  56.465  1.00  0.00     0.161 HD
HETATM    5  C6  UNL     1       1.368   3.703  55.233  1.00  0.00     0.136 A 
HETATM    6  N2  UNL     1       0.993   2.570  54.616  1.00  0.00    -0.315 N 
ATOM      7  H2  UNL     1       0.168   2.079  54.961  1.00  0.00     0.170 HD
HETATM    8  C7  UNL     1       1.652   2.051  53.565  1.00  0.00     0.196 A 
HETATM    9  N3  UNL     1       1.255   0.853  52.912  1.00  0.00    -0.063 NA
HETATM   10  N4  UNL     1       2.737   2.702  53.114  1.00  0.00    -0.295 N 
ATOM     11  H4  UNL     1       3.247   2.322  52.317  1.00  0.00     0.171 HD
HETATM   12  C8  UNL     1       3.172   3.851  53.691  1.00  0.00     0.278 A 
HETATM   13  O3  UNL     1       4.188   4.459  53.268  1.00  0.00    -0.265 OA
HETATM   14  C9  UNL     1       2.483   4.375  54.773  1.00  0.00     0.141 A 
HETATM   15  N5  UNL     1       2.855   5.561  55.438  1.00  0.00    -0.374 N 
ATOM     16  H5  UNL     1       3.677   6.059  55.095  1.00  0.00     0.160 HD
ENDROOT
BRANCH   1  17
HETATM   17  C3  UNL     1       1.223   7.244  56.185  1.00  0.00     0.170 C 
BRANCH  17  18
HETATM   18  C2  UNL     1       1.968   8.572  56.065  1.00  0.00     0.145 C 
HETATM   19  C1  UNL     1       1.039   9.667  56.515  1.00  0.00     0.042 C 
BRANCH  18  20
HETATM   20  O1  UNL     1       2.370   8.819  54.765  1.00  0.00    -0.393 OA
ATOM     21  H1  UNL     1       2.235   9.738  54.565  1.00  0.00     0.210 HD
ENDBRANCH  18  20
ENDBRANCH  17  18
BRANCH  17  22
HETATM   22  O2  UNL     1       0.334   7.392  57.265  1.00  0.00    -0.391 OA
ATOM     23  H2  UNL     1      -0.385   6.794  57.096  1.00  0.00     0.210 HD
ENDBRANCH  17  22
ENDBRANCH   1  17
TORSDOF 4
ENDMDL
