MODEL 3
REMARK VINA RESULT: -7.984689953      2.238      5.660
REMARK  10 active torsions:
REMARK  status: ('A' for Active; 'I' for Inactive)
REMARK    1  A    between atoms: N1_1  and  C1_5 
REMARK    2  A    between atoms: C1_5  and  C2_6 
REMARK    3  A    between atoms: C2_6  and  C3_7 
REMARK    4  A    between atoms: C3_7  and  C4_8 
REMARK    5  A    between atoms: C4_8  and  C5_9 
REMARK    6  A    between atoms: C5_9  and  C6_10 
REMARK       I    between atoms: C6_10  and  N2_12 
REMARK    7  A    between atoms: N2_12  and  C7_14 
REMARK    8  A    between atoms: C15_22  and  C16_23 
REMARK    9  A    between atoms: C16_23  and  C17_24 
REMARK   10  A    between atoms: C22_29  and  C23_30 
ROOT
HETATM    1  C7  UNL     1      80.458  32.502   2.708  1.00  0.00     0.097 C 
HETATM    2  C8  UNL     1      80.911  32.130   4.094  1.00  0.00     0.065 C 
HETATM    3  C9  UNL     1      81.440  30.764   3.945  1.00  0.00    -0.049 A 
HETATM    4  C10 UNL     1      81.687  29.783   4.920  1.00  0.00     0.007 A 
HETATM    5  C11 UNL     1      82.200  28.557   4.571  1.00  0.00     0.001 A 
HETATM    6  C12 UNL     1      82.469  28.305   3.242  1.00  0.00     0.001 A 
HETATM    7  C13 UNL     1      82.222  29.272   2.299  1.00  0.00     0.008 A 
HETATM    8  C14 UNL     1      81.702  30.532   2.617  1.00  0.00    -0.045 A 
HETATM    9  C15 UNL     1      81.358  31.681   1.772  1.00  0.00     0.046 C 
ENDROOT
BRANCH   1  10
HETATM   10  N2  UNL     1      79.068  32.111   2.593  1.00  0.00    -0.355 N 
HETATM   11  C6  UNL     1      78.072  33.117   2.498  1.00  0.00     0.217 C 
HETATM   12  O1  UNL     1      78.454  34.313   2.518  1.00  0.00    -0.274 OA
ATOM     13  H2  UNL     1      78.808  31.125   2.580  1.00  0.00     0.162 HD
BRANCH  11  14
HETATM   14  C5  UNL     1      76.601  32.783   2.378  1.00  0.00     0.103 C 
BRANCH  14  15
HETATM   15  C4  UNL     1      76.160  32.803   0.972  1.00  0.00     0.009 C 
BRANCH  15  16
HETATM   16  C3  UNL     1      75.164  33.828   0.638  1.00  0.00     0.002 C 
BRANCH  16  17
HETATM   17  C2  UNL     1      75.508  35.053  -0.089  1.00  0.00     0.027 C 
BRANCH  17  18
HETATM   18  C1  UNL     1      76.905  35.523  -0.182  1.00  0.00     0.229 C 
BRANCH  18  19
HETATM   19  N1  UNL     1      77.482  35.396  -1.513  1.00  0.00    -0.079 N 
ATOM     20  H13 UNL     1      76.761  35.499  -2.227  1.00  0.00     0.274 HD
ATOM     21  H12 UNL     1      78.058  36.208  -1.732  1.00  0.00     0.274 HD
ATOM     22  H11 UNL     1      78.007  34.534  -1.655  1.00  0.00     0.274 HD
ENDBRANCH  18  19
ENDBRANCH  17  18
ENDBRANCH  16  17
ENDBRANCH  15  16
ENDBRANCH  14  15
ENDBRANCH  11  14
ENDBRANCH   1  10
BRANCH   9  23
HETATM   23  C16 UNL     1      82.443  32.577   1.313  1.00  0.00     0.051 C 
BRANCH  23  24
HETATM   24  C17 UNL     1      82.120  34.020   1.284  1.00  0.00    -0.037 A 
HETATM   25  C18 UNL     1      82.638  34.854   2.292  1.00  0.00     0.011 A 
HETATM   26  C19 UNL     1      82.289  36.175   2.346  1.00  0.00     0.040 A 
HETATM   27  C20 UNL     1      81.433  36.757   1.444  1.00  0.00     0.106 A 
HETATM   28  C21 UNL     1      80.929  35.945   0.459  1.00  0.00     0.122 A 
HETATM   29  O5  UNL     1      80.912  38.053   1.264  1.00  0.00    -0.323 OA
HETATM   30  C22 UNL     1      81.270  34.583   0.376  1.00  0.00     0.083 A 
HETATM   31  O4  UNL     1      80.104  36.779  -0.304  1.00  0.00    -0.322 OA
HETATM   32  C24 UNL     1      79.716  37.887   0.483  1.00  0.00     0.352 C 
BRANCH  30  33
HETATM   33  C23 UNL     1      80.732  33.874  -0.788  1.00  0.00     0.212 C 
HETATM   34  O2  UNL     1      81.402  33.884  -1.866  1.00  0.00    -0.644 OA
HETATM   35  O3  UNL     1      79.555  33.173  -0.855  1.00  0.00    -0.644 OA
ENDBRANCH  30  33
ENDBRANCH  23  24
ENDBRANCH   9  23
TORSDOF 10
ENDMDL
