MODEL 1
REMARK VINA RESULT: -8.518015779      0.000      0.000
REMARK  10 active torsions:
REMARK  status: ('A' for Active; 'I' for Inactive)
REMARK    1  A    between atoms: N1_1  and  C1_5 
REMARK    2  A    between atoms: C1_5  and  C2_6 
REMARK    3  A    between atoms: C2_6  and  C3_7 
REMARK    4  A    between atoms: C3_7  and  C4_8 
REMARK    5  A    between atoms: C4_8  and  C5_9 
REMARK    6  A    between atoms: C5_9  and  C6_10 
REMARK       I    between atoms: C6_10  and  N2_12 
REMARK    7  A    between atoms: N2_12  and  C7_14 
REMARK    8  A    between atoms: C15_22  and  C16_23 
REMARK    9  A    between atoms: C16_23  and  C17_24 
REMARK   10  A    between atoms: C22_29  and  C23_30 
ROOT
HETATM    1  C7  UNL     1      79.449  33.470   0.901  1.00  0.00     0.097 C 
HETATM    2  C8  UNL     1      79.643  33.926  -0.520  1.00  0.00     0.065 C 
HETATM    3  C9  UNL     1      79.855  35.379  -0.406  1.00  0.00    -0.049 A 
HETATM    4  C10 UNL     1      79.755  36.383  -1.385  1.00  0.00     0.007 A 
HETATM    5  C11 UNL     1      80.006  37.697  -1.072  1.00  0.00     0.001 A 
HETATM    6  C12 UNL     1      80.359  38.015   0.223  1.00  0.00     0.001 A 
HETATM    7  C13 UNL     1      80.453  37.024   1.170  1.00  0.00     0.008 A 
HETATM    8  C14 UNL     1      80.205  35.675   0.888  1.00  0.00    -0.045 A 
HETATM    9  C15 UNL     1      80.235  34.485   1.745  1.00  0.00     0.046 C 
ENDROOT
BRANCH   1  10
HETATM   10  N2  UNL     1      78.029  33.528   1.178  1.00  0.00    -0.355 N 
HETATM   11  C6  UNL     1      77.427  32.487   1.931  1.00  0.00     0.217 C 
HETATM   12  O1  UNL     1      78.171  31.553   2.324  1.00  0.00    -0.274 OA
ATOM     13  H2  UNL     1      77.468  34.309   0.837  1.00  0.00     0.162 HD
BRANCH  11  14
HETATM   14  C5  UNL     1      75.951  32.480   2.257  1.00  0.00     0.103 C 
BRANCH  14  15
HETATM   15  C4  UNL     1      75.134  32.743   1.059  1.00  0.00     0.009 C 
BRANCH  15  16
HETATM   16  C3  UNL     1      74.890  34.159   0.760  1.00  0.00     0.002 C 
BRANCH  16  17
HETATM   17  C2  UNL     1      75.452  34.823  -0.419  1.00  0.00     0.027 C 
BRANCH  17  18
HETATM   18  C1  UNL     1      76.070  36.161  -0.324  1.00  0.00     0.229 C 
BRANCH  18  19
HETATM   19  N1  UNL     1      75.372  37.189  -1.082  1.00  0.00    -0.079 N 
ATOM     20  H13 UNL     1      75.505  37.048  -2.083  1.00  0.00     0.274 HD
ATOM     21  H12 UNL     1      74.363  37.055  -1.023  1.00  0.00     0.274 HD
ATOM     22  H11 UNL     1      75.624  38.141  -0.817  1.00  0.00     0.274 HD
ENDBRANCH  18  19
ENDBRANCH  17  18
ENDBRANCH  16  17
ENDBRANCH  15  16
ENDBRANCH  14  15
ENDBRANCH  11  14
ENDBRANCH   1  10
BRANCH   9  23
HETATM   23  C16 UNL     1      81.543  33.869   2.061  1.00  0.00     0.051 C 
BRANCH  23  24
HETATM   24  C17 UNL     1      81.498  32.475   2.555  1.00  0.00    -0.037 A 
HETATM   25  C18 UNL     1      80.991  32.226   3.843  1.00  0.00     0.011 A 
HETATM   26  C19 UNL     1      81.016  30.962   4.364  1.00  0.00     0.040 A 
HETATM   27  C20 UNL     1      81.524  29.884   3.682  1.00  0.00     0.106 A 
HETATM   28  C21 UNL     1      82.017  30.126   2.425  1.00  0.00     0.122 A 
HETATM   29  O5  UNL     1      81.675  28.512   3.965  1.00  0.00    -0.323 OA
HETATM   30  C22 UNL     1      82.004  31.414   1.860  1.00  0.00     0.083 A 
HETATM   31  O4  UNL     1      82.460  28.879   1.969  1.00  0.00    -0.322 OA
HETATM   32  C24 UNL     1      82.709  28.045   3.082  1.00  0.00     0.352 C 
BRANCH  30  33
HETATM   33  C23 UNL     1      82.472  31.493   0.474  1.00  0.00     0.212 C 
HETATM   34  O2  UNL     1      83.591  32.047   0.243  1.00  0.00    -0.644 OA
HETATM   35  O3  UNL     1      81.829  31.021  -0.642  1.00  0.00    -0.644 OA
ENDBRANCH  30  33
ENDBRANCH  23  24
ENDBRANCH   9  23
TORSDOF 10
ENDMDL
