MODEL 18
REMARK VINA RESULT: -7.307415515      2.640      4.956
REMARK  10 active torsions:
REMARK  status: ('A' for Active; 'I' for Inactive)
REMARK    1  A    between atoms: N1_1  and  C1_5 
REMARK    2  A    between atoms: C1_5  and  C2_6 
REMARK    3  A    between atoms: C2_6  and  C3_7 
REMARK    4  A    between atoms: C3_7  and  C4_8 
REMARK    5  A    between atoms: C4_8  and  C5_9 
REMARK    6  A    between atoms: C5_9  and  C6_10 
REMARK       I    between atoms: C6_10  and  N2_12 
REMARK    7  A    between atoms: N2_12  and  C7_14 
REMARK    8  A    between atoms: C15_22  and  C16_23 
REMARK    9  A    between atoms: C16_23  and  C17_24 
REMARK   10  A    between atoms: C22_29  and  C23_30 
ROOT
HETATM    1  C7  UNL     1      78.721  36.034  -0.498  1.00  0.00     0.097 C 
HETATM    2  C8  UNL     1      77.459  36.381   0.245  1.00  0.00     0.065 C 
HETATM    3  C9  UNL     1      76.768  35.090   0.404  1.00  0.00    -0.049 A 
HETATM    4  C10 UNL     1      75.423  34.819   0.707  1.00  0.00     0.007 A 
HETATM    5  C11 UNL     1      74.974  33.526   0.823  1.00  0.00     0.001 A 
HETATM    6  C12 UNL     1      75.870  32.494   0.637  1.00  0.00     0.001 A 
HETATM    7  C13 UNL     1      77.182  32.772   0.341  1.00  0.00     0.008 A 
HETATM    8  C14 UNL     1      77.676  34.076   0.216  1.00  0.00    -0.045 A 
HETATM    9  C15 UNL     1      79.016  34.579  -0.103  1.00  0.00     0.046 C 
ENDROOT
BRANCH   1  10
HETATM   10  N2  UNL     1      78.432  36.157  -1.912  1.00  0.00    -0.355 N 
HETATM   11  C6  UNL     1      78.736  37.372  -2.577  1.00  0.00     0.217 C 
HETATM   12  O1  UNL     1      79.250  38.293  -1.894  1.00  0.00    -0.274 OA
ATOM     13  H2  UNL     1      78.014  35.379  -2.423  1.00  0.00     0.162 HD
BRANCH  11  14
HETATM   14  C5  UNL     1      78.460  37.573  -4.051  1.00  0.00     0.103 C 
BRANCH  14  15
HETATM   15  C4  UNL     1      79.603  38.210  -4.729  1.00  0.00     0.009 C 
BRANCH  15  16
HETATM   16  C3  UNL     1      80.616  37.288  -5.258  1.00  0.00     0.002 C 
BRANCH  16  17
HETATM   17  C2  UNL     1      81.912  37.085  -4.607  1.00  0.00     0.027 C 
BRANCH  17  18
HETATM   18  C1  UNL     1      82.337  35.748  -4.143  1.00  0.00     0.229 C 
BRANCH  18  19
HETATM   19  N1  UNL     1      81.639  35.289  -2.951  1.00  0.00    -0.079 N 
ATOM     20  H13 UNL     1      82.161  35.541  -2.112  1.00  0.00     0.274 HD
ATOM     21  H12 UNL     1      80.793  35.836  -2.798  1.00  0.00     0.274 HD
ATOM     22  H11 UNL     1      81.427  34.292  -2.955  1.00  0.00     0.274 HD
ENDBRANCH  18  19
ENDBRANCH  17  18
ENDBRANCH  16  17
ENDBRANCH  15  16
ENDBRANCH  14  15
ENDBRANCH  11  14
ENDBRANCH   1  10
BRANCH   9  23
HETATM   23  C16 UNL     1      80.036  34.617   0.969  1.00  0.00     0.051 C 
BRANCH  23  24
HETATM   24  C17 UNL     1      80.263  33.344   1.689  1.00  0.00    -0.037 A 
HETATM   25  C18 UNL     1      79.674  33.165   2.954  1.00  0.00     0.011 A 
HETATM   26  C19 UNL     1      79.934  32.038   3.685  1.00  0.00     0.040 A 
HETATM   27  C20 UNL     1      80.763  31.038   3.243  1.00  0.00     0.106 A 
HETATM   28  C21 UNL     1      81.336  31.211   2.008  1.00  0.00     0.122 A 
HETATM   29  O5  UNL     1      81.200  29.806   3.768  1.00  0.00    -0.323 OA
HETATM   30  C22 UNL     1      81.088  32.357   1.232  1.00  0.00     0.083 A 
HETATM   31  O4  UNL     1      82.116  30.066   1.812  1.00  0.00    -0.322 OA
HETATM   32  C24 UNL     1      82.416  29.494   3.069  1.00  0.00     0.352 C 
BRANCH  30  33
HETATM   33  C23 UNL     1      81.692  32.350  -0.103  1.00  0.00     0.212 C 
HETATM   34  O2  UNL     1      81.550  31.316  -0.827  1.00  0.00    -0.644 OA
HETATM   35  O3  UNL     1      82.411  33.361  -0.688  1.00  0.00    -0.644 OA
ENDBRANCH  30  33
ENDBRANCH  23  24
ENDBRANCH   9  23
TORSDOF 10
ENDMDL
