MODEL 13
REMARK VINA RESULT: -7.441201660      3.618      5.708
REMARK  10 active torsions:
REMARK  status: ('A' for Active; 'I' for Inactive)
REMARK    1  A    between atoms: N1_1  and  C1_5 
REMARK    2  A    between atoms: C1_5  and  C2_6 
REMARK    3  A    between atoms: C2_6  and  C3_7 
REMARK    4  A    between atoms: C3_7  and  C4_8 
REMARK    5  A    between atoms: C4_8  and  C5_9 
REMARK    6  A    between atoms: C5_9  and  C6_10 
REMARK       I    between atoms: C6_10  and  N2_12 
REMARK    7  A    between atoms: N2_12  and  C7_14 
REMARK    8  A    between atoms: C15_22  and  C16_23 
REMARK    9  A    between atoms: C16_23  and  C17_24 
REMARK   10  A    between atoms: C22_29  and  C23_30 
ROOT
HETATM    1  C7  UNL     1      80.419  36.051  -0.841  1.00  0.00     0.097 C 
HETATM    2  C8  UNL     1      79.658  37.350  -0.862  1.00  0.00     0.065 C 
HETATM    3  C9  UNL     1      78.248  36.938  -0.969  1.00  0.00    -0.049 A 
HETATM    4  C10 UNL     1      77.121  37.680  -1.362  1.00  0.00     0.007 A 
HETATM    5  C11 UNL     1      75.873  37.105  -1.384  1.00  0.00     0.001 A 
HETATM    6  C12 UNL     1      75.745  35.783  -1.012  1.00  0.00     0.001 A 
HETATM    7  C13 UNL     1      76.855  35.069  -0.630  1.00  0.00     0.008 A 
HETATM    8  C14 UNL     1      78.141  35.621  -0.594  1.00  0.00    -0.045 A 
HETATM    9  C15 UNL     1      79.437  35.036  -0.237  1.00  0.00     0.046 C 
ENDROOT
BRANCH   1  10
HETATM   10  N2  UNL     1      80.748  35.726  -2.214  1.00  0.00    -0.355 N 
HETATM   11  C6  UNL     1      82.102  35.777  -2.631  1.00  0.00     0.217 C 
HETATM   12  O1  UNL     1      82.960  36.106  -1.774  1.00  0.00    -0.274 OA
ATOM     13  H2  UNL     1      80.014  35.464  -2.872  1.00  0.00     0.162 HD
BRANCH  11  14
HETATM   14  C5  UNL     1      82.520  35.453  -4.048  1.00  0.00     0.103 C 
BRANCH  14  15
HETATM   15  C4  UNL     1      83.977  35.587  -4.223  1.00  0.00     0.009 C 
BRANCH  15  16
HETATM   16  C3  UNL     1      84.569  34.737  -5.264  1.00  0.00     0.002 C 
BRANCH  16  17
HETATM   17  C2  UNL     1      83.864  34.407  -6.505  1.00  0.00     0.027 C 
BRANCH  17  18
HETATM   18  C1  UNL     1      84.351  33.340  -7.403  1.00  0.00     0.229 C 
BRANCH  18  19
HETATM   19  N1  UNL     1      83.304  32.450  -7.883  1.00  0.00    -0.079 N 
ATOM     20  H13 UNL     1      82.650  32.228  -7.133  1.00  0.00     0.274 HD
ATOM     21  H12 UNL     1      82.677  32.944  -8.517  1.00  0.00     0.274 HD
ATOM     22  H11 UNL     1      83.655  31.597  -8.317  1.00  0.00     0.274 HD
ENDBRANCH  18  19
ENDBRANCH  17  18
ENDBRANCH  16  17
ENDBRANCH  15  16
ENDBRANCH  14  15
ENDBRANCH  11  14
ENDBRANCH   1  10
BRANCH   9  23
HETATM   23  C16 UNL     1      79.783  34.894   1.196  1.00  0.00     0.051 C 
BRANCH  23  24
HETATM   24  C17 UNL     1      79.979  33.509   1.679  1.00  0.00    -0.037 A 
HETATM   25  C18 UNL     1      79.035  32.959   2.565  1.00  0.00     0.011 A 
HETATM   26  C19 UNL     1      79.230  31.715   3.099  1.00  0.00     0.040 A 
HETATM   27  C20 UNL     1      80.330  30.945   2.812  1.00  0.00     0.106 A 
HETATM   28  C21 UNL     1      81.250  31.481   1.947  1.00  0.00     0.122 A 
HETATM   29  O5  UNL     1      80.778  29.669   3.207  1.00  0.00    -0.323 OA
HETATM   30  C22 UNL     1      81.077  32.756   1.379  1.00  0.00     0.083 A 
HETATM   31  O4  UNL     1      82.246  30.504   1.835  1.00  0.00    -0.322 OA
HETATM   32  C24 UNL     1      82.196  29.665   2.971  1.00  0.00     0.352 C 
BRANCH  30  33
HETATM   33  C23 UNL     1      82.093  33.146   0.398  1.00  0.00     0.212 C 
HETATM   34  O2  UNL     1      81.906  32.843  -0.820  1.00  0.00    -0.644 OA
HETATM   35  O3  UNL     1      83.259  33.826   0.644  1.00  0.00    -0.644 OA
ENDBRANCH  30  33
ENDBRANCH  23  24
ENDBRANCH   9  23
TORSDOF 10
ENDMDL
