MODEL 5
REMARK VINA RESULT: -7.880568990      3.309      5.386
REMARK  10 active torsions:
REMARK  status: ('A' for Active; 'I' for Inactive)
REMARK    1  A    between atoms: N1_1  and  C1_5 
REMARK    2  A    between atoms: C1_5  and  C2_6 
REMARK    3  A    between atoms: C2_6  and  C3_7 
REMARK    4  A    between atoms: C3_7  and  C4_8 
REMARK    5  A    between atoms: C4_8  and  C5_9 
REMARK    6  A    between atoms: C5_9  and  C6_10 
REMARK       I    between atoms: C6_10  and  N2_12 
REMARK    7  A    between atoms: N2_12  and  C7_14 
REMARK    8  A    between atoms: C15_22  and  C16_23 
REMARK    9  A    between atoms: C16_23  and  C17_24 
REMARK   10  A    between atoms: C22_29  and  C23_30 
ROOT
HETATM    1  C7  UNL     1      80.922  35.533   0.217  1.00  0.00     0.097 C 
HETATM    2  C8  UNL     1      79.796  36.397   0.716  1.00  0.00     0.065 C 
HETATM    3  C9  UNL     1      78.651  35.475   0.814  1.00  0.00    -0.049 A 
HETATM    4  C10 UNL     1      77.276  35.752   0.894  1.00  0.00     0.007 A 
HETATM    5  C11 UNL     1      76.358  34.735   0.992  1.00  0.00     0.001 A 
HETATM    6  C12 UNL     1      76.811  33.432   1.010  1.00  0.00     0.001 A 
HETATM    7  C13 UNL     1      78.158  33.175   0.931  1.00  0.00     0.008 A 
HETATM    8  C14 UNL     1      79.122  34.185   0.831  1.00  0.00    -0.045 A 
HETATM    9  C15 UNL     1      80.584  34.123   0.723  1.00  0.00     0.046 C 
ENDROOT
BRANCH   1  10
HETATM   10  N2  UNL     1      80.904  35.601  -1.230  1.00  0.00    -0.355 N 
HETATM   11  C6  UNL     1      82.110  35.396  -1.948  1.00  0.00     0.217 C 
HETATM   12  O1  UNL     1      83.148  35.161  -1.280  1.00  0.00    -0.274 OA
ATOM     13  H2  UNL     1      80.035  35.794  -1.727  1.00  0.00     0.162 HD
BRANCH  11  14
HETATM   14  C5  UNL     1      82.168  35.454  -3.458  1.00  0.00     0.103 C 
BRANCH  14  15
HETATM   15  C4  UNL     1      83.558  35.410  -3.945  1.00  0.00     0.009 C 
BRANCH  15  16
HETATM   16  C3  UNL     1      83.724  35.001  -5.345  1.00  0.00     0.002 C 
BRANCH  16  17
HETATM   17  C2  UNL     1      84.907  34.280  -5.820  1.00  0.00     0.027 C 
BRANCH  17  18
HETATM   18  C1  UNL     1      84.825  33.330  -6.948  1.00  0.00     0.229 C 
BRANCH  18  19
HETATM   19  N1  UNL     1      83.486  33.186  -7.501  1.00  0.00    -0.079 N 
ATOM     20  H13 UNL     1      82.785  33.493  -6.828  1.00  0.00     0.274 HD
ATOM     21  H12 UNL     1      83.328  33.871  -8.239  1.00  0.00     0.274 HD
ATOM     22  H11 UNL     1      83.276  32.245  -7.833  1.00  0.00     0.274 HD
ENDBRANCH  18  19
ENDBRANCH  17  18
ENDBRANCH  16  17
ENDBRANCH  15  16
ENDBRANCH  14  15
ENDBRANCH  11  14
ENDBRANCH   1  10
BRANCH   9  23
HETATM   23  C16 UNL     1      81.379  33.898   1.951  1.00  0.00     0.051 C 
BRANCH  23  24
HETATM   24  C17 UNL     1      81.366  32.518   2.485  1.00  0.00    -0.037 A 
HETATM   25  C18 UNL     1      80.814  32.287   3.758  1.00  0.00     0.011 A 
HETATM   26  C19 UNL     1      80.864  31.040   4.318  1.00  0.00     0.040 A 
HETATM   27  C20 UNL     1      81.442  29.964   3.691  1.00  0.00     0.106 A 
HETATM   28  C21 UNL     1      81.979  30.189   2.449  1.00  0.00     0.122 A 
HETATM   29  O5  UNL     1      81.633  28.608   4.022  1.00  0.00    -0.323 OA
HETATM   30  C22 UNL     1      81.942  31.458   1.845  1.00  0.00     0.083 A 
HETATM   31  O4  UNL     1      82.489  28.948   2.050  1.00  0.00    -0.322 OA
HETATM   32  C24 UNL     1      82.721  28.157   3.198  1.00  0.00     0.352 C 
BRANCH  30  33
HETATM   33  C23 UNL     1      82.465  31.515   0.478  1.00  0.00     0.212 C 
HETATM   34  O2  UNL     1      83.586  32.079   0.282  1.00  0.00    -0.644 OA
HETATM   35  O3  UNL     1      81.875  31.013  -0.654  1.00  0.00    -0.644 OA
ENDBRANCH  30  33
ENDBRANCH  23  24
ENDBRANCH   9  23
TORSDOF 10
ENDMDL
