MODEL 2
REMARK VINA RESULT: -8.231905960      2.412      5.906
REMARK  10 active torsions:
REMARK  status: ('A' for Active; 'I' for Inactive)
REMARK    1  A    between atoms: N1_1  and  C1_5 
REMARK    2  A    between atoms: C1_5  and  C2_6 
REMARK    3  A    between atoms: C2_6  and  C3_7 
REMARK    4  A    between atoms: C3_7  and  C4_8 
REMARK    5  A    between atoms: C4_8  and  C5_9 
REMARK    6  A    between atoms: C5_9  and  C6_10 
REMARK       I    between atoms: C6_10  and  N2_12 
REMARK    7  A    between atoms: N2_12  and  C7_14 
REMARK    8  A    between atoms: C15_22  and  C16_23 
REMARK    9  A    between atoms: C16_23  and  C17_24 
REMARK   10  A    between atoms: C22_29  and  C23_30 
ROOT
HETATM    1  C7  UNL     1      80.467  31.930   2.754  1.00  0.00     0.097 C 
HETATM    2  C8  UNL     1      80.931  31.766   4.176  1.00  0.00     0.065 C 
HETATM    3  C9  UNL     1      81.645  30.477   4.175  1.00  0.00    -0.049 A 
HETATM    4  C10 UNL     1      81.998  29.643   5.249  1.00  0.00     0.007 A 
HETATM    5  C11 UNL     1      82.682  28.471   5.034  1.00  0.00     0.001 A 
HETATM    6  C12 UNL     1      83.016  28.126   3.741  1.00  0.00     0.001 A 
HETATM    7  C13 UNL     1      82.665  28.950   2.700  1.00  0.00     0.008 A 
HETATM    8  C14 UNL     1      81.969  30.152   2.880  1.00  0.00    -0.045 A 
HETATM    9  C15 UNL     1      81.494  31.151   1.918  1.00  0.00     0.046 C 
ENDROOT
BRANCH   1  10
HETATM   10  N2  UNL     1      79.147  31.342   2.664  1.00  0.00    -0.355 N 
HETATM   11  C6  UNL     1      78.011  32.191   2.627  1.00  0.00     0.217 C 
HETATM   12  O1  UNL     1      78.214  33.430   2.674  1.00  0.00    -0.274 OA
ATOM     13  H2  UNL     1      79.034  30.329   2.628  1.00  0.00     0.162 HD
BRANCH  11  14
HETATM   14  C5  UNL     1      76.603  31.648   2.536  1.00  0.00     0.103 C 
BRANCH  14  15
HETATM   15  C4  UNL     1      75.626  32.725   2.293  1.00  0.00     0.009 C 
BRANCH  15  16
HETATM   16  C3  UNL     1      75.382  33.049   0.882  1.00  0.00     0.002 C 
BRANCH  16  17
HETATM   17  C2  UNL     1      75.502  34.411   0.355  1.00  0.00     0.027 C 
BRANCH  17  18
HETATM   18  C1  UNL     1      76.766  34.898  -0.232  1.00  0.00     0.229 C 
BRANCH  18  19
HETATM   19  N1  UNL     1      77.609  35.627   0.705  1.00  0.00    -0.079 N 
ATOM     20  H13 UNL     1      77.531  35.230   1.641  1.00  0.00     0.274 HD
ATOM     21  H12 UNL     1      78.594  35.440   0.521  1.00  0.00     0.274 HD
ATOM     22  H11 UNL     1      77.432  36.631   0.725  1.00  0.00     0.274 HD
ENDBRANCH  18  19
ENDBRANCH  17  18
ENDBRANCH  16  17
ENDBRANCH  15  16
ENDBRANCH  14  15
ENDBRANCH  11  14
ENDBRANCH   1  10
BRANCH   9  23
HETATM   23  C16 UNL     1      82.459  32.138   1.382  1.00  0.00     0.051 C 
BRANCH  23  24
HETATM   24  C17 UNL     1      81.879  33.241   0.585  1.00  0.00    -0.037 A 
HETATM   25  C18 UNL     1      80.863  32.949  -0.343  1.00  0.00     0.011 A 
HETATM   26  C19 UNL     1      80.366  33.929  -1.157  1.00  0.00     0.040 A 
HETATM   27  C20 UNL     1      80.815  35.226  -1.122  1.00  0.00     0.106 A 
HETATM   28  C21 UNL     1      81.804  35.512  -0.215  1.00  0.00     0.122 A 
HETATM   29  O5  UNL     1      80.496  36.406  -1.823  1.00  0.00    -0.323 OA
HETATM   30  C22 UNL     1      82.334  34.528   0.637  1.00  0.00     0.083 A 
HETATM   31  O4  UNL     1      82.065  36.876  -0.390  1.00  0.00    -0.322 OA
HETATM   32  C24 UNL     1      81.641  37.263  -1.682  1.00  0.00     0.352 C 
BRANCH  30  33
HETATM   33  C23 UNL     1      83.312  35.009   1.617  1.00  0.00     0.212 C 
HETATM   34  O2  UNL     1      82.890  35.660   2.622  1.00  0.00    -0.644 OA
HETATM   35  O3  UNL     1      84.671  34.833   1.581  1.00  0.00    -0.644 OA
ENDBRANCH  30  33
ENDBRANCH  23  24
ENDBRANCH   9  23
TORSDOF 10
ENDMDL
