MODEL 1
REMARK VINA RESULT: -8.335891339      0.000      0.000
REMARK  10 active torsions:
REMARK  status: ('A' for Active; 'I' for Inactive)
REMARK    1  A    between atoms: O1_2  and  C2_3 
REMARK    2  A    between atoms: C5_6  and  C6_7 
REMARK    3  A    between atoms: C6_7  and  N1_8 
REMARK       I    between atoms: N1_8  and  C7_10 
REMARK    4  A    between atoms: C7_10  and  C8_12 
REMARK    5  A    between atoms: C17_21  and  C18_22 
REMARK    6  A    between atoms: C18_22  and  N2_23 
REMARK    7  A    between atoms: N2_23  and  C20_25 
REMARK    8  A    between atoms: C20_25  and  C21_26 
REMARK    9  A    between atoms: C25_30  and  O3_31 
REMARK   10  A    between atoms: C27_33  and  C28_34 
ROOT
HETATM    1  C8  UNL     1      34.492 -28.988  -2.481  1.00  0.00     0.040 A 
HETATM    2  C9  UNL     1      33.532 -28.016  -2.309  1.00  0.00     0.030 A 
HETATM    3  C10 UNL     1      32.460 -28.164  -1.477  1.00  0.00    -0.025 A 
HETATM    4  C11 UNL     1      31.501 -27.178  -1.310  1.00  0.00     0.012 A 
HETATM    5  C12 UNL     1      30.447 -27.380  -0.462  1.00  0.00     0.001 A 
HETATM    6  C13 UNL     1      30.378 -28.589   0.211  1.00  0.00     0.001 A 
HETATM    7  C14 UNL     1      31.327 -29.572   0.052  1.00  0.00     0.012 A 
HETATM    8  C15 UNL     1      32.375 -29.369  -0.793  1.00  0.00    -0.025 A 
HETATM    9  C16 UNL     1      33.320 -30.357  -0.947  1.00  0.00     0.022 A 
HETATM   10  C17 UNL     1      34.394 -30.194  -1.788  1.00  0.00    -0.014 A 
ENDROOT
BRANCH  10  11
HETATM   11  C18 UNL     1      35.453 -31.176  -2.018  1.00  0.00     0.311 C 
BRANCH  11  12
HETATM   12  N2  UNL     1      35.073 -32.539  -2.172  1.00  0.00     0.092 N 
HETATM   13  C19 UNL     1      35.835 -33.077  -3.316  1.00  0.00     0.310 C 
BRANCH  12  14
HETATM   14  C20 UNL     1      35.486 -33.261  -0.977  1.00  0.00     0.312 C 
BRANCH  14  15
HETATM   15  C21 UNL     1      34.447 -33.393   0.046  1.00  0.00    -0.010 A 
HETATM   16  C22 UNL     1      34.407 -32.577   1.155  1.00  0.00     0.010 A 
HETATM   17  C23 UNL     1      33.391 -32.775   2.066  1.00  0.00     0.003 A 
HETATM   18  C24 UNL     1      32.444 -33.755   1.880  1.00  0.00     0.038 A 
HETATM   19  C25 UNL     1      32.469 -34.589   0.765  1.00  0.00     0.085 A 
HETATM   20  C27 UNL     1      33.481 -34.386  -0.135  1.00  0.00     0.082 A 
BRANCH  19  21
HETATM   21  O3  UNL     1      31.504 -35.585   0.582  1.00  0.00    -0.355 OA
HETATM   22  C26 UNL     1      30.666 -35.962   1.686  1.00  0.00     0.210 C 
ENDBRANCH  19  21
BRANCH  20  23
HETATM   23  C28 UNL     1      33.506 -35.260  -1.313  1.00  0.00     0.212 C 
HETATM   24  O4  UNL     1      32.732 -35.193  -2.273  1.00  0.00    -0.644 OA
HETATM   25  O5  UNL     1      34.496 -36.243  -1.330  1.00  0.00    -0.644 OA
ENDBRANCH  20  23
ENDBRANCH  14  15
ENDBRANCH  12  14
ENDBRANCH  11  12
ENDBRANCH  10  11
BRANCH   1  26
HETATM   26  C7  UNL     1      35.604 -28.705  -3.420  1.00  0.00     0.252 C 
HETATM   27  N1  UNL     1      35.502 -28.898  -4.805  1.00  0.00    -0.353 N 
ATOM     28  H1  UNL     1      34.620 -29.252  -5.177  1.00  0.00     0.163 HD
HETATM   29  O2  UNL     1      36.669 -28.275  -2.943  1.00  0.00    -0.268 OA
BRANCH  27  30
HETATM   30  C6  UNL     1      36.581 -28.624  -5.749  1.00  0.00     0.161 C 
BRANCH  30  31
HETATM   31  C5  UNL     1      36.171 -27.614  -6.747  1.00  0.00    -0.040 A 
HETATM   32  C4  UNL     1      36.414 -27.793  -8.092  1.00  0.00     0.011 A 
HETATM   33  C3  UNL     1      36.005 -26.835  -9.023  1.00  0.00     0.037 A 
HETATM   34  C2  UNL     1      35.352 -25.691  -8.624  1.00  0.00     0.068 A 
HETATM   35  C30 UNL     1      35.108 -25.509  -7.285  1.00  0.00     0.037 A 
HETATM   36  C29 UNL     1      35.520 -26.472  -6.359  1.00  0.00     0.011 A 
BRANCH  34  37
HETATM   37  O1  UNL     1      34.934 -24.721  -9.545  1.00  0.00    -0.356 OA
HETATM   38  C1  UNL     1      33.833 -23.877  -9.313  1.00  0.00     0.210 C 
ENDBRANCH  34  37
ENDBRANCH  30  31
ENDBRANCH  27  30
ENDBRANCH   1  26
TORSDOF 10
ENDMDL
