MODEL 3
REMARK VINA RESULT: -8.094370577      2.885      7.611
REMARK  10 active torsions:
REMARK  status: ('A' for Active; 'I' for Inactive)
REMARK    1  A    between atoms: O1_2  and  C2_3 
REMARK    2  A    between atoms: C5_6  and  C6_7 
REMARK    3  A    between atoms: C6_7  and  N1_8 
REMARK       I    between atoms: N1_8  and  C7_10 
REMARK    4  A    between atoms: C7_10  and  C8_12 
REMARK    5  A    between atoms: C17_21  and  C18_22 
REMARK    6  A    between atoms: C18_22  and  N2_23 
REMARK    7  A    between atoms: N2_23  and  C20_25 
REMARK    8  A    between atoms: C20_25  and  C21_26 
REMARK    9  A    between atoms: C25_30  and  O3_31 
REMARK   10  A    between atoms: C27_33  and  C28_34 
ROOT
HETATM    1  C8  UNL     1      34.519 -28.430  -1.666  1.00  0.00     0.040 A 
HETATM    2  C9  UNL     1      33.955 -27.852  -2.781  1.00  0.00     0.030 A 
HETATM    3  C10 UNL     1      34.662 -27.560  -3.910  1.00  0.00    -0.025 A 
HETATM    4  C11 UNL     1      34.084 -26.979  -5.027  1.00  0.00     0.012 A 
HETATM    5  C12 UNL     1      34.841 -26.709  -6.133  1.00  0.00     0.001 A 
HETATM    6  C13 UNL     1      36.188 -27.033  -6.092  1.00  0.00     0.001 A 
HETATM    7  C14 UNL     1      36.770 -27.610  -4.988  1.00  0.00     0.012 A 
HETATM    8  C15 UNL     1      36.014 -27.879  -3.888  1.00  0.00    -0.025 A 
HETATM    9  C16 UNL     1      36.603 -28.456  -2.788  1.00  0.00     0.022 A 
HETATM   10  C17 UNL     1      35.878 -28.746  -1.657  1.00  0.00    -0.014 A 
ENDROOT
BRANCH  10  11
HETATM   11  C18 UNL     1      36.406 -29.362  -0.440  1.00  0.00     0.311 C 
BRANCH  11  12
HETATM   12  N2  UNL     1      37.215 -30.523  -0.581  1.00  0.00     0.092 N 
HETATM   13  C19 UNL     1      38.493 -30.250   0.107  1.00  0.00     0.310 C 
BRANCH  12  14
HETATM   14  C20 UNL     1      36.555 -31.620   0.113  1.00  0.00     0.312 C 
BRANCH  14  15
HETATM   15  C21 UNL     1      35.993 -32.648  -0.764  1.00  0.00    -0.010 A 
HETATM   16  C22 UNL     1      34.771 -32.493  -1.380  1.00  0.00     0.010 A 
HETATM   17  C23 UNL     1      34.322 -33.514  -2.189  1.00  0.00     0.003 A 
HETATM   18  C24 UNL     1      35.065 -34.656  -2.379  1.00  0.00     0.038 A 
HETATM   19  C25 UNL     1      36.302 -34.830  -1.765  1.00  0.00     0.085 A 
HETATM   20  C27 UNL     1      36.742 -33.811  -0.963  1.00  0.00     0.082 A 
BRANCH  19  21
HETATM   21  O3  UNL     1      37.054 -35.994  -1.962  1.00  0.00    -0.355 OA
HETATM   22  C26 UNL     1      37.560 -36.288  -3.274  1.00  0.00     0.210 C 
ENDBRANCH  19  21
BRANCH  20  23
HETATM   23  C28 UNL     1      38.047 -33.989  -0.319  1.00  0.00     0.212 C 
HETATM   24  O4  UNL     1      38.233 -34.452   0.811  1.00  0.00    -0.644 OA
HETATM   25  O5  UNL     1      39.161 -33.598  -1.062  1.00  0.00    -0.644 OA
ENDBRANCH  20  23
ENDBRANCH  14  15
ENDBRANCH  12  14
ENDBRANCH  11  12
ENDBRANCH  10  11
BRANCH   1  26
HETATM   26  C7  UNL     1      33.642 -28.691  -0.499  1.00  0.00     0.252 C 
HETATM   27  N1  UNL     1      32.569 -29.594  -0.537  1.00  0.00    -0.353 N 
ATOM     28  H1  UNL     1      32.388 -30.087  -1.412  1.00  0.00     0.163 HD
HETATM   29  O2  UNL     1      33.883 -28.077   0.555  1.00  0.00    -0.268 OA
BRANCH  27  30
HETATM   30  C6  UNL     1      31.695 -29.870   0.598  1.00  0.00     0.161 C 
BRANCH  30  31
HETATM   31  C5  UNL     1      31.882 -31.251   1.090  1.00  0.00    -0.040 A 
HETATM   32  C4  UNL     1      33.086 -31.667   1.619  1.00  0.00     0.011 A 
HETATM   33  C3  UNL     1      33.240 -32.972   2.094  1.00  0.00     0.037 A 
HETATM   34  C2  UNL     1      32.201 -33.873   2.046  1.00  0.00     0.068 A 
HETATM   35  C30 UNL     1      31.001 -33.462   1.518  1.00  0.00     0.037 A 
HETATM   36  C29 UNL     1      30.853 -32.155   1.046  1.00  0.00     0.011 A 
BRANCH  34  37
HETATM   37  O1  UNL     1      32.339 -35.185   2.519  1.00  0.00    -0.356 OA
HETATM   38  C1  UNL     1      31.446 -35.759   3.441  1.00  0.00     0.210 C 
ENDBRANCH  34  37
ENDBRANCH  30  31
ENDBRANCH  27  30
ENDBRANCH   1  26
TORSDOF 10
ENDMDL
