MODEL 2
REMARK VINA RESULT: -8.209286770      2.748      4.847
REMARK  10 active torsions:
REMARK  status: ('A' for Active; 'I' for Inactive)
REMARK    1  A    between atoms: O1_2  and  C2_3 
REMARK    2  A    between atoms: C5_6  and  C6_7 
REMARK    3  A    between atoms: C6_7  and  N1_8 
REMARK       I    between atoms: N1_8  and  C7_10 
REMARK    4  A    between atoms: C7_10  and  C8_12 
REMARK    5  A    between atoms: C17_21  and  C18_22 
REMARK    6  A    between atoms: C18_22  and  N2_23 
REMARK    7  A    between atoms: N2_23  and  C20_25 
REMARK    8  A    between atoms: C20_25  and  C21_26 
REMARK    9  A    between atoms: C25_30  and  O3_31 
REMARK   10  A    between atoms: C27_33  and  C28_34 
ROOT
HETATM    1  C8  UNL     1      33.602 -30.383   0.040  1.00  0.00     0.040 A 
HETATM    2  C9  UNL     1      32.422 -30.918   0.507  1.00  0.00     0.030 A 
HETATM    3  C10 UNL     1      32.302 -32.211   0.922  1.00  0.00    -0.025 A 
HETATM    4  C11 UNL     1      31.109 -32.739   1.390  1.00  0.00     0.012 A 
HETATM    5  C12 UNL     1      31.046 -34.044   1.795  1.00  0.00     0.001 A 
HETATM    6  C13 UNL     1      32.201 -34.804   1.718  1.00  0.00     0.001 A 
HETATM    7  C14 UNL     1      33.389 -34.288   1.254  1.00  0.00     0.012 A 
HETATM    8  C15 UNL     1      33.450 -32.990   0.852  1.00  0.00    -0.025 A 
HETATM    9  C16 UNL     1      34.642 -32.480   0.391  1.00  0.00     0.022 A 
HETATM   10  C17 UNL     1      34.749 -31.175  -0.024  1.00  0.00    -0.014 A 
ENDROOT
BRANCH  10  11
HETATM   11  C18 UNL     1      35.966 -30.537  -0.525  1.00  0.00     0.311 C 
BRANCH  11  12
HETATM   12  N2  UNL     1      36.367 -30.827  -1.859  1.00  0.00     0.092 N 
HETATM   13  C19 UNL     1      36.747 -29.547  -2.488  1.00  0.00     0.310 C 
BRANCH  12  14
HETATM   14  C20 UNL     1      37.552 -31.671  -1.801  1.00  0.00     0.312 C 
BRANCH  14  15
HETATM   15  C21 UNL     1      37.278 -33.107  -1.768  1.00  0.00    -0.010 A 
HETATM   16  C22 UNL     1      36.497 -33.724  -2.721  1.00  0.00     0.010 A 
HETATM   17  C23 UNL     1      36.293 -35.082  -2.609  1.00  0.00     0.003 A 
HETATM   18  C24 UNL     1      36.848 -35.806  -1.579  1.00  0.00     0.038 A 
HETATM   19  C25 UNL     1      37.640 -35.201  -0.608  1.00  0.00     0.085 A 
HETATM   20  C27 UNL     1      37.838 -33.851  -0.726  1.00  0.00     0.082 A 
BRANCH  19  21
HETATM   21  O3  UNL     1      38.202 -35.943   0.438  1.00  0.00    -0.355 OA
HETATM   22  C26 UNL     1      39.219 -36.913   0.141  1.00  0.00     0.210 C 
ENDBRANCH  19  21
BRANCH  20  23
HETATM   23  C28 UNL     1      38.677 -33.212   0.293  1.00  0.00     0.212 C 
HETATM   24  O4  UNL     1      39.902 -33.069   0.229  1.00  0.00    -0.644 OA
HETATM   25  O5  UNL     1      38.015 -32.732   1.424  1.00  0.00    -0.644 OA
ENDBRANCH  20  23
ENDBRANCH  14  15
ENDBRANCH  12  14
ENDBRANCH  11  12
ENDBRANCH  10  11
BRANCH   1  26
HETATM   26  C7  UNL     1      33.600 -28.963  -0.387  1.00  0.00     0.252 C 
HETATM   27  N1  UNL     1      33.132 -28.543  -1.641  1.00  0.00    -0.353 N 
ATOM     28  H1  UNL     1      32.783 -29.254  -2.285  1.00  0.00     0.163 HD
HETATM   29  O2  UNL     1      34.031 -28.116   0.415  1.00  0.00    -0.268 OA
BRANCH  27  30
HETATM   30  C6  UNL     1      33.116 -27.153  -2.083  1.00  0.00     0.161 C 
BRANCH  30  31
HETATM   31  C5  UNL     1      34.114 -26.920  -3.147  1.00  0.00    -0.040 A 
HETATM   32  C4  UNL     1      33.954 -27.449  -4.410  1.00  0.00     0.011 A 
HETATM   33  C3  UNL     1      34.900 -27.206  -5.409  1.00  0.00     0.037 A 
HETATM   34  C2  UNL     1      36.013 -26.436  -5.159  1.00  0.00     0.068 A 
HETATM   35  C30 UNL     1      36.177 -25.909  -3.902  1.00  0.00     0.037 A 
HETATM   36  C29 UNL     1      35.226 -26.155  -2.908  1.00  0.00     0.011 A 
BRANCH  34  37
HETATM   37  O1  UNL     1      36.972 -26.182  -6.150  1.00  0.00    -0.356 OA
HETATM   38  C1  UNL     1      37.092 -24.935  -6.788  1.00  0.00     0.210 C 
ENDBRANCH  34  37
ENDBRANCH  30  31
ENDBRANCH  27  30
ENDBRANCH   1  26
TORSDOF 10
ENDMDL
