MODEL 3
REMARK VINA RESULT: -6.048917858      1.843      2.314
REMARK  7 active torsions:
REMARK  status: ('A' for Active; 'I' for Inactive)
REMARK    1  A    between atoms: C1_2  and  C2_4 
REMARK    2  A    between atoms: C2_4  and  O3_5 
REMARK    3  A    between atoms: C4_8  and  C5_9 
REMARK    4  A    between atoms: C5_9  and  C6_10 
REMARK    5  A    between atoms: C6_10  and  O4_11 
REMARK    6  A    between atoms: C7_13  and  O5_14 
REMARK    7  A    between atoms: C8_16  and  O6_17 
ROOT
HETATM    1  C2  UNL     1       2.795  12.728  25.185  1.00  0.00     0.166 C 
HETATM    2  C3  UNL     1       2.638  14.133  25.624  1.00  0.00     0.027 C 
HETATM    3  C4  UNL     1       3.125  15.072  24.818  1.00  0.00    -0.047 C 
HETATM    4  C7  UNL     1       3.792  14.670  23.535  1.00  0.00     0.176 C 
HETATM    5  C8  UNL     1       3.094  13.540  22.835  1.00  0.00     0.154 C 
HETATM    6  C9  UNL     1       2.312  12.661  23.743  1.00  0.00     0.088 C 
ENDROOT
BRANCH   1   7
HETATM    7  C1  UNL     1       2.009  11.770  25.949  1.00  0.00     0.213 C 
HETATM    8  O1  UNL     1       2.297  11.579  27.157  1.00  0.00    -0.645 OA
HETATM    9  O2  UNL     1       0.945  11.033  25.452  1.00  0.00    -0.645 OA
ENDBRANCH   1   7
BRANCH   1  10
HETATM   10  O3  UNL     1       4.143  12.400  25.273  1.00  0.00    -0.375 OA
ATOM     11  H3  UNL     1       4.454  12.099  24.427  1.00  0.00     0.211 HD
ENDBRANCH   1  10
BRANCH   3  12
HETATM   12  C5  UNL     1       3.047  16.502  25.112  1.00  0.00     0.062 C 
BRANCH  12  13
HETATM   13  C6  UNL     1       2.637  16.891  26.480  1.00  0.00     0.168 C 
BRANCH  13  14
HETATM   14  O4  UNL     1       2.472  18.252  26.571  1.00  0.00    -0.401 OA
ATOM     15  H4  UNL     1       2.929  18.598  27.329  1.00  0.00     0.209 HD
ENDBRANCH  13  14
ENDBRANCH  12  13
ENDBRANCH   3  12
BRANCH   5  16
HETATM   16  O6  UNL     1       2.235  14.043  21.863  1.00  0.00    -0.393 OA
ATOM     17  H6  UNL     1       1.551  14.559  22.272  1.00  0.00     0.210 HD
ENDBRANCH   5  16
BRANCH   4  18
HETATM   18  O5  UNL     1       5.131  14.349  23.810  1.00  0.00    -0.389 OA
ATOM     19  H5  UNL     1       5.165  13.878  24.634  1.00  0.00     0.210 HD
ENDBRANCH   4  18
TORSDOF 7
ENDMDL
