MODEL 7
REMARK VINA RESULT: -5.429215605      4.496      7.687
REMARK  7 active torsions:
REMARK  status: ('A' for Active; 'I' for Inactive)
REMARK    1  A    between atoms: C1_2  and  C2_4 
REMARK    2  A    between atoms: C2_4  and  O3_5 
REMARK    3  A    between atoms: C4_8  and  C5_9 
REMARK    4  A    between atoms: C5_9  and  C6_10 
REMARK    5  A    between atoms: C6_10  and  O4_11 
REMARK    6  A    between atoms: C7_13  and  O5_14 
REMARK    7  A    between atoms: C8_16  and  O6_17 
ROOT
HETATM    1  C2  UNL     1       0.798  20.153  25.484  1.00  0.00     0.166 C 
HETATM    2  C3  UNL     1       1.595  18.919  25.662  1.00  0.00     0.027 C 
HETATM    3  C4  UNL     1       2.310  18.510  24.618  1.00  0.00    -0.047 C 
HETATM    4  C7  UNL     1       2.273  19.300  23.343  1.00  0.00     0.176 C 
HETATM    5  C8  UNL     1       2.281  20.785  23.567  1.00  0.00     0.154 C 
HETATM    6  C9  UNL     1       1.729  21.197  24.885  1.00  0.00     0.088 C 
ENDROOT
BRANCH   1   7
HETATM    7  C1  UNL     1       0.266  20.707  26.720  1.00  0.00     0.213 C 
HETATM    8  O1  UNL     1       0.223  21.956  26.853  1.00  0.00    -0.645 OA
HETATM    9  O2  UNL     1      -0.209  19.964  27.789  1.00  0.00    -0.645 OA
ENDBRANCH   1   7
BRANCH   1  10
HETATM   10  O3  UNL     1      -0.248  19.864  24.615  1.00  0.00    -0.375 OA
ATOM     11  H3  UNL     1       0.045  19.245  23.957  1.00  0.00     0.211 HD
ENDBRANCH   1  10
BRANCH   3  12
HETATM   12  C5  UNL     1       3.147  17.311  24.638  1.00  0.00     0.062 C 
BRANCH  12  13
HETATM   13  C6  UNL     1       3.021  16.415  25.809  1.00  0.00     0.168 C 
BRANCH  13  14
HETATM   14  O4  UNL     1       3.144  15.100  25.432  1.00  0.00    -0.401 OA
ATOM     15  H4  UNL     1       3.819  15.000  24.771  1.00  0.00     0.209 HD
ENDBRANCH  13  14
ENDBRANCH  12  13
ENDBRANCH   3  12
BRANCH   5  16
HETATM   16  O6  UNL     1       3.580  21.273  23.462  1.00  0.00    -0.393 OA
ATOM     17  H6  UNL     1       3.837  21.314  22.549  1.00  0.00     0.210 HD
ENDBRANCH   5  16
BRANCH   4  18
HETATM   18  O5  UNL     1       1.147  18.903  22.604  1.00  0.00    -0.389 OA
ATOM     19  H5  UNL     1       1.247  19.214  21.712  1.00  0.00     0.210 HD
ENDBRANCH   4  18
TORSDOF 7
ENDMDL
