MODEL 11
REMARK VINA RESULT: -4.920014736      4.507      7.045
REMARK  7 active torsions:
REMARK  status: ('A' for Active; 'I' for Inactive)
REMARK    1  A    between atoms: C1_2  and  C2_4 
REMARK    2  A    between atoms: C2_4  and  O3_5 
REMARK    3  A    between atoms: C4_8  and  C5_9 
REMARK    4  A    between atoms: C5_9  and  C6_10 
REMARK    5  A    between atoms: C6_10  and  O4_11 
REMARK    6  A    between atoms: C7_13  and  O5_14 
REMARK    7  A    between atoms: C8_16  and  O6_17 
ROOT
HETATM    1  C2  UNL     1       2.574  18.202  24.713  1.00  0.00     0.166 C 
HETATM    2  C3  UNL     1       1.705  18.822  25.739  1.00  0.00     0.027 C 
HETATM    3  C4  UNL     1       1.160  19.996  25.435  1.00  0.00    -0.047 C 
HETATM    4  C7  UNL     1       1.447  20.620  24.101  1.00  0.00     0.176 C 
HETATM    5  C8  UNL     1       1.465  19.626  22.976  1.00  0.00     0.154 C 
HETATM    6  C9  UNL     1       1.804  18.242  23.401  1.00  0.00     0.088 C 
ENDROOT
BRANCH   1   7
HETATM    7  C1  UNL     1       2.913  16.812  24.974  1.00  0.00     0.213 C 
HETATM    8  O1  UNL     1       3.021  16.429  26.166  1.00  0.00    -0.645 OA
HETATM    9  O2  UNL     1       3.130  15.847  24.003  1.00  0.00    -0.645 OA
ENDBRANCH   1   7
BRANCH   1  10
HETATM   10  O3  UNL     1       3.738  18.957  24.627  1.00  0.00    -0.375 OA
ATOM     11  H3  UNL     1       4.004  19.032  23.718  1.00  0.00     0.211 HD
ENDBRANCH   1  10
BRANCH   3  12
HETATM   12  C5  UNL     1       0.280  20.731  26.343  1.00  0.00     0.062 C 
BRANCH  12  13
HETATM   13  C6  UNL     1      -0.321  19.976  27.465  1.00  0.00     0.168 C 
BRANCH  13  14
HETATM   14  O4  UNL     1      -0.587  20.808  28.526  1.00  0.00    -0.401 OA
ATOM     15  H4  UNL     1      -0.995  20.328  29.237  1.00  0.00     0.209 HD
ENDBRANCH  13  14
ENDBRANCH  12  13
ENDBRANCH   3  12
BRANCH   5  16
HETATM   16  O6  UNL     1       0.225  19.601  22.345  1.00  0.00    -0.393 OA
ATOM     17  H6  UNL     1      -0.123  20.482  22.281  1.00  0.00     0.210 HD
ENDBRANCH   5  16
BRANCH   4  18
HETATM   18  O5  UNL     1       2.663  21.316  24.185  1.00  0.00    -0.389 OA
ATOM     19  H5  UNL     1       3.078  21.303  23.331  1.00  0.00     0.210 HD
ENDBRANCH   4  18
TORSDOF 7
ENDMDL
