MODEL 2
REMARK VINA RESULT: -6.789135550      1.097      1.152
REMARK  7 active torsions:
REMARK  status: ('A' for Active; 'I' for Inactive)
REMARK    1  A    between atoms: C1_2  and  C2_4 
REMARK    2  A    between atoms: C2_4  and  O3_5 
REMARK    3  A    between atoms: C4_8  and  C5_9 
REMARK    4  A    between atoms: C5_9  and  C6_10 
REMARK    5  A    between atoms: C6_10  and  O4_11 
REMARK    6  A    between atoms: C7_13  and  O5_14 
REMARK    7  A    between atoms: C8_16  and  O6_17 
ROOT
HETATM    1  C2  UNL     1       2.345  11.750  24.479  1.00  0.00     0.166 C 
HETATM    2  C3  UNL     1       2.866  13.044  23.983  1.00  0.00     0.027 C 
HETATM    3  C4  UNL     1       3.105  13.136  22.679  1.00  0.00    -0.047 C 
HETATM    4  C7  UNL     1       2.841  11.953  21.795  1.00  0.00     0.176 C 
HETATM    5  C8  UNL     1       1.582  11.216  22.153  1.00  0.00     0.154 C 
HETATM    6  C9  UNL     1       1.180  11.371  23.576  1.00  0.00     0.088 C 
ENDROOT
BRANCH   1   7
HETATM    7  C1  UNL     1       1.840  11.789  25.843  1.00  0.00     0.213 C 
HETATM    8  O1  UNL     1       0.707  11.302  26.081  1.00  0.00    -0.645 OA
HETATM    9  O2  UNL     1       2.514  12.326  26.929  1.00  0.00    -0.645 OA
ENDBRANCH   1   7
BRANCH   1  10
HETATM   10  O3  UNL     1       3.369  10.814  24.387  1.00  0.00    -0.375 OA
ATOM     11  H3  UNL     1       4.190  11.256  24.206  1.00  0.00     0.211 HD
ENDBRANCH   1  10
BRANCH   3  12
HETATM   12  C5  UNL     1       3.619  14.347  22.040  1.00  0.00     0.062 C 
BRANCH  12  13
HETATM   13  C6  UNL     1       4.395  15.282  22.885  1.00  0.00     0.168 C 
BRANCH  13  14
HETATM   14  O4  UNL     1       5.244  16.043  22.117  1.00  0.00    -0.401 OA
ATOM     15  H4  UNL     1       6.141  15.952  22.416  1.00  0.00     0.209 HD
ENDBRANCH  13  14
ENDBRANCH  12  13
ENDBRANCH   3  12
BRANCH   5  16
HETATM   16  O6  UNL     1       0.532  11.652  21.350  1.00  0.00    -0.393 OA
ATOM     17  H6  UNL     1      -0.282  11.627  21.839  1.00  0.00     0.210 HD
ENDBRANCH   5  16
BRANCH   4  18
HETATM   18  O5  UNL     1       3.957  11.104  21.840  1.00  0.00    -0.389 OA
ATOM     19  H5  UNL     1       3.731  10.285  21.417  1.00  0.00     0.210 HD
ENDBRANCH   4  18
TORSDOF 7
ENDMDL
