MODEL 12
REMARK VINA RESULT: -4.680100682      6.141      8.082
REMARK  7 active torsions:
REMARK  status: ('A' for Active; 'I' for Inactive)
REMARK    1  A    between atoms: C1_2  and  C2_4 
REMARK    2  A    between atoms: C2_4  and  O3_5 
REMARK    3  A    between atoms: C4_8  and  C5_9 
REMARK    4  A    between atoms: C5_9  and  C6_10 
REMARK    5  A    between atoms: C6_10  and  O4_11 
REMARK    6  A    between atoms: C7_13  and  O5_14 
REMARK    7  A    between atoms: C8_16  and  O6_17 
ROOT
HETATM    1  C2  UNL     1       0.349  20.300  26.562  1.00  0.00     0.166 C 
HETATM    2  C3  UNL     1      -0.097  20.129  25.161  1.00  0.00     0.027 C 
HETATM    3  C4  UNL     1       0.850  19.937  24.247  1.00  0.00    -0.047 C 
HETATM    4  C7  UNL     1       2.289  19.905  24.672  1.00  0.00     0.176 C 
HETATM    5  C8  UNL     1       2.507  19.175  25.967  1.00  0.00     0.154 C 
HETATM    6  C9  UNL     1       1.317  19.163  26.857  1.00  0.00     0.088 C 
ENDROOT
BRANCH   1   7
HETATM    7  C1  UNL     1      -0.720  20.225  27.546  1.00  0.00     0.213 C 
HETATM    8  O1  UNL     1      -0.530  20.723  28.684  1.00  0.00    -0.645 OA
HETATM    9  O2  UNL     1      -1.959  19.641  27.335  1.00  0.00    -0.645 OA
ENDBRANCH   1   7
BRANCH   1  10
HETATM   10  O3  UNL     1       0.987  21.532  26.660  1.00  0.00    -0.375 OA
ATOM     11  H3  UNL     1       0.364  22.229  26.490  1.00  0.00     0.211 HD
ENDBRANCH   1  10
BRANCH   3  12
HETATM   12  C5  UNL     1       0.568  19.752  22.825  1.00  0.00     0.062 C 
BRANCH  12  13
HETATM   13  C6  UNL     1       0.931  18.448  22.225  1.00  0.00     0.168 C 
BRANCH  13  14
HETATM   14  O4  UNL     1      -0.094  17.968  21.446  1.00  0.00    -0.401 OA
ATOM     15  H4  UNL     1      -0.362  17.104  21.736  1.00  0.00     0.209 HD
ENDBRANCH  13  14
ENDBRANCH  12  13
ENDBRANCH   3  12
BRANCH   5  16
HETATM   16  O6  UNL     1       2.879  17.859  25.712  1.00  0.00    -0.393 OA
ATOM     17  H6  UNL     1       3.351  17.507  26.458  1.00  0.00     0.210 HD
ENDBRANCH   5  16
BRANCH   4  18
HETATM   18  O5  UNL     1       2.763  21.224  24.745  1.00  0.00    -0.389 OA
ATOM     19  H5  UNL     1       2.128  21.747  25.221  1.00  0.00     0.210 HD
ENDBRANCH   4  18
TORSDOF 7
ENDMDL
