MODEL 1
REMARK VINA RESULT: -6.856064986      0.000      0.000
REMARK  7 active torsions:
REMARK  status: ('A' for Active; 'I' for Inactive)
REMARK    1  A    between atoms: C1_2  and  C2_4 
REMARK    2  A    between atoms: C2_4  and  O3_5 
REMARK    3  A    between atoms: C4_8  and  C5_9 
REMARK    4  A    between atoms: C5_9  and  C6_10 
REMARK    5  A    between atoms: C6_10  and  O4_11 
REMARK    6  A    between atoms: C7_13  and  O5_14 
REMARK    7  A    between atoms: C8_16  and  O6_17 
ROOT
HETATM    1  C2  UNL     1       2.302  11.804  24.409  1.00  0.00     0.166 C 
HETATM    2  C3  UNL     1       3.006  13.106  24.441  1.00  0.00     0.027 C 
HETATM    3  C4  UNL     1       3.329  13.643  23.268  1.00  0.00    -0.047 C 
HETATM    4  C7  UNL     1       2.973  12.920  22.002  1.00  0.00     0.176 C 
HETATM    5  C8  UNL     1       1.614  12.282  22.048  1.00  0.00     0.154 C 
HETATM    6  C9  UNL     1       1.153  11.949  23.422  1.00  0.00     0.088 C 
ENDROOT
BRANCH   1   7
HETATM    7  C1  UNL     1       1.728  11.401  25.684  1.00  0.00     0.213 C 
HETATM    8  O1  UNL     1       0.666  10.730  25.683  1.00  0.00    -0.645 OA
HETATM    9  O2  UNL     1       2.261  11.696  26.929  1.00  0.00    -0.645 OA
ENDBRANCH   1   7
BRANCH   1  10
HETATM   10  O3  UNL     1       3.206  10.840  23.979  1.00  0.00    -0.375 OA
ATOM     11  H3  UNL     1       4.077  11.057  24.291  1.00  0.00     0.211 HD
ENDBRANCH   1  10
BRANCH   3  12
HETATM   12  C5  UNL     1       4.024  14.922  23.136  1.00  0.00     0.062 C 
BRANCH  12  13
HETATM   13  C6  UNL     1       3.497  16.065  23.915  1.00  0.00     0.168 C 
BRANCH  13  14
HETATM   14  O4  UNL     1       2.733  16.885  23.121  1.00  0.00    -0.401 OA
ATOM     15  H4  UNL     1       3.152  17.730  23.006  1.00  0.00     0.209 HD
ENDBRANCH  13  14
ENDBRANCH  12  13
ENDBRANCH   3  12
BRANCH   5  16
HETATM   16  O6  UNL     1       0.675  13.123  21.460  1.00  0.00    -0.393 OA
ATOM     17  H6  UNL     1       0.794  14.012  21.775  1.00  0.00     0.210 HD
ENDBRANCH   5  16
BRANCH   4  18
HETATM   18  O5  UNL     1       3.972  11.972  21.733  1.00  0.00    -0.389 OA
ATOM     19  H5  UNL     1       3.697  11.135  22.088  1.00  0.00     0.210 HD
ENDBRANCH   4  18
TORSDOF 7
ENDMDL
