MODEL 19
REMARK VINA RESULT: -7.287066813      2.189      3.538
REMARK  8 active torsions:
REMARK  status: ('A' for Active; 'I' for Inactive)
REMARK    1  A    between atoms: C2_2  and  C4_4 
REMARK    2  A    between atoms: C4_4  and  C5_5 
REMARK    3  A    between atoms: C5_5  and  C6_6 
REMARK    4  A    between atoms: C5_5  and  C13_18 
REMARK    5  A    between atoms: C6_6  and  N1_7 
REMARK       I    between atoms: N1_7  and  C7_9 
REMARK    6  A    between atoms: C7_9  and  C8_11 
REMARK    7  A    between atoms: C13_18  and  C14_19 
REMARK    8  A    between atoms: C19_24  and  C20_25 
ROOT
HETATM    1  C5  UNL     1     -10.737  47.709   1.953  1.00  0.00     0.008 C 
ENDROOT
BRANCH   1   2
HETATM    2  C4  UNL     1     -10.644  48.273   0.537  1.00  0.00     0.010 C 
BRANCH   2   3
HETATM    3  C2  UNL     1      -9.905  49.548   0.417  1.00  0.00    -0.022 C 
HETATM    4  C1  UNL     1     -10.944  50.683   0.409  1.00  0.00     0.009 C 
HETATM    5  C3  UNL     1      -9.200  49.692  -0.931  1.00  0.00     0.009 C 
ENDBRANCH   2   3
ENDBRANCH   1   2
BRANCH   1   6
HETATM    6  C6  UNL     1      -9.338  47.875   2.491  1.00  0.00     0.128 C 
BRANCH   6   7
HETATM    7  N1  UNL     1      -8.590  46.663   2.653  1.00  0.00    -0.356 N 
HETATM    8  C7  UNL     1      -7.582  46.362   1.729  1.00  0.00     0.251 C 
HETATM    9  O1  UNL     1      -7.349  47.166   0.767  1.00  0.00    -0.268 OA
ATOM     10  H1  UNL     1      -8.788  46.031   3.429  1.00  0.00     0.162 HD
BRANCH   8  11
HETATM   11  C8  UNL     1      -6.791  45.156   1.834  1.00  0.00     0.034 A 
HETATM   12  C9  UNL     1      -5.527  45.186   2.441  1.00  0.00     0.034 A 
HETATM   13  C10 UNL     1      -4.751  44.079   2.559  1.00  0.00     0.088 A 
HETATM   14  N2  UNL     1      -5.207  42.910   2.080  1.00  0.00    -0.375 N 
HETATM   15  C11 UNL     1      -6.422  42.814   1.482  1.00  0.00     0.088 A 
ATOM     16  H2  UNL     1      -4.628  42.076   2.168  1.00  0.00     0.164 HD
HETATM   17  C12 UNL     1      -7.205  43.947   1.367  1.00  0.00     0.034 A 
ENDBRANCH   8  11
ENDBRANCH   6   7
ENDBRANCH   1   6
BRANCH   1  18
HETATM   18  C13 UNL     1     -11.156  46.241   1.887  1.00  0.00     0.046 C 
BRANCH  18  19
HETATM   19  C14 UNL     1     -11.395  45.697   0.553  1.00  0.00    -0.038 A 
HETATM   20  C15 UNL     1     -10.326  45.175  -0.157  1.00  0.00     0.011 A 
HETATM   21  C16 UNL     1     -10.490  44.500  -1.366  1.00  0.00     0.040 A 
HETATM   22  C17 UNL     1     -11.748  44.333  -1.894  1.00  0.00     0.106 A 
HETATM   23  C18 UNL     1     -12.805  44.848  -1.204  1.00  0.00     0.122 A 
HETATM   24  O5  UNL     1     -12.210  43.712  -3.058  1.00  0.00    -0.323 OA
HETATM   25  C19 UNL     1     -12.675  45.536   0.014  1.00  0.00     0.083 A 
HETATM   26  O4  UNL     1     -13.941  44.552  -1.934  1.00  0.00    -0.322 OA
HETATM   27  C21 UNL     1     -13.583  44.081  -3.221  1.00  0.00     0.352 C 
BRANCH  25  28
HETATM   28  C20 UNL     1     -13.852  46.205   0.540  1.00  0.00     0.212 C 
HETATM   29  O2  UNL     1     -14.683  45.770   1.352  1.00  0.00    -0.644 OA
HETATM   30  O3  UNL     1     -14.137  47.512   0.107  1.00  0.00    -0.644 OA
ENDBRANCH  25  28
ENDBRANCH  18  19
ENDBRANCH   1  18
TORSDOF 8
ENDMDL
