MODEL 3
REMARK VINA RESULT: -8.074598472      2.875      3.837
REMARK  8 active torsions:
REMARK  status: ('A' for Active; 'I' for Inactive)
REMARK    1  A    between atoms: C2_2  and  C4_4 
REMARK    2  A    between atoms: C4_4  and  C5_5 
REMARK    3  A    between atoms: C5_5  and  C6_6 
REMARK    4  A    between atoms: C5_5  and  C13_18 
REMARK    5  A    between atoms: C6_6  and  N1_7 
REMARK       I    between atoms: N1_7  and  C7_9 
REMARK    6  A    between atoms: C7_9  and  C8_11 
REMARK    7  A    between atoms: C13_18  and  C14_19 
REMARK    8  A    between atoms: C19_24  and  C20_25 
ROOT
HETATM    1  C5  UNL     1      -9.732  45.306  -0.346  1.00  0.00     0.008 C 
ENDROOT
BRANCH   1   2
HETATM    2  C4  UNL     1      -8.862  44.410   0.532  1.00  0.00     0.010 C 
BRANCH   2   3
HETATM    3  C2  UNL     1      -7.909  43.549  -0.200  1.00  0.00    -0.022 C 
HETATM    4  C1  UNL     1      -8.536  43.227  -1.567  1.00  0.00     0.009 C 
HETATM    5  C3  UNL     1      -7.736  42.179   0.453  1.00  0.00     0.009 C 
ENDBRANCH   2   3
ENDBRANCH   1   2
BRANCH   1   6
HETATM    6  C6  UNL     1      -9.206  46.692  -0.067  1.00  0.00     0.128 C 
BRANCH   6   7
HETATM    7  N1  UNL     1      -9.551  47.237   1.214  1.00  0.00    -0.356 N 
HETATM    8  C7  UNL     1     -10.452  48.307   1.271  1.00  0.00     0.251 C 
HETATM    9  O1  UNL     1     -10.948  48.773   0.192  1.00  0.00    -0.268 OA
ATOM     10  H1  UNL     1      -9.147  46.853   2.067  1.00  0.00     0.162 HD
BRANCH   8  11
HETATM   11  C8  UNL     1     -10.842  48.903   2.530  1.00  0.00     0.034 A 
HETATM   12  C9  UNL     1     -10.578  48.246   3.740  1.00  0.00     0.034 A 
HETATM   13  C10 UNL     1     -10.928  48.768   4.942  1.00  0.00     0.088 A 
HETATM   14  N2  UNL     1     -11.550  49.958   4.979  1.00  0.00    -0.375 N 
HETATM   15  C11 UNL     1     -11.834  50.645   3.843  1.00  0.00     0.088 A 
ATOM     16  H2  UNL     1     -11.814  50.354   5.881  1.00  0.00     0.164 HD
HETATM   17  C12 UNL     1     -11.473  50.105   2.624  1.00  0.00     0.034 A 
ENDBRANCH   8  11
ENDBRANCH   6   7
ENDBRANCH   1   6
BRANCH   1  18
HETATM   18  C13 UNL     1     -11.196  45.153   0.066  1.00  0.00     0.046 C 
BRANCH  18  19
HETATM   19  C14 UNL     1     -12.174  45.153  -1.018  1.00  0.00    -0.038 A 
HETATM   20  C15 UNL     1     -11.799  44.659  -2.257  1.00  0.00     0.011 A 
HETATM   21  C16 UNL     1     -12.710  44.479  -3.297  1.00  0.00     0.040 A 
HETATM   22  C17 UNL     1     -14.035  44.797  -3.112  1.00  0.00     0.106 A 
HETATM   23  C18 UNL     1     -14.412  45.288  -1.897  1.00  0.00     0.122 A 
HETATM   24  O5  UNL     1     -15.151  44.722  -3.950  1.00  0.00    -0.323 OA
HETATM   25  C19 UNL     1     -13.520  45.484  -0.830  1.00  0.00     0.083 A 
HETATM   26  O4  UNL     1     -15.772  45.524  -1.967  1.00  0.00    -0.322 OA
HETATM   27  C21 UNL     1     -16.213  45.435  -3.309  1.00  0.00     0.352 C 
BRANCH  25  28
HETATM   28  C20 UNL     1     -14.010  46.198   0.336  1.00  0.00     0.212 C 
HETATM   29  O2  UNL     1     -14.434  45.726   1.402  1.00  0.00    -0.644 OA
HETATM   30  O3  UNL     1     -14.030  47.603   0.309  1.00  0.00    -0.644 OA
ENDBRANCH  25  28
ENDBRANCH  18  19
ENDBRANCH   1  18
TORSDOF 8
ENDMDL
