MODEL 18
REMARK VINA RESULT: -7.327356610      3.526      7.838
REMARK  8 active torsions:
REMARK  status: ('A' for Active; 'I' for Inactive)
REMARK    1  A    between atoms: C2_2  and  C4_4 
REMARK    2  A    between atoms: C4_4  and  C5_5 
REMARK    3  A    between atoms: C5_5  and  C6_6 
REMARK    4  A    between atoms: C5_5  and  C13_18 
REMARK    5  A    between atoms: C6_6  and  N1_7 
REMARK       I    between atoms: N1_7  and  C7_9 
REMARK    6  A    between atoms: C7_9  and  C8_11 
REMARK    7  A    between atoms: C13_18  and  C14_19 
REMARK    8  A    between atoms: C19_24  and  C20_25 
ROOT
HETATM    1  C5  UNL     1     -10.411  44.174  -1.323  1.00  0.00     0.008 C 
ENDROOT
BRANCH   1   2
HETATM    2  C4  UNL     1      -8.969  43.676  -1.381  1.00  0.00     0.010 C 
BRANCH   2   3
HETATM    3  C2  UNL     1      -8.585  42.740  -0.303  1.00  0.00    -0.022 C 
HETATM    4  C1  UNL     1      -9.631  42.875   0.818  1.00  0.00     0.009 C 
HETATM    5  C3  UNL     1      -7.274  43.133   0.376  1.00  0.00     0.009 C 
ENDBRANCH   2   3
ENDBRANCH   1   2
BRANCH   1   6
HETATM    6  C6  UNL     1     -11.013  43.662  -2.607  1.00  0.00     0.128 C 
BRANCH   6   7
HETATM    7  N1  UNL     1     -12.138  44.401  -3.101  1.00  0.00    -0.356 N 
HETATM    8  C7  UNL     1     -13.420  44.056  -2.656  1.00  0.00     0.251 C 
HETATM    9  O1  UNL     1     -13.564  43.098  -1.827  1.00  0.00    -0.268 OA
ATOM     10  H1  UNL     1     -12.007  45.165  -3.764  1.00  0.00     0.162 HD
BRANCH   8  11
HETATM   11  C8  UNL     1     -14.597  44.761  -3.115  1.00  0.00     0.034 A 
HETATM   12  C9  UNL     1     -14.850  44.905  -4.486  1.00  0.00     0.034 A 
HETATM   13  C10 UNL     1     -15.940  45.560  -4.960  1.00  0.00     0.088 A 
HETATM   14  N2  UNL     1     -16.811  46.090  -4.086  1.00  0.00    -0.375 N 
HETATM   15  C11 UNL     1     -16.624  45.986  -2.745  1.00  0.00     0.088 A 
ATOM     16  H2  UNL     1     -17.632  46.583  -4.438  1.00  0.00     0.164 HD
HETATM   17  C12 UNL     1     -15.511  45.317  -2.274  1.00  0.00     0.034 A 
ENDBRANCH   8  11
ENDBRANCH   6   7
ENDBRANCH   1   6
BRANCH   1  18
HETATM   18  C13 UNL     1     -10.417  45.701  -1.254  1.00  0.00     0.046 C 
BRANCH  18  19
HETATM   19  C14 UNL     1     -10.119  46.289   0.048  1.00  0.00    -0.038 A 
HETATM   20  C15 UNL     1      -8.796  46.518   0.391  1.00  0.00     0.011 A 
HETATM   21  C16 UNL     1      -8.432  47.214   1.543  1.00  0.00     0.040 A 
HETATM   22  C17 UNL     1      -9.402  47.701   2.387  1.00  0.00     0.106 A 
HETATM   23  C18 UNL     1     -10.706  47.476   2.059  1.00  0.00     0.122 A 
HETATM   24  O5  UNL     1      -9.340  48.421   3.582  1.00  0.00    -0.323 OA
HETATM   25  C19 UNL     1     -11.107  46.777   0.909  1.00  0.00     0.083 A 
HETATM   26  O4  UNL     1     -11.473  48.057   3.052  1.00  0.00    -0.322 OA
HETATM   27  C21 UNL     1     -10.654  48.421   4.149  1.00  0.00     0.352 C 
BRANCH  25  28
HETATM   28  C20 UNL     1     -12.513  46.434   0.784  1.00  0.00     0.212 C 
HETATM   29  O2  UNL     1     -13.150  45.571   1.408  1.00  0.00    -0.644 OA
HETATM   30  O3  UNL     1     -13.300  47.135  -0.147  1.00  0.00    -0.644 OA
ENDBRANCH  25  28
ENDBRANCH  18  19
ENDBRANCH   1  18
TORSDOF 8
ENDMDL
