MODEL 6
REMARK VINA RESULT: -7.932566330      2.564      3.536
REMARK  8 active torsions:
REMARK  status: ('A' for Active; 'I' for Inactive)
REMARK    1  A    between atoms: C2_2  and  C4_4 
REMARK    2  A    between atoms: C4_4  and  C5_5 
REMARK    3  A    between atoms: C5_5  and  C6_6 
REMARK    4  A    between atoms: C5_5  and  C13_18 
REMARK    5  A    between atoms: C6_6  and  N1_7 
REMARK       I    between atoms: N1_7  and  C7_9 
REMARK    6  A    between atoms: C7_9  and  C8_11 
REMARK    7  A    between atoms: C13_18  and  C14_19 
REMARK    8  A    between atoms: C19_24  and  C20_25 
ROOT
HETATM    1  C5  UNL     1      -9.132  44.851   0.263  1.00  0.00     0.008 C 
ENDROOT
BRANCH   1   2
HETATM    2  C4  UNL     1      -8.232  44.174   1.295  1.00  0.00     0.010 C 
BRANCH   2   3
HETATM    3  C2  UNL     1      -7.192  43.286   0.734  1.00  0.00    -0.022 C 
HETATM    4  C1  UNL     1      -7.863  41.943   0.402  1.00  0.00     0.009 C 
HETATM    5  C3  UNL     1      -6.122  42.915   1.759  1.00  0.00     0.009 C 
ENDBRANCH   2   3
ENDBRANCH   1   2
BRANCH   1   6
HETATM    6  C6  UNL     1      -8.772  46.310   0.385  1.00  0.00     0.128 C 
BRANCH   6   7
HETATM    7  N1  UNL     1      -9.680  47.108   1.157  1.00  0.00    -0.356 N 
HETATM    8  C7  UNL     1      -9.254  47.611   2.393  1.00  0.00     0.251 C 
HETATM    9  O1  UNL     1      -8.075  47.354   2.806  1.00  0.00    -0.268 OA
ATOM     10  H1  UNL     1     -10.620  47.305   0.813  1.00  0.00     0.162 HD
BRANCH   8  11
HETATM   11  C8  UNL     1     -10.120  48.421   3.221  1.00  0.00     0.034 A 
HETATM   12  C9  UNL     1     -10.290  48.119   4.580  1.00  0.00     0.034 A 
HETATM   13  C10 UNL     1     -11.093  48.851   5.392  1.00  0.00     0.088 A 
HETATM   14  N2  UNL     1     -11.750  49.904   4.881  1.00  0.00    -0.375 N 
HETATM   15  C11 UNL     1     -11.628  50.250   3.573  1.00  0.00     0.088 A 
ATOM     16  H2  UNL     1     -12.354  50.457   5.488  1.00  0.00     0.164 HD
HETATM   17  C12 UNL     1     -10.807  49.498   2.754  1.00  0.00     0.034 A 
ENDBRANCH   8  11
ENDBRANCH   6   7
ENDBRANCH   1   6
BRANCH   1  18
HETATM   18  C13 UNL     1     -10.595  44.587   0.616  1.00  0.00     0.046 C 
BRANCH  18  19
HETATM   19  C14 UNL     1     -11.553  44.695  -0.480  1.00  0.00    -0.038 A 
HETATM   20  C15 UNL     1     -11.223  44.153  -1.712  1.00  0.00     0.011 A 
HETATM   21  C16 UNL     1     -12.135  44.075  -2.764  1.00  0.00     0.040 A 
HETATM   22  C17 UNL     1     -13.416  44.548  -2.598  1.00  0.00     0.106 A 
HETATM   23  C18 UNL     1     -13.747  45.088  -1.391  1.00  0.00     0.122 A 
HETATM   24  O5  UNL     1     -14.521  44.600  -3.450  1.00  0.00    -0.323 OA
HETATM   25  C19 UNL     1     -12.852  45.183  -0.312  1.00  0.00     0.083 A 
HETATM   26  O4  UNL     1     -15.069  45.482  -1.479  1.00  0.00    -0.322 OA
HETATM   27  C21 UNL     1     -15.501  45.437  -2.827  1.00  0.00     0.352 C 
BRANCH  25  28
HETATM   28  C20 UNL     1     -13.269  45.958   0.844  1.00  0.00     0.212 C 
HETATM   29  O2  UNL     1     -12.817  47.042   1.244  1.00  0.00    -0.644 OA
HETATM   30  O3  UNL     1     -14.312  45.466   1.647  1.00  0.00    -0.644 OA
ENDBRANCH  25  28
ENDBRANCH  18  19
ENDBRANCH   1  18
TORSDOF 8
ENDMDL
