MODEL 8
REMARK VINA RESULT: -7.904037738      2.676      4.382
REMARK  8 active torsions:
REMARK  status: ('A' for Active; 'I' for Inactive)
REMARK    1  A    between atoms: C2_2  and  C4_4 
REMARK    2  A    between atoms: C4_4  and  C5_5 
REMARK    3  A    between atoms: C5_5  and  C6_6 
REMARK    4  A    between atoms: C5_5  and  C13_18 
REMARK    5  A    between atoms: C6_6  and  N1_7 
REMARK       I    between atoms: N1_7  and  C7_9 
REMARK    6  A    between atoms: C7_9  and  C8_11 
REMARK    7  A    between atoms: C13_18  and  C14_19 
REMARK    8  A    between atoms: C19_24  and  C20_25 
ROOT
HETATM    1  C5  UNL     1      -9.458  44.670   0.033  1.00  0.00     0.008 C 
ENDROOT
BRANCH   1   2
HETATM    2  C4  UNL     1      -8.787  43.729   1.032  1.00  0.00     0.010 C 
BRANCH   2   3
HETATM    3  C2  UNL     1      -7.513  43.135   0.576  1.00  0.00    -0.022 C 
HETATM    4  C1  UNL     1      -7.760  41.633   0.351  1.00  0.00     0.009 C 
HETATM    5  C3  UNL     1      -6.431  43.167   1.654  1.00  0.00     0.009 C 
ENDBRANCH   2   3
ENDBRANCH   1   2
BRANCH   1   6
HETATM    6  C6  UNL     1      -8.706  45.965   0.209  1.00  0.00     0.128 C 
BRANCH   6   7
HETATM    7  N1  UNL     1      -9.409  46.997   0.915  1.00  0.00    -0.356 N 
HETATM    8  C7  UNL     1      -9.835  48.128   0.208  1.00  0.00     0.251 C 
HETATM    9  O1  UNL     1      -9.593  48.221  -1.040  1.00  0.00    -0.268 OA
ATOM     10  H1  UNL     1      -9.596  46.908   1.913  1.00  0.00     0.162 HD
BRANCH   8  11
HETATM   11  C8  UNL     1     -10.549  49.205   0.860  1.00  0.00     0.034 A 
HETATM   12  C9  UNL     1     -10.892  50.363   0.147  1.00  0.00     0.034 A 
HETATM   13  C10 UNL     1     -11.559  51.397   0.719  1.00  0.00     0.088 A 
HETATM   14  N2  UNL     1     -11.906  51.312   2.013  1.00  0.00    -0.375 N 
HETATM   15  C11 UNL     1     -11.603  50.217   2.759  1.00  0.00     0.088 A 
ATOM     16  H2  UNL     1     -12.408  52.086   2.447  1.00  0.00     0.164 HD
HETATM   17  C12 UNL     1     -10.924  49.170   2.167  1.00  0.00     0.034 A 
ENDBRANCH   8  11
ENDBRANCH   6   7
ENDBRANCH   1   6
BRANCH   1  18
HETATM   18  C13 UNL     1     -10.938  44.811   0.386  1.00  0.00     0.046 C 
BRANCH  18  19
HETATM   19  C14 UNL     1     -11.865  44.886  -0.740  1.00  0.00    -0.038 A 
HETATM   20  C15 UNL     1     -11.471  44.373  -1.966  1.00  0.00     0.011 A 
HETATM   21  C16 UNL     1     -12.345  44.265  -3.047  1.00  0.00     0.040 A 
HETATM   22  C17 UNL     1     -13.651  44.674  -2.918  1.00  0.00     0.106 A 
HETATM   23  C18 UNL     1     -14.046  45.185  -1.716  1.00  0.00     0.122 A 
HETATM   24  O5  UNL     1     -14.731  44.684  -3.804  1.00  0.00    -0.323 OA
HETATM   25  C19 UNL     1     -13.191  45.311  -0.609  1.00  0.00     0.083 A 
HETATM   26  O4  UNL     1     -15.381  45.518  -1.844  1.00  0.00    -0.322 OA
HETATM   27  C21 UNL     1     -15.768  45.467  -3.205  1.00  0.00     0.352 C 
BRANCH  25  28
HETATM   28  C20 UNL     1     -13.681  46.053   0.540  1.00  0.00     0.212 C 
HETATM   29  O2  UNL     1     -14.197  45.607   1.576  1.00  0.00    -0.644 OA
HETATM   30  O3  UNL     1     -13.584  47.455   0.531  1.00  0.00    -0.644 OA
ENDBRANCH  25  28
ENDBRANCH  18  19
ENDBRANCH   1  18
TORSDOF 8
ENDMDL
