MODEL 4
REMARK VINA RESULT: -8.073955333      2.172      2.638
REMARK  8 active torsions:
REMARK  status: ('A' for Active; 'I' for Inactive)
REMARK    1  A    between atoms: C2_2  and  C4_4 
REMARK    2  A    between atoms: C4_4  and  C5_5 
REMARK    3  A    between atoms: C5_5  and  C6_6 
REMARK    4  A    between atoms: C5_5  and  C13_18 
REMARK    5  A    between atoms: C6_6  and  N1_7 
REMARK       I    between atoms: N1_7  and  C7_9 
REMARK    6  A    between atoms: C7_9  and  C8_11 
REMARK    7  A    between atoms: C13_18  and  C14_19 
REMARK    8  A    between atoms: C19_24  and  C20_25 
ROOT
HETATM    1  C5  UNL     1      -9.660  45.093   0.183  1.00  0.00     0.008 C 
ENDROOT
BRANCH   1   2
HETATM    2  C4  UNL     1      -9.255  43.841   0.957  1.00  0.00     0.010 C 
BRANCH   2   3
HETATM    3  C2  UNL     1      -8.741  42.730   0.129  1.00  0.00    -0.022 C 
HETATM    4  C1  UNL     1      -7.375  42.319   0.705  1.00  0.00     0.009 C 
HETATM    5  C3  UNL     1      -8.416  43.165  -1.299  1.00  0.00     0.009 C 
ENDBRANCH   2   3
ENDBRANCH   1   2
BRANCH   1   6
HETATM    6  C6  UNL     1      -8.764  46.165   0.750  1.00  0.00     0.128 C 
BRANCH   6   7
HETATM    7  N1  UNL     1      -8.869  46.373   2.165  1.00  0.00    -0.356 N 
HETATM    8  C7  UNL     1      -9.153  47.660   2.639  1.00  0.00     0.251 C 
HETATM    9  O1  UNL     1      -9.312  48.616   1.811  1.00  0.00    -0.268 OA
ATOM     10  H1  UNL     1      -8.740  45.597   2.815  1.00  0.00     0.162 HD
BRANCH   8  11
HETATM   11  C8  UNL     1      -9.272  47.938   4.054  1.00  0.00     0.034 A 
HETATM   12  C9  UNL     1     -10.526  48.206   4.622  1.00  0.00     0.034 A 
HETATM   13  C10 UNL     1     -10.683  48.473   5.943  1.00  0.00     0.088 A 
HETATM   14  N2  UNL     1      -9.602  48.482   6.738  1.00  0.00    -0.375 N 
HETATM   15  C11 UNL     1      -8.360  48.230   6.250  1.00  0.00     0.088 A 
ATOM     16  H2  UNL     1      -9.715  48.682   7.732  1.00  0.00     0.164 HD
HETATM   17  C12 UNL     1      -8.210  47.958   4.904  1.00  0.00     0.034 A 
ENDBRANCH   8  11
ENDBRANCH   6   7
ENDBRANCH   1   6
BRANCH   1  18
HETATM   18  C13 UNL     1     -11.139  45.388   0.433  1.00  0.00     0.046 C 
BRANCH  18  19
HETATM   19  C14 UNL     1     -12.022  45.286  -0.725  1.00  0.00    -0.038 A 
HETATM   20  C15 UNL     1     -11.529  44.729  -1.895  1.00  0.00     0.011 A 
HETATM   21  C16 UNL     1     -12.343  44.453  -2.992  1.00  0.00     0.040 A 
HETATM   22  C17 UNL     1     -13.688  44.734  -2.937  1.00  0.00     0.106 A 
HETATM   23  C18 UNL     1     -14.180  45.286  -1.792  1.00  0.00     0.122 A 
HETATM   24  O5  UNL     1     -14.726  44.568  -3.858  1.00  0.00    -0.323 OA
HETATM   25  C19 UNL     1     -13.388  45.579  -0.670  1.00  0.00     0.083 A 
HETATM   26  O4  UNL     1     -15.536  45.470  -1.988  1.00  0.00    -0.322 OA
HETATM   27  C21 UNL     1     -15.860  45.281  -3.354  1.00  0.00     0.352 C 
BRANCH  25  28
HETATM   28  C20 UNL     1     -13.996  46.347   0.403  1.00  0.00     0.212 C 
HETATM   29  O2  UNL     1     -14.125  47.578   0.487  1.00  0.00    -0.644 OA
HETATM   30  O3  UNL     1     -14.519  45.661   1.513  1.00  0.00    -0.644 OA
ENDBRANCH  25  28
ENDBRANCH  18  19
ENDBRANCH   1  18
TORSDOF 8
ENDMDL
