MODEL 10
REMARK VINA RESULT: -7.872714708      2.704      3.617
REMARK  8 active torsions:
REMARK  status: ('A' for Active; 'I' for Inactive)
REMARK    1  A    between atoms: C2_2  and  C4_4 
REMARK    2  A    between atoms: C4_4  and  C5_5 
REMARK    3  A    between atoms: C5_5  and  C6_6 
REMARK    4  A    between atoms: C5_5  and  C13_18 
REMARK    5  A    between atoms: C6_6  and  N1_7 
REMARK       I    between atoms: N1_7  and  C7_9 
REMARK    6  A    between atoms: C7_9  and  C8_11 
REMARK    7  A    between atoms: C13_18  and  C14_19 
REMARK    8  A    between atoms: C19_24  and  C20_25 
ROOT
HETATM    1  C5  UNL     1      -9.636  45.296  -0.174  1.00  0.00     0.008 C 
ENDROOT
BRANCH   1   2
HETATM    2  C4  UNL     1      -8.663  44.506   0.699  1.00  0.00     0.010 C 
BRANCH   2   3
HETATM    3  C2  UNL     1      -7.782  43.571  -0.032  1.00  0.00    -0.022 C 
HETATM    4  C1  UNL     1      -8.273  43.520  -1.489  1.00  0.00     0.009 C 
HETATM    5  C3  UNL     1      -7.930  42.129   0.451  1.00  0.00     0.009 C 
ENDBRANCH   2   3
ENDBRANCH   1   2
BRANCH   1   6
HETATM    6  C6  UNL     1      -9.281  46.733   0.113  1.00  0.00     0.128 C 
BRANCH   6   7
HETATM    7  N1  UNL     1     -10.109  47.393   1.081  1.00  0.00    -0.356 N 
HETATM    8  C7  UNL     1      -9.535  47.805   2.290  1.00  0.00     0.251 C 
HETATM    9  O1  UNL     1      -8.297  47.589   2.507  1.00  0.00    -0.268 OA
ATOM     10  H1  UNL     1     -11.097  47.559   0.891  1.00  0.00     0.162 HD
BRANCH   8  11
HETATM   11  C8  UNL     1     -10.313  48.475   3.308  1.00  0.00     0.034 A 
HETATM   12  C9  UNL     1     -11.133  49.563   2.976  1.00  0.00     0.034 A 
HETATM   13  C10 UNL     1     -11.878  50.221   3.899  1.00  0.00     0.088 A 
HETATM   14  N2  UNL     1     -11.831  49.819   5.179  1.00  0.00    -0.375 N 
HETATM   15  C11 UNL     1     -11.057  48.773   5.567  1.00  0.00     0.088 A 
ATOM     16  H2  UNL     1     -12.390  50.311   5.876  1.00  0.00     0.164 HD
HETATM   17  C12 UNL     1     -10.303  48.109   4.619  1.00  0.00     0.034 A 
ENDBRANCH   8  11
ENDBRANCH   6   7
ENDBRANCH   1   6
BRANCH   1  18
HETATM   18  C13 UNL     1     -11.070  44.964   0.239  1.00  0.00     0.046 C 
BRANCH  18  19
HETATM   19  C14 UNL     1     -12.063  44.951  -0.831  1.00  0.00    -0.038 A 
HETATM   20  C15 UNL     1     -11.805  44.209  -1.974  1.00  0.00     0.011 A 
HETATM   21  C16 UNL     1     -12.758  44.017  -2.972  1.00  0.00     0.040 A 
HETATM   22  C17 UNL     1     -14.009  44.573  -2.843  1.00  0.00     0.106 A 
HETATM   23  C18 UNL     1     -14.270  45.308  -1.725  1.00  0.00     0.122 A 
HETATM   24  O5  UNL     1     -15.143  44.549  -3.659  1.00  0.00    -0.323 OA
HETATM   25  C19 UNL     1     -13.331  45.524  -0.702  1.00  0.00     0.083 A 
HETATM   26  O4  UNL     1     -15.575  45.751  -1.834  1.00  0.00    -0.322 OA
HETATM   27  C21 UNL     1     -16.059  45.521  -3.144  1.00  0.00     0.352 C 
BRANCH  25  28
HETATM   28  C20 UNL     1     -13.669  46.487   0.332  1.00  0.00     0.212 C 
HETATM   29  O2  UNL     1     -14.417  46.331   1.310  1.00  0.00    -0.644 OA
HETATM   30  O3  UNL     1     -13.110  47.775   0.265  1.00  0.00    -0.644 OA
ENDBRANCH  25  28
ENDBRANCH  18  19
ENDBRANCH   1  18
TORSDOF 8
ENDMDL
