MODEL 9
REMARK VINA RESULT: -7.446478144      2.949      6.664
REMARK  8 active torsions:
REMARK  status: ('A' for Active; 'I' for Inactive)
REMARK    1  A    between atoms: C2_2  and  C4_4 
REMARK    2  A    between atoms: C4_4  and  C5_5 
REMARK    3  A    between atoms: C5_5  and  C6_6 
REMARK    4  A    between atoms: C5_5  and  C13_18 
REMARK    5  A    between atoms: C6_6  and  N1_7 
REMARK       I    between atoms: N1_7  and  C7_9 
REMARK    6  A    between atoms: C7_9  and  C8_11 
REMARK    7  A    between atoms: C13_18  and  C14_19 
REMARK    8  A    between atoms: C19_24  and  C20_25 
ROOT
HETATM    1  C5  UNL     1     -11.021  44.788  -2.277  1.00  0.00     0.008 C 
ENDROOT
BRANCH   1   2
HETATM    2  C4  UNL     1     -11.624  46.136  -2.507  1.00  0.00     0.010 C 
BRANCH   2   3
HETATM    3  C2  UNL     1     -12.023  46.887  -1.289  1.00  0.00    -0.022 C 
HETATM    4  C1  UNL     1     -11.473  48.284  -1.316  1.00  0.00     0.009 C 
HETATM    5  C3  UNL     1     -13.553  47.002  -1.320  1.00  0.00     0.009 C 
ENDBRANCH   2   3
ENDBRANCH   1   2
BRANCH   1   6
HETATM    6  C6  UNL     1     -11.618  43.799  -3.211  1.00  0.00     0.128 C 
BRANCH   6   7
HETATM    7  N1  UNL     1     -12.802  44.331  -3.905  1.00  0.00    -0.356 N 
HETATM    8  C7  UNL     1     -14.128  44.175  -3.433  1.00  0.00     0.253 C 
HETATM    9  O1  UNL     1     -14.347  43.567  -2.372  1.00  0.00    -0.268 OA
ATOM     10  H1  UNL     1     -12.660  44.841  -4.776  1.00  0.00     0.162 HD
BRANCH   8  11
HETATM   11  C8  UNL     1     -15.293  44.709  -4.150  1.00  0.00     0.047 A 
HETATM   12  C9  UNL     1     -15.517  44.534  -5.492  1.00  0.00     0.020 A 
HETATM   13  C10 UNL     1     -16.659  45.086  -6.098  1.00  0.00     0.018 A 
HETATM   14  C11 UNL     1     -17.557  45.802  -5.341  1.00  0.00     0.087 A 
HETATM   15  N2  UNL     1     -17.338  45.971  -4.033  1.00  0.00    -0.374 N 
HETATM   16  C12 UNL     1     -16.244  45.446  -3.443  1.00  0.00     0.104 A 
ATOM     17  H2  UNL     1     -18.006  46.503  -3.476  1.00  0.00     0.164 HD
ENDBRANCH   8  11
ENDBRANCH   6   7
ENDBRANCH   1   6
BRANCH   1  18
HETATM   18  C13 UNL     1     -10.899  44.380  -0.863  1.00  0.00     0.046 C 
BRANCH  18  19
HETATM   19  C14 UNL     1      -9.544  43.960  -0.438  1.00  0.00    -0.038 A 
HETATM   20  C15 UNL     1      -9.133  42.647  -0.783  1.00  0.00     0.011 A 
HETATM   21  C16 UNL     1      -7.928  42.159  -0.354  1.00  0.00     0.040 A 
HETATM   22  C17 UNL     1      -7.115  42.972   0.423  1.00  0.00     0.106 A 
HETATM   23  C18 UNL     1      -7.518  44.245   0.753  1.00  0.00     0.122 A 
HETATM   24  O5  UNL     1      -5.863  42.798   1.010  1.00  0.00    -0.323 OA
HETATM   25  C19 UNL     1      -8.752  44.767   0.323  1.00  0.00     0.083 A 
HETATM   26  O4  UNL     1      -6.520  44.837   1.533  1.00  0.00    -0.322 OA
HETATM   27  C21 UNL     1      -5.728  43.761   2.036  1.00  0.00     0.352 C 
BRANCH  25  28
HETATM   28  C20 UNL     1      -9.050  46.137   0.645  1.00  0.00     0.212 C 
HETATM   29  O2  UNL     1      -8.476  47.062  -0.043  1.00  0.00    -0.644 OA
HETATM   30  O3  UNL     1      -9.892  46.632   1.614  1.00  0.00    -0.644 OA
ENDBRANCH  25  28
ENDBRANCH  18  19
ENDBRANCH   1  18
TORSDOF 8
ENDMDL
