MODEL 18
REMARK VINA RESULT: -6.907798859      2.443      2.780
REMARK  8 active torsions:
REMARK  status: ('A' for Active; 'I' for Inactive)
REMARK    1  A    between atoms: C2_2  and  C4_4 
REMARK    2  A    between atoms: C4_4  and  C5_5 
REMARK    3  A    between atoms: C5_5  and  C6_6 
REMARK    4  A    between atoms: C5_5  and  C13_18 
REMARK    5  A    between atoms: C6_6  and  N1_7 
REMARK       I    between atoms: N1_7  and  C7_9 
REMARK    6  A    between atoms: C7_9  and  C8_11 
REMARK    7  A    between atoms: C13_18  and  C14_19 
REMARK    8  A    between atoms: C19_24  and  C20_25 
ROOT
HETATM    1  C5  UNL     1      -9.076  44.446  -0.456  1.00  0.00     0.008 C 
ENDROOT
BRANCH   1   2
HETATM    2  C4  UNL     1      -8.565  43.420   0.504  1.00  0.00     0.010 C 
BRANCH   2   3
HETATM    3  C2  UNL     1      -7.285  42.764   0.134  1.00  0.00    -0.022 C 
HETATM    4  C1  UNL     1      -6.318  42.791   1.282  1.00  0.00     0.009 C 
HETATM    5  C3  UNL     1      -7.608  41.291  -0.151  1.00  0.00     0.009 C 
ENDBRANCH   2   3
ENDBRANCH   1   2
BRANCH   1   6
HETATM    6  C6  UNL     1      -8.007  45.431  -0.763  1.00  0.00     0.128 C 
BRANCH   6   7
HETATM    7  N1  UNL     1      -8.243  46.731  -0.116  1.00  0.00    -0.356 N 
HETATM    8  C7  UNL     1      -7.748  47.075   1.165  1.00  0.00     0.253 C 
HETATM    9  O1  UNL     1      -7.064  46.263   1.811  1.00  0.00    -0.268 OA
ATOM     10  H1  UNL     1      -8.795  47.425  -0.619  1.00  0.00     0.162 HD
BRANCH   8  11
HETATM   11  C8  UNL     1      -8.006  48.378   1.792  1.00  0.00     0.047 A 
HETATM   12  C9  UNL     1      -7.935  49.578   1.130  1.00  0.00     0.020 A 
HETATM   13  C10 UNL     1      -8.194  50.779   1.812  1.00  0.00     0.018 A 
HETATM   14  C11 UNL     1      -8.521  50.752   3.147  1.00  0.00     0.087 A 
HETATM   15  N2  UNL     1      -8.590  49.583   3.791  1.00  0.00    -0.374 N 
HETATM   16  C12 UNL     1      -8.343  48.424   3.146  1.00  0.00     0.104 A 
ATOM     17  H2  UNL     1      -8.833  49.567   4.781  1.00  0.00     0.164 HD
ENDBRANCH   8  11
ENDBRANCH   6   7
ENDBRANCH   1   6
BRANCH   1  18
HETATM   18  C13 UNL     1     -10.415  44.991  -0.150  1.00  0.00     0.046 C 
BRANCH  18  19
HETATM   19  C14 UNL     1     -11.470  44.671  -1.139  1.00  0.00    -0.038 A 
HETATM   20  C15 UNL     1     -11.079  43.951  -2.297  1.00  0.00     0.011 A 
HETATM   21  C16 UNL     1     -11.981  43.692  -3.294  1.00  0.00     0.040 A 
HETATM   22  C17 UNL     1     -13.285  44.145  -3.151  1.00  0.00     0.106 A 
HETATM   23  C18 UNL     1     -13.658  44.842  -2.025  1.00  0.00     0.122 A 
HETATM   24  O5  UNL     1     -14.425  44.059  -3.949  1.00  0.00    -0.323 OA
HETATM   25  C19 UNL     1     -12.749  45.119  -0.988  1.00  0.00     0.083 A 
HETATM   26  O4  UNL     1     -15.012  45.175  -2.140  1.00  0.00    -0.322 OA
HETATM   27  C21 UNL     1     -15.325  45.064  -3.529  1.00  0.00     0.352 C 
BRANCH  25  28
HETATM   28  C20 UNL     1     -13.252  45.778   0.187  1.00  0.00     0.212 C 
HETATM   29  O2  UNL     1     -13.082  47.051   0.290  1.00  0.00    -0.644 OA
HETATM   30  O3  UNL     1     -13.917  45.236   1.262  1.00  0.00    -0.644 OA
ENDBRANCH  25  28
ENDBRANCH  18  19
ENDBRANCH   1  18
TORSDOF 8
ENDMDL
