MODEL 4
REMARK VINA RESULT: -7.552580518      2.301      2.853
REMARK  8 active torsions:
REMARK  status: ('A' for Active; 'I' for Inactive)
REMARK    1  A    between atoms: C2_2  and  C4_4 
REMARK    2  A    between atoms: C4_4  and  C5_5 
REMARK    3  A    between atoms: C5_5  and  C6_6 
REMARK    4  A    between atoms: C5_5  and  C13_18 
REMARK    5  A    between atoms: C6_6  and  N1_7 
REMARK       I    between atoms: N1_7  and  C7_9 
REMARK    6  A    between atoms: C7_9  and  C8_11 
REMARK    7  A    between atoms: C13_18  and  C14_19 
REMARK    8  A    between atoms: C19_24  and  C20_25 
ROOT
HETATM    1  C5  UNL     1      -8.817  45.035  -0.367  1.00  0.00     0.008 C 
ENDROOT
BRANCH   1   2
HETATM    2  C4  UNL     1      -7.600  44.369   0.191  1.00  0.00     0.010 C 
BRANCH   2   3
HETATM    3  C2  UNL     1      -7.811  43.028   0.794  1.00  0.00    -0.022 C 
HETATM    4  C1  UNL     1      -7.658  41.947  -0.237  1.00  0.00     0.009 C 
HETATM    5  C3  UNL     1      -6.695  42.826   1.829  1.00  0.00     0.009 C 
ENDBRANCH   2   3
ENDBRANCH   1   2
BRANCH   1   6
HETATM    6  C6  UNL     1      -8.605  46.504  -0.435  1.00  0.00     0.128 C 
BRANCH   6   7
HETATM    7  N1  UNL     1      -9.443  47.233   0.530  1.00  0.00    -0.356 N 
HETATM    8  C7  UNL     1      -8.996  47.643   1.809  1.00  0.00     0.253 C 
HETATM    9  O1  UNL     1      -7.834  47.397   2.175  1.00  0.00    -0.268 OA
ATOM     10  H1  UNL     1     -10.401  47.458   0.261  1.00  0.00     0.162 HD
BRANCH   8  11
HETATM   11  C8  UNL     1      -9.856  48.363   2.757  1.00  0.00     0.047 A 
HETATM   12  C9  UNL     1     -10.103  47.947   4.041  1.00  0.00     0.020 A 
HETATM   13  C10 UNL     1     -10.945  48.699   4.879  1.00  0.00     0.018 A 
HETATM   14  C11 UNL     1     -11.523  49.855   4.411  1.00  0.00     0.087 A 
HETATM   15  N2  UNL     1     -11.282  50.259   3.160  1.00  0.00    -0.374 N 
HETATM   16  C12 UNL     1     -10.475  49.545   2.347  1.00  0.00     0.104 A 
ATOM     17  H2  UNL     1     -11.712  51.118   2.816  1.00  0.00     0.164 HD
ENDBRANCH   8  11
ENDBRANCH   6   7
ENDBRANCH   1   6
BRANCH   1  18
HETATM   18  C13 UNL     1     -10.105  44.572   0.190  1.00  0.00     0.046 C 
BRANCH  18  19
HETATM   19  C14 UNL     1     -11.181  44.350  -0.803  1.00  0.00    -0.038 A 
HETATM   20  C15 UNL     1     -10.867  43.559  -1.938  1.00  0.00     0.011 A 
HETATM   21  C16 UNL     1     -11.784  43.379  -2.938  1.00  0.00     0.040 A 
HETATM   22  C17 UNL     1     -13.027  43.985  -2.822  1.00  0.00     0.106 A 
HETATM   23  C18 UNL     1     -13.327  44.750  -1.720  1.00  0.00     0.122 A 
HETATM   24  O5  UNL     1     -14.162  44.010  -3.631  1.00  0.00    -0.323 OA
HETATM   25  C19 UNL     1     -12.400  44.948  -0.679  1.00  0.00     0.083 A 
HETATM   26  O4  UNL     1     -14.632  45.235  -1.859  1.00  0.00    -0.322 OA
HETATM   27  C21 UNL     1     -14.942  45.123  -3.247  1.00  0.00     0.352 C 
BRANCH  25  28
HETATM   28  C20 UNL     1     -12.833  45.692   0.473  1.00  0.00     0.212 C 
HETATM   29  O2  UNL     1     -13.749  45.179   1.219  1.00  0.00    -0.644 OA
HETATM   30  O3  UNL     1     -12.400  46.918   0.920  1.00  0.00    -0.644 OA
ENDBRANCH  25  28
ENDBRANCH  18  19
ENDBRANCH   1  18
TORSDOF 8
ENDMDL
