MODEL 14
REMARK VINA RESULT: -7.117926397      2.802      5.533
REMARK  8 active torsions:
REMARK  status: ('A' for Active; 'I' for Inactive)
REMARK    1  A    between atoms: C2_2  and  C4_4 
REMARK    2  A    between atoms: C4_4  and  C5_5 
REMARK    3  A    between atoms: C5_5  and  C6_6 
REMARK    4  A    between atoms: C5_5  and  C13_18 
REMARK    5  A    between atoms: C6_6  and  N1_7 
REMARK       I    between atoms: N1_7  and  C7_9 
REMARK    6  A    between atoms: C7_9  and  C8_11 
REMARK    7  A    between atoms: C13_18  and  C14_19 
REMARK    8  A    between atoms: C19_24  and  C20_25 
ROOT
HETATM    1  C5  UNL     1      -9.011  44.402  -0.461  1.00  0.00     0.008 C 
ENDROOT
BRANCH   1   2
HETATM    2  C4  UNL     1      -7.637  43.821  -0.383  1.00  0.00     0.010 C 
BRANCH   2   3
HETATM    3  C2  UNL     1      -7.433  42.771   0.648  1.00  0.00    -0.022 C 
HETATM    4  C1  UNL     1      -7.461  41.402   0.032  1.00  0.00     0.009 C 
HETATM    5  C3  UNL     1      -6.024  42.980   1.221  1.00  0.00     0.009 C 
ENDBRANCH   2   3
ENDBRANCH   1   2
BRANCH   1   6
HETATM    6  C6  UNL     1      -9.842  43.617  -1.410  1.00  0.00     0.128 C 
BRANCH   6   7
HETATM    7  N1  UNL     1     -11.188  44.187  -1.577  1.00  0.00    -0.356 N 
HETATM    8  C7  UNL     1     -12.018  43.935  -2.696  1.00  0.00     0.253 C 
HETATM    9  O1  UNL     1     -11.626  43.188  -3.610  1.00  0.00    -0.268 OA
ATOM     10  H1  UNL     1     -11.545  44.799  -0.844  1.00  0.00     0.162 HD
BRANCH   8  11
HETATM   11  C8  UNL     1     -13.355  44.524  -2.841  1.00  0.00     0.047 A 
HETATM   12  C9  UNL     1     -14.382  43.939  -3.538  1.00  0.00     0.020 A 
HETATM   13  C10 UNL     1     -15.631  44.578  -3.630  1.00  0.00     0.018 A 
HETATM   14  C11 UNL     1     -15.824  45.794  -3.017  1.00  0.00     0.087 A 
HETATM   15  N2  UNL     1     -14.823  46.363  -2.338  1.00  0.00    -0.374 N 
HETATM   16  C12 UNL     1     -13.620  45.758  -2.245  1.00  0.00     0.104 A 
ATOM     17  H2  UNL     1     -14.971  47.264  -1.885  1.00  0.00     0.164 HD
ENDBRANCH   8  11
ENDBRANCH   6   7
ENDBRANCH   1   6
BRANCH   1  18
HETATM   18  C13 UNL     1      -9.072  45.874  -0.582  1.00  0.00     0.046 C 
BRANCH  18  19
HETATM   19  C14 UNL     1      -9.025  46.617   0.698  1.00  0.00    -0.038 A 
HETATM   20  C15 UNL     1      -7.745  46.935   1.219  1.00  0.00     0.011 A 
HETATM   21  C16 UNL     1      -7.621  47.547   2.438  1.00  0.00     0.040 A 
HETATM   22  C17 UNL     1      -8.770  47.852   3.154  1.00  0.00     0.106 A 
HETATM   23  C18 UNL     1     -10.009  47.541   2.643  1.00  0.00     0.122 A 
HETATM   24  O5  UNL     1      -9.001  48.455   4.389  1.00  0.00    -0.323 OA
HETATM   25  C19 UNL     1     -10.161  46.913   1.393  1.00  0.00     0.083 A 
HETATM   26  O4  UNL     1     -10.982  47.954   3.560  1.00  0.00    -0.322 OA
HETATM   27  C21 UNL     1     -10.303  48.102   4.807  1.00  0.00     0.352 C 
BRANCH  25  28
HETATM   28  C20 UNL     1     -11.497  46.706   0.903  1.00  0.00     0.212 C 
HETATM   29  O2  UNL     1     -12.054  47.656   0.235  1.00  0.00    -0.644 OA
HETATM   30  O3  UNL     1     -12.305  45.602   1.043  1.00  0.00    -0.644 OA
ENDBRANCH  25  28
ENDBRANCH  18  19
ENDBRANCH   1  18
TORSDOF 8
ENDMDL
