MODEL 6
REMARK VINA RESULT: -7.499187940      1.432      1.953
REMARK  8 active torsions:
REMARK  status: ('A' for Active; 'I' for Inactive)
REMARK    1  A    between atoms: C2_2  and  C4_4 
REMARK    2  A    between atoms: C4_4  and  C5_5 
REMARK    3  A    between atoms: C5_5  and  C6_6 
REMARK    4  A    between atoms: C5_5  and  C13_18 
REMARK    5  A    between atoms: C6_6  and  N1_7 
REMARK       I    between atoms: N1_7  and  C7_9 
REMARK    6  A    between atoms: C7_9  and  C8_11 
REMARK    7  A    between atoms: C13_18  and  C14_19 
REMARK    8  A    between atoms: C19_24  and  C20_25 
ROOT
HETATM    1  C5  UNL     1      -8.668  44.871  -0.820  1.00  0.00     0.008 C 
ENDROOT
BRANCH   1   2
HETATM    2  C4  UNL     1      -7.561  43.882  -0.644  1.00  0.00     0.010 C 
BRANCH   2   3
HETATM    3  C2  UNL     1      -7.761  42.864   0.419  1.00  0.00    -0.022 C 
HETATM    4  C1  UNL     1      -7.797  41.481  -0.162  1.00  0.00     0.009 C 
HETATM    5  C3  UNL     1      -6.533  42.937   1.338  1.00  0.00     0.009 C 
ENDBRANCH   2   3
ENDBRANCH   1   2
BRANCH   1   6
HETATM    6  C6  UNL     1      -8.152  46.250  -0.625  1.00  0.00     0.128 C 
BRANCH   6   7
HETATM    7  N1  UNL     1      -8.982  47.030   0.307  1.00  0.00    -0.356 N 
HETATM    8  C7  UNL     1      -9.135  48.436   0.239  1.00  0.00     0.253 C 
HETATM    9  O1  UNL     1      -8.558  49.086  -0.649  1.00  0.00    -0.268 OA
ATOM     10  H1  UNL     1      -9.476  46.529   1.045  1.00  0.00     0.162 HD
BRANCH   8  11
HETATM   11  C8  UNL     1      -9.963  49.191   1.188  1.00  0.00     0.047 A 
HETATM   12  C9  UNL     1      -9.893  49.050   2.551  1.00  0.00     0.020 A 
HETATM   13  C10 UNL     1     -10.729  49.813   3.385  1.00  0.00     0.018 A 
HETATM   14  C11 UNL     1     -11.620  50.703   2.832  1.00  0.00     0.087 A 
HETATM   15  N2  UNL     1     -11.688  50.839   1.505  1.00  0.00    -0.374 N 
HETATM   16  C12 UNL     1     -10.889  50.112   0.695  1.00  0.00     0.104 A 
ATOM     17  H2  UNL     1     -12.349  51.501   1.099  1.00  0.00     0.164 HD
ENDBRANCH   8  11
ENDBRANCH   6   7
ENDBRANCH   1   6
BRANCH   1  18
HETATM   18  C13 UNL     1      -9.936  44.532  -0.142  1.00  0.00     0.046 C 
BRANCH  18  19
HETATM   19  C14 UNL     1     -11.106  44.361  -1.034  1.00  0.00    -0.038 A 
HETATM   20  C15 UNL     1     -10.900  43.661  -2.250  1.00  0.00     0.011 A 
HETATM   21  C16 UNL     1     -11.912  43.536  -3.163  1.00  0.00     0.040 A 
HETATM   22  C17 UNL     1     -13.145  44.105  -2.877  1.00  0.00     0.106 A 
HETATM   23  C18 UNL     1     -13.339  44.782  -1.696  1.00  0.00     0.122 A 
HETATM   24  O5  UNL     1     -14.357  44.166  -3.562  1.00  0.00    -0.323 OA
HETATM   25  C19 UNL     1     -12.313  44.923  -0.743  1.00  0.00     0.083 A 
HETATM   26  O4  UNL     1     -14.658  45.249  -1.665  1.00  0.00    -0.322 OA
HETATM   27  C21 UNL     1     -15.108  45.233  -3.019  1.00  0.00     0.352 C 
BRANCH  25  28
HETATM   28  C20 UNL     1     -12.635  45.573   0.499  1.00  0.00     0.212 C 
HETATM   29  O2  UNL     1     -13.628  45.119   1.183  1.00  0.00    -0.644 OA
HETATM   30  O3  UNL     1     -12.018  46.648   1.095  1.00  0.00    -0.644 OA
ENDBRANCH  25  28
ENDBRANCH  18  19
ENDBRANCH   1  18
TORSDOF 8
ENDMDL
