MODEL 3
REMARK VINA RESULT: -7.645328694      2.721      3.305
REMARK  8 active torsions:
REMARK  status: ('A' for Active; 'I' for Inactive)
REMARK    1  A    between atoms: C2_2  and  C4_4 
REMARK    2  A    between atoms: C4_4  and  C5_5 
REMARK    3  A    between atoms: C5_5  and  C6_6 
REMARK    4  A    between atoms: C5_5  and  C13_18 
REMARK    5  A    between atoms: C6_6  and  N1_7 
REMARK       I    between atoms: N1_7  and  C7_9 
REMARK    6  A    between atoms: C7_9  and  C8_11 
REMARK    7  A    between atoms: C13_18  and  C14_19 
REMARK    8  A    between atoms: C19_24  and  C20_25 
ROOT
HETATM    1  C5  UNL     1      -8.817  45.116  -0.260  1.00  0.00     0.008 C 
ENDROOT
BRANCH   1   2
HETATM    2  C4  UNL     1      -7.576  44.395   0.160  1.00  0.00     0.010 C 
BRANCH   2   3
HETATM    3  C2  UNL     1      -7.780  43.076   0.812  1.00  0.00    -0.022 C 
HETATM    4  C1  UNL     1      -7.611  41.958  -0.176  1.00  0.00     0.009 C 
HETATM    5  C3  UNL     1      -6.670  42.923   1.861  1.00  0.00     0.009 C 
ENDBRANCH   2   3
ENDBRANCH   1   2
BRANCH   1   6
HETATM    6  C6  UNL     1      -8.620  46.583  -0.128  1.00  0.00     0.128 C 
BRANCH   6   7
HETATM    7  N1  UNL     1      -9.332  47.138   1.034  1.00  0.00    -0.356 N 
HETATM    8  C7  UNL     1      -8.699  47.504   2.246  1.00  0.00     0.253 C 
HETATM    9  O1  UNL     1      -7.470  47.371   2.375  1.00  0.00    -0.268 OA
ATOM     10  H1  UNL     1     -10.342  47.268   0.963  1.00  0.00     0.162 HD
BRANCH   8  11
HETATM   11  C8  UNL     1      -9.435  48.049   3.394  1.00  0.00     0.047 A 
HETATM   12  C9  UNL     1     -10.640  48.699   3.297  1.00  0.00     0.020 A 
HETATM   13  C10 UNL     1     -11.273  49.192   4.451  1.00  0.00     0.018 A 
HETATM   14  C11 UNL     1     -10.683  49.022   5.682  1.00  0.00     0.087 A 
HETATM   15  N2  UNL     1      -9.510  48.388   5.775  1.00  0.00    -0.374 N 
HETATM   16  C12 UNL     1      -8.894  47.911   4.673  1.00  0.00     0.104 A 
ATOM     17  H2  UNL     1      -9.076  48.264   6.689  1.00  0.00     0.164 HD
ENDBRANCH   8  11
ENDBRANCH   6   7
ENDBRANCH   1   6
BRANCH   1  18
HETATM   18  C13 UNL     1     -10.082  44.563   0.266  1.00  0.00     0.046 C 
BRANCH  18  19
HETATM   19  C14 UNL     1     -11.145  44.343  -0.742  1.00  0.00    -0.038 A 
HETATM   20  C15 UNL     1     -10.817  43.548  -1.869  1.00  0.00     0.011 A 
HETATM   21  C16 UNL     1     -11.721  43.369  -2.883  1.00  0.00     0.040 A 
HETATM   22  C17 UNL     1     -12.963  43.981  -2.786  1.00  0.00     0.106 A 
HETATM   23  C18 UNL     1     -13.275  44.750  -1.690  1.00  0.00     0.122 A 
HETATM   24  O5  UNL     1     -14.086  44.009  -3.612  1.00  0.00    -0.323 OA
HETATM   25  C19 UNL     1     -12.362  44.947  -0.637  1.00  0.00     0.083 A 
HETATM   26  O4  UNL     1     -14.576  45.241  -1.849  1.00  0.00    -0.322 OA
HETATM   27  C21 UNL     1     -14.867  45.127  -3.242  1.00  0.00     0.352 C 
BRANCH  25  28
HETATM   28  C20 UNL     1     -12.809  45.697   0.507  1.00  0.00     0.212 C 
HETATM   29  O2  UNL     1     -13.749  45.197   1.232  1.00  0.00    -0.644 OA
HETATM   30  O3  UNL     1     -12.365  46.915   0.966  1.00  0.00    -0.644 OA
ENDBRANCH  25  28
ENDBRANCH  18  19
ENDBRANCH   1  18
TORSDOF 8
ENDMDL
