MODEL 13
REMARK VINA RESULT: -7.180446327      3.045      6.322
REMARK  8 active torsions:
REMARK  status: ('A' for Active; 'I' for Inactive)
REMARK    1  A    between atoms: C2_2  and  C4_4 
REMARK    2  A    between atoms: C4_4  and  C5_5 
REMARK    3  A    between atoms: C5_5  and  C6_6 
REMARK    4  A    between atoms: C5_5  and  C13_18 
REMARK    5  A    between atoms: C6_6  and  N1_7 
REMARK       I    between atoms: N1_7  and  C7_9 
REMARK    6  A    between atoms: C7_9  and  C8_11 
REMARK    7  A    between atoms: C13_18  and  C14_19 
REMARK    8  A    between atoms: C19_24  and  C20_25 
ROOT
HETATM    1  C5  UNL     1     -12.374  44.713  -2.178  1.00  0.00     0.008 C 
ENDROOT
BRANCH   1   2
HETATM    2  C4  UNL     1     -10.934  44.621  -2.567  1.00  0.00     0.010 C 
BRANCH   2   3
HETATM    3  C2  UNL     1     -10.042  43.931  -1.600  1.00  0.00    -0.022 C 
HETATM    4  C1  UNL     1      -9.082  43.022  -2.311  1.00  0.00     0.009 C 
HETATM    5  C3  UNL     1      -9.207  45.020  -0.911  1.00  0.00     0.009 C 
ENDBRANCH   2   3
ENDBRANCH   1   2
BRANCH   1   6
HETATM    6  C6  UNL     1     -13.152  43.645  -2.856  1.00  0.00     0.128 C 
BRANCH   6   7
HETATM    7  N1  UNL     1     -14.182  44.190  -3.755  1.00  0.00    -0.356 N 
HETATM    8  C7  UNL     1     -15.558  44.253  -3.431  1.00  0.00     0.253 C 
HETATM    9  O1  UNL     1     -15.961  43.841  -2.330  1.00  0.00    -0.268 OA
ATOM     10  H1  UNL     1     -13.886  44.544  -4.665  1.00  0.00     0.162 HD
BRANCH   8  11
HETATM   11  C8  UNL     1     -16.566  44.795  -4.351  1.00  0.00     0.047 A 
HETATM   12  C9  UNL     1     -17.484  45.756  -4.008  1.00  0.00     0.020 A 
HETATM   13  C10 UNL     1     -18.417  46.213  -4.954  1.00  0.00     0.018 A 
HETATM   14  C11 UNL     1     -18.410  45.697  -6.229  1.00  0.00     0.087 A 
HETATM   15  N2  UNL     1     -17.515  44.762  -6.563  1.00  0.00    -0.374 N 
HETATM   16  C12 UNL     1     -16.615  44.315  -5.661  1.00  0.00     0.104 A 
ATOM     17  H2  UNL     1     -17.513  44.382  -7.509  1.00  0.00     0.164 HD
ENDBRANCH   8  11
ENDBRANCH   6   7
ENDBRANCH   1   6
BRANCH   1  18
HETATM   18  C13 UNL     1     -12.951  46.073  -2.197  1.00  0.00     0.046 C 
BRANCH  18  19
HETATM   19  C14 UNL     1     -12.310  47.047  -1.283  1.00  0.00    -0.038 A 
HETATM   20  C15 UNL     1     -11.700  48.185  -1.870  1.00  0.00     0.011 A 
HETATM   21  C16 UNL     1     -11.016  49.085  -1.099  1.00  0.00     0.040 A 
HETATM   22  C17 UNL     1     -10.931  48.865   0.269  1.00  0.00     0.106 A 
HETATM   23  C18 UNL     1     -11.525  47.760   0.833  1.00  0.00     0.122 A 
HETATM   24  O5  UNL     1     -10.329  49.559   1.318  1.00  0.00    -0.323 OA
HETATM   25  C19 UNL     1     -12.233  46.822   0.059  1.00  0.00     0.083 A 
HETATM   26  O4  UNL     1     -11.286  47.784   2.211  1.00  0.00    -0.322 OA
HETATM   27  C21 UNL     1     -10.176  48.662   2.399  1.00  0.00     0.352 C 
BRANCH  25  28
HETATM   28  C20 UNL     1     -12.892  45.745   0.748  1.00  0.00     0.212 C 
HETATM   29  O2  UNL     1     -12.163  44.814   1.258  1.00  0.00    -0.644 OA
HETATM   30  O3  UNL     1     -14.238  45.551   0.957  1.00  0.00    -0.644 OA
ENDBRANCH  25  28
ENDBRANCH  18  19
ENDBRANCH   1  18
TORSDOF 8
ENDMDL
