MODEL 6
REMARK VINA RESULT: -8.424033963      1.731      2.399
REMARK  9 active torsions:
REMARK  status: ('A' for Active; 'I' for Inactive)
REMARK    1  A    between atoms: C2_2  and  C4_4 
REMARK    2  A    between atoms: C4_4  and  C5_5 
REMARK    3  A    between atoms: C5_5  and  C6_6 
REMARK    4  A    between atoms: C5_5  and  C17_22 
REMARK    5  A    between atoms: C6_6  and  N1_7 
REMARK       I    between atoms: N1_7  and  C7_9 
REMARK    6  A    between atoms: C7_9  and  C8_11 
REMARK    7  A    between atoms: C8_11  and  C9_12 
REMARK    8  A    between atoms: C17_22  and  C18_23 
REMARK    9  A    between atoms: C23_28  and  C24_29 
ROOT
HETATM    1  C5  UNL     1      -8.877  44.584  -0.205  1.00  0.00     0.008 C 
ENDROOT
BRANCH   1   2
HETATM    2  C4  UNL     1      -8.063  43.934   0.891  1.00  0.00     0.010 C 
BRANCH   2   3
HETATM    3  C2  UNL     1      -6.978  43.055   0.384  1.00  0.00    -0.022 C 
HETATM    4  C1  UNL     1      -7.579  41.709   0.007  1.00  0.00     0.009 C 
HETATM    5  C3  UNL     1      -5.814  42.821   1.270  1.00  0.00     0.009 C 
ENDBRANCH   2   3
ENDBRANCH   1   2
BRANCH   1   6
HETATM    6  C6  UNL     1      -8.454  46.023  -0.300  1.00  0.00     0.127 C 
BRANCH   6   7
HETATM    7  N1  UNL     1      -7.509  46.447   0.673  1.00  0.00    -0.360 N 
HETATM    8  C7  UNL     1      -6.433  47.301   0.286  1.00  0.00     0.221 C 
HETATM    9  O1  UNL     1      -6.406  47.628  -0.952  1.00  0.00    -0.273 OA
ATOM     10  H1  UNL     1      -7.599  46.143   1.643  1.00  0.00     0.162 HD
BRANCH   8  11
HETATM   11  C8  UNL     1      -5.426  47.782   1.214  1.00  0.00     0.143 C 
BRANCH  11  12
HETATM   12  C9  UNL     1      -4.608  46.724   1.823  1.00  0.00    -0.022 A 
HETATM   13  C10 UNL     1      -3.444  46.102   1.493  1.00  0.00     0.097 A 
HETATM   14  N2  UNL     1      -3.137  45.181   2.450  1.00  0.00    -0.365 N 
HETATM   15  C11 UNL     1      -4.072  45.191   3.385  1.00  0.00     0.042 A 
ATOM     16  H2  UNL     1      -2.314  44.578   2.445  1.00  0.00     0.165 HD
HETATM   17  C12 UNL     1      -4.170  44.422   4.547  1.00  0.00     0.030 A 
HETATM   18  C16 UNL     1      -4.988  46.117   3.042  1.00  0.00    -0.001 A 
HETATM   19  C13 UNL     1      -5.243  44.625   5.362  1.00  0.00     0.002 A 
HETATM   20  C14 UNL     1      -6.194  45.579   5.011  1.00  0.00     0.001 A 
HETATM   21  C15 UNL     1      -6.065  46.327   3.850  1.00  0.00     0.014 A 
ENDBRANCH  11  12
ENDBRANCH   8  11
ENDBRANCH   6   7
ENDBRANCH   1   6
BRANCH   1  22
HETATM   22  C17 UNL     1     -10.340  44.523   0.090  1.00  0.00     0.046 C 
BRANCH  22  23
HETATM   23  C18 UNL     1     -11.229  44.398  -1.061  1.00  0.00    -0.038 A 
HETATM   24  C19 UNL     1     -10.924  43.724  -2.214  1.00  0.00     0.011 A 
HETATM   25  C20 UNL     1     -11.855  43.686  -3.228  1.00  0.00     0.040 A 
HETATM   26  C21 UNL     1     -13.086  44.298  -3.132  1.00  0.00     0.106 A 
HETATM   27  C22 UNL     1     -13.407  44.981  -1.976  1.00  0.00     0.122 A 
HETATM   28  O5  UNL     1     -14.178  44.395  -4.006  1.00  0.00    -0.323 OA
HETATM   29  C23 UNL     1     -12.482  45.029  -0.953  1.00  0.00     0.083 A 
HETATM   30  O4  UNL     1     -14.691  45.491  -2.151  1.00  0.00    -0.322 OA
HETATM   31  C25 UNL     1     -15.279  44.615  -3.120  1.00  0.00     0.352 C 
BRANCH  29  32
HETATM   32  C24 UNL     1     -12.835  45.753   0.261  1.00  0.00     0.212 C 
HETATM   33  O2  UNL     1     -12.325  46.845   0.601  1.00  0.00    -0.644 OA
HETATM   34  O3  UNL     1     -13.799  45.201   1.090  1.00  0.00    -0.644 OA
ENDBRANCH  29  32
ENDBRANCH  22  23
ENDBRANCH   1  22
TORSDOF 9
ENDMDL
