MODEL 3
REMARK VINA RESULT: -8.511018262      3.669      5.102
REMARK  9 active torsions:
REMARK  status: ('A' for Active; 'I' for Inactive)
REMARK    1  A    between atoms: C2_2  and  C4_4 
REMARK    2  A    between atoms: C4_4  and  C5_5 
REMARK    3  A    between atoms: C5_5  and  C6_6 
REMARK    4  A    between atoms: C5_5  and  C17_22 
REMARK    5  A    between atoms: C6_6  and  N1_7 
REMARK       I    between atoms: N1_7  and  C7_9 
REMARK    6  A    between atoms: C7_9  and  C8_11 
REMARK    7  A    between atoms: C8_11  and  C9_12 
REMARK    8  A    between atoms: C17_22  and  C18_23 
REMARK    9  A    between atoms: C23_28  and  C24_29 
ROOT
HETATM    1  C5  UNL     1      -8.819  44.782   0.554  1.00  0.00     0.008 C 
ENDROOT
BRANCH   1   2
HETATM    2  C4  UNL     1      -8.082  43.700   1.310  1.00  0.00     0.010 C 
BRANCH   2   3
HETATM    3  C2  UNL     1      -6.992  43.063   0.527  1.00  0.00    -0.022 C 
HETATM    4  C1  UNL     1      -7.510  41.754  -0.050  1.00  0.00     0.009 C 
HETATM    5  C3  UNL     1      -5.711  42.799   1.222  1.00  0.00     0.009 C 
ENDBRANCH   2   3
ENDBRANCH   1   2
BRANCH   1   6
HETATM    6  C6  UNL     1      -8.430  46.106   1.151  1.00  0.00     0.127 C 
BRANCH   6   7
HETATM    7  N1  UNL     1      -9.512  46.942   1.540  1.00  0.00    -0.360 N 
HETATM    8  C7  UNL     1      -9.245  48.242   2.064  1.00  0.00     0.221 C 
HETATM    9  O1  UNL     1      -8.008  48.562   2.144  1.00  0.00    -0.273 OA
ATOM     10  H1  UNL     1     -10.474  46.614   1.444  1.00  0.00     0.162 HD
BRANCH   8  11
HETATM   11  C8  UNL     1     -10.289  49.160   2.482  1.00  0.00     0.143 C 
BRANCH  11  12
HETATM   12  C9  UNL     1     -10.754  48.960   3.862  1.00  0.00    -0.022 A 
HETATM   13  C10 UNL     1     -10.487  48.056   4.844  1.00  0.00     0.097 A 
HETATM   14  N2  UNL     1     -11.216  48.365   5.953  1.00  0.00    -0.365 N 
HETATM   15  C11 UNL     1     -11.947  49.442   5.712  1.00  0.00     0.042 A 
ATOM     16  H2  UNL     1     -11.200  47.848   6.831  1.00  0.00     0.165 HD
HETATM   17  C12 UNL     1     -12.838  50.112   6.554  1.00  0.00     0.030 A 
HETATM   18  C16 UNL     1     -11.696  49.836   4.449  1.00  0.00    -0.001 A 
HETATM   19  C13 UNL     1     -13.476  51.213   6.066  1.00  0.00     0.002 A 
HETATM   20  C14 UNL     1     -13.221  51.624   4.760  1.00  0.00     0.001 A 
HETATM   21  C15 UNL     1     -12.329  50.936   3.951  1.00  0.00     0.014 A 
ENDBRANCH  11  12
ENDBRANCH   8  11
ENDBRANCH   6   7
ENDBRANCH   1   6
BRANCH   1  22
HETATM   22  C17 UNL     1     -10.299  44.614   0.661  1.00  0.00     0.046 C 
BRANCH  22  23
HETATM   23  C18 UNL     1     -11.021  44.411  -0.592  1.00  0.00    -0.038 A 
HETATM   24  C19 UNL     1     -10.544  43.699  -1.660  1.00  0.00     0.011 A 
HETATM   25  C20 UNL     1     -11.328  43.587  -2.788  1.00  0.00     0.040 A 
HETATM   26  C21 UNL     1     -12.577  44.163  -2.886  1.00  0.00     0.106 A 
HETATM   27  C22 UNL     1     -13.068  44.884  -1.817  1.00  0.00     0.122 A 
HETATM   28  O5  UNL     1     -13.542  44.187  -3.902  1.00  0.00    -0.323 OA
HETATM   29  C23 UNL     1     -12.292  45.006  -0.682  1.00  0.00     0.083 A 
HETATM   30  O4  UNL     1     -14.330  45.344  -2.186  1.00  0.00    -0.322 OA
HETATM   31  C25 UNL     1     -14.759  44.410  -3.183  1.00  0.00     0.352 C 
BRANCH  29  32
HETATM   32  C24 UNL     1     -12.826  45.770   0.438  1.00  0.00     0.212 C 
HETATM   33  O2  UNL     1     -12.396  46.892   0.790  1.00  0.00    -0.644 OA
HETATM   34  O3  UNL     1     -13.875  45.221   1.157  1.00  0.00    -0.644 OA
ENDBRANCH  29  32
ENDBRANCH  22  23
ENDBRANCH   1  22
TORSDOF 9
ENDMDL
