MODEL 1
REMARK VINA RESULT: -8.587710109      0.000      0.000
REMARK  9 active torsions:
REMARK  status: ('A' for Active; 'I' for Inactive)
REMARK    1  A    between atoms: C2_2  and  C4_4 
REMARK    2  A    between atoms: C4_4  and  C5_5 
REMARK    3  A    between atoms: C5_5  and  C6_6 
REMARK    4  A    between atoms: C5_5  and  C17_22 
REMARK    5  A    between atoms: C6_6  and  N1_7 
REMARK       I    between atoms: N1_7  and  C7_9 
REMARK    6  A    between atoms: C7_9  and  C8_11 
REMARK    7  A    between atoms: C8_11  and  C9_12 
REMARK    8  A    between atoms: C17_22  and  C18_23 
REMARK    9  A    between atoms: C23_28  and  C24_29 
ROOT
HETATM    1  C5  UNL     1      -9.488  44.752  -0.100  1.00  0.00     0.008 C 
ENDROOT
BRANCH   1   2
HETATM    2  C4  UNL     1      -9.209  43.323   0.308  1.00  0.00     0.010 C 
BRANCH   2   3
HETATM    3  C2  UNL     1      -8.355  42.585  -0.657  1.00  0.00    -0.022 C 
HETATM    4  C1  UNL     1      -7.177  41.985   0.097  1.00  0.00     0.009 C 
HETATM    5  C3  UNL     1      -7.836  43.332  -1.826  1.00  0.00     0.009 C 
ENDBRANCH   2   3
ENDBRANCH   1   2
BRANCH   1   6
HETATM    6  C6  UNL     1      -8.737  45.653   0.841  1.00  0.00     0.127 C 
BRANCH   6   7
HETATM    7  N1  UNL     1      -8.044  44.995   1.894  1.00  0.00    -0.360 N 
HETATM    8  C7  UNL     1      -6.633  45.165   2.022  1.00  0.00     0.221 C 
HETATM    9  O1  UNL     1      -6.086  45.923   1.148  1.00  0.00    -0.273 OA
ATOM     10  H1  UNL     1      -8.553  44.406   2.553  1.00  0.00     0.162 HD
BRANCH   8  11
HETATM   11  C8  UNL     1      -5.849  44.532   3.067  1.00  0.00     0.143 C 
BRANCH  11  12
HETATM   12  C9  UNL     1      -5.905  45.217   4.366  1.00  0.00    -0.022 A 
HETATM   13  C10 UNL     1      -6.532  46.329   4.838  1.00  0.00     0.097 A 
HETATM   14  N2  UNL     1      -6.228  46.493   6.156  1.00  0.00    -0.365 N 
HETATM   15  C11 UNL     1      -5.421  45.520   6.546  1.00  0.00     0.042 A 
ATOM     16  H2  UNL     1      -6.570  47.249   6.750  1.00  0.00     0.165 HD
HETATM   17  C12 UNL     1      -4.859  45.286   7.803  1.00  0.00     0.030 A 
HETATM   18  C16 UNL     1      -5.199  44.720   5.485  1.00  0.00    -0.001 A 
HETATM   19  C13 UNL     1      -4.051  44.198   7.953  1.00  0.00     0.002 A 
HETATM   20  C14 UNL     1      -3.817  43.370   6.859  1.00  0.00     0.001 A 
HETATM   21  C15 UNL     1      -4.392  43.630   5.624  1.00  0.00     0.014 A 
ENDBRANCH  11  12
ENDBRANCH   8  11
ENDBRANCH   6   7
ENDBRANCH   1   6
BRANCH   1  22
HETATM   22  C17 UNL     1     -10.945  45.070  -0.021  1.00  0.00     0.046 C 
BRANCH  22  23
HETATM   23  C18 UNL     1     -11.742  44.760  -1.205  1.00  0.00    -0.038 A 
HETATM   24  C19 UNL     1     -11.306  44.008  -2.263  1.00  0.00     0.011 A 
HETATM   25  C20 UNL     1     -12.161  43.792  -3.322  1.00  0.00     0.040 A 
HETATM   26  C21 UNL     1     -13.441  44.303  -3.361  1.00  0.00     0.106 A 
HETATM   27  C22 UNL     1     -13.892  45.063  -2.302  1.00  0.00     0.122 A 
HETATM   28  O5  UNL     1     -14.475  44.222  -4.304  1.00  0.00    -0.323 OA
HETATM   29  C23 UNL     1     -13.045  45.288  -1.235  1.00  0.00     0.083 A 
HETATM   30  O4  UNL     1     -15.198  45.441  -2.603  1.00  0.00    -0.322 OA
HETATM   31  C25 UNL     1     -15.648  44.430  -3.512  1.00  0.00     0.352 C 
BRANCH  29  32
HETATM   32  C24 UNL     1     -13.537  46.092  -0.123  1.00  0.00     0.212 C 
HETATM   33  O2  UNL     1     -13.426  47.337  -0.055  1.00  0.00    -0.644 OA
HETATM   34  O3  UNL     1     -14.168  45.437   0.921  1.00  0.00    -0.644 OA
ENDBRANCH  29  32
ENDBRANCH  22  23
ENDBRANCH   1  22
TORSDOF 9
ENDMDL
