MODEL 16
REMARK VINA RESULT: -7.992412473      3.090      4.174
REMARK  9 active torsions:
REMARK  status: ('A' for Active; 'I' for Inactive)
REMARK    1  A    between atoms: C2_2  and  C4_4 
REMARK    2  A    between atoms: C4_4  and  C5_5 
REMARK    3  A    between atoms: C5_5  and  C6_6 
REMARK    4  A    between atoms: C5_5  and  C17_22 
REMARK    5  A    between atoms: C6_6  and  N1_7 
REMARK       I    between atoms: N1_7  and  C7_9 
REMARK    6  A    between atoms: C7_9  and  C8_11 
REMARK    7  A    between atoms: C8_11  and  C9_12 
REMARK    8  A    between atoms: C17_22  and  C18_23 
REMARK    9  A    between atoms: C23_28  and  C24_29 
ROOT
HETATM    1  C5  UNL     1      -8.975  44.738   0.375  1.00  0.00     0.008 C 
ENDROOT
BRANCH   1   2
HETATM    2  C4  UNL     1      -8.095  43.864   1.238  1.00  0.00     0.010 C 
BRANCH   2   3
HETATM    3  C2  UNL     1      -7.024  43.165   0.482  1.00  0.00    -0.022 C 
HETATM    4  C1  UNL     1      -7.600  41.885  -0.105  1.00  0.00     0.009 C 
HETATM    5  C3  UNL     1      -5.776  42.833   1.208  1.00  0.00     0.009 C 
ENDBRANCH   2   3
ENDBRANCH   1   2
BRANCH   1   6
HETATM    6  C6  UNL     1      -8.788  46.161   0.820  1.00  0.00     0.127 C 
BRANCH   6   7
HETATM    7  N1  UNL     1      -9.651  46.593   1.863  1.00  0.00    -0.360 N 
HETATM    8  C7  UNL     1      -9.429  47.858   2.484  1.00  0.00     0.221 C 
HETATM    9  O1  UNL     1      -8.433  48.527   2.034  1.00  0.00    -0.273 OA
ATOM     10  H1  UNL     1     -10.426  46.001   2.167  1.00  0.00     0.162 HD
BRANCH   8  11
HETATM   11  C8  UNL     1     -10.262  48.376   3.554  1.00  0.00     0.143 C 
BRANCH  11  12
HETATM   12  C9  UNL     1      -9.563  48.555   4.834  1.00  0.00    -0.022 A 
HETATM   13  C10 UNL     1      -8.498  47.961   5.437  1.00  0.00     0.097 A 
HETATM   14  N2  UNL     1      -8.277  48.549   6.646  1.00  0.00    -0.365 N 
HETATM   15  C11 UNL     1      -9.171  49.504   6.840  1.00  0.00     0.042 A 
ATOM     16  H2  UNL     1      -7.537  48.293   7.300  1.00  0.00     0.165 HD
HETATM   17  C12 UNL     1      -9.326  50.364   7.930  1.00  0.00     0.030 A 
HETATM   18  C16 UNL     1      -9.975  49.541   5.760  1.00  0.00    -0.001 A 
HETATM   19  C13 UNL     1     -10.338  51.277   7.889  1.00  0.00     0.002 A 
HETATM   20  C14 UNL     1     -11.172  51.318   6.775  1.00  0.00     0.001 A 
HETATM   21  C15 UNL     1     -10.990  50.450   5.709  1.00  0.00     0.014 A 
ENDBRANCH  11  12
ENDBRANCH   8  11
ENDBRANCH   6   7
ENDBRANCH   1   6
BRANCH   1  22
HETATM   22  C17 UNL     1     -10.416  44.369   0.510  1.00  0.00     0.046 C 
BRANCH  22  23
HETATM   23  C18 UNL     1     -11.177  44.261  -0.731  1.00  0.00    -0.038 A 
HETATM   24  C19 UNL     1     -10.778  43.552  -1.832  1.00  0.00     0.011 A 
HETATM   25  C20 UNL     1     -11.592  43.534  -2.943  1.00  0.00     0.040 A 
HETATM   26  C21 UNL     1     -12.797  44.202  -2.994  1.00  0.00     0.106 A 
HETATM   27  C22 UNL     1     -13.211  44.920  -1.891  1.00  0.00     0.122 A 
HETATM   28  O5  UNL     1     -13.779  44.329  -3.985  1.00  0.00    -0.323 OA
HETATM   29  C23 UNL     1     -12.404  44.948  -0.772  1.00  0.00     0.083 A 
HETATM   30  O4  UNL     1     -14.444  45.482  -2.215  1.00  0.00    -0.322 OA
HETATM   31  C25 UNL     1     -14.961  44.615  -3.231  1.00  0.00     0.352 C 
BRANCH  29  32
HETATM   32  C24 UNL     1     -12.856  45.711   0.385  1.00  0.00     0.212 C 
HETATM   33  O2  UNL     1     -12.355  46.799   0.746  1.00  0.00    -0.644 OA
HETATM   34  O3  UNL     1     -13.908  45.200   1.128  1.00  0.00    -0.644 OA
ENDBRANCH  29  32
ENDBRANCH  22  23
ENDBRANCH   1  22
TORSDOF 9
ENDMDL
