MODEL 7
REMARK VINA RESULT: -8.417056537      3.251      4.940
REMARK  9 active torsions:
REMARK  status: ('A' for Active; 'I' for Inactive)
REMARK    1  A    between atoms: C2_2  and  C4_4 
REMARK    2  A    between atoms: C4_4  and  C5_5 
REMARK    3  A    between atoms: C5_5  and  C6_6 
REMARK    4  A    between atoms: C5_5  and  C17_22 
REMARK    5  A    between atoms: C6_6  and  N1_7 
REMARK       I    between atoms: N1_7  and  C7_9 
REMARK    6  A    between atoms: C7_9  and  C8_11 
REMARK    7  A    between atoms: C8_11  and  C9_12 
REMARK    8  A    between atoms: C17_22  and  C18_23 
REMARK    9  A    between atoms: C23_28  and  C24_29 
ROOT
HETATM    1  C5  UNL     1      -8.892  44.499  -0.286  1.00  0.00     0.008 C 
ENDROOT
BRANCH   1   2
HETATM    2  C4  UNL     1      -8.066  44.003   0.879  1.00  0.00     0.010 C 
BRANCH   2   3
HETATM    3  C2  UNL     1      -6.915  43.156   0.475  1.00  0.00    -0.022 C 
HETATM    4  C1  UNL     1      -7.446  41.814  -0.008  1.00  0.00     0.009 C 
HETATM    5  C3  UNL     1      -5.856  42.911   1.481  1.00  0.00     0.009 C 
ENDBRANCH   2   3
ENDBRANCH   1   2
BRANCH   1   6
HETATM    6  C6  UNL     1      -8.460  45.906  -0.589  1.00  0.00     0.127 C 
BRANCH   6   7
HETATM    7  N1  UNL     1      -9.327  46.928  -0.113  1.00  0.00    -0.360 N 
HETATM    8  C7  UNL     1      -8.791  48.008   0.650  1.00  0.00     0.221 C 
HETATM    9  O1  UNL     1      -7.527  47.969   0.850  1.00  0.00    -0.273 OA
ATOM     10  H1  UNL     1     -10.327  46.888  -0.315  1.00  0.00     0.162 HD
BRANCH   8  11
HETATM   11  C8  UNL     1      -9.604  49.091   1.172  1.00  0.00     0.143 C 
BRANCH  11  12
HETATM   12  C9  UNL     1     -10.125  48.860   2.527  1.00  0.00    -0.022 A 
HETATM   13  C10 UNL     1      -9.937  47.903   3.476  1.00  0.00     0.097 A 
HETATM   14  N2  UNL     1     -10.686  48.204   4.574  1.00  0.00    -0.365 N 
HETATM   15  C11 UNL     1     -11.352  49.327   4.358  1.00  0.00     0.042 A 
ATOM     16  H2  UNL     1     -10.726  47.650   5.430  1.00  0.00     0.165 HD
HETATM   17  C12 UNL     1     -12.235  50.008   5.199  1.00  0.00     0.030 A 
HETATM   18  C16 UNL     1     -11.039  49.759   3.121  1.00  0.00    -0.001 A 
HETATM   19  C13 UNL     1     -12.799  51.160   4.739  1.00  0.00     0.002 A 
HETATM   20  C14 UNL     1     -12.479  51.611   3.461  1.00  0.00     0.001 A 
HETATM   21  C15 UNL     1     -11.598  50.911   2.652  1.00  0.00     0.014 A 
ENDBRANCH  11  12
ENDBRANCH   8  11
ENDBRANCH   6   7
ENDBRANCH   1   6
BRANCH   1  22
HETATM   22  C17 UNL     1     -10.351  44.495   0.035  1.00  0.00     0.046 C 
BRANCH  22  23
HETATM   23  C18 UNL     1     -11.264  44.362  -1.097  1.00  0.00    -0.038 A 
HETATM   24  C19 UNL     1     -10.982  43.682  -2.252  1.00  0.00     0.011 A 
HETATM   25  C20 UNL     1     -11.933  43.637  -3.247  1.00  0.00     0.040 A 
HETATM   26  C21 UNL     1     -13.162  44.250  -3.129  1.00  0.00     0.106 A 
HETATM   27  C22 UNL     1     -13.459  44.940  -1.971  1.00  0.00     0.122 A 
HETATM   28  O5  UNL     1     -14.271  44.342  -3.981  1.00  0.00    -0.323 OA
HETATM   29  C23 UNL     1     -12.513  44.994  -0.967  1.00  0.00     0.083 A 
HETATM   30  O4  UNL     1     -14.747  45.449  -2.123  1.00  0.00    -0.322 OA
HETATM   31  C25 UNL     1     -15.354  44.567  -3.074  1.00  0.00     0.352 C 
BRANCH  29  32
HETATM   32  C24 UNL     1     -12.842  45.726   0.249  1.00  0.00     0.212 C 
HETATM   33  O2  UNL     1     -12.268  46.778   0.612  1.00  0.00    -0.644 OA
HETATM   34  O3  UNL     1     -13.854  45.227   1.053  1.00  0.00    -0.644 OA
ENDBRANCH  29  32
ENDBRANCH  22  23
ENDBRANCH   1  22
TORSDOF 9
ENDMDL
