MODEL 13
REMARK VINA RESULT: -8.240225522      3.167      4.486
REMARK  9 active torsions:
REMARK  status: ('A' for Active; 'I' for Inactive)
REMARK    1  A    between atoms: C2_2  and  C4_4 
REMARK    2  A    between atoms: C4_4  and  C5_5 
REMARK    3  A    between atoms: C5_5  and  C6_6 
REMARK    4  A    between atoms: C5_5  and  C17_22 
REMARK    5  A    between atoms: C6_6  and  N1_7 
REMARK       I    between atoms: N1_7  and  C7_9 
REMARK    6  A    between atoms: C7_9  and  C8_11 
REMARK    7  A    between atoms: C8_11  and  C9_12 
REMARK    8  A    between atoms: C17_22  and  C18_23 
REMARK    9  A    between atoms: C23_28  and  C24_29 
ROOT
HETATM    1  C5  UNL     1      -8.862  44.210  -0.281  1.00  0.00     0.008 C 
ENDROOT
BRANCH   1   2
HETATM    2  C4  UNL     1      -8.017  44.161   0.971  1.00  0.00     0.010 C 
BRANCH   2   3
HETATM    3  C2  UNL     1      -7.253  42.896   1.124  1.00  0.00    -0.022 C 
HETATM    4  C1  UNL     1      -5.781  43.237   1.307  1.00  0.00     0.009 C 
HETATM    5  C3  UNL     1      -7.373  41.887   0.046  1.00  0.00     0.009 C 
ENDBRANCH   2   3
ENDBRANCH   1   2
BRANCH   1   6
HETATM    6  C6  UNL     1      -8.375  45.360  -1.118  1.00  0.00     0.127 C 
BRANCH   6   7
HETATM    7  N1  UNL     1      -8.114  46.564  -0.410  1.00  0.00    -0.360 N 
HETATM    8  C7  UNL     1      -8.887  47.730  -0.693  1.00  0.00     0.221 C 
HETATM    9  O1  UNL     1      -9.786  47.591  -1.594  1.00  0.00    -0.273 OA
ATOM     10  H1  UNL     1      -7.378  46.595   0.296  1.00  0.00     0.162 HD
BRANCH   8  11
HETATM   11  C8  UNL     1      -8.689  48.999  -0.016  1.00  0.00     0.143 C 
BRANCH  11  12
HETATM   12  C9  UNL     1      -9.813  49.416   0.832  1.00  0.00    -0.022 A 
HETATM   13  C10 UNL     1     -10.953  50.132   0.630  1.00  0.00     0.097 A 
HETATM   14  N2  UNL     1     -11.653  50.204   1.797  1.00  0.00    -0.365 N 
HETATM   15  C11 UNL     1     -10.996  49.556   2.745  1.00  0.00     0.042 A 
ATOM     16  H2  UNL     1     -12.546  50.683   1.920  1.00  0.00     0.165 HD
HETATM   17  C12 UNL     1     -11.335  49.369   4.087  1.00  0.00     0.030 A 
HETATM   18  C16 UNL     1      -9.869  49.061   2.199  1.00  0.00    -0.001 A 
HETATM   19  C13 UNL     1     -10.480  48.652   4.870  1.00  0.00     0.002 A 
HETATM   20  C14 UNL     1      -9.313  48.139   4.311  1.00  0.00     0.001 A 
HETATM   21  C15 UNL     1      -9.007  48.343   2.974  1.00  0.00     0.014 A 
ENDBRANCH  11  12
ENDBRANCH   8  11
ENDBRANCH   6   7
ENDBRANCH   1   6
BRANCH   1  22
HETATM   22  C17 UNL     1     -10.306  44.418   0.040  1.00  0.00     0.046 C 
BRANCH  22  23
HETATM   23  C18 UNL     1     -11.239  44.318  -1.079  1.00  0.00    -0.038 A 
HETATM   24  C19 UNL     1     -10.990  43.646  -2.246  1.00  0.00     0.011 A 
HETATM   25  C20 UNL     1     -11.958  43.632  -3.225  1.00  0.00     0.040 A 
HETATM   26  C21 UNL     1     -13.173  44.268  -3.080  1.00  0.00     0.106 A 
HETATM   27  C22 UNL     1     -13.437  44.948  -1.909  1.00  0.00     0.122 A 
HETATM   28  O5  UNL     1     -14.294  44.392  -3.912  1.00  0.00    -0.323 OA
HETATM   29  C23 UNL     1     -12.475  44.972  -0.920  1.00  0.00     0.083 A 
HETATM   30  O4  UNL     1     -14.717  45.484  -2.032  1.00  0.00    -0.322 OA
HETATM   31  C25 UNL     1     -15.358  44.626  -2.984  1.00  0.00     0.352 C 
BRANCH  29  32
HETATM   32  C24 UNL     1     -12.769  45.694   0.311  1.00  0.00     0.212 C 
HETATM   33  O2  UNL     1     -12.162  46.724   0.681  1.00  0.00    -0.644 OA
HETATM   34  O3  UNL     1     -13.786  45.212   1.119  1.00  0.00    -0.644 OA
ENDBRANCH  29  32
ENDBRANCH  22  23
ENDBRANCH   1  22
TORSDOF 9
ENDMDL
