MODEL 4
REMARK VINA RESULT: -8.487009979      3.861      5.520
REMARK  9 active torsions:
REMARK  status: ('A' for Active; 'I' for Inactive)
REMARK    1  A    between atoms: C2_2  and  C4_4 
REMARK    2  A    between atoms: C4_4  and  C5_5 
REMARK    3  A    between atoms: C5_5  and  C6_6 
REMARK    4  A    between atoms: C5_5  and  C17_22 
REMARK    5  A    between atoms: C6_6  and  N1_7 
REMARK       I    between atoms: N1_7  and  C7_9 
REMARK    6  A    between atoms: C7_9  and  C8_11 
REMARK    7  A    between atoms: C8_11  and  C9_12 
REMARK    8  A    between atoms: C17_22  and  C18_23 
REMARK    9  A    between atoms: C23_28  and  C24_29 
ROOT
HETATM    1  C5  UNL     1      -8.923  44.748   0.445  1.00  0.00     0.008 C 
ENDROOT
BRANCH   1   2
HETATM    2  C4  UNL     1      -8.064  43.820   1.274  1.00  0.00     0.010 C 
BRANCH   2   3
HETATM    3  C2  UNL     1      -6.978  43.165   0.502  1.00  0.00    -0.022 C 
HETATM    4  C1  UNL     1      -7.520  41.881  -0.107  1.00  0.00     0.009 C 
HETATM    5  C3  UNL     1      -5.719  42.854   1.218  1.00  0.00     0.009 C 
ENDBRANCH   2   3
ENDBRANCH   1   2
BRANCH   1   6
HETATM    6  C6  UNL     1      -8.698  46.149   0.942  1.00  0.00     0.127 C 
BRANCH   6   7
HETATM    7  N1  UNL     1      -9.680  46.642   1.843  1.00  0.00    -0.360 N 
HETATM    8  C7  UNL     1      -9.387  47.781   2.650  1.00  0.00     0.221 C 
HETATM    9  O1  UNL     1      -8.220  48.286   2.492  1.00  0.00    -0.273 OA
ATOM     10  H1  UNL     1     -10.590  46.184   1.911  1.00  0.00     0.162 HD
BRANCH   8  11
HETATM   11  C8  UNL     1     -10.332  48.351   3.594  1.00  0.00     0.143 C 
BRANCH  11  12
HETATM   12  C9  UNL     1     -10.999  49.572   3.121  1.00  0.00    -0.022 A 
HETATM   13  C10 UNL     1     -11.038  50.249   1.942  1.00  0.00     0.097 A 
HETATM   14  N2  UNL     1     -11.845  51.339   2.073  1.00  0.00    -0.365 N 
HETATM   15  C11 UNL     1     -12.326  51.384   3.305  1.00  0.00     0.042 A 
ATOM     16  H2  UNL     1     -12.048  52.014   1.336  1.00  0.00     0.165 HD
HETATM   17  C12 UNL     1     -13.189  52.317   3.884  1.00  0.00     0.030 A 
HETATM   18  C16 UNL     1     -11.834  50.325   3.977  1.00  0.00    -0.001 A 
HETATM   19  C13 UNL     1     -13.543  52.139   5.188  1.00  0.00     0.002 A 
HETATM   20  C14 UNL     1     -13.037  51.048   5.888  1.00  0.00     0.001 A 
HETATM   21  C15 UNL     1     -12.183  50.139   5.282  1.00  0.00     0.014 A 
ENDBRANCH  11  12
ENDBRANCH   8  11
ENDBRANCH   6   7
ENDBRANCH   1   6
BRANCH   1  22
HETATM   22  C17 UNL     1     -10.372  44.413   0.570  1.00  0.00     0.046 C 
BRANCH  22  23
HETATM   23  C18 UNL     1     -11.118  44.282  -0.679  1.00  0.00    -0.038 A 
HETATM   24  C19 UNL     1     -10.698  43.564  -1.767  1.00  0.00     0.011 A 
HETATM   25  C20 UNL     1     -11.499  43.525  -2.887  1.00  0.00     0.040 A 
HETATM   26  C21 UNL     1     -12.710  44.180  -2.959  1.00  0.00     0.106 A 
HETATM   27  C22 UNL     1     -13.145  44.907  -1.870  1.00  0.00     0.122 A 
HETATM   28  O5  UNL     1     -13.682  44.286  -3.964  1.00  0.00    -0.323 OA
HETATM   29  C23 UNL     1     -12.351  44.955  -0.742  1.00  0.00     0.083 A 
HETATM   30  O4  UNL     1     -14.379  45.452  -2.215  1.00  0.00    -0.322 OA
HETATM   31  C25 UNL     1     -14.875  44.567  -3.226  1.00  0.00     0.352 C 
BRANCH  29  32
HETATM   32  C24 UNL     1     -12.825  45.727   0.400  1.00  0.00     0.212 C 
HETATM   33  O2  UNL     1     -12.337  46.823   0.757  1.00  0.00    -0.644 OA
HETATM   34  O3  UNL     1     -13.882  45.216   1.135  1.00  0.00    -0.644 OA
ENDBRANCH  29  32
ENDBRANCH  22  23
ENDBRANCH   1  22
TORSDOF 9
ENDMDL
