MODEL 2
REMARK VINA RESULT: -8.525862572      1.817      2.539
REMARK  9 active torsions:
REMARK  status: ('A' for Active; 'I' for Inactive)
REMARK    1  A    between atoms: C2_2  and  C4_4 
REMARK    2  A    between atoms: C4_4  and  C5_5 
REMARK    3  A    between atoms: C5_5  and  C6_6 
REMARK    4  A    between atoms: C5_5  and  C17_22 
REMARK    5  A    between atoms: C6_6  and  N1_7 
REMARK       I    between atoms: N1_7  and  C7_9 
REMARK    6  A    between atoms: C7_9  and  C8_11 
REMARK    7  A    between atoms: C8_11  and  C9_12 
REMARK    8  A    between atoms: C17_22  and  C18_23 
REMARK    9  A    between atoms: C23_28  and  C24_29 
ROOT
HETATM    1  C5  UNL     1      -8.853  44.189  -0.174  1.00  0.00     0.008 C 
ENDROOT
BRANCH   1   2
HETATM    2  C4  UNL     1      -8.059  43.937   1.086  1.00  0.00     0.010 C 
BRANCH   2   3
HETATM    3  C2  UNL     1      -7.288  42.667   1.060  1.00  0.00    -0.022 C 
HETATM    4  C1  UNL     1      -5.807  42.995   1.185  1.00  0.00     0.009 C 
HETATM    5  C3  UNL     1      -7.477  41.774  -0.106  1.00  0.00     0.009 C 
ENDBRANCH   2   3
ENDBRANCH   1   2
BRANCH   1   6
HETATM    6  C6  UNL     1      -8.343  45.461  -0.792  1.00  0.00     0.127 C 
BRANCH   6   7
HETATM    7  N1  UNL     1      -7.307  46.116  -0.073  1.00  0.00    -0.360 N 
HETATM    8  C7  UNL     1      -7.592  47.327   0.627  1.00  0.00     0.221 C 
HETATM    9  O1  UNL     1      -8.802  47.739   0.548  1.00  0.00    -0.273 OA
ATOM     10  H1  UNL     1      -6.365  45.724  -0.057  1.00  0.00     0.162 HD
BRANCH   8  11
HETATM   11  C8  UNL     1      -6.595  48.059   1.386  1.00  0.00     0.143 C 
BRANCH  11  12
HETATM   12  C9  UNL     1      -5.381  47.290   1.693  1.00  0.00    -0.022 A 
HETATM   13  C10 UNL     1      -4.127  47.228   1.168  1.00  0.00     0.097 A 
HETATM   14  N2  UNL     1      -3.388  46.324   1.871  1.00  0.00    -0.365 N 
HETATM   15  C11 UNL     1      -4.131  45.802   2.833  1.00  0.00     0.042 A 
ATOM     16  H2  UNL     1      -2.413  46.088   1.685  1.00  0.00     0.165 HD
HETATM   17  C12 UNL     1      -3.792  44.844   3.792  1.00  0.00     0.030 A 
HETATM   18  C16 UNL     1      -5.353  46.363   2.759  1.00  0.00    -0.001 A 
HETATM   19  C13 UNL     1      -4.748  44.467   4.688  1.00  0.00     0.002 A 
HETATM   20  C14 UNL     1      -6.013  45.043   4.615  1.00  0.00     0.001 A 
HETATM   21  C15 UNL     1      -6.316  45.993   3.651  1.00  0.00     0.014 A 
ENDBRANCH  11  12
ENDBRANCH   8  11
ENDBRANCH   6   7
ENDBRANCH   1   6
BRANCH   1  22
HETATM   22  C17 UNL     1     -10.311  44.338   0.117  1.00  0.00     0.046 C 
BRANCH  22  23
HETATM   23  C18 UNL     1     -11.212  44.258  -1.029  1.00  0.00    -0.038 A 
HETATM   24  C19 UNL     1     -10.952  43.563  -2.180  1.00  0.00     0.011 A 
HETATM   25  C20 UNL     1     -11.890  43.572  -3.189  1.00  0.00     0.040 A 
HETATM   26  C21 UNL     1     -13.084  44.253  -3.089  1.00  0.00     0.106 A 
HETATM   27  C22 UNL     1     -13.359  44.958  -1.935  1.00  0.00     0.122 A 
HETATM   28  O5  UNL     1     -14.174  44.408  -3.957  1.00  0.00    -0.323 OA
HETATM   29  C23 UNL     1     -12.427  44.959  -0.917  1.00  0.00     0.083 A 
HETATM   30  O4  UNL     1     -14.614  45.538  -2.104  1.00  0.00    -0.322 OA
HETATM   31  C25 UNL     1     -15.256  44.693  -3.066  1.00  0.00     0.352 C 
BRANCH  29  32
HETATM   32  C24 UNL     1     -12.732  45.707   0.296  1.00  0.00     0.212 C 
HETATM   33  O2  UNL     1     -12.104  46.724   0.669  1.00  0.00    -0.644 OA
HETATM   34  O3  UNL     1     -13.784  45.268   1.082  1.00  0.00    -0.644 OA
ENDBRANCH  29  32
ENDBRANCH  22  23
ENDBRANCH   1  22
TORSDOF 9
ENDMDL
