MODEL 3
REMARK VINA RESULT: -7.691965429      3.219      6.403
REMARK  10 active torsions:
REMARK  status: ('A' for Active; 'I' for Inactive)
REMARK    1  A    between atoms: O1_2  and  C2_3 
REMARK    2  A    between atoms: C5_6  and  C6_7 
REMARK    3  A    between atoms: C6_7  and  N1_8 
REMARK       I    between atoms: N1_8  and  C7_10 
REMARK    4  A    between atoms: C7_10  and  C8_12 
REMARK    5  A    between atoms: C13_17  and  C14_18 
REMARK    6  A    between atoms: C14_18  and  N2_19 
REMARK    7  A    between atoms: N2_19  and  C16_21 
REMARK    8  A    between atoms: C16_21  and  C17_22 
REMARK    9  A    between atoms: C21_26  and  O3_27 
REMARK   10  A    between atoms: C23_29  and  C24_30 
ROOT
HETATM    1  C8  UNL     1       6.533  35.991  -0.390  1.00  0.00     0.042 A 
HETATM    2  C9  UNL     1       5.185  35.629  -0.392  1.00  0.00     0.057 A 
HETATM    3  C10 UNL     1       4.669  34.610   0.364  1.00  0.00     0.106 A 
HETATM    4  C11 UNL     1       5.523  33.893   1.176  1.00  0.00     0.105 A 
HETATM    5  C12 UNL     1       6.855  34.254   1.175  1.00  0.00     0.049 A 
HETATM    6  C13 UNL     1       7.400  35.274   0.425  1.00  0.00    -0.026 A 
HETATM    7  O6  UNL     1       4.763  32.923   1.832  1.00  0.00    -0.323 OA
HETATM    8  C25 UNL     1       3.402  33.082   1.517  1.00  0.00     0.352 A 
HETATM    9  O7  UNL     1       3.393  34.093   0.510  1.00  0.00    -0.323 OA
ENDROOT
BRANCH   6  10
HETATM   10  C14 UNL     1       8.813  35.640   0.417  1.00  0.00     0.134 C 
BRANCH  10  11
HETATM   11  N2  UNL     1       9.774  34.691  -0.022  1.00  0.00    -0.292 NA
HETATM   12  C15 UNL     1      10.283  35.051  -1.364  1.00  0.00     0.116 C 
BRANCH  11  13
HETATM   13  C16 UNL     1      10.801  34.299   0.850  1.00  0.00     0.072 C 
BRANCH  13  14
HETATM   14  C17 UNL     1      10.512  33.323   1.906  1.00  0.00    -0.006 A 
HETATM   15  C18 UNL     1       9.847  33.524   3.078  1.00  0.00     0.013 A 
HETATM   16  C19 UNL     1       9.621  32.492   4.000  1.00  0.00     0.004 A 
HETATM   17  C20 UNL     1      10.079  31.208   3.739  1.00  0.00     0.038 A 
HETATM   18  C21 UNL     1      10.754  30.988   2.557  1.00  0.00     0.086 A 
HETATM   19  C23 UNL     1      10.962  32.016   1.671  1.00  0.00     0.085 A 
BRANCH  18  20
HETATM   20  O3  UNL     1      11.217  29.689   2.288  1.00  0.00    -0.355 OA
HETATM   21  C22 UNL     1      11.678  28.865   3.310  1.00  0.00     0.210 C 
ENDBRANCH  18  20
BRANCH  19  22
HETATM   22  C24 UNL     1      11.681  31.681   0.454  1.00  0.00     0.213 C 
HETATM   23  O4  UNL     1      11.117  31.084  -0.487  1.00  0.00    -0.644 OA
HETATM   24  O5  UNL     1      13.008  32.027   0.335  1.00  0.00    -0.644 OA
ENDBRANCH  19  22
ENDBRANCH  13  14
ENDBRANCH  11  13
ENDBRANCH  10  11
ENDBRANCH   6  10
BRANCH   1  25
HETATM   25  C7  UNL     1       6.952  37.119  -1.235  1.00  0.00     0.252 C 
HETATM   26  N1  UNL     1       7.343  36.875  -2.572  1.00  0.00    -0.353 N 
ATOM     27  H1  UNL     1       7.340  35.914  -2.911  1.00  0.00     0.163 HD
HETATM   28  O2  UNL     1       6.974  38.294  -0.819  1.00  0.00    -0.268 OA
BRANCH  26  29
HETATM   29  C6  UNL     1       7.755  37.948  -3.498  1.00  0.00     0.161 C 
BRANCH  29  30
HETATM   30  C5  UNL     1       6.627  38.150  -4.482  1.00  0.00    -0.040 A 
HETATM   31  C4  UNL     1       6.890  38.441  -5.803  1.00  0.00     0.011 A 
HETATM   32  C3  UNL     1       5.893  38.628  -6.735  1.00  0.00     0.037 A 
HETATM   33  C2  UNL     1       4.562  38.530  -6.371  1.00  0.00     0.068 A 
HETATM   34  C27 UNL     1       4.284  38.239  -5.046  1.00  0.00     0.037 A 
HETATM   35  C26 UNL     1       5.304  38.055  -4.128  1.00  0.00     0.011 A 
BRANCH  33  36
HETATM   36  O1  UNL     1       3.563  38.720  -7.310  1.00  0.00    -0.356 OA
HETATM   37  C1  UNL     1       3.759  38.245  -8.621  1.00  0.00     0.210 C 
ENDBRANCH  33  36
ENDBRANCH  29  30
ENDBRANCH  26  29
ENDBRANCH   1  25
TORSDOF 10
ENDMDL
