MODEL 4
REMARK VINA RESULT: -7.570728086      3.390      6.074
REMARK  10 active torsions:
REMARK  status: ('A' for Active; 'I' for Inactive)
REMARK    1  A    between atoms: O1_2  and  C2_3 
REMARK    2  A    between atoms: C5_6  and  C6_7 
REMARK    3  A    between atoms: C6_7  and  N1_8 
REMARK       I    between atoms: N1_8  and  C7_10 
REMARK    4  A    between atoms: C7_10  and  C8_12 
REMARK    5  A    between atoms: C13_17  and  C14_18 
REMARK    6  A    between atoms: C14_18  and  N2_19 
REMARK    7  A    between atoms: N2_19  and  C16_21 
REMARK    8  A    between atoms: C16_21  and  C17_22 
REMARK    9  A    between atoms: C21_26  and  O3_27 
REMARK   10  A    between atoms: C23_29  and  C24_30 
ROOT
HETATM    1  C8  UNL     1       6.861  36.563  -0.079  1.00  0.00     0.042 A 
HETATM    2  C9  UNL     1       5.510  36.308   0.165  1.00  0.00     0.057 A 
HETATM    3  C10 UNL     1       5.011  35.066   0.456  1.00  0.00     0.106 A 
HETATM    4  C11 UNL     1       5.885  34.000   0.514  1.00  0.00     0.105 A 
HETATM    5  C12 UNL     1       7.219  34.257   0.272  1.00  0.00     0.049 A 
HETATM    6  C13 UNL     1       7.748  35.495  -0.023  1.00  0.00    -0.026 A 
HETATM    7  O6  UNL     1       5.139  32.862   0.824  1.00  0.00    -0.323 OA
HETATM    8  C25 UNL     1       3.798  33.213   1.064  1.00  0.00     0.352 A 
HETATM    9  O7  UNL     1       3.736  34.598   0.725  1.00  0.00    -0.323 OA
ENDROOT
BRANCH   6  10
HETATM   10  C14 UNL     1       9.158  35.757  -0.294  1.00  0.00     0.134 C 
BRANCH  10  11
HETATM   11  N2  UNL     1      10.079  34.676  -0.291  1.00  0.00    -0.292 NA
HETATM   12  C15 UNL     1      10.865  34.661  -1.545  1.00  0.00     0.116 C 
BRANCH  11  13
HETATM   13  C16 UNL     1      10.878  34.457   0.841  1.00  0.00     0.072 C 
BRANCH  13  14
HETATM   14  C17 UNL     1      10.452  33.468   1.838  1.00  0.00    -0.006 A 
HETATM   15  C18 UNL     1       9.573  33.634   2.865  1.00  0.00     0.013 A 
HETATM   16  C19 UNL     1       9.237  32.593   3.743  1.00  0.00     0.004 A 
HETATM   17  C20 UNL     1       9.805  31.335   3.586  1.00  0.00     0.038 A 
HETATM   18  C21 UNL     1      10.698  31.152   2.552  1.00  0.00     0.086 A 
HETATM   19  C23 UNL     1      11.009  32.187   1.706  1.00  0.00     0.085 A 
BRANCH  18  20
HETATM   20  O3  UNL     1      11.274  29.880   2.388  1.00  0.00    -0.355 OA
HETATM   21  C22 UNL     1      11.511  29.053   3.483  1.00  0.00     0.210 C 
ENDBRANCH  18  20
BRANCH  19  22
HETATM   22  C24 UNL     1      11.958  31.891   0.647  1.00  0.00     0.213 C 
HETATM   23  O4  UNL     1      13.145  32.273   0.717  1.00  0.00    -0.644 OA
HETATM   24  O5  UNL     1      11.542  31.178  -0.455  1.00  0.00    -0.644 OA
ENDBRANCH  19  22
ENDBRANCH  13  14
ENDBRANCH  11  13
ENDBRANCH  10  11
ENDBRANCH   6  10
BRANCH   1  25
HETATM   25  C7  UNL     1       7.267  37.948  -0.362  1.00  0.00     0.252 C 
HETATM   26  N1  UNL     1       6.766  38.595  -1.515  1.00  0.00    -0.353 N 
ATOM     27  H1  UNL     1       6.145  38.074  -2.133  1.00  0.00     0.163 HD
HETATM   28  O2  UNL     1       8.039  38.583   0.382  1.00  0.00    -0.268 OA
BRANCH  26  29
HETATM   29  C6  UNL     1       7.100  39.989  -1.865  1.00  0.00     0.161 C 
BRANCH  29  30
HETATM   30  C5  UNL     1       6.067  40.877  -1.212  1.00  0.00    -0.040 A 
HETATM   31  C4  UNL     1       6.449  41.910  -0.384  1.00  0.00     0.011 A 
HETATM   32  C3  UNL     1       5.541  42.746   0.227  1.00  0.00     0.037 A 
HETATM   33  C2  UNL     1       4.182  42.575   0.029  1.00  0.00     0.068 A 
HETATM   34  C27 UNL     1       3.785  41.540  -0.800  1.00  0.00     0.037 A 
HETATM   35  C26 UNL     1       4.717  40.713  -1.404  1.00  0.00     0.011 A 
BRANCH  33  36
HETATM   36  O1  UNL     1       3.274  43.417   0.646  1.00  0.00    -0.356 OA
HETATM   37  C1  UNL     1       2.664  43.004   1.846  1.00  0.00     0.210 C 
ENDBRANCH  33  36
ENDBRANCH  29  30
ENDBRANCH  26  29
ENDBRANCH   1  25
TORSDOF 10
ENDMDL
