MODEL 5
REMARK VINA RESULT: -7.570246758      2.903      5.589
REMARK  10 active torsions:
REMARK  status: ('A' for Active; 'I' for Inactive)
REMARK    1  A    between atoms: O1_2  and  C2_3 
REMARK    2  A    between atoms: C5_6  and  C6_7 
REMARK    3  A    between atoms: C6_7  and  N1_8 
REMARK       I    between atoms: N1_8  and  C7_10 
REMARK    4  A    between atoms: C7_10  and  C8_12 
REMARK    5  A    between atoms: C13_17  and  C14_18 
REMARK    6  A    between atoms: C14_18  and  N2_19 
REMARK    7  A    between atoms: N2_19  and  C16_21 
REMARK    8  A    between atoms: C16_21  and  C17_22 
REMARK    9  A    between atoms: C21_26  and  O3_27 
REMARK   10  A    between atoms: C23_29  and  C24_30 
ROOT
HETATM    1  C8  UNL     1       5.693  37.930  -1.142  1.00  0.00     0.042 A 
HETATM    2  C9  UNL     1       4.785  38.856  -1.662  1.00  0.00     0.057 A 
HETATM    3  C10 UNL     1       5.077  40.179  -1.860  1.00  0.00     0.106 A 
HETATM    4  C11 UNL     1       6.337  40.634  -1.530  1.00  0.00     0.105 A 
HETATM    5  C12 UNL     1       7.230  39.716  -1.018  1.00  0.00     0.049 A 
HETATM    6  C13 UNL     1       6.964  38.380  -0.808  1.00  0.00    -0.026 A 
HETATM    7  O6  UNL     1       6.381  41.998  -1.823  1.00  0.00    -0.323 OA
HETATM    8  C25 UNL     1       5.180  42.400  -2.435  1.00  0.00     0.352 A 
HETATM    9  O7  UNL     1       4.343  41.246  -2.351  1.00  0.00    -0.323 OA
ENDROOT
BRANCH   6  10
HETATM   10  C14 UNL     1       7.909  37.418  -0.249  1.00  0.00     0.134 C 
BRANCH  10  11
HETATM   11  N2  UNL     1       9.237  37.379  -0.749  1.00  0.00    -0.292 NA
HETATM   12  C15 UNL     1      10.205  37.706   0.322  1.00  0.00     0.116 C 
BRANCH  11  13
HETATM   13  C16 UNL     1       9.649  36.282  -1.521  1.00  0.00     0.072 C 
BRANCH  13  14
HETATM   14  C17 UNL     1       9.758  34.961  -0.891  1.00  0.00    -0.006 A 
HETATM   15  C18 UNL     1       8.771  34.221  -0.315  1.00  0.00     0.013 A 
HETATM   16  C19 UNL     1       9.008  32.955   0.240  1.00  0.00     0.004 A 
HETATM   17  C20 UNL     1      10.285  32.409   0.218  1.00  0.00     0.038 A 
HETATM   18  C21 UNL     1      11.295  33.147  -0.361  1.00  0.00     0.086 A 
HETATM   19  C23 UNL     1      11.036  34.384  -0.898  1.00  0.00     0.085 A 
BRANCH  18  20
HETATM   20  O3  UNL     1      12.589  32.598  -0.388  1.00  0.00    -0.355 OA
HETATM   21  C22 UNL     1      13.423  32.672   0.724  1.00  0.00     0.210 C 
ENDBRANCH  18  20
BRANCH  19  22
HETATM   22  C24 UNL     1      12.167  35.080  -1.487  1.00  0.00     0.213 C 
HETATM   23  O4  UNL     1      12.476  34.914  -2.686  1.00  0.00    -0.644 OA
HETATM   24  O5  UNL     1      12.913  35.938  -0.711  1.00  0.00    -0.644 OA
ENDBRANCH  19  22
ENDBRANCH  13  14
ENDBRANCH  11  13
ENDBRANCH  10  11
ENDBRANCH   6  10
BRANCH   1  25
HETATM   25  C7  UNL     1       5.257  36.534  -0.998  1.00  0.00     0.252 C 
HETATM   26  N1  UNL     1       4.575  36.139   0.176  1.00  0.00    -0.353 N 
ATOM     27  H1  UNL     1       4.418  36.835   0.904  1.00  0.00     0.163 HD
HETATM   28  O2  UNL     1       5.461  35.675  -1.878  1.00  0.00    -0.268 OA
BRANCH  26  29
HETATM   29  C6  UNL     1       4.080  34.766   0.396  1.00  0.00     0.161 C 
BRANCH  29  30
HETATM   30  C5  UNL     1       5.051  34.081   1.328  1.00  0.00    -0.040 A 
HETATM   31  C4  UNL     1       5.985  34.811   2.031  1.00  0.00     0.011 A 
HETATM   32  C3  UNL     1       6.886  34.228   2.895  1.00  0.00     0.037 A 
HETATM   33  C2  UNL     1       6.888  32.858   3.090  1.00  0.00     0.068 A 
HETATM   34  C27 UNL     1       5.956  32.113   2.388  1.00  0.00     0.037 A 
HETATM   35  C26 UNL     1       5.060  32.723   1.527  1.00  0.00     0.011 A 
BRANCH  33  36
HETATM   36  O1  UNL     1       7.796  32.277   3.958  1.00  0.00    -0.356 OA
HETATM   37  C1  UNL     1       8.698  31.316   3.462  1.00  0.00     0.210 C 
ENDBRANCH  33  36
ENDBRANCH  29  30
ENDBRANCH  26  29
ENDBRANCH   1  25
TORSDOF 10
ENDMDL
