MODEL 1
REMARK VINA RESULT: -8.064248305      0.000      0.000
REMARK  10 active torsions:
REMARK  status: ('A' for Active; 'I' for Inactive)
REMARK    1  A    between atoms: O1_2  and  C2_3 
REMARK    2  A    between atoms: C5_6  and  C6_7 
REMARK    3  A    between atoms: C6_7  and  N1_8 
REMARK       I    between atoms: N1_8  and  C7_10 
REMARK    4  A    between atoms: C7_10  and  C8_12 
REMARK    5  A    between atoms: C13_17  and  C14_18 
REMARK    6  A    between atoms: C14_18  and  N2_19 
REMARK    7  A    between atoms: N2_19  and  C16_21 
REMARK    8  A    between atoms: C16_21  and  C17_22 
REMARK    9  A    between atoms: C21_26  and  O3_27 
REMARK   10  A    between atoms: C23_29  and  C24_30 
ROOT
HETATM    1  C8  UNL     1      11.090  36.229  -2.618  1.00  0.00     0.042 A 
HETATM    2  C9  UNL     1      11.132  35.961  -3.988  1.00  0.00     0.057 A 
HETATM    3  C10 UNL     1      12.168  35.311  -4.605  1.00  0.00     0.106 A 
HETATM    4  C11 UNL     1      13.236  34.893  -3.837  1.00  0.00     0.105 A 
HETATM    5  C12 UNL     1      13.190  35.160  -2.485  1.00  0.00     0.049 A 
HETATM    6  C13 UNL     1      12.161  35.812  -1.838  1.00  0.00    -0.026 A 
HETATM    7  O6  UNL     1      14.145  34.266  -4.690  1.00  0.00    -0.323 OA
HETATM    8  C25 UNL     1      13.616  34.191  -5.991  1.00  0.00     0.352 A 
HETATM    9  O7  UNL     1      12.409  34.950  -5.920  1.00  0.00    -0.323 OA
ENDROOT
BRANCH   6  10
HETATM   10  C14 UNL     1      12.127  36.106  -0.409  1.00  0.00     0.134 C 
BRANCH  10  11
HETATM   11  N2  UNL     1      11.950  35.043   0.515  1.00  0.00    -0.292 NA
HETATM   12  C15 UNL     1      12.319  35.476   1.881  1.00  0.00     0.116 C 
BRANCH  11  13
HETATM   13  C16 UNL     1      10.756  34.305   0.495  1.00  0.00     0.072 C 
BRANCH  13  14
HETATM   14  C17 UNL     1      10.434  33.430   1.628  1.00  0.00    -0.006 A 
HETATM   15  C18 UNL     1       9.710  33.730   2.742  1.00  0.00     0.013 A 
HETATM   16  C19 UNL     1       9.459  32.788   3.750  1.00  0.00     0.004 A 
HETATM   17  C20 UNL     1       9.952  31.495   3.638  1.00  0.00     0.038 A 
HETATM   18  C21 UNL     1      10.687  31.177   2.516  1.00  0.00     0.086 A 
HETATM   19  C23 UNL     1      10.918  32.117   1.543  1.00  0.00     0.085 A 
BRANCH  18  20
HETATM   20  O3  UNL     1      11.187  29.868   2.398  1.00  0.00    -0.355 OA
HETATM   21  C22 UNL     1      11.401  29.077   3.523  1.00  0.00     0.210 C 
ENDBRANCH  18  20
BRANCH  19  22
HETATM   22  C24 UNL     1      11.702  31.682   0.400  1.00  0.00     0.213 C 
HETATM   23  O4  UNL     1      12.918  31.950   0.309  1.00  0.00    -0.644 OA
HETATM   24  O5  UNL     1      11.093  30.961  -0.603  1.00  0.00    -0.644 OA
ENDBRANCH  19  22
ENDBRANCH  13  14
ENDBRANCH  11  13
ENDBRANCH  10  11
ENDBRANCH   6  10
BRANCH   1  25
HETATM   25  C7  UNL     1       9.908  36.919  -2.080  1.00  0.00     0.252 C 
HETATM   26  N1  UNL     1       8.794  36.157  -1.660  1.00  0.00    -0.353 N 
ATOM     27  H1  UNL     1       8.833  35.143  -1.757  1.00  0.00     0.163 HD
HETATM   28  O2  UNL     1       9.848  38.159  -1.975  1.00  0.00    -0.268 OA
BRANCH  26  29
HETATM   29  C6  UNL     1       7.576  36.762  -1.086  1.00  0.00     0.161 C 
BRANCH  29  30
HETATM   30  C5  UNL     1       7.076  35.831  -0.006  1.00  0.00    -0.040 A 
HETATM   31  C4  UNL     1       7.007  34.473  -0.226  1.00  0.00     0.011 A 
HETATM   32  C3  UNL     1       6.562  33.588   0.733  1.00  0.00     0.037 A 
HETATM   33  C2  UNL     1       6.159  34.041   1.976  1.00  0.00     0.068 A 
HETATM   34  C27 UNL     1       6.224  35.404   2.209  1.00  0.00     0.037 A 
HETATM   35  C26 UNL     1       6.675  36.273   1.230  1.00  0.00     0.011 A 
BRANCH  33  36
HETATM   36  O1  UNL     1       5.713  33.149   2.935  1.00  0.00    -0.356 OA
HETATM   37  C1  UNL     1       5.959  31.774   2.757  1.00  0.00     0.210 C 
ENDBRANCH  33  36
ENDBRANCH  29  30
ENDBRANCH  26  29
ENDBRANCH   1  25
TORSDOF 10
ENDMDL
