MODEL 4
REMARK VINA RESULT: -7.526216182      1.978      2.763
REMARK  11 active torsions:
REMARK  status: ('A' for Active; 'I' for Inactive)
REMARK    1  A    between atoms: C2_2  and  C4_4 
REMARK    2  A    between atoms: C4_4  and  C5_5 
REMARK    3  A    between atoms: C5_5  and  C6_6 
REMARK    4  A    between atoms: C5_5  and  C11_18 
REMARK    5  A    between atoms: C6_6  and  N1_7 
REMARK       I    between atoms: N1_7  and  C7_9 
REMARK    6  A    between atoms: C7_9  and  C8_11 
REMARK    7  A    between atoms: C8_11  and  C9_12 
REMARK    8  A    between atoms: C9_12  and  C10_13 
REMARK    9  A    between atoms: C10_13  and  N2_14 
REMARK   10  A    between atoms: C11_18  and  C12_19 
REMARK   11  A    between atoms: C17_24  and  C18_25 
ROOT
HETATM    1  C5  UNL     1      69.870  50.991  -0.102  1.00  0.00     0.008 C 
ENDROOT
BRANCH   1   2
HETATM    2  C4  UNL     1      69.755  49.906   0.991  1.00  0.00     0.010 C 
BRANCH   2   3
HETATM    3  C2  UNL     1      69.552  48.567   0.390  1.00  0.00    -0.022 C 
HETATM    4  C1  UNL     1      68.108  48.295   0.010  1.00  0.00     0.009 C 
HETATM    5  C3  UNL     1      69.858  47.494   1.460  1.00  0.00     0.009 C 
ENDBRANCH   2   3
ENDBRANCH   1   2
BRANCH   1   6
HETATM    6  C6  UNL     1      71.332  51.289  -0.239  1.00  0.00     0.127 C 
BRANCH   6   7
HETATM    7  N1  UNL     1      71.758  52.425   0.533  1.00  0.00    -0.361 N 
HETATM    8  C7  UNL     1      72.597  52.216   1.687  1.00  0.00     0.217 C 
HETATM    9  O1  UNL     1      72.951  51.063   2.020  1.00  0.00    -0.274 OA
ATOM     10  H1  UNL     1      71.470  53.367   0.267  1.00  0.00     0.162 HD
BRANCH   8  11
HETATM   11  C8  UNL     1      73.009  53.406   2.446  1.00  0.00     0.104 C 
BRANCH  11  12
HETATM   12  C9  UNL     1      72.134  53.739   3.614  1.00  0.00     0.036 C 
BRANCH  12  13
HETATM   13  C10 UNL     1      72.768  53.359   4.918  1.00  0.00     0.230 C 
BRANCH  13  14
HETATM   14  N2  UNL     1      72.039  54.072   5.969  1.00  0.00    -0.079 N 
ATOM     15  H23 UNL     1      71.207  54.552   5.625  1.00  0.00     0.274 HD
ATOM     16  H22 UNL     1      71.568  53.449   6.624  1.00  0.00     0.274 HD
ATOM     17  H21 UNL     1      72.707  54.699   6.419  1.00  0.00     0.274 HD
ENDBRANCH  13  14
ENDBRANCH  12  13
ENDBRANCH  11  12
ENDBRANCH   8  11
ENDBRANCH   6   7
ENDBRANCH   1   6
BRANCH   1  18
HETATM   18  C11 UNL     1      69.050  52.192   0.320  1.00  0.00     0.046 C 
BRANCH  18  19
HETATM   19  C12 UNL     1      68.504  52.990  -0.774  1.00  0.00    -0.038 A 
HETATM   20  C13 UNL     1      67.995  52.354  -1.877  1.00  0.00     0.011 A 
HETATM   21  C14 UNL     1      67.496  53.093  -2.924  1.00  0.00     0.040 A 
HETATM   22  C15 UNL     1      67.519  54.487  -2.841  1.00  0.00     0.106 A 
HETATM   23  C16 UNL     1      68.031  55.102  -1.728  1.00  0.00     0.122 A 
HETATM   24  O5  UNL     1      67.104  55.497  -3.705  1.00  0.00    -0.323 OA
HETATM   25  C17 UNL     1      68.544  54.372  -0.647  1.00  0.00     0.083 A 
HETATM   26  O4  UNL     1      67.923  56.475  -1.925  1.00  0.00    -0.322 OA
HETATM   27  C19 UNL     1      66.948  56.672  -2.950  1.00  0.00     0.352 C 
BRANCH  25  28
HETATM   28  C18 UNL     1      69.015  55.054   0.539  1.00  0.00     0.212 C 
HETATM   29  O2  UNL     1      68.129  55.596   1.282  1.00  0.00    -0.644 OA
HETATM   30  O3  UNL     1      70.302  55.186   0.964  1.00  0.00    -0.644 OA
ENDBRANCH  25  28
ENDBRANCH  18  19
ENDBRANCH   1  18
TORSDOF 11
ENDMDL
