MODEL 14
REMARK VINA RESULT: -6.818420614      2.600      6.831
REMARK  11 active torsions:
REMARK  status: ('A' for Active; 'I' for Inactive)
REMARK    1  A    between atoms: C2_2  and  C4_4 
REMARK    2  A    between atoms: C4_4  and  C5_5 
REMARK    3  A    between atoms: C5_5  and  C6_6 
REMARK    4  A    between atoms: C5_5  and  C11_18 
REMARK    5  A    between atoms: C6_6  and  N1_7 
REMARK       I    between atoms: N1_7  and  C7_9 
REMARK    6  A    between atoms: C7_9  and  C8_11 
REMARK    7  A    between atoms: C8_11  and  C9_12 
REMARK    8  A    between atoms: C9_12  and  C10_13 
REMARK    9  A    between atoms: C10_13  and  N2_14 
REMARK   10  A    between atoms: C11_18  and  C12_19 
REMARK   11  A    between atoms: C17_24  and  C18_25 
ROOT
HETATM    1  C5  UNL     1      68.974  53.003  -1.201  1.00  0.00     0.008 C 
ENDROOT
BRANCH   1   2
HETATM    2  C4  UNL     1      68.973  53.841  -2.498  1.00  0.00     0.010 C 
BRANCH   2   3
HETATM    3  C2  UNL     1      67.642  53.813  -3.147  1.00  0.00    -0.022 C 
HETATM    4  C1  UNL     1      66.869  55.109  -2.985  1.00  0.00     0.009 C 
HETATM    5  C3  UNL     1      66.762  52.768  -2.423  1.00  0.00     0.009 C 
ENDBRANCH   2   3
ENDBRANCH   1   2
BRANCH   1   6
HETATM    6  C6  UNL     1      69.093  53.982  -0.074  1.00  0.00     0.127 C 
BRANCH   6   7
HETATM    7  N1  UNL     1      70.452  54.222   0.334  1.00  0.00    -0.361 N 
HETATM    8  C7  UNL     1      71.070  55.485   0.012  1.00  0.00     0.217 C 
HETATM    9  O1  UNL     1      70.439  56.364  -0.615  1.00  0.00    -0.274 OA
ATOM     10  H1  UNL     1      70.971  53.507   0.843  1.00  0.00     0.162 HD
BRANCH   8  11
HETATM   11  C8  UNL     1      72.460  55.686   0.449  1.00  0.00     0.104 C 
BRANCH  11  12
HETATM   12  C9  UNL     1      73.393  54.567   0.104  1.00  0.00     0.036 C 
BRANCH  12  13
HETATM   13  C10 UNL     1      73.899  54.670  -1.302  1.00  0.00     0.230 C 
BRANCH  13  14
HETATM   14  N2  UNL     1      73.350  53.528  -2.037  1.00  0.00    -0.079 N 
ATOM     15  H23 UNL     1      73.108  52.742  -1.434  1.00  0.00     0.274 HD
ATOM     16  H22 UNL     1      72.415  53.701  -2.406  1.00  0.00     0.274 HD
ATOM     17  H21 UNL     1      74.029  53.287  -2.759  1.00  0.00     0.274 HD
ENDBRANCH  13  14
ENDBRANCH  12  13
ENDBRANCH  11  12
ENDBRANCH   8  11
ENDBRANCH   6   7
ENDBRANCH   1   6
BRANCH   1  18
HETATM   18  C11 UNL     1      70.121  52.016  -1.263  1.00  0.00     0.046 C 
BRANCH  18  19
HETATM   19  C12 UNL     1      69.882  50.738  -0.599  1.00  0.00    -0.038 A 
HETATM   20  C13 UNL     1      68.778  50.001  -0.945  1.00  0.00     0.011 A 
HETATM   21  C14 UNL     1      68.528  48.805  -0.314  1.00  0.00     0.040 A 
HETATM   22  C15 UNL     1      69.412  48.363   0.673  1.00  0.00     0.106 A 
HETATM   23  C16 UNL     1      70.509  49.115   1.002  1.00  0.00     0.122 A 
HETATM   24  O5  UNL     1      69.442  47.229   1.481  1.00  0.00    -0.323 OA
HETATM   25  C17 UNL     1      70.787  50.336   0.373  1.00  0.00     0.083 A 
HETATM   26  O4  UNL     1      71.196  48.433   2.002  1.00  0.00    -0.322 OA
HETATM   27  C19 UNL     1      70.756  47.075   1.956  1.00  0.00     0.352 C 
BRANCH  25  28
HETATM   28  C18 UNL     1      71.991  51.070   0.699  1.00  0.00     0.212 C 
HETATM   29  O2  UNL     1      71.947  51.823   1.730  1.00  0.00    -0.644 OA
HETATM   30  O3  UNL     1      73.179  51.052   0.034  1.00  0.00    -0.644 OA
ENDBRANCH  25  28
ENDBRANCH  18  19
ENDBRANCH   1  18
TORSDOF 11
ENDMDL
