MODEL 5
REMARK VINA RESULT: -7.506733749      2.219      3.449
REMARK  11 active torsions:
REMARK  status: ('A' for Active; 'I' for Inactive)
REMARK    1  A    between atoms: C2_2  and  C4_4 
REMARK    2  A    between atoms: C4_4  and  C5_5 
REMARK    3  A    between atoms: C5_5  and  C6_6 
REMARK    4  A    between atoms: C5_5  and  C11_18 
REMARK    5  A    between atoms: C6_6  and  N1_7 
REMARK       I    between atoms: N1_7  and  C7_9 
REMARK    6  A    between atoms: C7_9  and  C8_11 
REMARK    7  A    between atoms: C8_11  and  C9_12 
REMARK    8  A    between atoms: C9_12  and  C10_13 
REMARK    9  A    between atoms: C10_13  and  N2_14 
REMARK   10  A    between atoms: C11_18  and  C12_19 
REMARK   11  A    between atoms: C17_24  and  C18_25 
ROOT
HETATM    1  C5  UNL     1      70.014  51.565  -0.256  1.00  0.00     0.008 C 
ENDROOT
BRANCH   1   2
HETATM    2  C4  UNL     1      69.726  50.287   0.562  1.00  0.00     0.010 C 
BRANCH   2   3
HETATM    3  C2  UNL     1      69.525  49.121  -0.330  1.00  0.00    -0.022 C 
HETATM    4  C1  UNL     1      69.212  49.510  -1.763  1.00  0.00     0.009 C 
HETATM    5  C3  UNL     1      68.259  48.361   0.129  1.00  0.00     0.009 C 
ENDBRANCH   2   3
ENDBRANCH   1   2
BRANCH   1   6
HETATM    6  C6  UNL     1      71.448  51.911   0.007  1.00  0.00     0.127 C 
BRANCH   6   7
HETATM    7  N1  UNL     1      71.612  53.005   0.927  1.00  0.00    -0.361 N 
HETATM    8  C7  UNL     1      72.130  52.742   2.246  1.00  0.00     0.217 C 
HETATM    9  O1  UNL     1      72.433  51.579   2.594  1.00  0.00    -0.274 OA
ATOM     10  H1  UNL     1      71.364  53.954   0.649  1.00  0.00     0.162 HD
BRANCH   8  11
HETATM   11  C8  UNL     1      72.281  53.890   3.153  1.00  0.00     0.104 C 
BRANCH  11  12
HETATM   12  C9  UNL     1      73.653  54.488   3.183  1.00  0.00     0.036 C 
BRANCH  12  13
HETATM   13  C10 UNL     1      73.637  55.949   2.852  1.00  0.00     0.230 C 
BRANCH  13  14
HETATM   14  N2  UNL     1      73.298  56.060   1.432  1.00  0.00    -0.079 N 
ATOM     15  H23 UNL     1      73.656  55.286   0.872  1.00  0.00     0.274 HD
ATOM     16  H22 UNL     1      72.307  55.910   1.243  1.00  0.00     0.274 HD
ATOM     17  H21 UNL     1      73.633  56.971   1.117  1.00  0.00     0.274 HD
ENDBRANCH  13  14
ENDBRANCH  12  13
ENDBRANCH  11  12
ENDBRANCH   8  11
ENDBRANCH   6   7
ENDBRANCH   1   6
BRANCH   1  18
HETATM   18  C11 UNL     1      69.046  52.646   0.177  1.00  0.00     0.046 C 
BRANCH  18  19
HETATM   19  C12 UNL     1      68.456  53.426  -0.906  1.00  0.00    -0.038 A 
HETATM   20  C13 UNL     1      67.913  52.773  -1.982  1.00  0.00     0.011 A 
HETATM   21  C14 UNL     1      67.372  53.496  -3.020  1.00  0.00     0.040 A 
HETATM   22  C15 UNL     1      67.388  54.891  -2.955  1.00  0.00     0.106 A 
HETATM   23  C16 UNL     1      67.935  55.523  -1.868  1.00  0.00     0.122 A 
HETATM   24  O5  UNL     1      66.936  55.887  -3.816  1.00  0.00    -0.323 OA
HETATM   25  C17 UNL     1      68.491  54.809  -0.798  1.00  0.00     0.083 A 
HETATM   26  O4  UNL     1      67.810  56.893  -2.078  1.00  0.00    -0.322 OA
HETATM   27  C19 UNL     1      66.799  57.070  -3.070  1.00  0.00     0.352 C 
BRANCH  25  28
HETATM   28  C18 UNL     1      68.999  55.510   0.362  1.00  0.00     0.212 C 
HETATM   29  O2  UNL     1      68.135  56.031   1.146  1.00  0.00    -0.644 OA
HETATM   30  O3  UNL     1      70.301  55.679   0.725  1.00  0.00    -0.644 OA
ENDBRANCH  25  28
ENDBRANCH  18  19
ENDBRANCH   1  18
TORSDOF 11
ENDMDL
