MODEL 17
REMARK VINA RESULT: -6.655155780      2.835      6.381
REMARK  11 active torsions:
REMARK  status: ('A' for Active; 'I' for Inactive)
REMARK    1  A    between atoms: C2_2  and  C4_4 
REMARK    2  A    between atoms: C4_4  and  C5_5 
REMARK    3  A    between atoms: C5_5  and  C6_6 
REMARK    4  A    between atoms: C5_5  and  C11_18 
REMARK    5  A    between atoms: C6_6  and  N1_7 
REMARK       I    between atoms: N1_7  and  C7_9 
REMARK    6  A    between atoms: C7_9  and  C8_11 
REMARK    7  A    between atoms: C8_11  and  C9_12 
REMARK    8  A    between atoms: C9_12  and  C10_13 
REMARK    9  A    between atoms: C10_13  and  N2_14 
REMARK   10  A    between atoms: C11_18  and  C12_19 
REMARK   11  A    between atoms: C17_24  and  C18_25 
ROOT
HETATM    1  C5  UNL     1      69.567  49.718   0.957  1.00  0.00     0.008 C 
ENDROOT
BRANCH   1   2
HETATM    2  C4  UNL     1      69.890  48.241   0.641  1.00  0.00     0.010 C 
BRANCH   2   3
HETATM    3  C2  UNL     1      69.981  47.441   1.885  1.00  0.00    -0.022 C 
HETATM    4  C1  UNL     1      69.725  48.255   3.140  1.00  0.00     0.009 C 
HETATM    5  C3  UNL     1      71.438  46.955   2.053  1.00  0.00     0.009 C 
ENDBRANCH   2   3
ENDBRANCH   1   2
BRANCH   1   6
HETATM    6  C6  UNL     1      68.245  50.001   0.311  1.00  0.00     0.127 C 
BRANCH   6   7
HETATM    7  N1  UNL     1      68.237  51.209  -0.470  1.00  0.00    -0.361 N 
HETATM    8  C7  UNL     1      68.390  51.120  -1.902  1.00  0.00     0.217 C 
HETATM    9  O1  UNL     1      68.530  50.011  -2.462  1.00  0.00    -0.274 OA
ATOM     10  H1  UNL     1      68.126  52.116  -0.017  1.00  0.00     0.162 HD
BRANCH   8  11
HETATM   11  C8  UNL     1      68.376  52.380  -2.660  1.00  0.00     0.104 C 
BRANCH  11  12
HETATM   12  C9  UNL     1      67.092  53.146  -2.581  1.00  0.00     0.036 C 
BRANCH  12  13
HETATM   13  C10 UNL     1      67.309  54.623  -2.704  1.00  0.00     0.230 C 
BRANCH  13  14
HETATM   14  N2  UNL     1      68.000  55.055  -1.488  1.00  0.00    -0.079 N 
ATOM     15  H23 UNL     1      67.538  55.834  -1.019  1.00  0.00     0.274 HD
ATOM     16  H22 UNL     1      67.925  54.382  -0.724  1.00  0.00     0.274 HD
ATOM     17  H21 UNL     1      68.964  55.258  -1.751  1.00  0.00     0.274 HD
ENDBRANCH  13  14
ENDBRANCH  12  13
ENDBRANCH  11  12
ENDBRANCH   8  11
ENDBRANCH   6   7
ENDBRANCH   1   6
BRANCH   1  18
HETATM   18  C11 UNL     1      70.691  50.584   0.427  1.00  0.00     0.046 C 
BRANCH  18  19
HETATM   19  C12 UNL     1      71.455  51.305   1.441  1.00  0.00    -0.038 A 
HETATM   20  C13 UNL     1      72.393  50.628   2.179  1.00  0.00     0.011 A 
HETATM   21  C14 UNL     1      73.105  51.289   3.152  1.00  0.00     0.040 A 
HETATM   22  C15 UNL     1      72.857  52.646   3.370  1.00  0.00     0.106 A 
HETATM   23  C16 UNL     1      71.916  53.302   2.620  1.00  0.00     0.122 A 
HETATM   24  O5  UNL     1      73.391  53.579   4.255  1.00  0.00    -0.323 OA
HETATM   25  C17 UNL     1      71.177  52.652   1.622  1.00  0.00     0.083 A 
HETATM   26  O4  UNL     1      71.887  54.624   3.054  1.00  0.00    -0.322 OA
HETATM   27  C19 UNL     1      73.112  54.860   3.748  1.00  0.00     0.352 C 
BRANCH  25  28
HETATM   28  C18 UNL     1      70.240  53.393   0.805  1.00  0.00     0.212 C 
HETATM   29  O2  UNL     1      70.701  53.930  -0.259  1.00  0.00    -0.644 OA
HETATM   30  O3  UNL     1      68.911  53.587   1.035  1.00  0.00    -0.644 OA
ENDBRANCH  25  28
ENDBRANCH  18  19
ENDBRANCH   1  18
TORSDOF 11
ENDMDL
