MODEL 16
REMARK VINA RESULT: -6.666482368      2.736      6.771
REMARK  11 active torsions:
REMARK  status: ('A' for Active; 'I' for Inactive)
REMARK    1  A    between atoms: C2_2  and  C4_4 
REMARK    2  A    between atoms: C4_4  and  C5_5 
REMARK    3  A    between atoms: C5_5  and  C6_6 
REMARK    4  A    between atoms: C5_5  and  C11_18 
REMARK    5  A    between atoms: C6_6  and  N1_7 
REMARK       I    between atoms: N1_7  and  C7_9 
REMARK    6  A    between atoms: C7_9  and  C8_11 
REMARK    7  A    between atoms: C8_11  and  C9_12 
REMARK    8  A    between atoms: C9_12  and  C10_13 
REMARK    9  A    between atoms: C10_13  and  N2_14 
REMARK   10  A    between atoms: C11_18  and  C12_19 
REMARK   11  A    between atoms: C17_24  and  C18_25 
ROOT
HETATM    1  C5  UNL     1      69.344  53.290  -0.526  1.00  0.00     0.008 C 
ENDROOT
BRANCH   1   2
HETATM    2  C4  UNL     1      68.972  54.014  -1.838  1.00  0.00     0.010 C 
BRANCH   2   3
HETATM    3  C2  UNL     1      67.523  53.887  -2.121  1.00  0.00    -0.022 C 
HETATM    4  C1  UNL     1      67.154  52.569  -2.777  1.00  0.00     0.009 C 
HETATM    5  C3  UNL     1      67.131  54.945  -3.177  1.00  0.00     0.009 C 
ENDBRANCH   2   3
ENDBRANCH   1   2
BRANCH   1   6
HETATM    6  C6  UNL     1      69.802  54.357   0.422  1.00  0.00     0.127 C 
BRANCH   6   7
HETATM    7  N1  UNL     1      71.233  54.461   0.517  1.00  0.00    -0.361 N 
HETATM    8  C7  UNL     1      71.901  55.571  -0.117  1.00  0.00     0.217 C 
HETATM    9  O1  UNL     1      71.250  56.434  -0.746  1.00  0.00    -0.274 OA
ATOM     10  H1  UNL     1      71.769  53.758   1.026  1.00  0.00     0.162 HD
BRANCH   8  11
HETATM   11  C8  UNL     1      73.365  55.636   0.007  1.00  0.00     0.104 C 
BRANCH  11  12
HETATM   12  C9  UNL     1      74.073  54.339  -0.233  1.00  0.00     0.036 C 
BRANCH  12  13
HETATM   13  C10 UNL     1      74.050  53.944  -1.678  1.00  0.00     0.230 C 
BRANCH  13  14
HETATM   14  N2  UNL     1      73.915  52.487  -1.719  1.00  0.00    -0.079 N 
ATOM     15  H23 UNL     1      73.210  52.130  -1.074  1.00  0.00     0.274 HD
ATOM     16  H22 UNL     1      73.486  52.147  -2.580  1.00  0.00     0.274 HD
ATOM     17  H21 UNL     1      74.844  52.099  -1.553  1.00  0.00     0.274 HD
ENDBRANCH  13  14
ENDBRANCH  12  13
ENDBRANCH  11  12
ENDBRANCH   8  11
ENDBRANCH   6   7
ENDBRANCH   1   6
BRANCH   1  18
HETATM   18  C11 UNL     1      70.411  52.258  -0.828  1.00  0.00     0.046 C 
BRANCH  18  19
HETATM   19  C12 UNL     1      70.144  50.917  -0.318  1.00  0.00    -0.038 A 
HETATM   20  C13 UNL     1      69.105  50.194  -0.846  1.00  0.00     0.011 A 
HETATM   21  C14 UNL     1      68.828  48.937  -0.361  1.00  0.00     0.040 A 
HETATM   22  C15 UNL     1      69.618  48.419   0.667  1.00  0.00     0.106 A 
HETATM   23  C16 UNL     1      70.653  49.158   1.179  1.00  0.00     0.122 A 
HETATM   24  O5  UNL     1      69.601  47.213   1.362  1.00  0.00    -0.323 OA
HETATM   25  C17 UNL     1      70.956  50.441   0.702  1.00  0.00     0.083 A 
HETATM   26  O4  UNL     1      71.253  48.397   2.177  1.00  0.00    -0.322 OA
HETATM   27  C19 UNL     1      70.863  47.041   1.956  1.00  0.00     0.352 C 
BRANCH  25  28
HETATM   28  C18 UNL     1      72.097  51.164   1.221  1.00  0.00     0.212 C 
HETATM   29  O2  UNL     1      73.238  50.874   0.726  1.00  0.00    -0.644 OA
HETATM   30  O3  UNL     1      72.100  52.129   2.183  1.00  0.00    -0.644 OA
ENDBRANCH  25  28
ENDBRANCH  18  19
ENDBRANCH   1  18
TORSDOF 11
ENDMDL
