MODEL 2
REMARK VINA RESULT: -7.586362330      2.088      2.781
REMARK  11 active torsions:
REMARK  status: ('A' for Active; 'I' for Inactive)
REMARK    1  A    between atoms: C2_2  and  C4_4 
REMARK    2  A    between atoms: C4_4  and  C5_5 
REMARK    3  A    between atoms: C5_5  and  C6_6 
REMARK    4  A    between atoms: C5_5  and  C11_18 
REMARK    5  A    between atoms: C6_6  and  N1_7 
REMARK       I    between atoms: N1_7  and  C7_9 
REMARK    6  A    between atoms: C7_9  and  C8_11 
REMARK    7  A    between atoms: C8_11  and  C9_12 
REMARK    8  A    between atoms: C9_12  and  C10_13 
REMARK    9  A    between atoms: C10_13  and  N2_14 
REMARK   10  A    between atoms: C11_18  and  C12_19 
REMARK   11  A    between atoms: C17_24  and  C18_25 
ROOT
HETATM    1  C5  UNL     1      70.112  51.727  -0.281  1.00  0.00     0.008 C 
ENDROOT
BRANCH   1   2
HETATM    2  C4  UNL     1      69.834  50.427   0.505  1.00  0.00     0.010 C 
BRANCH   2   3
HETATM    3  C2  UNL     1      68.801  49.609  -0.171  1.00  0.00    -0.022 C 
HETATM    4  C1  UNL     1      68.777  48.166   0.301  1.00  0.00     0.009 C 
HETATM    5  C3  UNL     1      69.161  49.499  -1.670  1.00  0.00     0.009 C 
ENDBRANCH   2   3
ENDBRANCH   1   2
BRANCH   1   6
HETATM    6  C6  UNL     1      71.527  52.106   0.031  1.00  0.00     0.127 C 
BRANCH   6   7
HETATM    7  N1  UNL     1      71.634  53.252   0.894  1.00  0.00    -0.361 N 
HETATM    8  C7  UNL     1      72.115  53.074   2.242  1.00  0.00     0.217 C 
HETATM    9  O1  UNL     1      72.433  51.940   2.663  1.00  0.00    -0.274 OA
ATOM     10  H1  UNL     1      71.373  54.179   0.557  1.00  0.00     0.162 HD
BRANCH   8  11
HETATM   11  C8  UNL     1      72.208  54.273   3.089  1.00  0.00     0.104 C 
BRANCH  11  12
HETATM   12  C9  UNL     1      73.194  54.173   4.211  1.00  0.00     0.036 C 
BRANCH  12  13
HETATM   13  C10 UNL     1      72.523  53.948   5.531  1.00  0.00     0.230 C 
BRANCH  13  14
HETATM   14  N2  UNL     1      72.591  52.512   5.804  1.00  0.00    -0.079 N 
ATOM     15  H23 UNL     1      71.957  52.213   6.546  1.00  0.00     0.274 HD
ATOM     16  H22 UNL     1      72.194  51.942   5.057  1.00  0.00     0.274 HD
ATOM     17  H21 UNL     1      73.569  52.293   5.999  1.00  0.00     0.274 HD
ENDBRANCH  13  14
ENDBRANCH  12  13
ENDBRANCH  11  12
ENDBRANCH   8  11
ENDBRANCH   6   7
ENDBRANCH   1   6
BRANCH   1  18
HETATM   18  C11 UNL     1      69.102  52.774   0.142  1.00  0.00     0.046 C 
BRANCH  18  19
HETATM   19  C12 UNL     1      68.469  53.508  -0.950  1.00  0.00    -0.038 A 
HETATM   20  C13 UNL     1      67.892  52.810  -1.979  1.00  0.00     0.011 A 
HETATM   21  C14 UNL     1      67.310  53.488  -3.025  1.00  0.00     0.040 A 
HETATM   22  C15 UNL     1      67.320  54.884  -3.015  1.00  0.00     0.106 A 
HETATM   23  C16 UNL     1      67.901  55.561  -1.975  1.00  0.00     0.122 A 
HETATM   24  O5  UNL     1      66.831  55.843  -3.899  1.00  0.00    -0.323 OA
HETATM   25  C17 UNL     1      68.499  54.894  -0.898  1.00  0.00     0.083 A 
HETATM   26  O4  UNL     1      67.760  56.921  -2.235  1.00  0.00    -0.322 OA
HETATM   27  C19 UNL     1      66.713  57.054  -3.196  1.00  0.00     0.352 C 
BRANCH  25  28
HETATM   28  C18 UNL     1      69.043  55.643   0.215  1.00  0.00     0.212 C 
HETATM   29  O2  UNL     1      68.213  56.063   1.089  1.00  0.00    -0.644 OA
HETATM   30  O3  UNL     1      70.350  55.954   0.446  1.00  0.00    -0.644 OA
ENDBRANCH  25  28
ENDBRANCH  18  19
ENDBRANCH   1  18
TORSDOF 11
ENDMDL
