MODEL 7
REMARK VINA RESULT: -9.394057984      3.472      7.114
REMARK  4 active torsions:
REMARK  status: ('A' for Active; 'I' for Inactive)
REMARK    1  A    between atoms: C4_5  and  C5_6 
REMARK    2  A    between atoms: C5_6  and  N1_7 
REMARK    3  A    between atoms: N1_7  and  C6_9 
REMARK    4  A    between atoms: C7_14  and  C8_15 
ROOT
HETATM    1  C6  UNL     1     -38.154  58.466   6.436  1.00  0.00     0.694 A 
HETATM    2  N2  UNL     1     -36.907  58.964   6.524  1.00  0.00    -0.131 N 
ATOM      3  H2  UNL     1     -36.393  59.094   7.395  1.00  0.00     0.205 HD
HETATM    4  N3  UNL     1     -36.444  59.260   5.324  1.00  0.00    -0.268 N 
ATOM      5  H3  UNL     1     -35.525  59.652   5.119  1.00  0.00     0.189 HD
HETATM    6  C7  UNL     1     -37.390  58.959   4.413  1.00  0.00     0.170 A 
HETATM    7  N4  UNL     1     -38.432  58.472   5.120  1.00  0.00    -0.171 N 
ATOM      8  H4  UNL     1     -39.310  58.153   4.712  1.00  0.00     0.186 HD
ENDROOT
BRANCH   1   9
HETATM    9  N1  UNL     1     -39.003  58.027   7.486  1.00  0.00    -0.221 N 
ATOM     10  H1  UNL     1     -39.268  58.676   8.226  1.00  0.00     0.178 HD
BRANCH   9  11
HETATM   11  C5  UNL     1     -39.493  56.671   7.515  1.00  0.00     0.176 C 
BRANCH  11  12
HETATM   12  C4  UNL     1     -38.449  55.741   7.974  1.00  0.00    -0.040 A 
HETATM   13  C3  UNL     1     -37.903  54.872   7.025  1.00  0.00     0.010 A 
HETATM   14  C2  UNL     1     -36.929  53.995   7.394  1.00  0.00     0.024 A 
HETATM   15  C1  UNL     1     -36.450  53.922   8.676  1.00  0.00     0.034 A 
HETATM   16 CL1  UNL     1     -35.190  52.771   9.113  1.00  0.00    -0.084 Cl
HETATM   17  C13 UNL     1     -36.974  54.768   9.623  1.00  0.00     0.024 A 
HETATM   18  C12 UNL     1     -37.967  55.667   9.261  1.00  0.00     0.010 A 
ENDBRANCH  11  12
ENDBRANCH   9  11
ENDBRANCH   1   9
BRANCH   6  19
HETATM   19  C8  UNL     1     -37.331  59.114   2.962  1.00  0.00     0.120 A 
HETATM   20  C9  UNL     1     -38.228  59.844   2.209  1.00  0.00     0.043 A 
HETATM   21  C10 UNL     1     -37.852  59.761   0.886  1.00  0.00     0.027 A 
HETATM   22  C11 UNL     1     -36.725  58.972   0.887  1.00  0.00     0.142 A 
HETATM   23  O1  UNL     1     -36.461  58.617   2.136  1.00  0.00    -0.319 OA
ENDBRANCH   6  19
TORSDOF 4
ENDMDL
