MODEL 9
REMARK VINA RESULT: -9.221344561      3.887      7.596
REMARK  4 active torsions:
REMARK  status: ('A' for Active; 'I' for Inactive)
REMARK    1  A    between atoms: C4_5  and  C5_6 
REMARK    2  A    between atoms: C5_6  and  N1_7 
REMARK    3  A    between atoms: N1_7  and  C6_9 
REMARK    4  A    between atoms: C7_14  and  C8_15 
ROOT
HETATM    1  C6  UNL     1     -37.364  57.774   6.219  1.00  0.00     0.694 A 
HETATM    2  N2  UNL     1     -36.636  58.897   6.366  1.00  0.00    -0.131 N 
ATOM      3  H2  UNL     1     -36.269  59.240   7.253  1.00  0.00     0.205 HD
HETATM    4  N3  UNL     1     -36.466  59.489   5.199  1.00  0.00    -0.268 N 
ATOM      5  H3  UNL     1     -35.951  60.356   5.040  1.00  0.00     0.189 HD
HETATM    6  C7  UNL     1     -37.086  58.758   4.252  1.00  0.00     0.170 A 
HETATM    7  N4  UNL     1     -37.631  57.709   4.903  1.00  0.00    -0.171 N 
ATOM      8  H4  UNL     1     -38.171  56.969   4.457  1.00  0.00     0.186 HD
ENDROOT
BRANCH   1   9
HETATM    9  N1  UNL     1     -37.770  56.852   7.220  1.00  0.00    -0.221 N 
ATOM     10  H1  UNL     1     -37.680  57.102   8.204  1.00  0.00     0.178 HD
BRANCH   9  11
HETATM   11  C5  UNL     1     -38.308  55.564   6.856  1.00  0.00     0.176 C 
BRANCH  11  12
HETATM   12  C4  UNL     1     -37.738  54.497   7.694  1.00  0.00    -0.040 A 
HETATM   13  C3  UNL     1     -37.120  54.882   8.888  1.00  0.00     0.010 A 
HETATM   14  C2  UNL     1     -36.581  53.934   9.704  1.00  0.00     0.024 A 
HETATM   15  C1  UNL     1     -36.616  52.597   9.405  1.00  0.00     0.034 A 
HETATM   16 CL1  UNL     1     -35.906  51.403  10.489  1.00  0.00    -0.084 Cl
HETATM   17  C13 UNL     1     -37.219  52.200   8.237  1.00  0.00     0.024 A 
HETATM   18  C12 UNL     1     -37.773  53.155   7.395  1.00  0.00     0.010 A 
ENDBRANCH  11  12
ENDBRANCH   9  11
ENDBRANCH   1   9
BRANCH   6  19
HETATM   19  C8  UNL     1     -37.169  59.019   2.817  1.00  0.00     0.120 A 
HETATM   20  C9  UNL     1     -38.152  59.771   2.207  1.00  0.00     0.043 A 
HETATM   21  C10 UNL     1     -37.901  59.796   0.853  1.00  0.00     0.027 A 
HETATM   22  C11 UNL     1     -36.759  59.047   0.690  1.00  0.00     0.142 A 
HETATM   23  O1  UNL     1     -36.369  58.612   1.879  1.00  0.00    -0.319 OA
ENDBRANCH   6  19
TORSDOF 4
ENDMDL
