MODEL 2
REMARK VINA RESULT: -9.603905404      0.123      1.090
REMARK  4 active torsions:
REMARK  status: ('A' for Active; 'I' for Inactive)
REMARK    1  A    between atoms: C4_5  and  C5_6 
REMARK    2  A    between atoms: C5_6  and  N1_7 
REMARK    3  A    between atoms: N1_7  and  C6_9 
REMARK    4  A    between atoms: C7_14  and  C8_15 
ROOT
HETATM    1  C6  UNL     1     -38.755  56.467   8.043  1.00  0.00     0.694 A 
HETATM    2  N2  UNL     1     -38.806  56.720   9.364  1.00  0.00    -0.131 N 
ATOM      3  H2  UNL     1     -39.389  57.435   9.797  1.00  0.00     0.205 HD
HETATM    4  N3  UNL     1     -37.994  55.911  10.019  1.00  0.00    -0.268 N 
ATOM      5  H3  UNL     1     -37.850  55.900  11.029  1.00  0.00     0.189 HD
HETATM    6  C7  UNL     1     -37.386  55.102   9.129  1.00  0.00     0.170 A 
HETATM    7  N4  UNL     1     -37.870  55.463   7.922  1.00  0.00    -0.171 N 
ATOM      8  H4  UNL     1     -37.600  55.031   7.038  1.00  0.00     0.186 HD
ENDROOT
BRANCH   1   9
HETATM    9  N1  UNL     1     -39.468  57.109   6.996  1.00  0.00    -0.221 N 
ATOM     10  H1  UNL     1     -40.178  56.592   6.478  1.00  0.00     0.178 HD
BRANCH   9  11
HETATM   11  C5  UNL     1     -39.198  58.485   6.660  1.00  0.00     0.176 C 
BRANCH  11  12
HETATM   12  C4  UNL     1     -38.559  58.591   5.339  1.00  0.00    -0.040 A 
HETATM   13  C3  UNL     1     -39.390  58.519   4.218  1.00  0.00     0.010 A 
HETATM   14  C2  UNL     1     -38.851  58.617   2.971  1.00  0.00     0.024 A 
HETATM   15  C1  UNL     1     -37.508  58.787   2.759  1.00  0.00     0.034 A 
HETATM   16 CL1  UNL     1     -36.852  58.909   1.129  1.00  0.00    -0.084 Cl
HETATM   17  C13 UNL     1     -36.675  58.860   3.849  1.00  0.00     0.024 A 
HETATM   18  C12 UNL     1     -37.210  58.761   5.126  1.00  0.00     0.010 A 
ENDBRANCH  11  12
ENDBRANCH   9  11
ENDBRANCH   1   9
BRANCH   6  19
HETATM   19  C8  UNL     1     -36.408  54.048   9.386  1.00  0.00     0.120 A 
HETATM   20  C9  UNL     1     -36.384  53.250  10.511  1.00  0.00     0.043 A 
HETATM   21  C10 UNL     1     -35.325  52.376  10.401  1.00  0.00     0.027 A 
HETATM   22  C11 UNL     1     -34.736  52.683   9.196  1.00  0.00     0.142 A 
HETATM   23  O1  UNL     1     -35.413  53.676   8.638  1.00  0.00    -0.319 OA
ENDBRANCH   6  19
TORSDOF 4
ENDMDL
