MODEL 8
REMARK VINA RESULT: -9.380011114      3.474      7.061
REMARK  4 active torsions:
REMARK  status: ('A' for Active; 'I' for Inactive)
REMARK    1  A    between atoms: C4_5  and  C5_6 
REMARK    2  A    between atoms: C5_6  and  N1_7 
REMARK    3  A    between atoms: N1_7  and  C6_9 
REMARK    4  A    between atoms: C7_14  and  C8_15 
ROOT
HETATM    1  C6  UNL     1     -38.190  58.472   6.390  1.00  0.00     0.694 A 
HETATM    2  N2  UNL     1     -36.946  58.978   6.491  1.00  0.00    -0.131 N 
ATOM      3  H2  UNL     1     -36.445  59.120   7.368  1.00  0.00     0.205 HD
HETATM    4  N3  UNL     1     -36.468  59.263   5.294  1.00  0.00    -0.268 N 
ATOM      5  H3  UNL     1     -35.547  59.657   5.099  1.00  0.00     0.189 HD
HETATM    6  C7  UNL     1     -37.399  58.947   4.373  1.00  0.00     0.170 A 
HETATM    7  N4  UNL     1     -38.448  58.463   5.071  1.00  0.00    -0.171 N 
ATOM      8  H4  UNL     1     -39.319  58.135   4.653  1.00  0.00     0.186 HD
ENDROOT
BRANCH   1   9
HETATM    9  N1  UNL     1     -39.051  58.041   7.433  1.00  0.00    -0.221 N 
ATOM     10  H1  UNL     1     -39.317  58.693   8.171  1.00  0.00     0.178 HD
BRANCH   9  11
HETATM   11  C5  UNL     1     -39.555  56.690   7.458  1.00  0.00     0.176 C 
BRANCH  11  12
HETATM   12  C4  UNL     1     -38.491  55.736   7.810  1.00  0.00    -0.040 A 
HETATM   13  C3  UNL     1     -38.072  55.708   9.143  1.00  0.00     0.010 A 
HETATM   14  C2  UNL     1     -37.094  54.840   9.525  1.00  0.00     0.024 A 
HETATM   15  C1  UNL     1     -36.491  53.977   8.648  1.00  0.00     0.034 A 
HETATM   16 CL1  UNL     1     -35.229  52.870   9.183  1.00  0.00    -0.084 Cl
HETATM   17  C13 UNL     1     -36.889  53.990   7.334  1.00  0.00     0.024 A 
HETATM   18  C12 UNL     1     -37.884  54.870   6.930  1.00  0.00     0.010 A 
ENDBRANCH  11  12
ENDBRANCH   9  11
ENDBRANCH   1   9
BRANCH   6  19
HETATM   19  C8  UNL     1     -37.320  59.086   2.922  1.00  0.00     0.120 A 
HETATM   20  C9  UNL     1     -38.169  59.858   2.155  1.00  0.00     0.043 A 
HETATM   21  C10 UNL     1     -37.788  59.743   0.836  1.00  0.00     0.027 A 
HETATM   22  C11 UNL     1     -36.706  58.893   0.853  1.00  0.00     0.142 A 
HETATM   23  O1  UNL     1     -36.472  58.534   2.107  1.00  0.00    -0.319 OA
ENDBRANCH   6  19
TORSDOF 4
ENDMDL
