MODEL 5
REMARK VINA RESULT: -9.457558172      1.435      2.119
REMARK  4 active torsions:
REMARK  status: ('A' for Active; 'I' for Inactive)
REMARK    1  A    between atoms: C4_5  and  C5_6 
REMARK    2  A    between atoms: C5_6  and  N1_7 
REMARK    3  A    between atoms: N1_7  and  C6_9 
REMARK    4  A    between atoms: C7_14  and  C8_15 
ROOT
HETATM    1  C6  UNL     1     -38.357  56.736   6.788  1.00  0.00     0.694 A 
HETATM    2  N2  UNL     1     -39.261  56.833   7.781  1.00  0.00    -0.131 N 
ATOM      3  H2  UNL     1     -40.011  57.522   7.819  1.00  0.00     0.205 HD
HETATM    4  N3  UNL     1     -39.039  55.908   8.696  1.00  0.00    -0.268 N 
ATOM      5  H3  UNL     1     -39.584  55.769   9.548  1.00  0.00     0.189 HD
HETATM    6  C7  UNL     1     -37.971  55.179   8.318  1.00  0.00     0.170 A 
HETATM    7  N4  UNL     1     -37.569  55.706   7.143  1.00  0.00    -0.171 N 
ATOM      8  H4  UNL     1     -36.775  55.369   6.599  1.00  0.00     0.186 HD
ENDROOT
BRANCH   1   9
HETATM    9  N1  UNL     1     -38.243  57.536   5.621  1.00  0.00    -0.221 N 
ATOM     10  H1  UNL     1     -39.044  58.081   5.302  1.00  0.00     0.178 HD
BRANCH   9  11
HETATM   11  C5  UNL     1     -37.006  57.585   4.882  1.00  0.00     0.176 C 
BRANCH  11  12
HETATM   12  C4  UNL     1     -37.194  58.240   3.578  1.00  0.00    -0.040 A 
HETATM   13  C3  UNL     1     -38.395  58.927   3.373  1.00  0.00     0.010 A 
HETATM   14  C2  UNL     1     -38.619  59.556   2.186  1.00  0.00     0.024 A 
HETATM   15  C1  UNL     1     -37.706  59.548   1.164  1.00  0.00     0.034 A 
HETATM   16 CL1  UNL     1     -38.035  60.375  -0.356  1.00  0.00    -0.084 Cl
HETATM   17  C13 UNL     1     -36.520  58.879   1.347  1.00  0.00     0.024 A 
HETATM   18  C12 UNL     1     -36.279  58.233   2.551  1.00  0.00     0.010 A 
ENDBRANCH  11  12
ENDBRANCH   9  11
ENDBRANCH   1   9
BRANCH   6  19
HETATM   19  C8  UNL     1     -37.355  54.050   9.012  1.00  0.00     0.120 A 
HETATM   20  C9  UNL     1     -36.221  54.127   9.793  1.00  0.00     0.043 A 
HETATM   21  C10 UNL     1     -35.943  52.869  10.280  1.00  0.00     0.027 A 
HETATM   22  C11 UNL     1     -36.933  52.064   9.767  1.00  0.00     0.142 A 
HETATM   23  O1  UNL     1     -37.740  52.809   9.026  1.00  0.00    -0.319 OA
ENDBRANCH   6  19
TORSDOF 4
ENDMDL
