MODEL 1
REMARK VINA RESULT: -9.644588306      0.000      0.000
REMARK  4 active torsions:
REMARK  status: ('A' for Active; 'I' for Inactive)
REMARK    1  A    between atoms: C4_5  and  C5_6 
REMARK    2  A    between atoms: C5_6  and  N1_7 
REMARK    3  A    between atoms: N1_7  and  C6_9 
REMARK    4  A    between atoms: C7_14  and  C8_15 
ROOT
HETATM    1  C6  UNL     1     -38.769  56.456   8.071  1.00  0.00     0.694 A 
HETATM    2  N2  UNL     1     -38.817  56.704   9.393  1.00  0.00    -0.131 N 
ATOM      3  H2  UNL     1     -39.403  57.415   9.831  1.00  0.00     0.205 HD
HETATM    4  N3  UNL     1     -37.998  55.897  10.042  1.00  0.00    -0.268 N 
ATOM      5  H3  UNL     1     -37.850  55.884  11.052  1.00  0.00     0.189 HD
HETATM    6  C7  UNL     1     -37.388  55.095   9.148  1.00  0.00     0.170 A 
HETATM    7  N4  UNL     1     -37.878  55.457   7.944  1.00  0.00    -0.171 N 
ATOM      8  H4  UNL     1     -37.609  55.030   7.058  1.00  0.00     0.186 HD
ENDROOT
BRANCH   1   9
HETATM    9  N1  UNL     1     -39.489  57.097   7.029  1.00  0.00    -0.221 N 
ATOM     10  H1  UNL     1     -40.203  56.580   6.516  1.00  0.00     0.178 HD
BRANCH   9  11
HETATM   11  C5  UNL     1     -39.221  58.472   6.690  1.00  0.00     0.176 C 
BRANCH  11  12
HETATM   12  C4  UNL     1     -38.629  58.580   5.347  1.00  0.00    -0.040 A 
HETATM   13  C3  UNL     1     -37.243  58.744   5.269  1.00  0.00     0.010 A 
HETATM   14  C2  UNL     1     -36.643  58.843   4.050  1.00  0.00     0.024 A 
HETATM   15  C1  UNL     1     -37.346  58.789   2.875  1.00  0.00     0.034 A 
HETATM   16 CL1  UNL     1     -36.530  58.922   1.320  1.00  0.00    -0.084 Cl
HETATM   17  C13 UNL     1     -38.709  58.628   2.932  1.00  0.00     0.024 A 
HETATM   18  C12 UNL     1     -39.334  58.525   4.167  1.00  0.00     0.010 A 
ENDBRANCH  11  12
ENDBRANCH   9  11
ENDBRANCH   1   9
BRANCH   6  19
HETATM   19  C8  UNL     1     -36.403  54.046   9.398  1.00  0.00     0.120 A 
HETATM   20  C9  UNL     1     -36.354  53.263  10.533  1.00  0.00     0.043 A 
HETATM   21  C10 UNL     1     -35.296  52.390  10.412  1.00  0.00     0.027 A 
HETATM   22  C11 UNL     1     -34.734  52.680   9.190  1.00  0.00     0.142 A 
HETATM   23  O1  UNL     1     -35.424  53.665   8.634  1.00  0.00    -0.319 OA
ENDBRANCH   6  19
TORSDOF 4
ENDMDL
