MODEL 4
REMARK VINA RESULT: -9.510288421      1.170      1.598
REMARK  4 active torsions:
REMARK  status: ('A' for Active; 'I' for Inactive)
REMARK    1  A    between atoms: C4_5  and  C5_6 
REMARK    2  A    between atoms: C5_6  and  N1_7 
REMARK    3  A    between atoms: N1_7  and  C6_9 
REMARK    4  A    between atoms: C7_14  and  C8_15 
ROOT
HETATM    1  C6  UNL     1     -38.433  55.996   7.082  1.00  0.00     0.694 A 
HETATM    2  N2  UNL     1     -37.615  55.429   6.176  1.00  0.00    -0.131 N 
ATOM      3  H2  UNL     1     -37.511  55.741   5.210  1.00  0.00     0.205 HD
HETATM    4  N3  UNL     1     -36.968  54.412   6.713  1.00  0.00    -0.268 N 
ATOM      5  H3  UNL     1     -36.290  53.818   6.236  1.00  0.00     0.189 HD
HETATM    6  C7  UNL     1     -37.354  54.290   7.999  1.00  0.00     0.170 A 
HETATM    7  N4  UNL     1     -38.254  55.274   8.202  1.00  0.00    -0.171 N 
ATOM      8  H4  UNL     1     -38.734  55.446   9.085  1.00  0.00     0.186 HD
ENDROOT
BRANCH   1   9
HETATM    9  N1  UNL     1     -39.300  57.108   6.911  1.00  0.00    -0.221 N 
ATOM     10  H1  UNL     1     -40.310  56.970   6.936  1.00  0.00     0.178 HD
BRANCH   9  11
HETATM   11  C5  UNL     1     -38.765  58.430   6.702  1.00  0.00     0.176 C 
BRANCH  11  12
HETATM   12  C4  UNL     1     -38.546  58.692   5.270  1.00  0.00    -0.040 A 
HETATM   13  C3  UNL     1     -37.271  59.114   4.884  1.00  0.00     0.010 A 
HETATM   14  C2  UNL     1     -37.012  59.365   3.571  1.00  0.00     0.024 A 
HETATM   15  C1  UNL     1     -37.959  59.220   2.592  1.00  0.00     0.034 A 
HETATM   16 CL1  UNL     1     -37.583  59.555   0.904  1.00  0.00    -0.084 Cl
HETATM   17  C13 UNL     1     -39.218  58.805   2.952  1.00  0.00     0.024 A 
HETATM   18  C12 UNL     1     -39.497  58.546   4.286  1.00  0.00     0.010 A 
ENDBRANCH  11  12
ENDBRANCH   9  11
ENDBRANCH   1   9
BRANCH   6  19
HETATM   19  C8  UNL     1     -36.909  53.311   8.987  1.00  0.00     0.120 A 
HETATM   20  C9  UNL     1     -36.111  53.596  10.077  1.00  0.00     0.043 A 
HETATM   21  C10 UNL     1     -35.903  52.429  10.778  1.00  0.00     0.027 A 
HETATM   22  C11 UNL     1     -36.592  51.466  10.078  1.00  0.00     0.142 A 
HETATM   23  O1  UNL     1     -37.166  52.039   9.030  1.00  0.00    -0.319 OA
ENDBRANCH   6  19
TORSDOF 4
ENDMDL
