MODEL 3
REMARK VINA RESULT: -9.523445647      1.188      1.918
REMARK  4 active torsions:
REMARK  status: ('A' for Active; 'I' for Inactive)
REMARK    1  A    between atoms: C4_5  and  C5_6 
REMARK    2  A    between atoms: C5_6  and  N1_7 
REMARK    3  A    between atoms: N1_7  and  C6_9 
REMARK    4  A    between atoms: C7_14  and  C8_15 
ROOT
HETATM    1  C6  UNL     1     -38.453  55.920   7.103  1.00  0.00     0.694 A 
HETATM    2  N2  UNL     1     -37.581  55.406   6.216  1.00  0.00    -0.131 N 
ATOM      3  H2  UNL     1     -37.457  55.741   5.261  1.00  0.00     0.205 HD
HETATM    4  N3  UNL     1     -36.911  54.406   6.757  1.00  0.00    -0.268 N 
ATOM      5  H3  UNL     1     -36.192  53.849   6.293  1.00  0.00     0.189 HD
HETATM    6  C7  UNL     1     -37.334  54.242   8.026  1.00  0.00     0.170 A 
HETATM    7  N4  UNL     1     -38.282  55.184   8.215  1.00  0.00    -0.171 N 
ATOM      8  H4  UNL     1     -38.798  55.319   9.084  1.00  0.00     0.186 HD
ENDROOT
BRANCH   1   9
HETATM    9  N1  UNL     1     -39.359  56.998   6.923  1.00  0.00    -0.221 N 
ATOM     10  H1  UNL     1     -40.361  56.815   6.881  1.00  0.00     0.178 HD
BRANCH   9  11
HETATM   11  C5  UNL     1     -38.875  58.351   6.799  1.00  0.00     0.176 C 
BRANCH  11  12
HETATM   12  C4  UNL     1     -38.528  58.663   5.404  1.00  0.00    -0.040 A 
HETATM   13  C3  UNL     1     -39.530  58.500   4.443  1.00  0.00     0.010 A 
HETATM   14  C2  UNL     1     -39.265  58.780   3.137  1.00  0.00     0.024 A 
HETATM   15  C1  UNL     1     -38.039  59.222   2.712  1.00  0.00     0.034 A 
HETATM   16 CL1  UNL     1     -37.737  59.572   1.012  1.00  0.00    -0.084 Cl
HETATM   17  C13 UNL     1     -37.041  59.388   3.641  1.00  0.00     0.024 A 
HETATM   18  C12 UNL     1     -37.297  59.106   4.976  1.00  0.00     0.010 A 
ENDBRANCH  11  12
ENDBRANCH   9  11
ENDBRANCH   1   9
BRANCH   6  19
HETATM   19  C8  UNL     1     -36.883  53.263   9.011  1.00  0.00     0.120 A 
HETATM   20  C9  UNL     1     -36.132  53.557  10.130  1.00  0.00     0.043 A 
HETATM   21  C10 UNL     1     -35.900  52.386  10.817  1.00  0.00     0.027 A 
HETATM   22  C11 UNL     1     -36.529  51.411  10.078  1.00  0.00     0.142 A 
HETATM   23  O1  UNL     1     -37.092  51.981   9.023  1.00  0.00    -0.319 OA
ENDBRANCH   6  19
TORSDOF 4
ENDMDL
