MODEL 5
REMARK VINA RESULT: -8.932778847      3.178      5.422
REMARK  1 active torsions:
REMARK  status: ('A' for Active; 'I' for Inactive)
REMARK    1  A    between atoms: C15_24  and  O2_25 
ROOT
HETATM    1  C1  UNL     1      37.160  45.868   4.549  1.00  0.00     0.045 C 
HETATM    2  C2  UNL     1      36.102  46.121   5.566  1.00  0.00     0.159 C 
HETATM    3  O1  UNL     1      36.035  44.999   6.509  1.00  0.00    -0.338 OA
HETATM    4  C3  UNL     1      34.919  44.941   7.399  1.00  0.00     0.111 A 
HETATM    5  C4  UNL     1      33.608  44.938   6.989  1.00  0.00     0.054 A 
HETATM    6  C5  UNL     1      32.671  44.963   7.978  1.00  0.00    -0.003 A 
HETATM    7  C6  UNL     1      33.058  44.950   9.328  1.00  0.00     0.102 A 
HETATM    8  N1  UNL     1      34.336  44.929   9.732  1.00  0.00    -0.351 N 
ATOM      9  H1  UNL     1      34.598  44.913  10.719  1.00  0.00     0.166 HD
HETATM   10  C7  UNL     1      35.260  44.929   8.733  1.00  0.00     0.149 A 
HETATM   11  N2  UNL     1      36.617  44.889   9.231  1.00  0.00    -0.080 NA
HETATM   12  C8  UNL     1      31.238  45.373   7.809  1.00  0.00     0.040 A 
HETATM   13  C9  UNL     1      30.898  46.400   6.918  1.00  0.00     0.058 A 
HETATM   14  N3  UNL     1      29.594  46.579   7.000  1.00  0.00    -0.299 N 
ATOM     15  H3  UNL     1      29.065  47.265   6.462  1.00  0.00     0.187 HD
HETATM   16  N4  UNL     1      29.066  45.739   7.884  1.00  0.00    -0.286 N 
HETATM   17  C10 UNL     1      27.676  45.603   8.277  1.00  0.00     0.179 C 
HETATM   18  C11 UNL     1      30.068  44.983   8.396  1.00  0.00     0.143 A 
HETATM   19  C12 UNL     1      29.986  43.934   9.406  1.00  0.00     0.120 C 
HETATM   20  N5  UNL     1      29.903  43.103  10.208  1.00  0.00    -0.190 NA
HETATM   21  C13 UNL     1      31.933  47.106   6.069  1.00  0.00     0.183 C 
HETATM   22  N6  UNL     1      32.796  47.960   6.872  1.00  0.00    -0.360 N 
HETATM   23  C14 UNL     1      32.017  48.324   8.138  1.00  0.00     0.152 C 
HETATM   24  C15 UNL     1      34.041  48.534   6.723  1.00  0.00     0.149 C 
HETATM   25  C16 UNL     1      35.494  48.331   6.804  1.00  0.00     0.024 A 
HETATM   26  C17 UNL     1      36.174  49.392   7.536  1.00  0.00     0.019 A 
HETATM   27  C18 UNL     1      37.488  49.480   7.788  1.00  0.00     0.043 A 
HETATM   28  C19 UNL     1      38.303  48.478   7.316  1.00  0.00     0.117 A 
HETATM   29  F1  UNL     1      39.622  48.561   7.571  1.00  0.00    -0.206 F 
HETATM   30  C20 UNL     1      37.720  47.460   6.622  1.00  0.00     0.053 A 
HETATM   31  C21 UNL     1      36.326  47.381   6.362  1.00  0.00    -0.012 A 
ENDROOT
BRANCH  24  32
HETATM   32  O2  UNL     1      33.870  49.850   6.348  1.00  0.00    -0.346 OA
ATOM     33  H2  UNL     1      32.995  50.120   6.601  1.00  0.00     0.219 HD
ENDBRANCH  24  32
TORSDOF 1
ENDMDL
