MODEL 4
REMARK VINA RESULT: -8.986979562      2.898      4.609
REMARK  1 active torsions:
REMARK  status: ('A' for Active; 'I' for Inactive)
REMARK    1  A    between atoms: C15_24  and  O2_25 
ROOT
HETATM    1  C1  UNL     1      34.852  46.199  10.923  1.00  0.00     0.045 C 
HETATM    2  C2  UNL     1      34.346  46.303   9.526  1.00  0.00     0.159 C 
HETATM    3  O1  UNL     1      35.418  45.979   8.579  1.00  0.00    -0.338 OA
HETATM    4  C3  UNL     1      35.198  46.267   7.197  1.00  0.00     0.111 A 
HETATM    5  C4  UNL     1      34.872  47.511   6.714  1.00  0.00     0.054 A 
HETATM    6  C5  UNL     1      34.617  47.587   5.378  1.00  0.00    -0.003 A 
HETATM    7  C6  UNL     1      34.730  46.447   4.564  1.00  0.00     0.102 A 
HETATM    8  N1  UNL     1      35.071  45.236   5.028  1.00  0.00    -0.351 N 
ATOM      9  H1  UNL     1      35.154  44.421   4.420  1.00  0.00     0.166 HD
HETATM   10  C7  UNL     1      35.299  45.172   6.368  1.00  0.00     0.149 A 
HETATM   11  N2  UNL     1      35.678  43.847   6.805  1.00  0.00    -0.080 NA
HETATM   12  C8  UNL     1      33.861  48.689   4.697  1.00  0.00     0.040 A 
HETATM   13  C9  UNL     1      32.779  49.305   5.341  1.00  0.00     0.058 A 
HETATM   14  N3  UNL     1      32.280  50.198   4.507  1.00  0.00    -0.299 N 
ATOM     15  H3  UNL     1      31.483  50.800   4.709  1.00  0.00     0.187 HD
HETATM   16  N4  UNL     1      32.965  50.202   3.368  1.00  0.00    -0.286 N 
HETATM   17  C10 UNL     1      32.751  51.025   2.193  1.00  0.00     0.179 C 
HETATM   18  C11 UNL     1      33.949  49.274   3.466  1.00  0.00     0.143 A 
HETATM   19  C12 UNL     1      34.946  48.904   2.469  1.00  0.00     0.120 C 
HETATM   20  N5  UNL     1      35.732  48.624   1.666  1.00  0.00    -0.190 NA
HETATM   21  C13 UNL     1      32.352  48.925   6.742  1.00  0.00     0.183 C 
HETATM   22  N6  UNL     1      31.743  47.603   6.778  1.00  0.00    -0.360 N 
HETATM   23  C14 UNL     1      31.199  47.319   5.376  1.00  0.00     0.152 C 
HETATM   24  C15 UNL     1      31.498  46.650   7.744  1.00  0.00     0.149 C 
HETATM   25  C16 UNL     1      32.057  45.547   8.537  1.00  0.00     0.024 A 
HETATM   26  C17 UNL     1      31.201  44.367   8.549  1.00  0.00     0.019 A 
HETATM   27  C18 UNL     1      31.446  43.204   9.170  1.00  0.00     0.043 A 
HETATM   28  C19 UNL     1      32.618  43.085   9.879  1.00  0.00     0.117 A 
HETATM   29  F1  UNL     1      32.868  41.917  10.499  1.00  0.00    -0.206 F 
HETATM   30  C20 UNL     1      33.456  44.160   9.904  1.00  0.00     0.053 A 
HETATM   31  C21 UNL     1      33.184  45.386   9.241  1.00  0.00    -0.012 A 
ENDROOT
BRANCH  24  32
HETATM   32  O2  UNL     1      30.179  46.757   8.134  1.00  0.00    -0.346 OA
ATOM     33  H2  UNL     1      30.053  46.221   8.908  1.00  0.00     0.219 HD
ENDBRANCH  24  32
TORSDOF 1
ENDMDL
