MODEL 3
REMARK VINA RESULT: -9.022945887      2.440      3.362
REMARK  1 active torsions:
REMARK  status: ('A' for Active; 'I' for Inactive)
REMARK    1  A    between atoms: C15_24  and  O2_25 
ROOT
HETATM    1  C1  UNL     1      34.778  45.496  11.375  1.00  0.00     0.045 C 
HETATM    2  C2  UNL     1      34.243  45.854  10.033  1.00  0.00     0.159 C 
HETATM    3  O1  UNL     1      35.332  46.319   9.166  1.00  0.00    -0.338 OA
HETATM    4  C3  UNL     1      34.981  46.943   7.930  1.00  0.00     0.111 A 
HETATM    5  C4  UNL     1      34.161  48.041   7.829  1.00  0.00     0.054 A 
HETATM    6  C5  UNL     1      33.867  48.454   6.564  1.00  0.00    -0.003 A 
HETATM    7  C6  UNL     1      34.421  47.797   5.452  1.00  0.00     0.102 A 
HETATM    8  N1  UNL     1      35.241  46.741   5.548  1.00  0.00    -0.351 N 
ATOM      9  H1  UNL     1      35.639  46.281   4.728  1.00  0.00     0.166 HD
HETATM   10  C7  UNL     1      35.506  46.325   6.816  1.00  0.00     0.149 A 
HETATM   11  N2  UNL     1      36.406  45.195   6.855  1.00  0.00    -0.080 NA
HETATM   12  C8  UNL     1      32.709  49.327   6.181  1.00  0.00     0.040 A 
HETATM   13  C9  UNL     1      31.484  49.210   6.852  1.00  0.00     0.058 A 
HETATM   14  N3  UNL     1      30.643  50.056   6.290  1.00  0.00    -0.299 N 
ATOM     15  H3  UNL     1      29.673  50.189   6.574  1.00  0.00     0.187 HD
HETATM   16  N4  UNL     1      31.239  50.713   5.299  1.00  0.00    -0.286 N 
HETATM   17  C10 UNL     1      30.679  51.727   4.427  1.00  0.00     0.179 C 
HETATM   18  C11 UNL     1      32.520  50.275   5.217  1.00  0.00     0.143 A 
HETATM   19  C12 UNL     1      33.558  50.688   4.279  1.00  0.00     0.120 C 
HETATM   20  N5  UNL     1      34.372  51.029   3.529  1.00  0.00    -0.190 NA
HETATM   21  C13 UNL     1      31.284  48.245   8.001  1.00  0.00     0.183 C 
HETATM   22  N6  UNL     1      31.274  46.862   7.545  1.00  0.00    -0.360 N 
HETATM   23  C14 UNL     1      30.864  46.876   6.071  1.00  0.00     0.152 C 
HETATM   24  C15 UNL     1      31.466  45.625   8.125  1.00  0.00     0.149 C 
HETATM   25  C16 UNL     1      32.447  44.637   8.591  1.00  0.00     0.024 A 
HETATM   26  C17 UNL     1      32.154  43.286   8.128  1.00  0.00     0.019 A 
HETATM   27  C18 UNL     1      32.870  42.179   8.376  1.00  0.00     0.043 A 
HETATM   28  C19 UNL     1      34.003  42.303   9.145  1.00  0.00     0.117 A 
HETATM   29  F1  UNL     1      34.725  41.194   9.391  1.00  0.00    -0.206 F 
HETATM   30  C20 UNL     1      34.324  43.544   9.607  1.00  0.00     0.053 A 
HETATM   31  C21 UNL     1      33.556  44.708   9.337  1.00  0.00    -0.012 A 
ENDROOT
BRANCH  24  32
HETATM   32  O2  UNL     1      30.229  45.065   8.370  1.00  0.00    -0.346 OA
ATOM     33  H2  UNL     1      30.357  44.264   8.864  1.00  0.00     0.219 HD
ENDBRANCH  24  32
TORSDOF 1
ENDMDL
