MODEL 5
REMARK VINA RESULT: -8.665520307      3.725      7.762
REMARK  1 active torsions:
REMARK  status: ('A' for Active; 'I' for Inactive)
REMARK    1  A    between atoms: C15_24  and  O2_25 
ROOT
HETATM    1  C1  UNL     1     -31.470 -18.359  57.629  1.00  0.00     0.045 C 
HETATM    2  C2  UNL     1     -32.552 -17.743  58.448  1.00  0.00     0.159 C 
HETATM    3  O1  UNL     1     -33.431 -18.787  58.985  1.00  0.00    -0.338 OA
HETATM    4  C3  UNL     1     -34.664 -18.380  59.581  1.00  0.00     0.111 A 
HETATM    5  C4  UNL     1     -35.616 -17.626  58.939  1.00  0.00     0.054 A 
HETATM    6  C5  UNL     1     -36.694 -17.259  59.687  1.00  0.00    -0.003 A 
HETATM    7  C6  UNL     1     -36.813 -17.681  61.022  1.00  0.00     0.102 A 
HETATM    8  N1  UNL     1     -35.897 -18.437  61.645  1.00  0.00    -0.351 N 
ATOM      9  H1  UNL     1     -36.005 -18.738  62.614  1.00  0.00     0.166 HD
HETATM   10  C7  UNL     1     -34.815 -18.774  60.892  1.00  0.00     0.149 A 
HETATM   11  N2  UNL     1     -33.873 -19.601  61.612  1.00  0.00    -0.080 NA
HETATM   12  C8  UNL     1     -37.632 -16.132  59.369  1.00  0.00     0.040 A 
HETATM   13  C9  UNL     1     -37.149 -14.960  58.772  1.00  0.00     0.058 A 
HETATM   14  N3  UNL     1     -38.168 -14.132  58.646  1.00  0.00    -0.299 N 
ATOM     15  H3  UNL     1     -38.113 -13.198  58.241  1.00  0.00     0.187 HD
HETATM   16  N4  UNL     1     -39.278 -14.688  59.121  1.00  0.00    -0.286 N 
HETATM   17  C10 UNL     1     -40.614 -14.126  59.175  1.00  0.00     0.179 C 
HETATM   18  C11 UNL     1     -38.966 -15.928  59.573  1.00  0.00     0.143 A 
HETATM   19  C12 UNL     1     -39.845 -16.913  60.192  1.00  0.00     0.120 C 
HETATM   20  N5  UNL     1     -40.558 -17.684  60.680  1.00  0.00    -0.190 NA
HETATM   21  C13 UNL     1     -35.694 -14.790  58.389  1.00  0.00     0.183 C 
HETATM   22  N6  UNL     1     -34.842 -14.656  59.562  1.00  0.00    -0.360 N 
HETATM   23  C14 UNL     1     -35.721 -14.132  60.700  1.00  0.00     0.152 C 
HETATM   24  C15 UNL     1     -33.500 -14.814  59.836  1.00  0.00     0.149 C 
HETATM   25  C16 UNL     1     -32.421 -15.765  60.137  1.00  0.00     0.024 A 
HETATM   26  C17 UNL     1     -31.601 -15.351  61.269  1.00  0.00     0.019 A 
HETATM   27  C18 UNL     1     -30.556 -16.012  61.788  1.00  0.00     0.043 A 
HETATM   28  C19 UNL     1     -30.199 -17.208  61.211  1.00  0.00     0.117 A 
HETATM   29  F1  UNL     1     -29.154 -17.876  61.734  1.00  0.00    -0.206 F 
HETATM   30  C20 UNL     1     -30.931 -17.643  60.147  1.00  0.00     0.053 A 
HETATM   31  C21 UNL     1     -32.035 -16.932  59.608  1.00  0.00    -0.012 A 
ENDROOT
BRANCH  24  32
HETATM   32  O2  UNL     1     -32.909 -13.568  59.840  1.00  0.00    -0.346 OA
ATOM     33  H2  UNL     1     -32.279 -13.534  59.131  1.00  0.00     0.219 HD
ENDBRANCH  24  32
TORSDOF 1
ENDMDL
