MODEL 3
REMARK VINA RESULT: -8.766080715      2.821      5.314
REMARK  1 active torsions:
REMARK  status: ('A' for Active; 'I' for Inactive)
REMARK    1  A    between atoms: C15_24  and  O2_25 
ROOT
HETATM    1  C1  UNL     1     -36.464 -14.159  56.977  1.00  0.00     0.045 C 
HETATM    2  C2  UNL     1     -35.710 -14.809  58.084  1.00  0.00     0.159 C 
HETATM    3  O1  UNL     1     -35.238 -13.795  59.033  1.00  0.00    -0.338 OA
HETATM    4  C3  UNL     1     -34.286 -14.195  60.020  1.00  0.00     0.111 A 
HETATM    5  C4  UNL     1     -33.076 -14.776  59.730  1.00  0.00     0.054 A 
HETATM    6  C5  UNL     1     -32.328 -15.170  60.799  1.00  0.00    -0.003 A 
HETATM    7  C6  UNL     1     -32.781 -14.941  62.109  1.00  0.00     0.102 A 
HETATM    8  N1  UNL     1     -33.951 -14.352  62.397  1.00  0.00    -0.351 N 
ATOM      9  H1  UNL     1     -34.260 -14.189  63.356  1.00  0.00     0.166 HD
HETATM   10  C7  UNL     1     -34.697 -13.987  61.318  1.00  0.00     0.149 A 
HETATM   11  N2  UNL     1     -35.936 -13.344  61.692  1.00  0.00    -0.080 NA
HETATM   12  C8  UNL     1     -31.209 -16.167  60.758  1.00  0.00     0.040 A 
HETATM   13  C9  UNL     1     -31.279 -17.272  59.898  1.00  0.00     0.058 A 
HETATM   14  N3  UNL     1     -30.194 -17.996  60.097  1.00  0.00    -0.299 N 
ATOM     15  H3  UNL     1     -29.975 -18.863  59.606  1.00  0.00     0.187 HD
HETATM   16  N4  UNL     1     -29.428 -17.438  61.028  1.00  0.00    -0.286 N 
HETATM   17  C10 UNL     1     -28.155 -17.904  61.544  1.00  0.00     0.179 C 
HETATM   18  C11 UNL     1     -30.039 -16.303  61.449  1.00  0.00     0.143 A 
HETATM   19  C12 UNL     1     -29.592 -15.359  62.467  1.00  0.00     0.120 C 
HETATM   20  N5  UNL     1     -29.221 -14.618  63.276  1.00  0.00    -0.190 NA
HETATM   21  C13 UNL     1     -32.444 -17.488  58.956  1.00  0.00     0.183 C 
HETATM   22  N6  UNL     1     -33.655 -17.853  59.676  1.00  0.00    -0.360 N 
HETATM   23  C14 UNL     1     -33.220 -18.474  61.006  1.00  0.00     0.152 C 
HETATM   24  C15 UNL     1     -35.009 -17.834  59.413  1.00  0.00     0.149 C 
HETATM   25  C16 UNL     1     -36.230 -17.018  59.364  1.00  0.00     0.024 A 
HETATM   26  C17 UNL     1     -37.362 -17.651  60.029  1.00  0.00     0.019 A 
HETATM   27  C18 UNL     1     -38.599 -17.150  60.161  1.00  0.00     0.043 A 
HETATM   28  C19 UNL     1     -38.854 -15.911  59.621  1.00  0.00     0.117 A 
HETATM   29  F1  UNL     1     -40.093 -15.404  59.756  1.00  0.00    -0.206 F 
HETATM   30  C20 UNL     1     -37.830 -15.274  58.985  1.00  0.00     0.053 A 
HETATM   31  C21 UNL     1     -36.525 -15.817  58.853  1.00  0.00    -0.012 A 
ENDROOT
BRANCH  24  32
HETATM   32  O2  UNL     1     -35.398 -19.107  59.051  1.00  0.00    -0.346 OA
ATOM     33  H2  UNL     1     -36.097 -19.035  58.412  1.00  0.00     0.219 HD
ENDBRANCH  24  32
TORSDOF 1
ENDMDL
