MODEL 4
REMARK VINA RESULT: -8.755699016      3.110      5.238
REMARK  1 active torsions:
REMARK  status: ('A' for Active; 'I' for Inactive)
REMARK    1  A    between atoms: C15_24  and  O2_25 
ROOT
HETATM    1  C1  UNL     1     -36.642 -17.811  56.623  1.00  0.00     0.045 C 
HETATM    2  C2  UNL     1     -35.666 -18.041  57.725  1.00  0.00     0.159 C 
HETATM    3  O1  UNL     1     -35.659 -16.890  58.635  1.00  0.00    -0.338 OA
HETATM    4  C3  UNL     1     -34.612 -16.813  59.605  1.00  0.00     0.111 A 
HETATM    5  C4  UNL     1     -33.275 -16.834  59.296  1.00  0.00     0.054 A 
HETATM    6  C5  UNL     1     -32.415 -16.836  60.353  1.00  0.00    -0.003 A 
HETATM    7  C6  UNL     1     -32.903 -16.777  61.670  1.00  0.00     0.102 A 
HETATM    8  N1  UNL     1     -34.208 -16.733  61.975  1.00  0.00    -0.351 N 
ATOM      9  H1  UNL     1     -34.543 -16.684  62.938  1.00  0.00     0.166 HD
HETATM   10  C7  UNL     1     -35.054 -16.757  60.909  1.00  0.00     0.149 A 
HETATM   11  N2  UNL     1     -36.444 -16.690  61.300  1.00  0.00    -0.080 NA
HETATM   12  C8  UNL     1     -30.978 -17.263  60.306  1.00  0.00     0.040 A 
HETATM   13  C9  UNL     1     -30.583 -18.320  59.475  1.00  0.00     0.058 A 
HETATM   14  N3  UNL     1     -29.290 -18.507  59.662  1.00  0.00    -0.299 N 
ATOM     15  H3  UNL     1     -28.730 -19.214  59.187  1.00  0.00     0.187 HD
HETATM   16  N4  UNL     1     -28.821 -17.644  60.558  1.00  0.00    -0.286 N 
HETATM   17  C10 UNL     1     -27.464 -17.507  61.050  1.00  0.00     0.179 C 
HETATM   18  C11 UNL     1     -29.852 -16.864  60.968  1.00  0.00     0.143 A 
HETATM   19  C12 UNL     1     -29.835 -15.785  61.949  1.00  0.00     0.120 C 
HETATM   20  N5  UNL     1     -29.804 -14.930  62.729  1.00  0.00    -0.190 NA
HETATM   21  C13 UNL     1     -31.558 -19.044  58.572  1.00  0.00     0.183 C 
HETATM   22  N6  UNL     1     -32.488 -19.865  59.334  1.00  0.00    -0.360 N 
HETATM   23  C14 UNL     1     -31.811 -20.196  60.666  1.00  0.00     0.152 C 
HETATM   24  C15 UNL     1     -33.725 -20.433  59.108  1.00  0.00     0.149 C 
HETATM   25  C16 UNL     1     -35.177 -20.216  59.072  1.00  0.00     0.024 A 
HETATM   26  C17 UNL     1     -35.921 -21.248  59.783  1.00  0.00     0.019 A 
HETATM   27  C18 UNL     1     -37.252 -21.317  59.937  1.00  0.00     0.043 A 
HETATM   28  C19 UNL     1     -38.018 -20.323  59.374  1.00  0.00     0.117 A 
HETATM   29  F1  UNL     1     -39.353 -20.387  59.531  1.00  0.00    -0.206 F 
HETATM   30  C20 UNL     1     -37.374 -19.333  58.695  1.00  0.00     0.053 A 
HETATM   31  C21 UNL     1     -35.963 -19.273  58.540  1.00  0.00    -0.012 A 
ENDROOT
BRANCH  24  32
HETATM   32  O2  UNL     1     -33.539 -21.762  58.787  1.00  0.00    -0.346 OA
ATOM     33  H2  UNL     1     -33.961 -21.929  57.953  1.00  0.00     0.219 HD
ENDBRANCH  24  32
TORSDOF 1
ENDMDL
