MODEL 3
REMARK VINA RESULT: -6.093174758      3.677      4.459
REMARK  0 active torsions:
REMARK  status: ('A' for Active; 'I' for Inactive)
ROOT
HETATM    1  C1  UNL     1      -6.795   8.834  11.014  1.00  0.00     0.050 C 
HETATM    2  C2  UNL     1      -5.664   9.789  11.171  1.00  0.00    -0.027 A 
HETATM    3  C3  UNL     1      -4.408   9.572  11.702  1.00  0.00     0.097 A 
HETATM    4  N1  UNL     1      -3.696  10.701  11.654  1.00  0.00    -0.351 N 
ATOM      5  H1  UNL     1      -2.737  10.803  11.985  1.00  0.00     0.166 HD
HETATM    6  C4  UNL     1      -4.434  11.684  11.101  1.00  0.00     0.123 A 
HETATM    7  N2  UNL     1      -4.205  12.989  10.821  1.00  0.00    -0.316 N 
ATOM      8  H2  UNL     1      -3.292  13.379  11.054  1.00  0.00     0.170 HD
HETATM    9  C5  UNL     1      -5.115  13.800  10.254  1.00  0.00     0.196 A 
HETATM   10  N3  UNL     1      -4.827  15.161   9.980  1.00  0.00    -0.063 NA
HETATM   11  N4  UNL     1      -6.322  13.259   9.951  1.00  0.00    -0.297 N 
ATOM     12  H4  UNL     1      -7.039  13.841   9.518  1.00  0.00     0.171 HD
HETATM   13  C6  UNL     1      -6.587  11.967  10.215  1.00  0.00     0.262 A 
HETATM   14  O1  UNL     1      -7.715  11.449   9.936  1.00  0.00    -0.267 OA
HETATM   15  C7  UNL     1      -5.659  11.126  10.798  1.00  0.00     0.083 A 
ENDROOT
TORSDOF 0
ENDMDL
