MODEL 5
REMARK VINA RESULT: -6.048456620      7.849      9.956
REMARK  0 active torsions:
REMARK  status: ('A' for Active; 'I' for Inactive)
ROOT
HETATM    1  C1  UNL     1     -10.282  10.871   9.184  1.00  0.00     0.050 C 
HETATM    2  C2  UNL     1     -11.609  11.414   9.583  1.00  0.00    -0.027 A 
HETATM    3  C3  UNL     1     -11.918  12.307  10.589  1.00  0.00     0.097 A 
HETATM    4  N1  UNL     1     -13.235  12.528  10.608  1.00  0.00    -0.351 N 
ATOM      5  H1  UNL     1     -13.716  13.150  11.259  1.00  0.00     0.166 HD
HETATM    6  C4  UNL     1     -13.834  11.808   9.639  1.00  0.00     0.123 A 
HETATM    7  N2  UNL     1     -15.117  11.665   9.229  1.00  0.00    -0.316 N 
ATOM      8  H2  UNL     1     -15.841  12.191   9.719  1.00  0.00     0.170 HD
HETATM    9  C5  UNL     1     -15.490  10.869   8.212  1.00  0.00     0.196 A 
HETATM   10  N3  UNL     1     -16.847  10.752   7.820  1.00  0.00    -0.063 NA
HETATM   11  N4  UNL     1     -14.509  10.181   7.574  1.00  0.00    -0.297 N 
ATOM     12  H4  UNL     1     -14.750   9.567   6.796  1.00  0.00     0.171 HD
HETATM   13  C6  UNL     1     -13.223  10.297   7.953  1.00  0.00     0.262 A 
HETATM   14  O1  UNL     1     -12.296   9.657   7.362  1.00  0.00    -0.267 OA
HETATM   15  C7  UNL     1     -12.831  11.112   8.996  1.00  0.00     0.083 A 
ENDROOT
TORSDOF 0
ENDMDL
