MODEL 4
REMARK VINA RESULT: -6.087720294      5.321      7.180
REMARK  0 active torsions:
REMARK  status: ('A' for Active; 'I' for Inactive)
ROOT
HETATM    1  C1  UNL     1      -8.167  12.148  11.736  1.00  0.00     0.050 C 
HETATM    2  C2  UNL     1      -8.504  10.968  10.894  1.00  0.00    -0.027 A 
HETATM    3  C3  UNL     1      -7.822   9.777  10.751  1.00  0.00     0.097 A 
HETATM    4  N1  UNL     1      -8.470   8.985   9.893  1.00  0.00    -0.351 N 
ATOM      5  H1  UNL     1      -8.171   8.049   9.617  1.00  0.00     0.166 HD
HETATM    6  C4  UNL     1      -9.581   9.606   9.447  1.00  0.00     0.123 A 
HETATM    7  N2  UNL     1     -10.570   9.263   8.587  1.00  0.00    -0.316 N 
ATOM      8  H2  UNL     1     -10.526   8.345   8.144  1.00  0.00     0.170 HD
HETATM    9  C5  UNL     1     -11.605  10.065   8.286  1.00  0.00     0.196 A 
HETATM   10  N3  UNL     1     -12.617   9.661   7.378  1.00  0.00    -0.063 NA
HETATM   11  N4  UNL     1     -11.642  11.280   8.889  1.00  0.00    -0.297 N 
ATOM     12  H4  UNL     1     -12.412  11.918   8.687  1.00  0.00     0.171 HD
HETATM   13  C6  UNL     1     -10.678  11.656   9.748  1.00  0.00     0.262 A 
HETATM   14  O1  UNL     1     -10.702  12.793  10.318  1.00  0.00    -0.267 OA
HETATM   15  C7  UNL     1      -9.610  10.839  10.064  1.00  0.00     0.083 A 
ENDROOT
TORSDOF 0
ENDMDL
