MODEL 7
REMARK VINA RESULT: -5.955549781      1.291      3.710
REMARK  0 active torsions:
REMARK  status: ('A' for Active; 'I' for Inactive)
ROOT
HETATM    1  C1  UNL     1      -5.094  15.436  12.869  1.00  0.00     0.050 C 
HETATM    2  C2  UNL     1      -5.308  14.050  13.365  1.00  0.00    -0.027 A 
HETATM    3  C3  UNL     1      -4.412  13.193  13.973  1.00  0.00     0.097 A 
HETATM    4  N1  UNL     1      -5.016  12.038  14.262  1.00  0.00    -0.351 N 
ATOM      5  H1  UNL     1      -4.570  11.240  14.715  1.00  0.00     0.166 HD
HETATM    6  C4  UNL     1      -6.304  12.083  13.866  1.00  0.00     0.123 A 
HETATM    7  N2  UNL     1      -7.336  11.207  13.917  1.00  0.00    -0.316 N 
ATOM      8  H2  UNL     1      -7.171  10.292  14.335  1.00  0.00     0.170 HD
HETATM    9  C5  UNL     1      -8.566  11.477  13.447  1.00  0.00     0.196 A 
HETATM   10  N3  UNL     1      -9.614  10.526  13.522  1.00  0.00    -0.063 NA
HETATM   11  N4  UNL     1      -8.762  12.702  12.896  1.00  0.00    -0.297 N 
ATOM     12  H4  UNL     1      -9.682  12.946  12.529  1.00  0.00     0.171 HD
HETATM   13  C6  UNL     1      -7.761  13.598  12.827  1.00  0.00     0.262 A 
HETATM   14  O1  UNL     1      -7.934  14.749  12.313  1.00  0.00    -0.267 OA
HETATM   15  C7  UNL     1      -6.495  13.330  13.308  1.00  0.00     0.083 A 
ENDROOT
TORSDOF 0
ENDMDL
