MODEL 13
REMARK VINA RESULT: -7.411024663      3.758      5.271
REMARK  1 active torsions:
REMARK  status: ('A' for Active; 'I' for Inactive)
REMARK    1  A    between atoms: C4_8  and  C5_9 
ROOT
HETATM    1  N1  UNL     1     -19.842  13.321   2.673  1.00  0.00    -0.063 NA
HETATM    2  C1  UNL     1     -18.845  14.053   3.365  1.00  0.00     0.195 A 
HETATM    3  N2  UNL     1     -18.750  15.388   3.225  1.00  0.00    -0.318 N 
ATOM      4  H2  UNL     1     -19.414  15.857   2.609  1.00  0.00     0.169 HD
HETATM    5  C2  UNL     1     -17.830  16.135   3.853  1.00  0.00     0.133 A 
HETATM    6  N3  UNL     1     -17.742  17.546   3.673  1.00  0.00    -0.082 NA
HETATM    7  C3  UNL     1     -16.937  15.497   4.685  1.00  0.00     0.062 A 
HETATM    8  C4  UNL     1     -15.885  15.913   5.467  1.00  0.00     0.007 A 
HETATM    9  C11 UNL     1     -15.358  14.790   6.073  1.00  0.00     0.103 A 
HETATM   10  N4  UNL     1     -16.048  13.710   5.689  1.00  0.00    -0.351 N 
ATOM     11  H4  UNL     1     -15.853  12.758   6.000  1.00  0.00     0.166 HD
HETATM   12  C12 UNL     1     -17.032  14.045   4.843  1.00  0.00     0.122 A 
HETATM   13  N5  UNL     1     -17.989  13.384   4.170  1.00  0.00    -0.316 N 
ATOM     14  H5  UNL     1     -18.070  12.372   4.268  1.00  0.00     0.170 HD
ENDROOT
BRANCH   8  15
HETATM   15  C5  UNL     1     -15.412  17.294   5.664  1.00  0.00    -0.023 A 
HETATM   16  C6  UNL     1     -14.411  17.834   4.902  1.00  0.00     0.015 A 
HETATM   17  C7  UNL     1     -14.006  19.125   5.154  1.00  0.00     0.043 A 
HETATM   18  C8  UNL     1     -14.580  19.876   6.145  1.00  0.00     0.116 A 
HETATM   19  F1  UNL     1     -14.165  21.160   6.383  1.00  0.00    -0.206 F 
HETATM   20  C9  UNL     1     -15.594  19.358   6.930  1.00  0.00     0.043 A 
HETATM   21  C10 UNL     1     -15.984  18.053   6.657  1.00  0.00     0.015 A 
ENDBRANCH   8  15
TORSDOF 1
ENDMDL
