MODEL 1
REMARK VINA RESULT: -7.860874074      0.000      0.000
REMARK  1 active torsions:
REMARK  status: ('A' for Active; 'I' for Inactive)
REMARK    1  A    between atoms: C4_8  and  C5_9 
ROOT
HETATM    1  N1  UNL     1     -17.618  12.125  -3.583  1.00  0.00    -0.063 NA
HETATM    2  C1  UNL     1     -17.553  12.362  -2.187  1.00  0.00     0.195 A 
HETATM    3  N2  UNL     1     -17.169  13.561  -1.711  1.00  0.00    -0.318 N 
ATOM      4  H2  UNL     1     -16.927  14.292  -2.380  1.00  0.00     0.169 HD
HETATM    5  C2  UNL     1     -17.087  13.846  -0.403  1.00  0.00     0.133 A 
HETATM    6  N3  UNL     1     -16.660  15.120   0.073  1.00  0.00    -0.082 NA
HETATM    7  C3  UNL     1     -17.414  12.857   0.497  1.00  0.00     0.062 A 
HETATM    8  C4  UNL     1     -17.445  12.777   1.870  1.00  0.00     0.007 A 
HETATM    9  C11 UNL     1     -17.857  11.499   2.194  1.00  0.00     0.103 A 
HETATM   10  N4  UNL     1     -18.076  10.802   1.073  1.00  0.00    -0.351 N 
ATOM     11  H4  UNL     1     -18.387   9.831   1.048  1.00  0.00     0.166 HD
HETATM   12  C12 UNL     1     -17.833  11.550  -0.012  1.00  0.00     0.122 A 
HETATM   13  N5  UNL     1     -17.882  11.361  -1.342  1.00  0.00    -0.316 N 
ATOM     14  H5  UNL     1     -18.171  10.456  -1.715  1.00  0.00     0.170 HD
ENDROOT
BRANCH   8  15
HETATM   15  C5  UNL     1     -17.136  13.847   2.833  1.00  0.00    -0.023 A 
HETATM   16  C6  UNL     1     -15.901  13.969   3.410  1.00  0.00     0.015 A 
HETATM   17  C7  UNL     1     -15.688  14.982   4.316  1.00  0.00     0.043 A 
HETATM   18  C8  UNL     1     -16.680  15.866   4.651  1.00  0.00     0.116 A 
HETATM   19  F1  UNL     1     -16.451  16.870   5.555  1.00  0.00    -0.206 F 
HETATM   20  C9  UNL     1     -17.937  15.768   4.083  1.00  0.00     0.043 A 
HETATM   21  C10 UNL     1     -18.127  14.737   3.172  1.00  0.00     0.015 A 
ENDBRANCH   8  15
TORSDOF 1
ENDMDL
