MODEL 3
REMARK VINA RESULT: -7.735400888      2.462      2.876
REMARK  1 active torsions:
REMARK  status: ('A' for Active; 'I' for Inactive)
REMARK    1  A    between atoms: C4_8  and  C5_9 
ROOT
HETATM    1  N1  UNL     1     -20.573  11.862  -1.314  1.00  0.00    -0.063 NA
HETATM    2  C1  UNL     1     -19.378  11.892  -0.551  1.00  0.00     0.195 A 
HETATM    3  N2  UNL     1     -19.287  12.654   0.553  1.00  0.00    -0.318 N 
ATOM      4  H2  UNL     1     -20.098  13.208   0.827  1.00  0.00     0.169 HD
HETATM    5  C2  UNL     1     -18.185  12.725   1.315  1.00  0.00     0.133 A 
HETATM    6  N3  UNL     1     -18.110  13.555   2.471  1.00  0.00    -0.082 NA
HETATM    7  C3  UNL     1     -17.092  11.975   0.943  1.00  0.00     0.062 A 
HETATM    8  C4  UNL     1     -15.827  11.799   1.453  1.00  0.00     0.007 A 
HETATM    9  C11 UNL     1     -15.171  10.913   0.621  1.00  0.00     0.103 A 
HETATM   10  N4  UNL     1     -15.988  10.546  -0.373  1.00  0.00    -0.351 N 
ATOM     11  H4  UNL     1     -15.736   9.897  -1.119  1.00  0.00     0.166 HD
HETATM   12  C12 UNL     1     -17.182  11.143  -0.258  1.00  0.00     0.122 A 
HETATM   13  N5  UNL     1     -18.330  11.140  -0.956  1.00  0.00    -0.316 N 
ATOM     14  H5  UNL     1     -18.412  10.567  -1.796  1.00  0.00     0.170 HD
ENDROOT
BRANCH   8  15
HETATM   15  C5  UNL     1     -15.266  12.403   2.673  1.00  0.00    -0.023 A 
HETATM   16  C6  UNL     1     -14.594  13.596   2.650  1.00  0.00     0.015 A 
HETATM   17  C7  UNL     1     -14.080  14.092   3.826  1.00  0.00     0.043 A 
HETATM   18  C8  UNL     1     -14.224  13.422   5.012  1.00  0.00     0.116 A 
HETATM   19  F1  UNL     1     -13.705  13.930   6.174  1.00  0.00    -0.206 F 
HETATM   20  C9  UNL     1     -14.898  12.215   5.066  1.00  0.00     0.043 A 
HETATM   21  C10 UNL     1     -15.408  11.735   3.867  1.00  0.00     0.015 A 
ENDBRANCH   8  15
TORSDOF 1
ENDMDL
