MODEL 2
REMARK VINA RESULT: -7.819188131      0.087      1.125
REMARK  1 active torsions:
REMARK  status: ('A' for Active; 'I' for Inactive)
REMARK    1  A    between atoms: C4_8  and  C5_9 
ROOT
HETATM    1  N1  UNL     1     -17.623  12.108  -3.573  1.00  0.00    -0.063 NA
HETATM    2  C1  UNL     1     -17.574  12.346  -2.176  1.00  0.00     0.195 A 
HETATM    3  N2  UNL     1     -17.260  13.563  -1.697  1.00  0.00    -0.318 N 
ATOM      4  H2  UNL     1     -17.060  14.308  -2.364  1.00  0.00     0.169 HD
HETATM    5  C2  UNL     1     -17.197  13.850  -0.388  1.00  0.00     0.133 A 
HETATM    6  N3  UNL     1     -16.845  15.145   0.092  1.00  0.00    -0.082 NA
HETATM    7  C3  UNL     1     -17.468  12.841   0.509  1.00  0.00     0.062 A 
HETATM    8  C4  UNL     1     -17.497  12.756   1.881  1.00  0.00     0.007 A 
HETATM    9  C11 UNL     1     -17.835  11.456   2.203  1.00  0.00     0.103 A 
HETATM   10  N4  UNL     1     -18.011  10.750   1.080  1.00  0.00    -0.351 N 
ATOM     11  H4  UNL     1     -18.266   9.763   1.052  1.00  0.00     0.166 HD
HETATM   12  C12 UNL     1     -17.810  11.513  -0.003  1.00  0.00     0.122 A 
HETATM   13  N5  UNL     1     -17.847  11.325  -1.334  1.00  0.00    -0.316 N 
ATOM     14  H5  UNL     1     -18.082  10.406  -1.709  1.00  0.00     0.170 HD
ENDROOT
BRANCH   8  15
HETATM   15  C5  UNL     1     -17.252  13.840   2.847  1.00  0.00    -0.023 A 
HETATM   16  C6  UNL     1     -18.241  14.704   3.237  1.00  0.00     0.015 A 
HETATM   17  C7  UNL     1     -17.936  15.705   4.129  1.00  0.00     0.043 A 
HETATM   18  C8  UNL     1     -16.671  15.856   4.633  1.00  0.00     0.116 A 
HETATM   19  F1  UNL     1     -16.385  16.860   5.522  1.00  0.00    -0.206 F 
HETATM   20  C9  UNL     1     -15.652  15.000   4.259  1.00  0.00     0.043 A 
HETATM   21  C10 UNL     1     -15.985  13.997   3.358  1.00  0.00     0.015 A 
ENDBRANCH   8  15
TORSDOF 1
ENDMDL
