MODEL 2
REMARK VINA RESULT: -9.169044449      3.222      6.773
REMARK  2 active torsions:
REMARK  status: ('A' for Active; 'I' for Inactive)
REMARK    1  A    between atoms: C3_8  and  C4_9 
REMARK    2  A    between atoms: C10_15  and  C11_16 
ROOT
HETATM    1  N1  UNL     1      22.607 -12.756   2.522  1.00  0.00    -0.063 NA
HETATM    2  C1  UNL     1      21.699 -13.284   3.476  1.00  0.00     0.196 A 
HETATM    3  N2  UNL     1      21.356 -12.613   4.577  1.00  0.00    -0.316 N 
ATOM      4  H2  UNL     1      21.755 -11.690   4.747  1.00  0.00     0.170 HD
HETATM    5  C2  UNL     1      20.484 -13.141   5.476  1.00  0.00     0.125 A 
HETATM    6  N3  UNL     1      20.002 -12.651   6.640  1.00  0.00    -0.340 N 
ATOM      7  H3  UNL     1      20.225 -11.749   7.061  1.00  0.00     0.167 HD
HETATM    8  C3  UNL     1      19.163 -13.593   7.140  1.00  0.00     0.056 A 
HETATM    9  C10 UNL     1      19.124 -14.669   6.286  1.00  0.00     0.021 A 
HETATM   10  C17 UNL     1      19.950 -14.390   5.242  1.00  0.00     0.089 A 
HETATM   11  C18 UNL     1      20.305 -15.101   4.090  1.00  0.00     0.262 A 
HETATM   12  O1  UNL     1      19.803 -16.221   3.914  1.00  0.00    -0.267 OA
HETATM   13  N4  UNL     1      21.170 -14.515   3.249  1.00  0.00    -0.297 N 
ATOM     14  H4  UNL     1      21.442 -15.015   2.403  1.00  0.00     0.171 HD
ENDROOT
BRANCH   8  15
HETATM   15  C4  UNL     1      18.449 -13.410   8.406  1.00  0.00    -0.009 A 
HETATM   16  C5  UNL     1      19.120 -13.448   9.603  1.00  0.00     0.014 A 
HETATM   17  C6  UNL     1      18.457 -13.277  10.820  1.00  0.00     0.001 A 
HETATM   18  C7  UNL     1      17.101 -13.065  10.822  1.00  0.00     0.000 A 
HETATM   19  C8  UNL     1      16.396 -13.021   9.625  1.00  0.00     0.001 A 
HETATM   20  C9  UNL     1      17.091 -13.195   8.435  1.00  0.00     0.014 A 
ENDBRANCH   8  15
BRANCH   9  21
HETATM   21  C11 UNL     1      18.339 -15.878   6.473  1.00  0.00    -0.022 A 
HETATM   22  C12 UNL     1      17.101 -16.056   5.881  1.00  0.00     0.012 A 
HETATM   23  C13 UNL     1      16.355 -17.200   6.058  1.00  0.00     0.001 A 
HETATM   24  C14 UNL     1      16.858 -18.215   6.860  1.00  0.00     0.000 A 
HETATM   25  C15 UNL     1      18.107 -18.057   7.468  1.00  0.00     0.001 A 
HETATM   26  C16 UNL     1      18.821 -16.896   7.263  1.00  0.00     0.012 A 
ENDBRANCH   9  21
TORSDOF 2
ENDMDL
