MODEL 1
REMARK VINA RESULT: -9.228277179      0.000      0.000
REMARK  2 active torsions:
REMARK  status: ('A' for Active; 'I' for Inactive)
REMARK    1  A    between atoms: C3_8  and  C4_9 
REMARK    2  A    between atoms: C10_15  and  C11_16 
ROOT
HETATM    1  N1  UNL     1      16.320 -13.600  10.451  1.00  0.00    -0.063 NA
HETATM    2  C1  UNL     1      16.911 -13.207   9.223  1.00  0.00     0.196 A 
HETATM    3  N2  UNL     1      17.984 -13.820   8.723  1.00  0.00    -0.316 N 
ATOM      4  H2  UNL     1      18.402 -14.598   9.233  1.00  0.00     0.170 HD
HETATM    5  C2  UNL     1      18.532 -13.425   7.543  1.00  0.00     0.125 A 
HETATM    6  N3  UNL     1      19.600 -13.891   6.857  1.00  0.00    -0.340 N 
ATOM      7  H3  UNL     1      20.207 -14.664   7.128  1.00  0.00     0.167 HD
HETATM    8  C3  UNL     1      19.706 -13.129   5.739  1.00  0.00     0.056 A 
HETATM    9  C10 UNL     1      18.702 -12.190   5.730  1.00  0.00     0.021 A 
HETATM   10  C17 UNL     1      17.965 -12.372   6.858  1.00  0.00     0.089 A 
HETATM   11  C18 UNL     1      16.839 -11.721   7.376  1.00  0.00     0.262 A 
HETATM   12  O1  UNL     1      16.357 -10.778   6.731  1.00  0.00    -0.267 OA
HETATM   13  N4  UNL     1      16.355 -12.169   8.544  1.00  0.00    -0.297 N 
ATOM     14  H4  UNL     1      15.534 -11.710   8.940  1.00  0.00     0.171 HD
ENDROOT
BRANCH   8  15
HETATM   15  C4  UNL     1      20.761 -13.344   4.746  1.00  0.00    -0.009 A 
HETATM   16  C5  UNL     1      20.961 -14.583   4.189  1.00  0.00     0.014 A 
HETATM   17  C6  UNL     1      21.962 -14.807   3.243  1.00  0.00     0.001 A 
HETATM   18  C7  UNL     1      22.768 -13.766   2.857  1.00  0.00     0.000 A 
HETATM   19  C8  UNL     1      22.589 -12.500   3.404  1.00  0.00     0.001 A 
HETATM   20  C9  UNL     1      21.581 -12.317   4.343  1.00  0.00     0.014 A 
ENDBRANCH   8  15
BRANCH   9  21
HETATM   21  C11 UNL     1      18.480 -11.191   4.698  1.00  0.00    -0.022 A 
HETATM   22  C12 UNL     1      17.752 -11.459   3.552  1.00  0.00     0.012 A 
HETATM   23  C13 UNL     1      17.541 -10.515   2.573  1.00  0.00     0.001 A 
HETATM   24  C14 UNL     1      18.077  -9.244   2.735  1.00  0.00     0.000 A 
HETATM   25  C15 UNL     1      18.816  -8.951   3.885  1.00  0.00     0.001 A 
HETATM   26  C16 UNL     1      19.003  -9.925   4.841  1.00  0.00     0.012 A 
ENDBRANCH   9  21
TORSDOF 2
ENDMDL
