MODEL 5
REMARK VINA RESULT: -8.896650897      1.755      4.122
REMARK  2 active torsions:
REMARK  status: ('A' for Active; 'I' for Inactive)
REMARK    1  A    between atoms: C3_8  and  C4_9 
REMARK    2  A    between atoms: C10_15  and  C11_16 
ROOT
HETATM    1  N1  UNL     1      16.264 -14.116  11.437  1.00  0.00    -0.063 NA
HETATM    2  C1  UNL     1      16.816 -13.891  10.150  1.00  0.00     0.196 A 
HETATM    3  N2  UNL     1      16.593 -12.767   9.468  1.00  0.00    -0.316 N 
ATOM      4  H2  UNL     1      16.007 -12.039   9.877  1.00  0.00     0.170 HD
HETATM    5  C2  UNL     1      17.135 -12.575   8.236  1.00  0.00     0.125 A 
HETATM    6  N3  UNL     1      17.045 -11.535   7.378  1.00  0.00    -0.340 N 
ATOM      7  H3  UNL     1      16.527 -10.668   7.522  1.00  0.00     0.167 HD
HETATM    8  C3  UNL     1      17.780 -11.868   6.286  1.00  0.00     0.056 A 
HETATM    9  C10 UNL     1      18.326 -13.116   6.467  1.00  0.00     0.021 A 
HETATM   10  C17 UNL     1      17.924 -13.562   7.688  1.00  0.00     0.089 A 
HETATM   11  C18 UNL     1      18.163 -14.746   8.396  1.00  0.00     0.262 A 
HETATM   12  O1  UNL     1      18.879 -15.611   7.869  1.00  0.00    -0.267 OA
HETATM   13  N4  UNL     1      17.596 -14.862   9.606  1.00  0.00    -0.297 N 
ATOM     14  H4  UNL     1      17.756 -15.716  10.140  1.00  0.00     0.171 HD
ENDROOT
BRANCH   8  15
HETATM   15  C4  UNL     1      17.915 -10.973   5.135  1.00  0.00    -0.009 A 
HETATM   16  C5  UNL     1      17.284 -11.255   3.948  1.00  0.00     0.014 A 
HETATM   17  C6  UNL     1      17.403 -10.415   2.839  1.00  0.00     0.001 A 
HETATM   18  C7  UNL     1      18.168  -9.280   2.933  1.00  0.00     0.000 A 
HETATM   19  C8  UNL     1      18.819  -8.970   4.122  1.00  0.00     0.001 A 
HETATM   20  C9  UNL     1      18.676  -9.830   5.204  1.00  0.00     0.014 A 
ENDBRANCH   8  15
BRANCH   9  21
HETATM   21  C11 UNL     1      19.176 -13.819   5.522  1.00  0.00    -0.022 A 
HETATM   22  C12 UNL     1      18.723 -14.893   4.775  1.00  0.00     0.012 A 
HETATM   23  C13 UNL     1      19.527 -15.562   3.879  1.00  0.00     0.001 A 
HETATM   24  C14 UNL     1      20.842 -15.149   3.715  1.00  0.00     0.000 A 
HETATM   25  C15 UNL     1      21.322 -14.066   4.459  1.00  0.00     0.001 A 
HETATM   26  C16 UNL     1      20.483 -13.425   5.344  1.00  0.00     0.012 A 
ENDBRANCH   9  21
TORSDOF 2
ENDMDL
