MODEL 3
REMARK VINA RESULT: -9.124266734      3.252      6.790
REMARK  2 active torsions:
REMARK  status: ('A' for Active; 'I' for Inactive)
REMARK    1  A    between atoms: C3_8  and  C4_9 
REMARK    2  A    between atoms: C10_15  and  C11_16 
ROOT
HETATM    1  N1  UNL     1      22.721 -12.829   2.591  1.00  0.00    -0.063 NA
HETATM    2  C1  UNL     1      21.790 -13.341   3.531  1.00  0.00     0.196 A 
HETATM    3  N2  UNL     1      21.444 -12.667   4.628  1.00  0.00    -0.316 N 
ATOM      4  H2  UNL     1      21.857 -11.752   4.807  1.00  0.00     0.170 HD
HETATM    5  C2  UNL     1      20.549 -13.181   5.513  1.00  0.00     0.125 A 
HETATM    6  N3  UNL     1      20.059 -12.684   6.671  1.00  0.00    -0.340 N 
ATOM      7  H3  UNL     1      20.292 -11.788   7.097  1.00  0.00     0.167 HD
HETATM    8  C3  UNL     1      19.195 -13.611   7.156  1.00  0.00     0.056 A 
HETATM    9  C10 UNL     1      19.148 -14.684   6.298  1.00  0.00     0.021 A 
HETATM   10  C17 UNL     1      19.995 -14.418   5.267  1.00  0.00     0.089 A 
HETATM   11  C18 UNL     1      20.352 -15.133   4.119  1.00  0.00     0.262 A 
HETATM   12  O1  UNL     1      19.832 -16.243   3.932  1.00  0.00    -0.267 OA
HETATM   13  N4  UNL     1      21.241 -14.562   3.292  1.00  0.00    -0.297 N 
ATOM     14  H4  UNL     1      21.516 -15.064   2.449  1.00  0.00     0.171 HD
ENDROOT
BRANCH   8  15
HETATM   15  C4  UNL     1      18.466 -13.417   8.411  1.00  0.00    -0.009 A 
HETATM   16  C5  UNL     1      17.120 -13.144   8.409  1.00  0.00     0.014 A 
HETATM   17  C6  UNL     1      16.409 -12.955   9.595  1.00  0.00     0.001 A 
HETATM   18  C7  UNL     1      17.068 -13.044  10.795  1.00  0.00     0.000 A 
HETATM   19  C8  UNL     1      18.430 -13.319  10.829  1.00  0.00     0.001 A 
HETATM   20  C9  UNL     1      19.103 -13.501   9.627  1.00  0.00     0.014 A 
ENDBRANCH   8  15
BRANCH   9  21
HETATM   21  C11 UNL     1      18.337 -15.878   6.471  1.00  0.00    -0.022 A 
HETATM   22  C12 UNL     1      18.730 -16.929   7.283  1.00  0.00     0.012 A 
HETATM   23  C13 UNL     1      17.965 -18.061   7.447  1.00  0.00     0.001 A 
HETATM   24  C14 UNL     1      16.754 -18.160   6.774  1.00  0.00     0.000 A 
HETATM   25  C15 UNL     1      16.337 -17.111   5.949  1.00  0.00     0.001 A 
HETATM   26  C16 UNL     1      17.134 -15.994   5.814  1.00  0.00     0.012 A 
ENDBRANCH   9  21
TORSDOF 2
ENDMDL
