MODEL 4
REMARK VINA RESULT: -9.035865474      4.263      7.199
REMARK  2 active torsions:
REMARK  status: ('A' for Active; 'I' for Inactive)
REMARK    1  A    between atoms: C3_8  and  C4_9 
REMARK    2  A    between atoms: C10_15  and  C11_16 
ROOT
HETATM    1  N1  UNL     1      20.566 -11.143  -2.606  1.00  0.00    -0.063 NA
HETATM    2  C1  UNL     1      20.252 -11.554  -1.285  1.00  0.00     0.196 A 
HETATM    3  N2  UNL     1      19.538 -10.793  -0.454  1.00  0.00    -0.316 N 
ATOM      4  H2  UNL     1      19.202  -9.883  -0.770  1.00  0.00     0.170 HD
HETATM    5  C2  UNL     1      19.251 -11.210   0.807  1.00  0.00     0.125 A 
HETATM    6  N3  UNL     1      18.556 -10.616   1.804  1.00  0.00    -0.340 N 
ATOM      7  H3  UNL     1      18.104  -9.703   1.771  1.00  0.00     0.167 HD
HETATM    8  C3  UNL     1      18.577 -11.473   2.856  1.00  0.00     0.056 A 
HETATM    9  C10 UNL     1      19.285 -12.600   2.512  1.00  0.00     0.021 A 
HETATM   10  C17 UNL     1      19.709 -12.439   1.229  1.00  0.00     0.089 A 
HETATM   11  C18 UNL     1      20.460 -13.245   0.366  1.00  0.00     0.262 A 
HETATM   12  O1  UNL     1      20.854 -14.344   0.782  1.00  0.00    -0.267 OA
HETATM   13  N4  UNL     1      20.702 -12.766  -0.864  1.00  0.00    -0.297 N 
ATOM     14  H4  UNL     1      21.247 -13.335  -1.511  1.00  0.00     0.171 HD
ENDROOT
BRANCH   8  15
HETATM   15  C4  UNL     1      17.921 -11.164   4.127  1.00  0.00    -0.009 A 
HETATM   16  C5  UNL     1      18.378 -10.144   4.925  1.00  0.00     0.014 A 
HETATM   17  C6  UNL     1      17.767  -9.835   6.141  1.00  0.00     0.001 A 
HETATM   18  C7  UNL     1      16.680 -10.566   6.553  1.00  0.00     0.000 A 
HETATM   19  C8  UNL     1      16.195 -11.604   5.766  1.00  0.00     0.001 A 
HETATM   20  C9  UNL     1      16.831 -11.881   4.562  1.00  0.00     0.014 A 
ENDBRANCH   8  15
BRANCH   9  21
HETATM   21  C11 UNL     1      19.530 -13.747   3.370  1.00  0.00    -0.022 A 
HETATM   22  C12 UNL     1      18.594 -14.752   3.549  1.00  0.00     0.012 A 
HETATM   23  C13 UNL     1      18.823 -15.839   4.362  1.00  0.00     0.001 A 
HETATM   24  C14 UNL     1      20.035 -15.936   5.031  1.00  0.00     0.000 A 
HETATM   25  C15 UNL     1      20.995 -14.934   4.866  1.00  0.00     0.001 A 
HETATM   26  C16 UNL     1      20.726 -13.863   4.042  1.00  0.00     0.012 A 
ENDBRANCH   9  21
TORSDOF 2
ENDMDL
