MODEL 10
REMARK VINA RESULT: -8.627362807      3.148      6.678
REMARK  2 active torsions:
REMARK  status: ('A' for Active; 'I' for Inactive)
REMARK    1  A    between atoms: C3_8  and  C4_9 
REMARK    2  A    between atoms: C10_15  and  C11_16 
ROOT
HETATM    1  N1  UNL     1      20.495 -11.637   1.835  1.00  0.00    -0.063 NA
HETATM    2  C1  UNL     1      19.966 -12.358   2.936  1.00  0.00     0.196 A 
HETATM    3  N2  UNL     1      19.769 -11.792   4.127  1.00  0.00    -0.316 N 
ATOM      4  H2  UNL     1      20.004 -10.808   4.261  1.00  0.00     0.170 HD
HETATM    5  C2  UNL     1      19.261 -12.505   5.167  1.00  0.00     0.125 A 
HETATM    6  N3  UNL     1      18.982 -12.145   6.440  1.00  0.00    -0.340 N 
ATOM      7  H3  UNL     1      19.113 -11.223   6.855  1.00  0.00     0.167 HD
HETATM    8  C3  UNL     1      18.492 -13.250   7.057  1.00  0.00     0.056 A 
HETATM    9  C10 UNL     1      18.467 -14.296   6.167  1.00  0.00     0.021 A 
HETATM   10  C17 UNL     1      18.947 -13.834   4.981  1.00  0.00     0.089 A 
HETATM   11  C18 UNL     1      19.152 -14.437   3.735  1.00  0.00     0.262 A 
HETATM   12  O1  UNL     1      18.857 -15.635   3.607  1.00  0.00    -0.267 OA
HETATM   13  N4  UNL     1      19.656 -13.669   2.757  1.00  0.00    -0.297 N 
ATOM     14  H4  UNL     1      19.813 -14.088   1.840  1.00  0.00     0.171 HD
ENDROOT
BRANCH   8  15
HETATM   15  C4  UNL     1      18.079 -13.240   8.462  1.00  0.00    -0.009 A 
HETATM   16  C5  UNL     1      16.751 -13.173   8.804  1.00  0.00     0.014 A 
HETATM   17  C6  UNL     1      16.338 -13.161  10.138  1.00  0.00     0.001 A 
HETATM   18  C7  UNL     1      17.280 -13.217  11.134  1.00  0.00     0.000 A 
HETATM   19  C8  UNL     1      18.632 -13.285  10.817  1.00  0.00     0.001 A 
HETATM   20  C9  UNL     1      19.003 -13.295   9.478  1.00  0.00     0.014 A 
ENDBRANCH   8  15
BRANCH   9  21
HETATM   21  C11 UNL     1      18.008 -15.646   6.451  1.00  0.00    -0.022 A 
HETATM   22  C12 UNL     1      18.781 -16.561   7.144  1.00  0.00     0.012 A 
HETATM   23  C13 UNL     1      18.350 -17.840   7.413  1.00  0.00     0.001 A 
HETATM   24  C14 UNL     1      17.092 -18.233   6.975  1.00  0.00     0.000 A 
HETATM   25  C15 UNL     1      16.293 -17.325   6.274  1.00  0.00     0.001 A 
HETATM   26  C16 UNL     1      16.764 -16.054   6.026  1.00  0.00     0.012 A 
ENDBRANCH   9  21
TORSDOF 2
ENDMDL
