MODEL 8
REMARK VINA RESULT: -7.535882460      4.304      6.745
REMARK  6 active torsions:
REMARK  status: ('A' for Active; 'I' for Inactive)
REMARK       I    between atoms: N1_2  and  C2_4 
REMARK    1  A    between atoms: C2_4  and  C3_6 
REMARK    2  A    between atoms: C8_12  and  C9_13 
REMARK    3  A    between atoms: C9_13  and  O2_15 
REMARK    4  A    between atoms: O2_15  and  C11_16 
REMARK    5  A    between atoms: C12_19  and  C13_20 
REMARK    6  A    between atoms: C17_26  and  O3_27 
ROOT
HETATM    1  C11 UNL     1      35.736  44.471   5.927  1.00  0.00     0.190 A 
HETATM    2  N2  UNL     1      35.702  45.715   6.550  1.00  0.00    -0.332 N 
ATOM      3  H2  UNL     1      35.270  45.780   7.472  1.00  0.00     0.168 HD
HETATM    4  C12 UNL     1      36.199  46.817   6.014  1.00  0.00     0.064 A 
HETATM    5  C19 UNL     1      36.786  46.676   4.739  1.00  0.00     0.120 A 
HETATM    6  N4  UNL     1      36.822  45.494   4.139  1.00  0.00    -0.349 N 
ATOM      7  H4  UNL     1      37.251  45.428   3.216  1.00  0.00     0.166 HD
HETATM    8  C20 UNL     1      36.305  44.349   4.710  1.00  0.00     0.168 A 
HETATM    9  N5  UNL     1      36.548  43.156   3.940  1.00  0.00    -0.078 NA
ENDROOT
BRANCH   1  10
HETATM   10  O2  UNL     1      35.158  43.415   6.618  1.00  0.00    -0.295 OA
BRANCH  10  11
HETATM   11  C9  UNL     1      34.635  43.342   7.857  1.00  0.00     0.063 C 
HETATM   12  C10 UNL     1      35.380  42.475   8.877  1.00  0.00     0.077 C 
BRANCH  11  13
HETATM   13  C8  UNL     1      33.213  43.442   8.149  1.00  0.00     0.012 A 
HETATM   14  C3  UNL     1      32.687  44.354   9.042  1.00  0.00     0.044 A 
HETATM   15  C4  UNL     1      31.380  44.292   9.454  1.00  0.00     0.021 A 
HETATM   16  C5  UNL     1      30.496  43.312   8.997  1.00  0.00     0.043 A 
HETATM   17  C6  UNL     1      30.994  42.411   8.114  1.00  0.00     0.117 A 
HETATM   18  F1  UNL     1      30.160  41.423   7.655  1.00  0.00    -0.206 F 
HETATM   19  C7  UNL     1      32.300  42.478   7.713  1.00  0.00     0.057 A 
BRANCH  14  20
HETATM   20  C2  UNL     1      33.450  45.548   9.446  1.00  0.00     0.252 C 
HETATM   21  N1  UNL     1      34.059  45.460  10.746  1.00  0.00    -0.361 N 
HETATM   22  C1  UNL     1      34.833  46.496  11.354  1.00  0.00     0.149 C 
ATOM     23  H1  UNL     1      33.929  44.595  11.273  1.00  0.00     0.162 HD
HETATM   24  O1  UNL     1      33.578  46.554   8.769  1.00  0.00    -0.268 OA
ENDBRANCH  14  20
ENDBRANCH  11  13
ENDBRANCH  10  11
ENDBRANCH   1  10
BRANCH   4  25
HETATM   25  C13 UNL     1      36.314  48.119   6.657  1.00  0.00     0.043 A 
HETATM   26  C14 UNL     1      35.585  49.210   6.158  1.00  0.00     0.019 A 
HETATM   27  C15 UNL     1      35.631  50.461   6.701  1.00  0.00     0.018 A 
HETATM   28  C16 UNL     1      36.436  50.692   7.802  1.00  0.00     0.090 A 
HETATM   29  N3  UNL     1      37.141  49.652   8.289  1.00  0.00    -0.346 N 
HETATM   30  C17 UNL     1      37.095  48.401   7.746  1.00  0.00     0.154 A 
ATOM     31  H3  UNL     1      37.737  49.807   9.103  1.00  0.00     0.167 HD
BRANCH  30  32
HETATM   32  O3  UNL     1      37.869  47.381   8.300  1.00  0.00    -0.340 OA
HETATM   33  C18 UNL     1      39.277  47.502   8.360  1.00  0.00     0.211 C 
ENDBRANCH  30  32
ENDBRANCH   4  25
TORSDOF 6
ENDMDL
