MODEL 4
REMARK VINA RESULT: -7.731014709      3.365      5.471
REMARK  6 active torsions:
REMARK  status: ('A' for Active; 'I' for Inactive)
REMARK       I    between atoms: N1_2  and  C2_4 
REMARK    1  A    between atoms: C2_4  and  C3_6 
REMARK    2  A    between atoms: C8_12  and  C9_13 
REMARK    3  A    between atoms: C9_13  and  O2_15 
REMARK    4  A    between atoms: O2_15  and  C11_16 
REMARK    5  A    between atoms: C12_19  and  C13_20 
REMARK    6  A    between atoms: C17_26  and  O3_27 
ROOT
HETATM    1  C11 UNL     1      35.093  44.450   5.824  1.00  0.00     0.190 A 
HETATM    2  N2  UNL     1      34.294  45.530   6.187  1.00  0.00    -0.332 N 
ATOM      3  H2  UNL     1      33.885  45.533   7.122  1.00  0.00     0.168 HD
HETATM    4  C12 UNL     1      34.034  46.552   5.389  1.00  0.00     0.064 A 
HETATM    5  C19 UNL     1      34.621  46.502   4.108  1.00  0.00     0.120 A 
HETATM    6  N4  UNL     1      35.385  45.477   3.754  1.00  0.00    -0.349 N 
ATOM      7  H4  UNL     1      35.791  45.470   2.818  1.00  0.00     0.166 HD
HETATM    8  C20 UNL     1      35.653  44.418   4.597  1.00  0.00     0.168 A 
HETATM    9  N5  UNL     1      36.593  43.469   4.056  1.00  0.00    -0.078 NA
ENDROOT
BRANCH   1  10
HETATM   10  O2  UNL     1      35.256  43.452   6.773  1.00  0.00    -0.295 OA
BRANCH  10  11
HETATM   11  C9  UNL     1      34.667  43.254   7.969  1.00  0.00     0.063 C 
HETATM   12  C10 UNL     1      35.376  42.312   8.946  1.00  0.00     0.077 C 
BRANCH  11  13
HETATM   13  C8  UNL     1      33.229  43.299   8.187  1.00  0.00     0.012 A 
HETATM   14  C3  UNL     1      32.628  44.151   9.090  1.00  0.00     0.044 A 
HETATM   15  C4  UNL     1      31.303  44.032   9.427  1.00  0.00     0.021 A 
HETATM   16  C5  UNL     1      30.476  43.050   8.878  1.00  0.00     0.043 A 
HETATM   17  C6  UNL     1      31.048  42.207   7.983  1.00  0.00     0.117 A 
HETATM   18  F1  UNL     1      30.271  41.219   7.434  1.00  0.00    -0.206 F 
HETATM   19  C7  UNL     1      32.372  42.331   7.657  1.00  0.00     0.057 A 
BRANCH  14  20
HETATM   20  C2  UNL     1      33.330  45.347   9.590  1.00  0.00     0.252 C 
HETATM   21  N1  UNL     1      34.006  45.164  10.847  1.00  0.00    -0.361 N 
HETATM   22  C1  UNL     1      34.740  46.181  11.531  1.00  0.00     0.149 C 
ATOM     23  H1  UNL     1      33.959  44.242  11.281  1.00  0.00     0.162 HD
HETATM   24  O1  UNL     1      33.361  46.425   9.022  1.00  0.00    -0.268 OA
ENDBRANCH  14  20
ENDBRANCH  11  13
ENDBRANCH  10  11
ENDBRANCH   1  10
BRANCH   4  25
HETATM   25  C13 UNL     1      33.317  47.769   5.743  1.00  0.00     0.043 A 
HETATM   26  C14 UNL     1      32.041  48.009   5.207  1.00  0.00     0.019 A 
HETATM   27  C15 UNL     1      31.300  49.119   5.488  1.00  0.00     0.018 A 
HETATM   28  C16 UNL     1      31.814  50.077   6.344  1.00  0.00     0.090 A 
HETATM   29  N3  UNL     1      33.038  49.858   6.865  1.00  0.00    -0.346 N 
HETATM   30  C17 UNL     1      33.779  48.748   6.583  1.00  0.00     0.154 A 
ATOM     31  H3  UNL     1      33.428  50.555   7.500  1.00  0.00     0.167 HD
BRANCH  30  32
HETATM   32  O3  UNL     1      35.045  48.604   7.151  1.00  0.00    -0.340 OA
HETATM   33  C18 UNL     1      35.773  49.739   7.576  1.00  0.00     0.211 C 
ENDBRANCH  30  32
ENDBRANCH   4  25
TORSDOF 6
ENDMDL
