MODEL 9
REMARK VINA RESULT: -7.484578314      2.554      6.460
REMARK  6 active torsions:
REMARK  status: ('A' for Active; 'I' for Inactive)
REMARK       I    between atoms: N1_2  and  C2_4 
REMARK    1  A    between atoms: C2_4  and  C3_6 
REMARK    2  A    between atoms: C8_12  and  C9_13 
REMARK    3  A    between atoms: C9_13  and  O2_15 
REMARK    4  A    between atoms: O2_15  and  C11_16 
REMARK    5  A    between atoms: C12_19  and  C13_20 
REMARK    6  A    between atoms: C17_26  and  O3_27 
ROOT
HETATM    1  C11 UNL     1      31.960  49.217   7.408  1.00  0.00     0.190 A 
HETATM    2  N2  UNL     1      33.020  48.527   7.987  1.00  0.00    -0.332 N 
ATOM      3  H2  UNL     1      32.807  47.816   8.687  1.00  0.00     0.168 HD
HETATM    4  C12 UNL     1      34.289  48.740   7.681  1.00  0.00     0.064 A 
HETATM    5  C19 UNL     1      34.533  49.732   6.708  1.00  0.00     0.120 A 
HETATM    6  N4  UNL     1      33.528  50.394   6.151  1.00  0.00    -0.349 N 
ATOM      7  H4  UNL     1      33.739  51.107   5.453  1.00  0.00     0.166 HD
HETATM    8  C20 UNL     1      32.207  50.159   6.474  1.00  0.00     0.168 A 
HETATM    9  N5  UNL     1      31.271  50.907   5.673  1.00  0.00    -0.078 NA
ENDROOT
BRANCH   1  10
HETATM   10  O2  UNL     1      30.688  48.882   7.849  1.00  0.00    -0.295 OA
BRANCH  10  11
HETATM   11  C9  UNL     1      29.884  47.844   7.548  1.00  0.00     0.063 C 
HETATM   12  C10 UNL     1      28.456  48.176   7.103  1.00  0.00     0.077 C 
BRANCH  11  13
HETATM   13  C8  UNL     1      29.980  46.531   8.168  1.00  0.00     0.012 A 
HETATM   14  C3  UNL     1      30.658  45.474   7.597  1.00  0.00     0.044 A 
HETATM   15  C4  UNL     1      30.561  44.199   8.095  1.00  0.00     0.021 A 
HETATM   16  C5  UNL     1      29.779  43.887   9.209  1.00  0.00     0.043 A 
HETATM   17  C6  UNL     1      29.111  44.916   9.787  1.00  0.00     0.117 A 
HETATM   18  F1  UNL     1      28.320  44.646  10.875  1.00  0.00    -0.206 F 
HETATM   19  C7  UNL     1      29.210  46.183   9.281  1.00  0.00     0.057 A 
BRANCH  14  20
HETATM   20  C2  UNL     1      31.667  45.696   6.547  1.00  0.00     0.252 C 
HETATM   21  N1  UNL     1      32.987  45.223   6.871  1.00  0.00    -0.361 N 
HETATM   22  C1  UNL     1      34.126  45.339   6.017  1.00  0.00     0.149 C 
ATOM     23  H1  UNL     1      33.118  44.772   7.777  1.00  0.00     0.162 HD
HETATM   24  O1  UNL     1      31.449  46.235   5.475  1.00  0.00    -0.268 OA
ENDBRANCH  14  20
ENDBRANCH  11  13
ENDBRANCH  10  11
ENDBRANCH   1  10
BRANCH   4  25
HETATM   25  C13 UNL     1      35.435  47.974   8.148  1.00  0.00     0.043 A 
HETATM   26  C14 UNL     1      36.722  48.282   7.675  1.00  0.00     0.019 A 
HETATM   27  C15 UNL     1      37.848  47.618   8.063  1.00  0.00     0.018 A 
HETATM   28  C16 UNL     1      37.743  46.578   8.969  1.00  0.00     0.090 A 
HETATM   29  N3  UNL     1      36.514  46.273   9.430  1.00  0.00    -0.346 N 
HETATM   30  C17 UNL     1      35.387  46.937   9.042  1.00  0.00     0.154 A 
ATOM     31  H3  UNL     1      36.422  45.510  10.101  1.00  0.00     0.167 HD
BRANCH  30  32
HETATM   32  O3  UNL     1      34.149  46.548   9.554  1.00  0.00    -0.340 OA
HETATM   33  C18 UNL     1      34.052  45.448  10.436  1.00  0.00     0.211 C 
ENDBRANCH  30  32
ENDBRANCH   4  25
TORSDOF 6
ENDMDL
