MODEL 1
REMARK VINA RESULT: -8.032258293      0.000      0.000
REMARK  6 active torsions:
REMARK  status: ('A' for Active; 'I' for Inactive)
REMARK       I    between atoms: N1_2  and  C2_4 
REMARK    1  A    between atoms: C2_4  and  C3_6 
REMARK    2  A    between atoms: C8_12  and  C9_13 
REMARK    3  A    between atoms: C9_13  and  O2_15 
REMARK    4  A    between atoms: O2_15  and  C11_16 
REMARK    5  A    between atoms: C12_19  and  C13_20 
REMARK    6  A    between atoms: C17_26  and  O3_27 
ROOT
HETATM    1  C11 UNL     1      30.126  44.603   8.458  1.00  0.00     0.190 A 
HETATM    2  N2  UNL     1      29.850  45.802   7.808  1.00  0.00    -0.332 N 
ATOM      3  H2  UNL     1      30.342  46.001   6.937  1.00  0.00     0.168 HD
HETATM    4  C12 UNL     1      28.987  46.698   8.256  1.00  0.00     0.064 A 
HETATM    5  C19 UNL     1      28.333  46.378   9.464  1.00  0.00     0.120 A 
HETATM    6  N4  UNL     1      28.590  45.237  10.089  1.00  0.00    -0.349 N 
ATOM      7  H4  UNL     1      28.102  45.039  10.963  1.00  0.00     0.166 HD
HETATM    8  C20 UNL     1      29.489  44.307   9.610  1.00  0.00     0.168 A 
HETATM    9  N5  UNL     1      29.534  43.092  10.383  1.00  0.00    -0.078 NA
ENDROOT
BRANCH   1  10
HETATM   10  O2  UNL     1      31.069  43.777   7.863  1.00  0.00    -0.295 OA
BRANCH  10  11
HETATM   11  C9  UNL     1      32.400  43.674   8.038  1.00  0.00     0.063 C 
HETATM   12  C10 UNL     1      32.955  42.281   8.353  1.00  0.00     0.077 C 
BRANCH  11  13
HETATM   13  C8  UNL     1      33.238  44.737   8.574  1.00  0.00     0.012 A 
HETATM   14  C3  UNL     1      34.090  45.492   7.794  1.00  0.00     0.044 A 
HETATM   15  C4  UNL     1      35.015  46.341   8.347  1.00  0.00     0.021 A 
HETATM   16  C5  UNL     1      35.153  46.502   9.727  1.00  0.00     0.043 A 
HETATM   17  C6  UNL     1      34.319  45.773  10.509  1.00  0.00     0.117 A 
HETATM   18  F1  UNL     1      34.435  45.893  11.871  1.00  0.00    -0.206 F 
HETATM   19  C7  UNL     1      33.403  44.925   9.949  1.00  0.00     0.057 A 
BRANCH  14  20
HETATM   20  C2  UNL     1      33.918  45.567   6.333  1.00  0.00     0.252 C 
HETATM   21  N1  UNL     1      32.779  46.334   5.901  1.00  0.00    -0.361 N 
HETATM   22  C1  UNL     1      32.404  46.535   4.537  1.00  0.00     0.149 C 
ATOM     23  H1  UNL     1      32.199  46.767   6.620  1.00  0.00     0.162 HD
HETATM   24  O1  UNL     1      34.651  45.035   5.517  1.00  0.00    -0.268 OA
ENDBRANCH  14  20
ENDBRANCH  11  13
ENDBRANCH  10  11
ENDBRANCH   1  10
BRANCH   4  25
HETATM   25  C13 UNL     1      28.556  47.907   7.569  1.00  0.00     0.043 A 
HETATM   26  C14 UNL     1      27.194  48.251   7.547  1.00  0.00     0.019 A 
HETATM   27  C15 UNL     1      26.706  49.365   6.931  1.00  0.00     0.018 A 
HETATM   28  C16 UNL     1      27.581  50.218   6.281  1.00  0.00     0.090 A 
HETATM   29  N3  UNL     1      28.890  49.898   6.294  1.00  0.00    -0.346 N 
HETATM   30  C17 UNL     1      29.378  48.784   6.911  1.00  0.00     0.154 A 
ATOM     31  H3  UNL     1      29.547  50.520   5.822  1.00  0.00     0.167 HD
BRANCH  30  32
HETATM   32  O3  UNL     1      30.747  48.516   6.865  1.00  0.00    -0.340 OA
HETATM   33  C18 UNL     1      31.645  49.232   7.688  1.00  0.00     0.211 C 
ENDBRANCH  30  32
ENDBRANCH   4  25
TORSDOF 6
ENDMDL
