MODEL 3
REMARK VINA RESULT: -5.852535068      1.183      1.963
REMARK  10 active torsions:
REMARK  status: ('A' for Active; 'I' for Inactive)
REMARK    1  A    between atoms: N5_13  and  C6_14 
REMARK    2  A    between atoms: C7_16  and  C8_17 
REMARK    3  A    between atoms: C8_17  and  O2_18 
REMARK    4  A    between atoms: O2_18  and  P1_19 
REMARK    5  A    between atoms: P1_19  and  O5_22 
REMARK    6  A    between atoms: O5_22  and  P2_23 
REMARK    7  A    between atoms: P2_23  and  O8_26 
REMARK    8  A    between atoms: O8_26  and  P3_27 
REMARK    9  A    between atoms: C9_31  and  O12_32 
REMARK   10  A    between atoms: C10_34  and  O13_35 
ROOT
HETATM    1  C6  UNL     1     -10.666   7.948  29.687  1.00  0.00     0.159 C 
HETATM    2  O1  UNL     1     -10.475   9.328  29.871  1.00  0.00    -0.326 OA
HETATM    3  C7  UNL     1     -11.642   9.719  30.382  1.00  0.00     0.186 C 
HETATM    4  C9  UNL     1     -12.573   8.543  30.707  1.00  0.00     0.186 C 
HETATM    5  C10 UNL     1     -11.418   7.517  30.896  1.00  0.00     0.224 C 
ENDROOT
BRANCH   3   6
HETATM    6  C8  UNL     1     -11.835  10.681  31.483  1.00  0.00     0.216 C 
BRANCH   6   7
HETATM    7  O2  UNL     1     -10.908  10.393  32.517  1.00  0.00    -0.287 OA
BRANCH   7   8
HETATM    8  P1  UNL     1     -11.515  11.407  33.801  1.00  0.00     0.417 P 
HETATM    9  O3  UNL     1     -11.107  10.867  35.075  1.00  0.00    -0.624 OA
HETATM   10  O4  UNL     1     -10.638  12.912  33.449  1.00  0.00    -0.624 OA
BRANCH   8  11
HETATM   11  O5  UNL     1     -13.127  11.793  33.592  1.00  0.00    -0.180 OA
BRANCH  11  12
HETATM   12  P2  UNL     1     -14.062  10.779  34.649  1.00  0.00     0.428 P 
HETATM   13  O6  UNL     1     -15.497  11.013  34.281  1.00  0.00    -0.624 OA
HETATM   14  O7  UNL     1     -13.760  11.070  36.257  1.00  0.00    -0.624 OA
BRANCH  12  15
HETATM   15  O8  UNL     1     -13.659   9.167  34.235  1.00  0.00    -0.173 OA
BRANCH  15  16
HETATM   16  P3  UNL     1     -14.323   8.117  35.362  1.00  0.00     0.431 P 
HETATM   17  O9  UNL     1     -15.551   8.655  36.009  1.00  0.00    -0.616 OA
HETATM   18  O10 UNL     1     -14.717   6.680  34.544  1.00  0.00    -0.616 OA
HETATM   19  O11 UNL     1     -13.131   7.818  36.532  1.00  0.00    -0.616 OA
ENDBRANCH  15  16
ENDBRANCH  12  15
ENDBRANCH  11  12
ENDBRANCH   8  11
ENDBRANCH   7   8
ENDBRANCH   6   7
ENDBRANCH   3   6
BRANCH   4  20
HETATM   20  O12 UNL     1     -13.303   8.251  29.600  1.00  0.00    -0.390 OA
ATOM     21  H12 UNL     1     -13.533   9.064  29.166  1.00  0.00     0.210 HD
ENDBRANCH   4  20
BRANCH   1  22
HETATM   22  N5  UNL     1      -9.625   7.199  29.180  1.00  0.00    -0.273 N 
HETATM   23  C3  UNL     1      -8.383   7.109  29.683  1.00  0.00     0.146 A 
HETATM   24  N3  UNL     1      -7.796   7.815  30.637  1.00  0.00    -0.336 N 
HETATM   25  C4  UNL     1      -7.684   6.126  29.065  1.00  0.00     0.120 A 
HETATM   26  C2  UNL     1      -6.524   7.544  30.976  1.00  0.00     0.183 A 
ATOM     27  H3  UNL     1      -8.305   8.560  31.111  1.00  0.00     0.168 HD
HETATM   28  N2  UNL     1      -5.817   6.565  30.383  1.00  0.00    -0.339 N 
HETATM   29  C1  UNL     1      -6.389   5.845  29.420  1.00  0.00     0.148 A 
ATOM     30  H2  UNL     1      -4.855   6.377  30.667  1.00  0.00     0.167 HD
HETATM   31  N1  UNL     1      -5.693   4.729  28.903  1.00  0.00    -0.080 NA
HETATM   32  N4  UNL     1      -8.515   5.606  28.141  1.00  0.00    -0.346 N 
HETATM   33  C5  UNL     1      -9.688   6.263  28.213  1.00  0.00     0.192 A 
ATOM     34  H4  UNL     1      -8.294   4.846  27.498  1.00  0.00     0.167 HD
ENDBRANCH   1  22
BRANCH   5  35
HETATM   35  O13 UNL     1     -12.095   6.309  30.804  1.00  0.00    -0.385 OA
ATOM     36  H13 UNL     1     -12.463   5.968  31.612  1.00  0.00     0.210 HD
ENDBRANCH   5  35
TORSDOF 10
ENDMDL
