MODEL 1
REMARK VINA RESULT: -5.950097076      0.000      0.000
REMARK  10 active torsions:
REMARK  status: ('A' for Active; 'I' for Inactive)
REMARK    1  A    between atoms: N5_13  and  C6_14 
REMARK    2  A    between atoms: C7_16  and  C8_17 
REMARK    3  A    between atoms: C8_17  and  O2_18 
REMARK    4  A    between atoms: O2_18  and  P1_19 
REMARK    5  A    between atoms: P1_19  and  O5_22 
REMARK    6  A    between atoms: O5_22  and  P2_23 
REMARK    7  A    between atoms: P2_23  and  O8_26 
REMARK    8  A    between atoms: O8_26  and  P3_27 
REMARK    9  A    between atoms: C9_31  and  O12_32 
REMARK   10  A    between atoms: C10_34  and  O13_35 
ROOT
HETATM    1  C6  UNL     1     -10.513   7.897  29.887  1.00  0.00     0.159 C 
HETATM    2  O1  UNL     1     -10.237   9.201  30.333  1.00  0.00    -0.326 OA
HETATM    3  C7  UNL     1     -11.410   9.596  30.827  1.00  0.00     0.186 C 
HETATM    4  C9  UNL     1     -12.448   8.467  30.867  1.00  0.00     0.186 C 
HETATM    5  C10 UNL     1     -11.391   7.327  30.943  1.00  0.00     0.224 C 
ENDROOT
BRANCH   3   6
HETATM    6  C8  UNL     1     -11.621  10.361  32.069  1.00  0.00     0.216 C 
BRANCH   6   7
HETATM    7  O2  UNL     1     -12.972  10.221  32.475  1.00  0.00    -0.287 OA
BRANCH   7   8
HETATM    8  P1  UNL     1     -12.798  10.188  34.211  1.00  0.00     0.417 P 
HETATM    9  O3  UNL     1     -11.709   9.312  34.570  1.00  0.00    -0.624 OA
HETATM   10  O4  UNL     1     -12.362  11.885  34.512  1.00  0.00    -0.624 OA
BRANCH   8  11
HETATM   11  O5  UNL     1     -14.262   9.978  34.989  1.00  0.00    -0.180 OA
BRANCH  11  12
HETATM   12  P2  UNL     1     -14.476   8.277  35.278  1.00  0.00     0.428 P 
HETATM   13  O6  UNL     1     -15.922   8.099  35.632  1.00  0.00    -0.624 OA
HETATM   14  O7  UNL     1     -13.454   7.689  36.450  1.00  0.00    -0.624 OA
BRANCH  12  15
HETATM   15  O8  UNL     1     -14.192   7.503  33.778  1.00  0.00    -0.173 OA
BRANCH  15  16
HETATM   16  P3  UNL     1     -15.609   7.478  32.884  1.00  0.00     0.431 P 
HETATM   17  O9  UNL     1     -16.635   6.554  33.440  1.00  0.00    -0.616 OA
HETATM   18  O10 UNL     1     -16.235   9.059  32.883  1.00  0.00    -0.616 OA
HETATM   19  O11 UNL     1     -15.198   7.010  31.305  1.00  0.00    -0.616 OA
ENDBRANCH  15  16
ENDBRANCH  12  15
ENDBRANCH  11  12
ENDBRANCH   8  11
ENDBRANCH   7   8
ENDBRANCH   6   7
ENDBRANCH   3   6
BRANCH   4  20
HETATM   20  O12 UNL     1     -13.105   8.440  29.679  1.00  0.00    -0.390 OA
ATOM     21  H12 UNL     1     -13.956   8.041  29.812  1.00  0.00     0.210 HD
ENDBRANCH   4  20
BRANCH   1  22
HETATM   22  N5  UNL     1      -9.492   7.161  29.323  1.00  0.00    -0.273 N 
HETATM   23  C3  UNL     1      -8.236   7.050  29.784  1.00  0.00     0.146 A 
HETATM   24  N3  UNL     1      -7.616   7.721  30.743  1.00  0.00    -0.336 N 
HETATM   25  C4  UNL     1      -7.560   6.085  29.112  1.00  0.00     0.120 A 
HETATM   26  C2  UNL     1      -6.336   7.433  31.034  1.00  0.00     0.183 A 
ATOM     27  H3  UNL     1      -8.107   8.451  31.258  1.00  0.00     0.168 HD
HETATM   28  N2  UNL     1      -5.652   6.472  30.386  1.00  0.00    -0.339 N 
HETATM   29  C1  UNL     1      -6.257   5.787  29.417  1.00  0.00     0.148 A 
ATOM     30  H2  UNL     1      -4.683   6.271  30.634  1.00  0.00     0.167 HD
HETATM   31  N1  UNL     1      -5.582   4.687  28.842  1.00  0.00    -0.080 NA
HETATM   32  N4  UNL     1      -8.422   5.600  28.197  1.00  0.00    -0.346 N 
HETATM   33  C5  UNL     1      -9.589   6.260  28.327  1.00  0.00     0.192 A 
ATOM     34  H4  UNL     1      -8.225   4.862  27.523  1.00  0.00     0.167 HD
ENDBRANCH   1  22
BRANCH   5  35
HETATM   35  O13 UNL     1     -12.146   6.217  30.586  1.00  0.00    -0.385 OA
ATOM     36  H13 UNL     1     -13.036   6.186  30.918  1.00  0.00     0.210 HD
ENDBRANCH   5  35
TORSDOF 10
ENDMDL
