MODEL 2
REMARK VINA RESULT: -5.905180119      2.974      5.095
REMARK  10 active torsions:
REMARK  status: ('A' for Active; 'I' for Inactive)
REMARK    1  A    between atoms: N5_13  and  C6_14 
REMARK    2  A    between atoms: C7_16  and  C8_17 
REMARK    3  A    between atoms: C8_17  and  O2_18 
REMARK    4  A    between atoms: O2_18  and  P1_19 
REMARK    5  A    between atoms: P1_19  and  O5_22 
REMARK    6  A    between atoms: O5_22  and  P2_23 
REMARK    7  A    between atoms: P2_23  and  O8_26 
REMARK    8  A    between atoms: O8_26  and  P3_27 
REMARK    9  A    between atoms: C9_31  and  O12_32 
REMARK   10  A    between atoms: C10_34  and  O13_35 
ROOT
HETATM    1  C6  UNL     1     -11.612   8.413  29.509  1.00  0.00     0.159 C 
HETATM    2  O1  UNL     1     -11.958   9.734  29.841  1.00  0.00    -0.326 OA
HETATM    3  C7  UNL     1     -12.979   9.566  30.681  1.00  0.00     0.186 C 
HETATM    4  C9  UNL     1     -13.208   8.095  31.051  1.00  0.00     0.186 C 
HETATM    5  C10 UNL     1     -11.735   7.668  30.790  1.00  0.00     0.224 C 
ENDROOT
BRANCH   3   6
HETATM    6  C8  UNL     1     -13.219  10.320  31.925  1.00  0.00     0.216 C 
BRANCH   6   7
HETATM    7  O2  UNL     1     -12.524  11.554  31.861  1.00  0.00    -0.287 OA
BRANCH   7   8
HETATM    8  P1  UNL     1     -11.470  11.416  33.245  1.00  0.00     0.417 P 
HETATM    9  O3  UNL     1     -10.827  12.684  33.490  1.00  0.00    -0.624 OA
HETATM   10  O4  UNL     1     -12.667  11.066  34.512  1.00  0.00    -0.624 OA
BRANCH   8  11
HETATM   11  O5  UNL     1     -10.511  10.050  33.174  1.00  0.00    -0.180 OA
BRANCH  11  12
HETATM   12  P2  UNL     1      -9.131  10.414  32.182  1.00  0.00     0.428 P 
HETATM   13  O6  UNL     1      -8.077  10.928  33.116  1.00  0.00    -0.624 OA
HETATM   14  O7  UNL     1      -9.480  11.486  30.960  1.00  0.00    -0.624 OA
BRANCH  12  15
HETATM   15  O8  UNL     1      -8.599   8.917  31.545  1.00  0.00    -0.173 OA
BRANCH  15  16
HETATM   16  P3  UNL     1      -7.032   9.077  30.973  1.00  0.00     0.431 P 
HETATM   17  O9  UNL     1      -6.822  10.323  30.186  1.00  0.00    -0.616 OA
HETATM   18  O10 UNL     1      -6.000   9.100  32.324  1.00  0.00    -0.616 OA
HETATM   19  O11 UNL     1      -6.707   7.718  30.010  1.00  0.00    -0.616 OA
ENDBRANCH  15  16
ENDBRANCH  12  15
ENDBRANCH  11  12
ENDBRANCH   8  11
ENDBRANCH   7   8
ENDBRANCH   6   7
ENDBRANCH   3   6
BRANCH   4  20
HETATM   20  O12 UNL     1     -14.042   7.542  30.133  1.00  0.00    -0.390 OA
ATOM     21  H12 UNL     1     -14.938   7.725  30.389  1.00  0.00     0.210 HD
ENDBRANCH   4  20
BRANCH   1  22
HETATM   22  N5  UNL     1     -10.552   8.204  28.651  1.00  0.00    -0.273 N 
HETATM   23  C3  UNL     1      -9.737   9.142  28.142  1.00  0.00     0.146 A 
HETATM   24  N3  UNL     1      -9.831  10.462  28.172  1.00  0.00    -0.336 N 
HETATM   25  C4  UNL     1      -8.680   8.570  27.514  1.00  0.00     0.120 A 
HETATM   26  C2  UNL     1      -8.882  11.209  27.583  1.00  0.00     0.183 A 
ATOM     27  H3  UNL     1     -10.620  10.910  28.638  1.00  0.00     0.168 HD
HETATM   28  N2  UNL     1      -7.820  10.661  26.964  1.00  0.00    -0.339 N 
HETATM   29  C1  UNL     1      -7.707   9.335  26.922  1.00  0.00     0.148 A 
ATOM     30  H2  UNL     1      -7.110  11.254  26.533  1.00  0.00     0.167 HD
HETATM   31  N1  UNL     1      -6.522   8.772  26.399  1.00  0.00    -0.080 NA
HETATM   32  N4  UNL     1      -8.860   7.240  27.624  1.00  0.00    -0.346 N 
HETATM   33  C5  UNL     1      -9.998   7.025  28.310  1.00  0.00     0.192 A 
ATOM     34  H4  UNL     1      -8.241   6.520  27.252  1.00  0.00     0.167 HD
ENDBRANCH   1  22
BRANCH   5  35
HETATM   35  O13 UNL     1     -11.852   6.288  30.693  1.00  0.00    -0.385 OA
ATOM     36  H13 UNL     1     -12.467   5.873  31.287  1.00  0.00     0.210 HD
ENDBRANCH   5  35
TORSDOF 10
ENDMDL
