MODEL 1
REMARK VINA RESULT: -7.828406614      0.000      0.000
REMARK  9 active torsions:
REMARK  status: ('A' for Active; 'I' for Inactive)
REMARK    1  A    between atoms: C2_2  and  C3_3 
REMARK    2  A    between atoms: C2_2  and  O1_17 
REMARK    3  A    between atoms: C3_3  and  N1_4 
REMARK    4  A    between atoms: O1_17  and  C9_18 
REMARK    5  A    between atoms: C9_18  and  P1_19 
REMARK    6  A    between atoms: P1_19  and  O3_22 
REMARK    7  A    between atoms: O3_22  and  P2_23 
REMARK    8  A    between atoms: P2_23  and  O6_26 
REMARK    9  A    between atoms: O6_26  and  P3_27 
ROOT
HETATM    1  C1  UNL     1      49.261 -49.380  76.868  1.00  0.00     0.041 C 
HETATM    2  C2  UNL     1      48.292 -49.896  75.846  1.00  0.00     0.136 C 
ENDROOT
BRANCH   2   3
HETATM    3  C3  UNL     1      46.899 -49.848  76.475  1.00  0.00     0.163 C 
BRANCH   3   4
HETATM    4  N1  UNL     1      46.188 -48.646  76.055  1.00  0.00    -0.325 N 
HETATM    5  C4  UNL     1      46.668 -47.372  76.082  1.00  0.00     0.185 A 
HETATM    6  N2  UNL     1      45.720 -46.544  75.620  1.00  0.00    -0.346 N 
HETATM    7  C5  UNL     1      44.629 -47.261  75.292  1.00  0.00     0.119 A 
ATOM      8  H2  UNL     1      45.810 -45.532  75.530  1.00  0.00     0.167 HD
HETATM    9  C6  UNL     1      43.380 -46.947  74.779  1.00  0.00     0.148 A 
HETATM   10  C8  UNL     1      44.952 -48.569  75.576  1.00  0.00     0.140 A 
HETATM   11  N3  UNL     1      43.052 -45.586  74.487  1.00  0.00    -0.080 NA
HETATM   12  N4  UNL     1      42.493 -47.930  74.562  1.00  0.00    -0.339 N 
HETATM   13  C7  UNL     1      42.795 -49.205  74.834  1.00  0.00     0.183 A 
ATOM     14  H4  UNL     1      41.573 -47.701  74.184  1.00  0.00     0.167 HD
HETATM   15  N5  UNL     1      44.004 -49.498  75.330  1.00  0.00    -0.336 N 
ATOM     16  H5  UNL     1      44.219 -50.474  75.532  1.00  0.00     0.168 HD
ENDBRANCH   3   4
ENDBRANCH   2   3
BRANCH   2  17
HETATM   17  O1  UNL     1      48.597 -51.181  75.467  1.00  0.00    -0.374 OA
BRANCH  17  18
HETATM   18  C9  UNL     1      47.556 -51.914  74.932  1.00  0.00     0.286 C 
BRANCH  18  19
HETATM   19  P1  UNL     1      47.944 -52.674  73.370  1.00  0.00     0.316 P 
HETATM   20  O2  UNL     1      46.671 -52.916  72.598  1.00  0.00    -0.272 OA
HETATM   21  S1  UNL     1      48.886 -54.551  73.598  1.00  0.00    -0.019 SA
BRANCH  19  22
HETATM   22  O3  UNL     1      48.936 -51.733  72.387  1.00  0.00    -0.213 OA
BRANCH  22  23
HETATM   23  P2  UNL     1      48.480 -50.329  71.949  1.00  0.00     0.425 P 
HETATM   24  O4  UNL     1      49.956 -49.740  72.452  1.00  0.00    -0.624 OA
HETATM   25  O5  UNL     1      48.329 -50.800  70.387  1.00  0.00    -0.624 OA
BRANCH  23  26
HETATM   26  O6  UNL     1      48.060 -48.877  71.617  1.00  0.00    -0.173 OA
BRANCH  26  27
HETATM   27  P3  UNL     1      46.823 -48.213  72.242  1.00  0.00     0.431 P 
HETATM   28  O7  UNL     1      46.182 -49.562  72.802  1.00  0.00    -0.616 OA
HETATM   29  O8  UNL     1      47.814 -47.260  73.167  1.00  0.00    -0.616 OA
HETATM   30  O9  UNL     1      46.431 -47.667  70.687  1.00  0.00    -0.616 OA
ENDBRANCH  26  27
ENDBRANCH  23  26
ENDBRANCH  22  23
ENDBRANCH  19  22
ENDBRANCH  18  19
ENDBRANCH  17  18
ENDBRANCH   2  17
TORSDOF 9
ENDMDL
