MODEL 2
REMARK VINA RESULT: -7.070089738      1.162      2.252
REMARK  9 active torsions:
REMARK  status: ('A' for Active; 'I' for Inactive)
REMARK    1  A    between atoms: C2_2  and  C3_3 
REMARK    2  A    between atoms: C2_2  and  O1_17 
REMARK    3  A    between atoms: C3_3  and  N1_4 
REMARK    4  A    between atoms: O1_17  and  C9_18 
REMARK    5  A    between atoms: C9_18  and  P1_19 
REMARK    6  A    between atoms: P1_19  and  O3_22 
REMARK    7  A    between atoms: O3_22  and  P2_23 
REMARK    8  A    between atoms: P2_23  and  O6_26 
REMARK    9  A    between atoms: O6_26  and  P3_27 
ROOT
HETATM    1  C1  UNL     1      47.747 -49.894  76.297  1.00  0.00     0.041 C 
HETATM    2  C2  UNL     1      46.532 -50.431  75.601  1.00  0.00     0.136 C 
ENDROOT
BRANCH   2   3
HETATM    3  C3  UNL     1      45.323 -50.098  76.477  1.00  0.00     0.163 C 
BRANCH   3   4
HETATM    4  N1  UNL     1      44.460 -49.127  75.813  1.00  0.00    -0.325 N 
HETATM    5  C4  UNL     1      43.254 -49.380  75.235  1.00  0.00     0.185 A 
HETATM    6  N2  UNL     1      42.769 -48.236  74.730  1.00  0.00    -0.346 N 
HETATM    7  C5  UNL     1      43.643 -47.242  74.972  1.00  0.00     0.119 A 
ATOM      8  H2  UNL     1      41.880 -48.135  74.240  1.00  0.00     0.167 HD
HETATM    9  C6  UNL     1      43.671 -45.884  74.690  1.00  0.00     0.148 A 
HETATM   10  C8  UNL     1      44.688 -47.830  75.649  1.00  0.00     0.140 A 
HETATM   11  N3  UNL     1      42.582 -45.282  73.987  1.00  0.00    -0.080 NA
HETATM   12  N4  UNL     1      44.724 -45.153  75.084  1.00  0.00    -0.339 N 
HETATM   13  C7  UNL     1      45.746 -45.713  75.743  1.00  0.00     0.183 A 
ATOM     14  H4  UNL     1      44.746 -44.153  74.878  1.00  0.00     0.167 HD
HETATM   15  N5  UNL     1      45.710 -47.024  76.010  1.00  0.00    -0.336 N 
ATOM     16  H5  UNL     1      46.496 -47.436  76.513  1.00  0.00     0.168 HD
ENDBRANCH   3   4
ENDBRANCH   2   3
BRANCH   2  17
HETATM   17  O1  UNL     1      46.619 -51.789  75.411  1.00  0.00    -0.374 OA
BRANCH  17  18
HETATM   18  C9  UNL     1      46.928 -52.200  74.130  1.00  0.00     0.286 C 
BRANCH  18  19
HETATM   19  P1  UNL     1      48.639 -52.639  73.912  1.00  0.00     0.316 P 
HETATM   20  O2  UNL     1      48.746 -53.763  72.912  1.00  0.00    -0.272 OA
HETATM   21  S1  UNL     1      49.529 -53.326  75.700  1.00  0.00    -0.019 SA
BRANCH  19  22
HETATM   22  O3  UNL     1      49.593 -51.380  73.331  1.00  0.00    -0.213 OA
BRANCH  22  23
HETATM   23  P2  UNL     1      48.945 -50.215  72.558  1.00  0.00     0.425 P 
HETATM   24  O4  UNL     1      50.340 -49.336  72.800  1.00  0.00    -0.624 OA
HETATM   25  O5  UNL     1      48.825 -51.110  71.191  1.00  0.00    -0.624 OA
BRANCH  23  26
HETATM   26  O6  UNL     1      48.329 -48.972  71.873  1.00  0.00    -0.173 OA
BRANCH  26  27
HETATM   27  P3  UNL     1      47.011 -48.339  72.344  1.00  0.00     0.431 P 
HETATM   28  O7  UNL     1      46.708 -47.567  70.982  1.00  0.00    -0.616 OA
HETATM   29  O8  UNL     1      46.405 -49.850  72.653  1.00  0.00    -0.616 OA
HETATM   30  O9  UNL     1      47.907 -47.584  73.569  1.00  0.00    -0.616 OA
ENDBRANCH  26  27
ENDBRANCH  23  26
ENDBRANCH  22  23
ENDBRANCH  19  22
ENDBRANCH  18  19
ENDBRANCH  17  18
ENDBRANCH   2  17
TORSDOF 9
ENDMDL
