MODEL 3
REMARK VINA RESULT: -7.027953501      3.737      5.886
REMARK  9 active torsions:
REMARK  status: ('A' for Active; 'I' for Inactive)
REMARK    1  A    between atoms: C2_2  and  C3_3 
REMARK    2  A    between atoms: C2_2  and  O1_17 
REMARK    3  A    between atoms: C3_3  and  N1_4 
REMARK    4  A    between atoms: O1_17  and  C9_18 
REMARK    5  A    between atoms: C9_18  and  P1_19 
REMARK    6  A    between atoms: P1_19  and  O3_22 
REMARK    7  A    between atoms: O3_22  and  P2_23 
REMARK    8  A    between atoms: P2_23  and  O6_26 
REMARK    9  A    between atoms: O6_26  and  P3_27 
ROOT
HETATM    1  C1  UNL     1      48.928 -48.611  76.853  1.00  0.00     0.041 C 
HETATM    2  C2  UNL     1      48.267 -49.957  76.818  1.00  0.00     0.136 C 
ENDROOT
BRANCH   2   3
HETATM    3  C3  UNL     1      48.811 -50.698  75.596  1.00  0.00     0.163 C 
BRANCH   3   4
HETATM    4  N1  UNL     1      49.042 -52.104  75.909  1.00  0.00    -0.325 N 
HETATM    5  C4  UNL     1      49.864 -52.590  76.879  1.00  0.00     0.185 A 
HETATM    6  N2  UNL     1      49.811 -53.930  76.857  1.00  0.00    -0.346 N 
HETATM    7  C5  UNL     1      48.965 -54.322  75.887  1.00  0.00     0.119 A 
ATOM      8  H2  UNL     1      50.330 -54.553  77.477  1.00  0.00     0.167 HD
HETATM    9  C6  UNL     1      48.530 -55.553  75.419  1.00  0.00     0.148 A 
HETATM   10  C8  UNL     1      48.502 -53.160  75.313  1.00  0.00     0.140 A 
HETATM   11  N3  UNL     1      49.016 -56.756  76.020  1.00  0.00    -0.080 NA
HETATM   12  N4  UNL     1      47.654 -55.597  74.403  1.00  0.00    -0.339 N 
HETATM   13  C7  UNL     1      47.197 -54.473  73.837  1.00  0.00     0.183 A 
ATOM     14  H4  UNL     1      47.332 -56.501  74.057  1.00  0.00     0.167 HD
HETATM   15  N5  UNL     1      47.623 -53.290  74.296  1.00  0.00    -0.336 N 
ATOM     16  H5  UNL     1      47.265 -52.443  73.855  1.00  0.00     0.168 HD
ENDBRANCH   3   4
ENDBRANCH   2   3
BRANCH   2  17
HETATM   17  O1  UNL     1      46.900 -49.845  76.734  1.00  0.00    -0.374 OA
BRANCH  17  18
HETATM   18  C9  UNL     1      46.366 -49.926  75.464  1.00  0.00     0.286 C 
BRANCH  18  19
HETATM   19  P1  UNL     1      45.372 -48.519  75.013  1.00  0.00     0.316 P 
HETATM   20  O2  UNL     1      45.602 -47.403  76.002  1.00  0.00    -0.272 OA
HETATM   21  S1  UNL     1      43.304 -48.948  75.047  1.00  0.00    -0.019 SA
BRANCH  19  22
HETATM   22  O3  UNL     1      45.728 -47.899  73.489  1.00  0.00    -0.213 OA
BRANCH  22  23
HETATM   23  P2  UNL     1      46.989 -48.370  72.740  1.00  0.00     0.425 P 
HETATM   24  O4  UNL     1      46.351 -47.719  71.345  1.00  0.00    -0.624 OA
HETATM   25  O5  UNL     1      47.961 -47.422  73.659  1.00  0.00    -0.624 OA
BRANCH  23  26
HETATM   26  O6  UNL     1      48.183 -48.890  71.904  1.00  0.00    -0.173 OA
BRANCH  26  27
HETATM   27  P3  UNL     1      48.331 -50.367  71.508  1.00  0.00     0.431 P 
HETATM   28  O7  UNL     1      47.073 -50.883  72.341  1.00  0.00    -0.616 OA
HETATM   29  O8  UNL     1      48.215 -49.941  69.911  1.00  0.00    -0.616 OA
HETATM   30  O9  UNL     1      49.865 -50.321  72.226  1.00  0.00    -0.616 OA
ENDBRANCH  26  27
ENDBRANCH  23  26
ENDBRANCH  22  23
ENDBRANCH  19  22
ENDBRANCH  18  19
ENDBRANCH  17  18
ENDBRANCH   2  17
TORSDOF 9
ENDMDL
