MODEL 6
REMARK VINA RESULT: -6.389987369      2.506      5.070
REMARK  7 active torsions:
REMARK  status: ('A' for Active; 'I' for Inactive)
REMARK    1  A    between atoms: C2_2  and  C3_3 
REMARK    2  A    between atoms: C3_3  and  C4_4 
REMARK    3  A    between atoms: C3_3  and  O1_6 
REMARK    4  A    between atoms: O1_6  and  C6_7 
REMARK    5  A    between atoms: C8_9  and  C9_10 
REMARK    6  A    between atoms: C11_14  and  N1_15 
REMARK    7  A    between atoms: C12_19  and  N2_20 
REMARK       I    between atoms: N2_20  and  C13_22 
ROOT
HETATM    1  C6  UNL     1     -19.530  90.987  14.510  1.00  0.00     0.170 C 
HETATM    2  C7  UNL     1     -18.558  89.871  14.574  1.00  0.00     0.021 C 
HETATM    3  C8  UNL     1     -18.931  88.828  15.270  1.00  0.00     0.019 C 
HETATM    4  C10 UNL     1     -20.270  88.916  15.903  1.00  0.00     0.080 C 
HETATM    5  C11 UNL     1     -21.354  89.437  14.999  1.00  0.00     0.213 C 
HETATM    6  C12 UNL     1     -20.813  90.375  13.996  1.00  0.00     0.147 C 
ENDROOT
BRANCH   1   7
HETATM    7  O1  UNL     1     -19.067  92.040  13.780  1.00  0.00    -0.375 OA
BRANCH   7   8
HETATM    8  C3  UNL     1     -18.614  93.031  14.642  1.00  0.00     0.121 C 
BRANCH   8   9
HETATM    9  C2  UNL     1     -17.089  93.114  14.630  1.00  0.00     0.027 C 
HETATM   10  C1  UNL     1     -16.607  94.367  15.326  1.00  0.00     0.007 C 
ENDBRANCH   8   9
BRANCH   8  11
HETATM   11  C4  UNL     1     -19.183  94.382  14.293  1.00  0.00     0.027 C 
HETATM   12  C5  UNL     1     -19.720  94.392  12.879  1.00  0.00     0.007 C 
ENDBRANCH   8  11
ENDBRANCH   7   8
ENDBRANCH   1   7
BRANCH   6  13
HETATM   13  N2  UNL     1     -21.721  91.317  13.449  1.00  0.00    -0.352 N 
HETATM   14  C13 UNL     1     -21.932  91.462  12.056  1.00  0.00     0.214 C 
HETATM   15  C14 UNL     1     -22.899  92.470  11.534  1.00  0.00     0.117 C 
HETATM   16  O4  UNL     1     -21.265  90.701  11.314  1.00  0.00    -0.274 OA
ATOM     17  H2  UNL     1     -22.244  91.916  14.088  1.00  0.00     0.163 HD
ENDBRANCH   6  13
BRANCH   3  18
HETATM   18  C9  UNL     1     -18.076  87.674  15.411  1.00  0.00     0.205 C 
HETATM   19  O2  UNL     1     -17.513  87.155  14.422  1.00  0.00    -0.644 OA
HETATM   20  O3  UNL     1     -17.877  87.127  16.683  1.00  0.00    -0.644 OA
ENDBRANCH   3  18
BRANCH   5  21
HETATM   21  N1  UNL     1     -21.948  88.237  14.379  1.00  0.00    -0.073 N 
ATOM     22  H13 UNL     1     -21.274  87.495  14.189  1.00  0.00     0.274 HD
ATOM     23  H12 UNL     1     -22.541  87.698  15.010  1.00  0.00     0.274 HD
ATOM     24  H11 UNL     1     -22.431  88.577  13.549  1.00  0.00     0.274 HD
ENDBRANCH   5  21
TORSDOF 7
ENDMDL
