MODEL 2
REMARK VINA RESULT: -6.724901823      2.093      4.943
REMARK  7 active torsions:
REMARK  status: ('A' for Active; 'I' for Inactive)
REMARK    1  A    between atoms: C2_2  and  C3_3 
REMARK    2  A    between atoms: C3_3  and  C4_4 
REMARK    3  A    between atoms: C3_3  and  O1_6 
REMARK    4  A    between atoms: O1_6  and  C6_7 
REMARK    5  A    between atoms: C8_9  and  C9_10 
REMARK    6  A    between atoms: C11_14  and  N1_15 
REMARK    7  A    between atoms: C12_19  and  N2_20 
REMARK       I    between atoms: N2_20  and  C13_22 
ROOT
HETATM    1  C6  UNL     1     -19.817  91.005  14.546  1.00  0.00     0.170 C 
HETATM    2  C7  UNL     1     -18.777  89.954  14.644  1.00  0.00     0.021 C 
HETATM    3  C8  UNL     1     -19.108  88.885  15.320  1.00  0.00     0.019 C 
HETATM    4  C10 UNL     1     -20.474  88.880  15.900  1.00  0.00     0.080 C 
HETATM    5  C11 UNL     1     -21.553  89.336  14.956  1.00  0.00     0.213 C 
HETATM    6  C12 UNL     1     -21.036  90.314  13.979  1.00  0.00     0.147 C 
ENDROOT
BRANCH   1   7
HETATM    7  O1  UNL     1     -19.395  92.091  13.841  1.00  0.00    -0.375 OA
BRANCH   7   8
HETATM    8  C3  UNL     1     -18.135  91.836  13.315  1.00  0.00     0.121 C 
BRANCH   8   9
HETATM    9  C2  UNL     1     -18.117  92.049  11.802  1.00  0.00     0.027 C 
HETATM   10  C1  UNL     1     -18.895  93.288  11.419  1.00  0.00     0.007 C 
ENDBRANCH   8   9
BRANCH   8  11
HETATM   11  C4  UNL     1     -17.077  92.703  13.946  1.00  0.00     0.027 C 
HETATM   12  C5  UNL     1     -15.762  91.962  14.045  1.00  0.00     0.007 C 
ENDBRANCH   8  11
ENDBRANCH   7   8
ENDBRANCH   1   7
BRANCH   6  13
HETATM   13  N2  UNL     1     -21.981  91.199  13.402  1.00  0.00    -0.352 N 
HETATM   14  C13 UNL     1     -22.117  91.371  12.002  1.00  0.00     0.214 C 
HETATM   15  C14 UNL     1     -23.129  92.317  11.447  1.00  0.00     0.117 C 
HETATM   16  O4  UNL     1     -21.346  90.690  11.284  1.00  0.00    -0.274 OA
ATOM     17  H2  UNL     1     -22.590  91.734  14.021  1.00  0.00     0.163 HD
ENDBRANCH   6  13
BRANCH   3  18
HETATM   18  C9  UNL     1     -18.185  87.787  15.489  1.00  0.00     0.205 C 
HETATM   19  O2  UNL     1     -17.636  87.240  14.508  1.00  0.00    -0.644 OA
HETATM   20  O3  UNL     1     -17.904  87.329  16.781  1.00  0.00    -0.644 OA
ENDBRANCH   3  18
BRANCH   5  21
HETATM   21  N1  UNL     1     -22.042  88.104  14.308  1.00  0.00    -0.073 N 
ATOM     22  H13 UNL     1     -22.295  87.365  14.964  1.00  0.00     0.274 HD
ATOM     23  H12 UNL     1     -22.963  88.201  13.880  1.00  0.00     0.274 HD
ATOM     24  H11 UNL     1     -21.309  87.839  13.652  1.00  0.00     0.274 HD
ENDBRANCH   5  21
TORSDOF 7
ENDMDL
