MODEL 3
REMARK VINA RESULT: -6.709089568      2.116      5.017
REMARK  7 active torsions:
REMARK  status: ('A' for Active; 'I' for Inactive)
REMARK    1  A    between atoms: C2_2  and  C3_3 
REMARK    2  A    between atoms: C3_3  and  C4_4 
REMARK    3  A    between atoms: C3_3  and  O1_6 
REMARK    4  A    between atoms: O1_6  and  C6_7 
REMARK    5  A    between atoms: C8_9  and  C9_10 
REMARK    6  A    between atoms: C11_14  and  N1_15 
REMARK    7  A    between atoms: C12_19  and  N2_20 
REMARK       I    between atoms: N2_20  and  C13_22 
ROOT
HETATM    1  C6  UNL     1     -19.637  91.114  15.093  1.00  0.00     0.170 C 
HETATM    2  C7  UNL     1     -18.591  90.086  15.305  1.00  0.00     0.021 C 
HETATM    3  C8  UNL     1     -19.004  88.940  15.780  1.00  0.00     0.019 C 
HETATM    4  C10 UNL     1     -20.460  88.836  16.046  1.00  0.00     0.080 C 
HETATM    5  C11 UNL     1     -21.335  89.364  14.941  1.00  0.00     0.213 C 
HETATM    6  C12 UNL     1     -20.671  90.459  14.207  1.00  0.00     0.147 C 
ENDROOT
BRANCH   1   7
HETATM    7  O1  UNL     1     -19.129  92.282  14.612  1.00  0.00    -0.375 OA
BRANCH   7   8
HETATM    8  C3  UNL     1     -17.987  92.015  13.867  1.00  0.00     0.121 C 
BRANCH   8   9
HETATM    9  C2  UNL     1     -18.149  92.488  12.424  1.00  0.00     0.027 C 
HETATM   10  C1  UNL     1     -17.495  91.525  11.460  1.00  0.00     0.007 C 
ENDBRANCH   8   9
BRANCH   8  11
HETATM   11  C4  UNL     1     -16.763  92.662  14.462  1.00  0.00     0.027 C 
HETATM   12  C5  UNL     1     -17.075  94.060  14.949  1.00  0.00     0.007 C 
ENDBRANCH   8  11
ENDBRANCH   7   8
ENDBRANCH   1   7
BRANCH   6  13
HETATM   13  N2  UNL     1     -21.514  91.377  13.532  1.00  0.00    -0.352 N 
HETATM   14  C13 UNL     1     -21.632  91.418  12.120  1.00  0.00     0.214 C 
HETATM   15  C14 UNL     1     -22.534  92.406  11.461  1.00  0.00     0.117 C 
HETATM   16  O4  UNL     1     -20.941  90.586  11.484  1.00  0.00    -0.274 OA
ATOM     17  H2  UNL     1     -22.060  92.037  14.087  1.00  0.00     0.163 HD
ENDBRANCH   6  13
BRANCH   3  18
HETATM   18  C9  UNL     1     -18.085  87.856  16.032  1.00  0.00     0.205 C 
HETATM   19  O2  UNL     1     -17.717  87.569  17.192  1.00  0.00    -0.644 OA
HETATM   20  O3  UNL     1     -17.598  87.114  14.951  1.00  0.00    -0.644 OA
ENDBRANCH   3  18
BRANCH   5  21
HETATM   21  N1  UNL     1     -21.613  88.200  14.079  1.00  0.00    -0.073 N 
ATOM     22  H13 UNL     1     -22.369  87.606  14.419  1.00  0.00     0.274 HD
ATOM     23  H12 UNL     1     -22.045  88.441  13.188  1.00  0.00     0.274 HD
ATOM     24  H11 UNL     1     -20.719  87.717  13.987  1.00  0.00     0.274 HD
ENDBRANCH   5  21
TORSDOF 7
ENDMDL
