MODEL 18
REMARK VINA RESULT: -5.843194911      2.265      4.537
REMARK  7 active torsions:
REMARK  status: ('A' for Active; 'I' for Inactive)
REMARK    1  A    between atoms: C2_2  and  C3_3 
REMARK    2  A    between atoms: C3_3  and  C4_4 
REMARK    3  A    between atoms: C3_3  and  O1_6 
REMARK    4  A    between atoms: O1_6  and  C6_7 
REMARK    5  A    between atoms: C8_9  and  C9_10 
REMARK    6  A    between atoms: C11_14  and  N1_15 
REMARK    7  A    between atoms: C12_19  and  N2_20 
REMARK       I    between atoms: N2_20  and  C13_22 
ROOT
HETATM    1  C6  UNL     1     -19.714  90.723  14.371  1.00  0.00     0.170 C 
HETATM    2  C7  UNL     1     -20.887  91.286  13.663  1.00  0.00     0.021 C 
HETATM    3  C8  UNL     1     -21.901  90.476  13.504  1.00  0.00     0.019 C 
HETATM    4  C10 UNL     1     -21.729  89.107  14.048  1.00  0.00     0.080 C 
HETATM    5  C11 UNL     1     -21.147  89.055  15.435  1.00  0.00     0.213 C 
HETATM    6  C12 UNL     1     -20.249  90.200  15.684  1.00  0.00     0.147 C 
ENDROOT
BRANCH   1   7
HETATM    7  O1  UNL     1     -18.695  91.619  14.485  1.00  0.00    -0.375 OA
BRANCH   7   8
HETATM    8  C3  UNL     1     -18.047  91.736  13.262  1.00  0.00     0.121 C 
BRANCH   8   9
HETATM    9  C2  UNL     1     -17.959  93.197  12.824  1.00  0.00     0.027 C 
HETATM   10  C1  UNL     1     -18.578  93.393  11.459  1.00  0.00     0.007 C 
ENDBRANCH   8   9
BRANCH   8  11
HETATM   11  C4  UNL     1     -16.659  91.152  13.303  1.00  0.00     0.027 C 
HETATM   12  C5  UNL     1     -15.753  91.974  14.193  1.00  0.00     0.007 C 
ENDBRANCH   8  11
ENDBRANCH   7   8
ENDBRANCH   1   7
BRANCH   6  13
HETATM   13  N2  UNL     1     -19.255  90.025  16.680  1.00  0.00    -0.352 N 
HETATM   14  C13 UNL     1     -18.289  88.990  16.628  1.00  0.00     0.214 C 
HETATM   15  C14 UNL     1     -17.265  88.851  17.704  1.00  0.00     0.117 C 
HETATM   16  O4  UNL     1     -18.355  88.221  15.638  1.00  0.00    -0.274 OA
ATOM     17  H2  UNL     1     -19.236  90.672  17.468  1.00  0.00     0.163 HD
ENDBRANCH   6  13
BRANCH   3  18
HETATM   18  C9  UNL     1     -23.105  90.903  12.831  1.00  0.00     0.205 C 
HETATM   19  O2  UNL     1     -23.700  91.952  13.162  1.00  0.00    -0.644 OA
HETATM   20  O3  UNL     1     -23.614  90.121  11.789  1.00  0.00    -0.644 OA
ENDBRANCH   3  18
BRANCH   5  21
HETATM   21  N1  UNL     1     -22.312  89.051  16.341  1.00  0.00    -0.073 N 
ATOM     22  H13 UNL     1     -23.133  89.519  15.958  1.00  0.00     0.274 HD
ATOM     23  H12 UNL     1     -22.742  88.134  16.455  1.00  0.00     0.274 HD
ATOM     24  H11 UNL     1     -21.973  89.459  17.212  1.00  0.00     0.274 HD
ENDBRANCH   5  21
TORSDOF 7
ENDMDL
