MODEL 11
REMARK VINA RESULT: -6.062073700      2.336      4.398
REMARK  7 active torsions:
REMARK  status: ('A' for Active; 'I' for Inactive)
REMARK    1  A    between atoms: C2_2  and  C3_3 
REMARK    2  A    between atoms: C3_3  and  C4_4 
REMARK    3  A    between atoms: C3_3  and  O1_6 
REMARK    4  A    between atoms: O1_6  and  C6_7 
REMARK    5  A    between atoms: C8_9  and  C9_10 
REMARK    6  A    between atoms: C11_14  and  N1_15 
REMARK    7  A    between atoms: C12_19  and  N2_20 
REMARK       I    between atoms: N2_20  and  C13_22 
ROOT
HETATM    1  C6  UNL     1     -19.576  89.659  13.583  1.00  0.00     0.170 C 
HETATM    2  C7  UNL     1     -20.604  90.576  13.038  1.00  0.00     0.021 C 
HETATM    3  C8  UNL     1     -21.846  90.201  13.199  1.00  0.00     0.019 C 
HETATM    4  C10 UNL     1     -22.049  88.908  13.897  1.00  0.00     0.080 C 
HETATM    5  C11 UNL     1     -21.216  88.733  15.138  1.00  0.00     0.213 C 
HETATM    6  C12 UNL     1     -19.939  89.466  15.037  1.00  0.00     0.147 C 
ENDROOT
BRANCH   1   7
HETATM    7  O1  UNL     1     -18.309  90.108  13.365  1.00  0.00    -0.375 OA
BRANCH   7   8
HETATM    8  C3  UNL     1     -18.331  91.489  13.215  1.00  0.00     0.121 C 
BRANCH   8   9
HETATM    9  C2  UNL     1     -17.507  92.173  14.304  1.00  0.00     0.027 C 
HETATM   10  C1  UNL     1     -16.032  91.894  14.126  1.00  0.00     0.007 C 
ENDBRANCH   8   9
BRANCH   8  11
HETATM   11  C4  UNL     1     -17.813  91.916  11.866  1.00  0.00     0.027 C 
HETATM   12  C5  UNL     1     -18.506  93.176  11.397  1.00  0.00     0.007 C 
ENDBRANCH   8  11
ENDBRANCH   7   8
ENDBRANCH   1   7
BRANCH   6  13
HETATM   13  N2  UNL     1     -18.868  88.995  15.839  1.00  0.00    -0.352 N 
HETATM   14  C13 UNL     1     -18.508  89.598  17.070  1.00  0.00     0.214 C 
HETATM   15  C14 UNL     1     -17.372  89.062  17.874  1.00  0.00     0.117 C 
HETATM   16  O4  UNL     1     -19.194  90.587  17.423  1.00  0.00    -0.274 OA
ATOM     17  H2  UNL     1     -18.336  88.187  15.516  1.00  0.00     0.163 HD
ENDBRANCH   6  13
BRANCH   3  18
HETATM   18  C9  UNL     1     -22.943  91.006  12.714  1.00  0.00     0.205 C 
HETATM   19  O2  UNL     1     -23.137  92.166  13.137  1.00  0.00    -0.644 OA
HETATM   20  O3  UNL     1     -23.804  90.469  11.751  1.00  0.00    -0.644 OA
ENDBRANCH   3  18
BRANCH   5  21
HETATM   21  N1  UNL     1     -22.060  89.230  16.242  1.00  0.00    -0.073 N 
ATOM     22  H13 UNL     1     -21.551  89.775  16.937  1.00  0.00     0.274 HD
ATOM     23  H12 UNL     1     -22.707  89.969  15.965  1.00  0.00     0.274 HD
ATOM     24  H11 UNL     1     -22.518  88.402  16.621  1.00  0.00     0.274 HD
ENDBRANCH   5  21
TORSDOF 7
ENDMDL
