MODEL 1
REMARK VINA RESULT: -8.224509230      0.000      0.000
REMARK  9 active torsions:
REMARK  status: ('A' for Active; 'I' for Inactive)
REMARK       I    between atoms: C2_2  and  N1_4 
REMARK    1  A    between atoms: N1_4  and  C3_6 
REMARK    2  A    between atoms: C4_7  and  N2_8 
REMARK    3  A    between atoms: C7_14  and  C8_15 
REMARK    4  A    between atoms: C9_19  and  C10_20 
REMARK    5  A    between atoms: C10_20  and  O5_21 
REMARK    6  A    between atoms: C10_20  and  C11_23 
REMARK    7  A    between atoms: C11_23  and  O6_24 
REMARK    8  A    between atoms: C11_23  and  C12_26 
REMARK    9  A    between atoms: C12_26  and  O7_27 
ROOT
HETATM    1  C3  UNL     1      -3.901  47.196  53.141  1.00  0.00     0.138 C 
HETATM    2  C4  UNL     1      -3.837  45.919  54.000  1.00  0.00     0.112 C 
HETATM    3  C6  UNL     1      -4.930  45.902  55.006  1.00  0.00     0.070 C 
HETATM    4  C7  UNL     1      -5.788  47.144  54.969  1.00  0.00     0.224 C 
HETATM    5  O4  UNL     1      -6.133  47.610  53.745  1.00  0.00    -0.365 OA
HETATM    6  C9  UNL     1      -5.349  47.252  52.701  1.00  0.00     0.178 C 
ENDROOT
BRANCH   6   7
HETATM    7  C10 UNL     1      -5.545  48.087  51.464  1.00  0.00     0.180 C 
BRANCH   7   8
HETATM    8  O5  UNL     1      -4.631  47.753  50.490  1.00  0.00    -0.390 OA
ATOM      9  H5  UNL     1      -5.050  47.294  49.771  1.00  0.00     0.210 HD
ENDBRANCH   7   8
BRANCH   7  10
HETATM   10  C11 UNL     1      -5.521  49.555  51.719  1.00  0.00     0.173 C 
BRANCH  10  11
HETATM   11  O6  UNL     1      -6.645  50.206  51.245  1.00  0.00    -0.391 OA
ATOM     12  H6  UNL     1      -6.505  51.135  51.099  1.00  0.00     0.210 HD
ENDBRANCH  10  11
BRANCH  10  13
HETATM   13  C12 UNL     1      -4.330  50.130  50.947  1.00  0.00     0.198 C 
BRANCH  13  14
HETATM   14  O7  UNL     1      -4.746  50.809  49.809  1.00  0.00    -0.398 OA
ATOM     15  H7  UNL     1      -4.796  51.745  49.964  1.00  0.00     0.209 HD
ENDBRANCH  13  14
ENDBRANCH  10  13
ENDBRANCH   7  10
ENDBRANCH   6   7
BRANCH   1  16
HETATM   16  N1  UNL     1      -2.956  47.165  52.082  1.00  0.00    -0.352 N 
HETATM   17  C2  UNL     1      -1.648  47.671  52.266  1.00  0.00     0.214 C 
HETATM   18  C1  UNL     1      -0.621  47.658  51.176  1.00  0.00     0.117 C 
HETATM   19  O1  UNL     1      -1.310  48.158  53.394  1.00  0.00    -0.274 OA
ATOM     20  H1  UNL     1      -3.224  46.775  51.179  1.00  0.00     0.163 HD
ENDBRANCH   1  16
BRANCH   2  21
HETATM   21  N2  UNL     1      -2.550  45.649  54.530  1.00  0.00    -0.360 N 
HETATM   22  C5  UNL     1      -1.856  44.641  54.220  1.00  0.00     0.197 C 
HETATM   23  N3  UNL     1      -0.554  44.489  54.840  1.00  0.00    -0.067 NA
HETATM   24  N4  UNL     1      -2.182  43.601  53.316  1.00  0.00    -0.067 NA
ATOM     25  H2  UNL     1      -2.161  46.309  55.204  1.00  0.00     0.162 HD
ENDBRANCH   2  21
BRANCH   4  26
HETATM   26  C8  UNL     1      -7.016  46.858  55.752  1.00  0.00     0.203 C 
HETATM   27  O2  UNL     1      -7.237  45.695  56.143  1.00  0.00    -0.646 OA
HETATM   28  O3  UNL     1      -7.922  47.853  56.059  1.00  0.00    -0.646 OA
ENDBRANCH   4  26
TORSDOF 9
ENDMDL
