MODEL 7
REMARK VINA RESULT: -7.192576328      2.956      5.037
REMARK  9 active torsions:
REMARK  status: ('A' for Active; 'I' for Inactive)
REMARK       I    between atoms: C2_2  and  N1_4 
REMARK    1  A    between atoms: N1_4  and  C3_6 
REMARK    2  A    between atoms: C4_7  and  N2_8 
REMARK    3  A    between atoms: C7_14  and  C8_15 
REMARK    4  A    between atoms: C9_19  and  C10_20 
REMARK    5  A    between atoms: C10_20  and  O5_21 
REMARK    6  A    between atoms: C10_20  and  C11_23 
REMARK    7  A    between atoms: C11_23  and  O6_24 
REMARK    8  A    between atoms: C11_23  and  C12_26 
REMARK    9  A    between atoms: C12_26  and  O7_27 
ROOT
HETATM    1  C3  UNL     1      -4.724  48.290  53.743  1.00  0.00     0.138 C 
HETATM    2  C4  UNL     1      -5.040  49.089  55.021  1.00  0.00     0.112 C 
HETATM    3  C6  UNL     1      -5.846  48.276  55.967  1.00  0.00     0.070 C 
HETATM    4  C7  UNL     1      -6.192  46.908  55.428  1.00  0.00     0.224 C 
HETATM    5  O4  UNL     1      -5.204  46.241  54.784  1.00  0.00    -0.365 OA
HETATM    6  C9  UNL     1      -4.190  46.976  54.271  1.00  0.00     0.178 C 
ENDROOT
BRANCH   6   7
HETATM    7  C10 UNL     1      -3.346  46.247  53.260  1.00  0.00     0.180 C 
BRANCH   7   8
HETATM    8  O5  UNL     1      -3.992  46.156  52.048  1.00  0.00    -0.390 OA
ATOM      9  H5  UNL     1      -3.559  45.533  51.475  1.00  0.00     0.210 HD
ENDBRANCH   7   8
BRANCH   7  10
HETATM   10  C11 UNL     1      -2.893  44.901  53.713  1.00  0.00     0.173 C 
BRANCH  10  11
HETATM   11  O6  UNL     1      -2.982  44.732  55.083  1.00  0.00    -0.391 OA
ATOM     12  H6  UNL     1      -3.396  43.913  55.331  1.00  0.00     0.210 HD
ENDBRANCH  10  11
BRANCH  10  13
HETATM   13  C12 UNL     1      -1.408  44.781  53.358  1.00  0.00     0.198 C 
BRANCH  13  14
HETATM   14  O7  UNL     1      -1.011  43.452  53.288  1.00  0.00    -0.398 OA
ATOM     15  H7  UNL     1      -1.661  42.876  53.673  1.00  0.00     0.209 HD
ENDBRANCH  13  14
ENDBRANCH  10  13
ENDBRANCH   7  10
ENDBRANCH   6   7
BRANCH   1  16
HETATM   16  N1  UNL     1      -3.835  48.995  52.889  1.00  0.00    -0.352 N 
HETATM   17  C2  UNL     1      -4.329  49.770  51.813  1.00  0.00     0.214 C 
HETATM   18  C1  UNL     1      -3.427  50.528  50.889  1.00  0.00     0.117 C 
HETATM   19  O1  UNL     1      -5.584  49.839  51.606  1.00  0.00    -0.274 OA
ATOM     20  H1  UNL     1      -2.830  48.942  53.053  1.00  0.00     0.163 HD
ENDBRANCH   1  16
BRANCH   2  21
HETATM   21  N2  UNL     1      -5.560  50.384  54.774  1.00  0.00    -0.360 N 
HETATM   22  C5  UNL     1      -5.086  51.442  55.274  1.00  0.00     0.197 C 
HETATM   23  N3  UNL     1      -5.718  52.703  54.935  1.00  0.00    -0.067 NA
HETATM   24  N4  UNL     1      -3.981  51.576  56.150  1.00  0.00    -0.067 NA
ATOM     25  H2  UNL     1      -6.367  50.467  54.154  1.00  0.00     0.162 HD
ENDBRANCH   2  21
BRANCH   4  26
HETATM   26  C8  UNL     1      -6.677  46.091  56.567  1.00  0.00     0.203 C 
HETATM   27  O2  UNL     1      -6.558  44.851  56.528  1.00  0.00    -0.646 OA
HETATM   28  O3  UNL     1      -7.258  46.674  57.675  1.00  0.00    -0.646 OA
ENDBRANCH   4  26
TORSDOF 9
ENDMDL
