MODEL 4
REMARK VINA RESULT: -7.280954194      2.894      5.017
REMARK  9 active torsions:
REMARK  status: ('A' for Active; 'I' for Inactive)
REMARK       I    between atoms: C2_2  and  N1_4 
REMARK    1  A    between atoms: N1_4  and  C3_6 
REMARK    2  A    between atoms: C4_7  and  N2_8 
REMARK    3  A    between atoms: C7_14  and  C8_15 
REMARK    4  A    between atoms: C9_19  and  C10_20 
REMARK    5  A    between atoms: C10_20  and  O5_21 
REMARK    6  A    between atoms: C10_20  and  C11_23 
REMARK    7  A    between atoms: C11_23  and  O6_24 
REMARK    8  A    between atoms: C11_23  and  C12_26 
REMARK    9  A    between atoms: C12_26  and  O7_27 
ROOT
HETATM    1  C3  UNL     1      -4.771  48.633  53.795  1.00  0.00     0.138 C 
HETATM    2  C4  UNL     1      -4.988  49.334  55.149  1.00  0.00     0.112 C 
HETATM    3  C6  UNL     1      -5.795  48.484  56.061  1.00  0.00     0.070 C 
HETATM    4  C7  UNL     1      -6.237  47.186  55.426  1.00  0.00     0.224 C 
HETATM    5  O4  UNL     1      -5.315  46.529  54.683  1.00  0.00    -0.365 OA
HETATM    6  C9  UNL     1      -4.286  47.254  54.186  1.00  0.00     0.178 C 
ENDROOT
BRANCH   6   7
HETATM    7  C10 UNL     1      -3.526  46.573  53.079  1.00  0.00     0.180 C 
BRANCH   7   8
HETATM    8  O5  UNL     1      -4.316  46.410  51.963  1.00  0.00    -0.390 OA
ATOM      9  H5  UNL     1      -3.992  45.704  51.415  1.00  0.00     0.210 HD
ENDBRANCH   7   8
BRANCH   7  10
HETATM   10  C11 UNL     1      -2.913  45.275  53.479  1.00  0.00     0.173 C 
BRANCH  10  11
HETATM   11  O6  UNL     1      -3.073  44.991  54.823  1.00  0.00    -0.391 OA
ATOM     12  H6  UNL     1      -3.407  44.116  54.983  1.00  0.00     0.210 HD
ENDBRANCH  10  11
BRANCH  10  13
HETATM   13  C12 UNL     1      -1.406  45.393  53.238  1.00  0.00     0.198 C 
BRANCH  13  14
HETATM   14  O7  UNL     1      -0.868  44.191  52.796  1.00  0.00    -0.398 OA
ATOM     15  H7  UNL     1      -0.332  44.316  52.022  1.00  0.00     0.209 HD
ENDBRANCH  13  14
ENDBRANCH  10  13
ENDBRANCH   7  10
ENDBRANCH   6   7
BRANCH   1  16
HETATM   16  N1  UNL     1      -3.883  49.364  52.962  1.00  0.00    -0.352 N 
HETATM   17  C2  UNL     1      -4.335  49.934  51.748  1.00  0.00     0.214 C 
HETATM   18  C1  UNL     1      -3.432  50.711  50.841  1.00  0.00     0.117 C 
HETATM   19  O1  UNL     1      -5.552  49.793  51.397  1.00  0.00    -0.274 OA
ATOM     20  H1  UNL     1      -2.909  49.478  53.241  1.00  0.00     0.163 HD
ENDBRANCH   1  16
BRANCH   2  21
HETATM   21  N2  UNL     1      -5.448  50.670  55.036  1.00  0.00    -0.360 N 
HETATM   22  C5  UNL     1      -6.583  50.990  54.586  1.00  0.00     0.197 C 
HETATM   23  N3  UNL     1      -6.924  52.399  54.527  1.00  0.00    -0.067 NA
HETATM   24  N4  UNL     1      -7.609  50.135  54.115  1.00  0.00    -0.067 NA
ATOM     25  H2  UNL     1      -4.823  51.419  55.337  1.00  0.00     0.162 HD
ENDBRANCH   2  21
BRANCH   4  26
HETATM   26  C8  UNL     1      -6.716  46.300  56.516  1.00  0.00     0.203 C 
HETATM   27  O2  UNL     1      -7.310  46.795  57.493  1.00  0.00    -0.646 OA
HETATM   28  O3  UNL     1      -6.520  44.935  56.471  1.00  0.00    -0.646 OA
ENDBRANCH   4  26
TORSDOF 9
ENDMDL
