MODEL 5
REMARK VINA RESULT: -7.242148794      1.325      1.577
REMARK  9 active torsions:
REMARK  status: ('A' for Active; 'I' for Inactive)
REMARK       I    between atoms: C2_2  and  N1_4 
REMARK    1  A    between atoms: N1_4  and  C3_6 
REMARK    2  A    between atoms: C4_7  and  N2_8 
REMARK    3  A    between atoms: C7_14  and  C8_15 
REMARK    4  A    between atoms: C9_19  and  C10_20 
REMARK    5  A    between atoms: C10_20  and  O5_21 
REMARK    6  A    between atoms: C10_20  and  C11_23 
REMARK    7  A    between atoms: C11_23  and  O6_24 
REMARK    8  A    between atoms: C11_23  and  C12_26 
REMARK    9  A    between atoms: C12_26  and  O7_27 
ROOT
HETATM    1  C3  UNL     1      -3.041  47.326  53.975  1.00  0.00     0.138 C 
HETATM    2  C4  UNL     1      -3.055  45.805  54.214  1.00  0.00     0.112 C 
HETATM    3  C6  UNL     1      -4.272  45.398  54.962  1.00  0.00     0.070 C 
HETATM    4  C7  UNL     1      -5.155  46.564  55.338  1.00  0.00     0.224 C 
HETATM    5  O4  UNL     1      -5.345  47.513  54.390  1.00  0.00    -0.365 OA
HETATM    6  C9  UNL     1      -4.417  47.606  53.409  1.00  0.00     0.178 C 
ENDROOT
BRANCH   6   7
HETATM    7  C10 UNL     1      -4.470  48.891  52.626  1.00  0.00     0.180 C 
BRANCH   7   8
HETATM    8  O5  UNL     1      -3.766  49.888  53.262  1.00  0.00    -0.390 OA
ATOM      9  H5  UNL     1      -4.107  50.746  53.036  1.00  0.00     0.210 HD
ENDBRANCH   7   8
BRANCH   7  10
HETATM   10  C11 UNL     1      -5.853  49.347  52.312  1.00  0.00     0.173 C 
BRANCH  10  11
HETATM   11  O6  UNL     1      -6.681  48.322  51.892  1.00  0.00    -0.391 OA
ATOM     12  H6  UNL     1      -7.519  48.629  51.567  1.00  0.00     0.210 HD
ENDBRANCH  10  11
BRANCH  10  13
HETATM   13  C12 UNL     1      -5.750  50.327  51.138  1.00  0.00     0.198 C 
BRANCH  13  14
HETATM   14  O7  UNL     1      -4.616  50.085  50.375  1.00  0.00    -0.398 OA
ATOM     15  H7  UNL     1      -4.063  50.856  50.324  1.00  0.00     0.209 HD
ENDBRANCH  13  14
ENDBRANCH  10  13
ENDBRANCH   7  10
ENDBRANCH   6   7
BRANCH   1  16
HETATM   16  N1  UNL     1      -1.962  47.717  53.140  1.00  0.00    -0.352 N 
HETATM   17  C2  UNL     1      -1.705  47.037  51.926  1.00  0.00     0.214 C 
HETATM   18  C1  UNL     1      -0.578  47.417  51.016  1.00  0.00     0.117 C 
HETATM   19  O1  UNL     1      -2.449  46.065  51.575  1.00  0.00    -0.274 OA
ATOM     20  H1  UNL     1      -1.366  48.496  53.418  1.00  0.00     0.163 HD
ENDBRANCH   1  16
BRANCH   2  21
HETATM   21  N2  UNL     1      -1.844  45.298  54.750  1.00  0.00    -0.360 N 
HETATM   22  C5  UNL     1      -1.282  44.242  54.346  1.00  0.00     0.197 C 
HETATM   23  N3  UNL     1      -0.043  43.839  54.984  1.00  0.00    -0.067 NA
HETATM   24  N4  UNL     1      -1.705  43.365  53.318  1.00  0.00    -0.067 NA
ATOM     25  H2  UNL     1      -1.399  45.818  55.507  1.00  0.00     0.162 HD
ENDBRANCH   2  21
BRANCH   4  26
HETATM   26  C8  UNL     1      -6.468  46.012  55.753  1.00  0.00     0.203 C 
HETATM   27  O2  UNL     1      -7.516  46.542  55.336  1.00  0.00    -0.646 OA
HETATM   28  O3  UNL     1      -6.556  44.920  56.592  1.00  0.00    -0.646 OA
ENDBRANCH   4  26
TORSDOF 9
ENDMDL
