MODEL 9
REMARK VINA RESULT: -7.128658285      1.148      1.601
REMARK  9 active torsions:
REMARK  status: ('A' for Active; 'I' for Inactive)
REMARK       I    between atoms: C2_2  and  N1_4 
REMARK    1  A    between atoms: N1_4  and  C3_6 
REMARK    2  A    between atoms: C4_7  and  N2_8 
REMARK    3  A    between atoms: C7_14  and  C8_15 
REMARK    4  A    between atoms: C9_19  and  C10_20 
REMARK    5  A    between atoms: C10_20  and  O5_21 
REMARK    6  A    between atoms: C10_20  and  C11_23 
REMARK    7  A    between atoms: C11_23  and  O6_24 
REMARK    8  A    between atoms: C11_23  and  C12_26 
REMARK    9  A    between atoms: C12_26  and  O7_27 
ROOT
HETATM    1  C3  UNL     1      -3.516  47.519  53.349  1.00  0.00     0.138 C 
HETATM    2  C4  UNL     1      -3.678  46.101  53.926  1.00  0.00     0.112 C 
HETATM    3  C6  UNL     1      -4.717  46.077  54.987  1.00  0.00     0.070 C 
HETATM    4  C7  UNL     1      -5.312  47.438  55.265  1.00  0.00     0.224 C 
HETATM    5  O4  UNL     1      -5.598  48.208  54.188  1.00  0.00    -0.365 OA
HETATM    6  C9  UNL     1      -4.937  47.938  53.039  1.00  0.00     0.178 C 
ENDROOT
BRANCH   6   7
HETATM    7  C10 UNL     1      -5.005  49.038  52.012  1.00  0.00     0.180 C 
BRANCH   7   8
HETATM    8  O5  UNL     1      -4.013  49.969  52.218  1.00  0.00    -0.390 OA
ATOM      9  H5  UNL     1      -4.011  50.625  51.531  1.00  0.00     0.210 HD
ENDBRANCH   7   8
BRANCH   7  10
HETATM   10  C11 UNL     1      -6.336  49.702  51.930  1.00  0.00     0.173 C 
BRANCH  10  11
HETATM   11  O6  UNL     1      -6.465  50.523  50.824  1.00  0.00    -0.391 OA
ATOM     12  H6  UNL     1      -5.631  50.834  50.491  1.00  0.00     0.210 HD
ENDBRANCH  10  11
BRANCH  10  13
HETATM   13  C12 UNL     1      -6.466  50.609  53.158  1.00  0.00     0.198 C 
BRANCH  13  14
HETATM   14  O7  UNL     1      -7.601  50.301  53.896  1.00  0.00    -0.398 OA
ATOM     15  H7  UNL     1      -7.374  49.914  54.733  1.00  0.00     0.209 HD
ENDBRANCH  13  14
ENDBRANCH  10  13
ENDBRANCH   7  10
ENDBRANCH   6   7
BRANCH   1  16
HETATM   16  N1  UNL     1      -2.633  47.536  52.237  1.00  0.00    -0.352 N 
HETATM   17  C2  UNL     1      -1.237  47.670  52.425  1.00  0.00     0.214 C 
HETATM   18  C1  UNL     1      -0.271  47.693  51.281  1.00  0.00     0.117 C 
HETATM   19  O1  UNL     1      -0.764  47.775  53.603  1.00  0.00    -0.274 OA
ATOM     20  H1  UNL     1      -3.009  47.451  51.293  1.00  0.00     0.163 HD
ENDBRANCH   1  16
BRANCH   2  21
HETATM   21  N2  UNL     1      -2.453  45.488  54.294  1.00  0.00    -0.360 N 
HETATM   22  C5  UNL     1      -2.115  44.323  53.946  1.00  0.00     0.197 C 
HETATM   23  N3  UNL     1      -0.831  43.819  54.394  1.00  0.00    -0.067 NA
HETATM   24  N4  UNL     1      -2.840  43.404  53.148  1.00  0.00    -0.067 NA
ATOM     25  H2  UNL     1      -1.806  46.021  54.875  1.00  0.00     0.162 HD
ENDBRANCH   2  21
BRANCH   4  26
HETATM   26  C8  UNL     1      -6.544  47.229  56.064  1.00  0.00     0.203 C 
HETATM   27  O2  UNL     1      -6.631  47.731  57.202  1.00  0.00    -0.646 OA
HETATM   28  O3  UNL     1      -7.602  46.490  55.576  1.00  0.00    -0.646 OA
ENDBRANCH   4  26
TORSDOF 9
ENDMDL
