MODEL 2
REMARK VINA RESULT: -7.415400441      2.501      4.987
REMARK  9 active torsions:
REMARK  status: ('A' for Active; 'I' for Inactive)
REMARK       I    between atoms: C2_2  and  N1_4 
REMARK    1  A    between atoms: N1_4  and  C3_6 
REMARK    2  A    between atoms: C4_7  and  N2_8 
REMARK    3  A    between atoms: C7_14  and  C8_15 
REMARK    4  A    between atoms: C9_19  and  C10_20 
REMARK    5  A    between atoms: C10_20  and  O5_21 
REMARK    6  A    between atoms: C10_20  and  C11_23 
REMARK    7  A    between atoms: C11_23  and  O6_24 
REMARK    8  A    between atoms: C11_23  and  C12_26 
REMARK    9  A    between atoms: C12_26  and  O7_27 
ROOT
HETATM    1  C3  UNL     1      -3.628  46.887  52.137  1.00  0.00     0.138 C 
HETATM    2  C4  UNL     1      -3.875  48.357  52.520  1.00  0.00     0.112 C 
HETATM    3  C6  UNL     1      -4.982  48.470  53.503  1.00  0.00     0.070 C 
HETATM    4  C7  UNL     1      -5.614  47.139  53.839  1.00  0.00     0.224 C 
HETATM    5  O4  UNL     1      -4.770  46.097  54.031  1.00  0.00    -0.365 OA
HETATM    6  C9  UNL     1      -3.539  46.184  53.475  1.00  0.00     0.178 C 
ENDROOT
BRANCH   6   7
HETATM    7  C10 UNL     1      -2.803  44.873  53.391  1.00  0.00     0.180 C 
BRANCH   7   8
HETATM    8  O5  UNL     1      -3.675  43.811  53.449  1.00  0.00    -0.390 OA
ATOM      9  H5  UNL     1      -3.306  43.091  53.948  1.00  0.00     0.210 HD
ENDBRANCH   7   8
BRANCH   7  10
HETATM   10  C11 UNL     1      -1.727  44.722  54.411  1.00  0.00     0.173 C 
BRANCH  10  11
HETATM   11  O6  UNL     1      -0.885  45.817  54.479  1.00  0.00    -0.391 OA
ATOM     12  H6  UNL     1       0.032  45.578  54.556  1.00  0.00     0.210 HD
ENDBRANCH  10  11
BRANCH  10  13
HETATM   13  C12 UNL     1      -0.859  43.536  53.981  1.00  0.00     0.198 C 
BRANCH  13  14
HETATM   14  O7  UNL     1       0.184  43.323  54.872  1.00  0.00    -0.398 OA
ATOM     15  H7  UNL     1       0.798  42.678  54.538  1.00  0.00     0.209 HD
ENDBRANCH  13  14
ENDBRANCH  10  13
ENDBRANCH   7  10
ENDBRANCH   6   7
BRANCH   1  16
HETATM   16  N1  UNL     1      -2.482  46.744  51.311  1.00  0.00    -0.352 N 
HETATM   17  C2  UNL     1      -1.266  47.386  51.644  1.00  0.00     0.214 C 
HETATM   18  C1  UNL     1      -0.035  47.262  50.801  1.00  0.00     0.117 C 
HETATM   19  O1  UNL     1      -1.195  48.100  52.697  1.00  0.00    -0.274 OA
ATOM     20  H1  UNL     1      -2.537  46.173  50.468  1.00  0.00     0.163 HD
ENDBRANCH   1  16
BRANCH   2  21
HETATM   21  N2  UNL     1      -3.991  49.229  51.407  1.00  0.00    -0.360 N 
HETATM   22  C5  UNL     1      -3.568  50.418  51.396  1.00  0.00     0.197 C 
HETATM   23  N3  UNL     1      -3.753  51.199  50.187  1.00  0.00    -0.067 NA
HETATM   24  N4  UNL     1      -2.912  51.123  52.435  1.00  0.00    -0.067 NA
ATOM     25  H2  UNL     1      -4.443  48.873  50.565  1.00  0.00     0.162 HD
ENDBRANCH   2  21
BRANCH   4  26
HETATM   26  C8  UNL     1      -6.440  47.335  55.056  1.00  0.00     0.203 C 
HETATM   27  O2  UNL     1      -6.164  48.262  55.843  1.00  0.00    -0.646 OA
HETATM   28  O3  UNL     1      -7.512  46.513  55.338  1.00  0.00    -0.646 OA
ENDBRANCH   4  26
TORSDOF 9
ENDMDL
