MODEL 3
REMARK VINA RESULT: -6.292223562      3.647      5.219
REMARK  0 active torsions:
REMARK  status: ('A' for Active; 'I' for Inactive)
ROOT
HETATM    1  O1  UNL     1     -22.012 -47.210 -12.425  1.00  0.00    -0.268 OA
HETATM    2  C1  UNL     1     -21.621 -48.381 -12.165  1.00  0.00     0.245 A 
HETATM    3  C2  UNL     1     -20.361 -48.565 -11.637  1.00  0.00     0.075 A 
HETATM    4  C3  UNL     1     -19.956 -49.856 -11.362  1.00  0.00     0.019 A 
HETATM    5  C4  UNL     1     -20.785 -50.946 -11.606  1.00  0.00    -0.008 A 
HETATM    6  C5  UNL     1     -20.385 -52.237 -11.334  1.00  0.00     0.037 A 
HETATM    7  C6  UNL     1     -21.217 -53.316 -11.579  1.00  0.00     0.035 A 
HETATM    8 CL1  UNL     1     -20.687 -54.942 -11.225  1.00  0.00    -0.084 Cl
HETATM    9  C7  UNL     1     -22.477 -53.097 -12.111  1.00  0.00     0.026 A 
HETATM   10  C8  UNL     1     -22.863 -51.800 -12.378  1.00  0.00     0.032 A 
HETATM   11  C9  UNL     1     -22.036 -50.715 -12.134  1.00  0.00     0.045 A 
HETATM   12  N1  UNL     1     -22.406 -49.451 -12.393  1.00  0.00    -0.323 N 
ATOM     13  H1  UNL     1     -23.335 -49.292 -12.783  1.00  0.00     0.169 HD
ENDROOT
TORSDOF 0
ENDMDL
