MODEL 4
REMARK VINA RESULT: -6.187544313      3.289      4.552
REMARK  0 active torsions:
REMARK  status: ('A' for Active; 'I' for Inactive)
ROOT
HETATM    1  O1  UNL     1     -19.103 -47.077 -11.570  1.00  0.00    -0.268 OA
HETATM    2  C1  UNL     1     -19.904 -48.047 -11.679  1.00  0.00     0.245 A 
HETATM    3  C2  UNL     1     -21.230 -47.792 -11.956  1.00  0.00     0.075 A 
HETATM    4  C3  UNL     1     -22.086 -48.870 -12.069  1.00  0.00     0.019 A 
HETATM    5  C4  UNL     1     -21.636 -50.177 -11.911  1.00  0.00    -0.008 A 
HETATM    6  C5  UNL     1     -22.486 -51.256 -12.023  1.00  0.00     0.037 A 
HETATM    7  C6  UNL     1     -22.030 -52.552 -11.865  1.00  0.00     0.035 A 
HETATM    8 CL1  UNL     1     -23.128 -53.903 -12.012  1.00  0.00    -0.084 Cl
HETATM    9  C7  UNL     1     -20.692 -52.773 -11.587  1.00  0.00     0.026 A 
HETATM   10  C8  UNL     1     -19.852 -51.684 -11.478  1.00  0.00     0.032 A 
HETATM   11  C9  UNL     1     -20.302 -50.382 -11.636  1.00  0.00     0.045 A 
HETATM   12  N1  UNL     1     -19.490 -49.319 -11.530  1.00  0.00    -0.323 N 
ATOM     13  H1  UNL     1     -18.505 -49.484 -11.327  1.00  0.00     0.169 HD
ENDROOT
TORSDOF 0
ENDMDL
