MODEL 1
REMARK VINA RESULT: -7.076714269      0.000      0.000
REMARK  0 active torsions:
REMARK  status: ('A' for Active; 'I' for Inactive)
ROOT
HETATM    1  O1  UNL     1     -20.233 -52.895 -11.191  1.00  0.00    -0.268 OA
HETATM    2  C1  UNL     1     -20.508 -51.681 -11.401  1.00  0.00     0.245 A 
HETATM    3  C2  UNL     1     -21.814 -51.326 -11.662  1.00  0.00     0.075 A 
HETATM    4  C3  UNL     1     -22.089 -49.992 -11.889  1.00  0.00     0.019 A 
HETATM    5  C4  UNL     1     -21.088 -49.027 -11.857  1.00  0.00    -0.008 A 
HETATM    6  C5  UNL     1     -21.357 -47.694 -12.084  1.00  0.00     0.037 A 
HETATM    7  C6  UNL     1     -20.354 -46.741 -12.050  1.00  0.00     0.035 A 
HETATM    8 CL1  UNL     1     -20.721 -45.058 -12.339  1.00  0.00    -0.084 Cl
HETATM    9  C7  UNL     1     -19.053 -47.131 -11.784  1.00  0.00     0.026 A 
HETATM   10  C8  UNL     1     -18.798 -48.468 -11.560  1.00  0.00     0.032 A 
HETATM   11  C9  UNL     1     -19.797 -49.429 -11.592  1.00  0.00     0.045 A 
HETATM   12  N1  UNL     1     -19.555 -50.731 -11.375  1.00  0.00    -0.323 N 
ATOM     13  H1  UNL     1     -18.596 -51.016 -11.178  1.00  0.00     0.169 HD
ENDROOT
TORSDOF 0
ENDMDL
