MODEL 2
REMARK VINA RESULT: -6.710017984      3.454      4.859
REMARK  0 active torsions:
REMARK  status: ('A' for Active; 'I' for Inactive)
ROOT
HETATM    1  O1  UNL     1     -20.582 -45.265 -12.315  1.00  0.00    -0.268 OA
HETATM    2  C1  UNL     1     -20.375 -46.491 -12.099  1.00  0.00     0.245 A 
HETATM    3  C2  UNL     1     -19.097 -46.911 -11.800  1.00  0.00     0.075 A 
HETATM    4  C3  UNL     1     -18.896 -48.258 -11.568  1.00  0.00     0.019 A 
HETATM    5  C4  UNL     1     -19.943 -49.171 -11.630  1.00  0.00    -0.008 A 
HETATM    6  C5  UNL     1     -19.748 -50.516 -11.399  1.00  0.00     0.037 A 
HETATM    7  C6  UNL     1     -20.796 -51.417 -11.462  1.00  0.00     0.035 A 
HETATM    8 CL1  UNL     1     -20.522 -53.117 -11.165  1.00  0.00    -0.084 Cl
HETATM    9  C7  UNL     1     -22.068 -50.962 -11.765  1.00  0.00     0.026 A 
HETATM   10  C8  UNL     1     -22.248 -49.614 -11.994  1.00  0.00     0.032 A 
HETATM   11  C9  UNL     1     -21.204 -48.705 -11.932  1.00  0.00     0.045 A 
HETATM   12  N1  UNL     1     -21.373 -47.392 -12.153  1.00  0.00    -0.323 N 
ATOM     13  H1  UNL     1     -22.312 -47.059 -12.375  1.00  0.00     0.169 HD
ENDROOT
TORSDOF 0
ENDMDL
