MODEL 1
REMARK VINA RESULT: -6.666041803      0.000      0.000
REMARK  0 active torsions:
REMARK  status: ('A' for Active; 'I' for Inactive)
ROOT
HETATM    1  C1  UNL     1      53.437  19.875  12.014  1.00  0.00     0.049 C 
HETATM    2  C2  UNL     1      52.644  21.129  11.945  1.00  0.00    -0.046 A 
HETATM    3  C3  UNL     1      53.270  22.370  11.962  1.00  0.00     0.052 A 
HETATM    4  C4  UNL     1      52.551  23.537  11.899  1.00  0.00     0.117 A 
HETATM    5  N1  UNL     1      53.225  24.802  11.919  1.00  0.00    -0.083 NA
HETATM    6  N2  UNL     1      51.209  23.482  11.819  1.00  0.00    -0.344 N 
ATOM      7  H2  UNL     1      50.679  24.352  11.773  1.00  0.00     0.167 HD
HETATM    8  C5  UNL     1      50.549  22.314  11.798  1.00  0.00     0.044 A 
HETATM    9  C6  UNL     1      49.166  22.271  11.715  1.00  0.00     0.032 A 
HETATM   10  C7  UNL     1      48.493  21.067  11.694  1.00  0.00     0.029 A 
HETATM   11  C8  UNL     1      49.182  19.883  11.755  1.00  0.00     0.047 A 
HETATM   12  N3  UNL     1      48.534  18.620  11.737  1.00  0.00    -0.102 NA
HETATM   13  C9  UNL     1      50.570  19.930  11.839  1.00  0.00     0.040 A 
HETATM   14  C10 UNL     1      51.264  21.124  11.861  1.00  0.00    -0.002 A 
ENDROOT
TORSDOF 0
ENDMDL
