MODEL 7
REMARK VINA RESULT: -5.518802532      2.177      3.089
REMARK  0 active torsions:
REMARK  status: ('A' for Active; 'I' for Inactive)
ROOT
HETATM    1  C1  UNL     1      53.074  24.426  12.711  1.00  0.00     0.049 C 
HETATM    2  C2  UNL     1      53.301  23.024  12.274  1.00  0.00    -0.046 A 
HETATM    3  C3  UNL     1      54.587  22.547  12.049  1.00  0.00     0.052 A 
HETATM    4  C4  UNL     1      54.813  21.255  11.645  1.00  0.00     0.117 A 
HETATM    5  N1  UNL     1      56.151  20.793  11.420  1.00  0.00    -0.083 NA
HETATM    6  N2  UNL     1      53.767  20.428  11.464  1.00  0.00    -0.344 N 
ATOM      7  H2  UNL     1      53.941  19.469  11.164  1.00  0.00     0.167 HD
HETATM    8  C5  UNL     1      52.504  20.831  11.666  1.00  0.00     0.044 A 
HETATM    9  C6  UNL     1      51.435  19.969  11.477  1.00  0.00     0.032 A 
HETATM   10  C7  UNL     1      50.138  20.389  11.686  1.00  0.00     0.029 A 
HETATM   11  C8  UNL     1      49.879  21.673  12.089  1.00  0.00     0.047 A 
HETATM   12  N3  UNL     1      48.561  22.151  12.317  1.00  0.00    -0.102 NA
HETATM   13  C9  UNL     1      50.953  22.536  12.279  1.00  0.00     0.040 A 
HETATM   14  C10 UNL     1      52.260  22.136  12.075  1.00  0.00    -0.002 A 
ENDROOT
TORSDOF 0
ENDMDL
