MODEL 19
REMARK VINA RESULT: -5.133508653      2.224      5.034
REMARK  0 active torsions:
REMARK  status: ('A' for Active; 'I' for Inactive)
ROOT
HETATM    1  C1  UNL     1      51.506  23.089  13.130  1.00  0.00     0.049 C 
HETATM    2  C2  UNL     1      51.429  21.647  12.778  1.00  0.00    -0.046 A 
HETATM    3  C3  UNL     1      50.220  21.065  12.419  1.00  0.00     0.052 A 
HETATM    4  C4  UNL     1      50.132  19.735  12.091  1.00  0.00     0.117 A 
HETATM    5  N1  UNL     1      48.870  19.163  11.726  1.00  0.00    -0.083 NA
HETATM    6  N2  UNL     1      51.243  18.976  12.116  1.00  0.00    -0.344 N 
ATOM      7  H2  UNL     1      51.173  17.988  11.871  1.00  0.00     0.167 HD
HETATM    8  C5  UNL     1      52.439  19.481  12.453  1.00  0.00     0.044 A 
HETATM    9  C6  UNL     1      53.575  18.689  12.474  1.00  0.00     0.032 A 
HETATM   10  C7  UNL     1      54.802  19.215  12.822  1.00  0.00     0.029 A 
HETATM   11  C8  UNL     1      54.922  20.539  13.155  1.00  0.00     0.047 A 
HETATM   12  N3  UNL     1      56.163  21.125  13.520  1.00  0.00    -0.102 NA
HETATM   13  C9  UNL     1      53.780  21.332  13.133  1.00  0.00     0.040 A 
HETATM   14  C10 UNL     1      52.542  20.826  12.788  1.00  0.00    -0.002 A 
ENDROOT
TORSDOF 0
ENDMDL
