MODEL 2
REMARK VINA RESULT: -6.468563492      2.149      3.373
REMARK  0 active torsions:
REMARK  status: ('A' for Active; 'I' for Inactive)
ROOT
HETATM    1  C1  UNL     1      49.543  23.424  12.091  1.00  0.00     0.049 C 
HETATM    2  C2  UNL     1      50.004  22.030  11.863  1.00  0.00    -0.046 A 
HETATM    3  C3  UNL     1      51.347  21.750  11.645  1.00  0.00     0.052 A 
HETATM    4  C4  UNL     1      51.789  20.468  11.433  1.00  0.00     0.117 A 
HETATM    5  N1  UNL     1      53.181  20.211  11.211  1.00  0.00    -0.083 NA
HETATM    6  N2  UNL     1      50.901  19.456  11.437  1.00  0.00    -0.344 N 
ATOM      7  H2  UNL     1      51.234  18.505  11.279  1.00  0.00     0.167 HD
HETATM    8  C5  UNL     1      49.592  19.664  11.642  1.00  0.00     0.044 A 
HETATM    9  C6  UNL     1      48.689  18.613  11.643  1.00  0.00     0.032 A 
HETATM   10  C7  UNL     1      47.343  18.834  11.855  1.00  0.00     0.029 A 
HETATM   11  C8  UNL     1      46.871  20.103  12.069  1.00  0.00     0.047 A 
HETATM   12  N3  UNL     1      45.496  20.379  12.291  1.00  0.00    -0.102 NA
HETATM   13  C9  UNL     1      47.780  21.155  12.067  1.00  0.00     0.040 A 
HETATM   14  C10 UNL     1      49.131  20.957  11.857  1.00  0.00    -0.002 A 
ENDROOT
TORSDOF 0
ENDMDL
