MODEL 4
REMARK VINA RESULT: -6.235453840      1.294      4.909
REMARK  0 active torsions:
REMARK  status: ('A' for Active; 'I' for Inactive)
ROOT
HETATM    1  C1  UNL     1      49.354  23.139  11.693  1.00  0.00     0.049 C 
HETATM    2  C2  UNL     1      49.795  21.721  11.742  1.00  0.00    -0.046 A 
HETATM    3  C3  UNL     1      48.871  20.685  11.687  1.00  0.00     0.052 A 
HETATM    4  C4  UNL     1      49.263  19.370  11.731  1.00  0.00     0.117 A 
HETATM    5  N1  UNL     1      48.287  18.323  11.672  1.00  0.00    -0.083 NA
HETATM    6  N2  UNL     1      50.573  19.075  11.828  1.00  0.00    -0.344 N 
ATOM      7  H2  UNL     1      50.859  18.097  11.860  1.00  0.00     0.167 HD
HETATM    8  C5  UNL     1      51.511  20.032  11.885  1.00  0.00     0.044 A 
HETATM    9  C6  UNL     1      52.857  19.716  11.985  1.00  0.00     0.032 A 
HETATM   10  C7  UNL     1      53.817  20.704  12.042  1.00  0.00     0.029 A 
HETATM   11  C8  UNL     1      53.457  22.027  12.001  1.00  0.00     0.047 A 
HETATM   12  N3  UNL     1      54.409  23.079  12.057  1.00  0.00    -0.102 NA
HETATM   13  C9  UNL     1      52.106  22.341  11.900  1.00  0.00     0.040 A 
HETATM   14  C10 UNL     1      51.129  21.367  11.841  1.00  0.00    -0.002 A 
ENDROOT
TORSDOF 0
ENDMDL
