MODEL 2
REMARK VINA RESULT: -9.784827241      3.689     10.991
REMARK  8 active torsions:
REMARK  status: ('A' for Active; 'I' for Inactive)
REMARK    1  A    between atoms: C5_6  and  C6_7 
REMARK    2  A    between atoms: C6_7  and  N2_8 
REMARK       I    between atoms: N2_8  and  C7_10 
REMARK    3  A    between atoms: C7_10  and  C8_12 
REMARK    4  A    between atoms: C8_12  and  C9_13 
REMARK    5  A    between atoms: C8_12  and  N3_20 
REMARK    6  A    between atoms: C9_13  and  C10_14 
REMARK       I    between atoms: N3_20  and  C16_22 
REMARK    7  A    between atoms: C16_22  and  C17_24 
REMARK    8  A    between atoms: C23_33  and  O4_34 
ROOT
HETATM    1  C8  UNL     1     -22.805 -52.431 -12.503  1.00  0.00     0.181 C 
ENDROOT
BRANCH   1   2
HETATM    2  C7  UNL     1     -22.302 -53.204 -13.664  1.00  0.00     0.241 C 
HETATM    3  N2  UNL     1     -21.636 -54.436 -13.452  1.00  0.00    -0.355 N 
ATOM      4  H2  UNL     1     -21.505 -54.772 -12.498  1.00  0.00     0.162 HD
HETATM    5  O1  UNL     1     -22.488 -52.733 -14.811  1.00  0.00    -0.271 OA
BRANCH   3   6
HETATM    6  C6  UNL     1     -21.137 -55.228 -14.547  1.00  0.00     0.162 C 
BRANCH   6   7
HETATM    7  C5  UNL     1     -19.678 -55.341 -14.593  1.00  0.00    -0.028 A 
HETATM    8  C4  UNL     1     -19.006 -54.644 -15.606  1.00  0.00    -0.001 A 
HETATM    9  C3  UNL     1     -19.731 -53.912 -16.519  1.00  0.00     0.017 A 
HETATM   10  C29 UNL     1     -17.613 -54.691 -15.691  1.00  0.00     0.044 A 
HETATM   11  C2  UNL     1     -19.055 -53.238 -17.503  1.00  0.00     0.046 A 
HETATM   12  C1  UNL     1     -17.681 -53.314 -17.548  1.00  0.00     0.116 A 
HETATM   13  N1  UNL     1     -17.001 -52.598 -18.589  1.00  0.00    -0.083 NA
HETATM   14  N5  UNL     1     -16.955 -54.017 -16.672  1.00  0.00    -0.344 N 
ATOM     15  H5  UNL     1     -15.939 -54.047 -16.739  1.00  0.00     0.167 HD
HETATM   16  C28 UNL     1     -16.885 -55.425 -14.778  1.00  0.00     0.030 A 
HETATM   17  C27 UNL     1     -17.570 -56.099 -13.794  1.00  0.00     0.003 A 
HETATM   18  C26 UNL     1     -18.951 -56.070 -13.685  1.00  0.00     0.010 A 
ENDBRANCH   6   7
ENDBRANCH   3   6
ENDBRANCH   1   2
BRANCH   1  19
HETATM   19  C9  UNL     1     -21.719 -52.238 -11.462  1.00  0.00     0.073 C 
BRANCH  19  20
HETATM   20  C10 UNL     1     -21.126 -50.898 -11.518  1.00  0.00    -0.056 A 
HETATM   21  C11 UNL     1     -21.936 -49.783 -11.722  1.00  0.00     0.007 A 
HETATM   22  C12 UNL     1     -21.378 -48.524 -11.775  1.00  0.00     0.001 A 
HETATM   23  C13 UNL     1     -19.997 -48.384 -11.622  1.00  0.00     0.000 A 
HETATM   24  C14 UNL     1     -19.176 -49.471 -11.420  1.00  0.00     0.001 A 
HETATM   25  C15 UNL     1     -19.777 -50.726 -11.372  1.00  0.00     0.007 A 
ENDBRANCH  19  20
ENDBRANCH   1  19
BRANCH   1  26
HETATM   26  N3  UNL     1     -23.890 -53.137 -11.836  1.00  0.00    -0.343 N 
HETATM   27  C16 UNL     1     -25.228 -52.981 -12.280  1.00  0.00     0.252 C 
HETATM   28  O2  UNL     1     -25.425 -52.218 -13.259  1.00  0.00    -0.268 OA
ATOM     29  H3  UNL     1     -23.687 -53.747 -11.044  1.00  0.00     0.163 HD
BRANCH  27  30
HETATM   30  C17 UNL     1     -26.369 -53.658 -11.658  1.00  0.00     0.033 A 
HETATM   31  C18 UNL     1     -27.593 -53.679 -12.306  1.00  0.00     0.019 A 
HETATM   32  C19 UNL     1     -28.669 -54.316 -11.725  1.00  0.00     0.031 A 
HETATM   33  C20 UNL     1     -28.586 -54.946 -10.504  1.00  0.00     0.048 A 
HETATM   34  N4  UNL     1     -29.653 -55.554  -9.969  1.00  0.00    -0.323 N 
HETATM   35  C24 UNL     1     -27.364 -54.937  -9.832  1.00  0.00     0.025 A 
HETATM   36  C21 UNL     1     -29.585 -56.170  -8.781  1.00  0.00     0.248 A 
ATOM     37  H4  UNL     1     -30.537 -55.548 -10.478  1.00  0.00     0.169 HD
HETATM   38  O3  UNL     1     -30.581 -56.743  -8.275  1.00  0.00    -0.268 OA
HETATM   39  C22 UNL     1     -28.380 -56.179  -8.088  1.00  0.00     0.111 A 
HETATM   40  C23 UNL     1     -27.269 -55.562  -8.614  1.00  0.00     0.083 A 
HETATM   41  C25 UNL     1     -26.284 -54.289 -10.435  1.00  0.00     0.033 A 
BRANCH  40  42
HETATM   42  O4  UNL     1     -26.100 -55.588  -7.910  1.00  0.00    -0.360 OA
ATOM     43  H4  UNL     1     -25.505 -56.319  -8.027  1.00  0.00     0.217 HD
ENDBRANCH  40  42
ENDBRANCH  27  30
ENDBRANCH   1  26
TORSDOF 8
ENDMDL
