MODEL 5
REMARK VINA RESULT: -9.531153264      2.415     10.157
REMARK  8 active torsions:
REMARK  status: ('A' for Active; 'I' for Inactive)
REMARK    1  A    between atoms: C5_6  and  C6_7 
REMARK    2  A    between atoms: C6_7  and  N2_8 
REMARK       I    between atoms: N2_8  and  C7_10 
REMARK    3  A    between atoms: C7_10  and  C8_12 
REMARK    4  A    between atoms: C8_12  and  C9_13 
REMARK    5  A    between atoms: C8_12  and  N3_20 
REMARK    6  A    between atoms: C9_13  and  C10_14 
REMARK       I    between atoms: N3_20  and  C16_22 
REMARK    7  A    between atoms: C16_22  and  C17_24 
REMARK    8  A    between atoms: C23_33  and  O4_34 
ROOT
HETATM    1  C8  UNL     1     -26.337 -54.018 -11.489  1.00  0.00     0.181 C 
ENDROOT
BRANCH   1   2
HETATM    2  C7  UNL     1     -25.499 -52.829 -11.202  1.00  0.00     0.241 C 
HETATM    3  N2  UNL     1     -24.240 -52.687 -11.837  1.00  0.00    -0.355 N 
ATOM      4  H2  UNL     1     -23.925 -53.412 -12.481  1.00  0.00     0.162 HD
HETATM    5  O1  UNL     1     -25.941 -51.977 -10.395  1.00  0.00    -0.271 OA
BRANCH   3   6
HETATM    6  C6  UNL     1     -23.393 -51.547 -11.598  1.00  0.00     0.162 C 
BRANCH   6   7
HETATM    7  C5  UNL     1     -21.960 -51.831 -11.692  1.00  0.00    -0.028 A 
HETATM    8  C4  UNL     1     -21.082 -50.740 -11.693  1.00  0.00    -0.001 A 
HETATM    9  C3  UNL     1     -21.592 -49.462 -11.633  1.00  0.00     0.017 A 
HETATM   10  C29 UNL     1     -19.702 -50.944 -11.756  1.00  0.00     0.044 A 
HETATM   11  C2  UNL     1     -20.716 -48.407 -11.636  1.00  0.00     0.046 A 
HETATM   12  C1  UNL     1     -19.363 -48.656 -11.700  1.00  0.00     0.116 A 
HETATM   13  N1  UNL     1     -18.471 -47.532 -11.702  1.00  0.00    -0.083 NA
HETATM   14  N5  UNL     1     -18.845 -49.887 -11.758  1.00  0.00    -0.344 N 
ATOM     15  H5  UNL     1     -17.837 -50.030 -11.803  1.00  0.00     0.167 HD
HETATM   16  C28 UNL     1     -19.190 -52.223 -11.818  1.00  0.00     0.030 A 
HETATM   17  C27 UNL     1     -20.075 -53.276 -11.814  1.00  0.00     0.003 A 
HETATM   18  C26 UNL     1     -21.448 -53.104 -11.752  1.00  0.00     0.010 A 
ENDBRANCH   6   7
ENDBRANCH   3   6
ENDBRANCH   1   2
BRANCH   1  19
HETATM   19  C9  UNL     1     -27.318 -53.739 -12.612  1.00  0.00     0.073 C 
BRANCH  19  20
HETATM   20  C10 UNL     1     -28.126 -54.915 -12.951  1.00  0.00    -0.056 A 
HETATM   21  C11 UNL     1     -29.515 -54.826 -12.975  1.00  0.00     0.007 A 
HETATM   22  C12 UNL     1     -30.274 -55.932 -13.293  1.00  0.00     0.001 A 
HETATM   23  C13 UNL     1     -29.631 -57.136 -13.589  1.00  0.00     0.000 A 
HETATM   24  C14 UNL     1     -28.258 -57.249 -13.570  1.00  0.00     0.001 A 
HETATM   25  C15 UNL     1     -27.528 -56.109 -13.245  1.00  0.00     0.007 A 
ENDBRANCH  19  20
ENDBRANCH   1  19
BRANCH   1  26
HETATM   26  N3  UNL     1     -27.137 -54.386 -10.329  1.00  0.00    -0.343 N 
HETATM   27  C16 UNL     1     -26.790 -55.518  -9.548  1.00  0.00     0.252 C 
HETATM   28  O2  UNL     1     -25.778 -56.173  -9.900  1.00  0.00    -0.268 OA
ATOM     29  H3  UNL     1     -27.952 -53.827 -10.078  1.00  0.00     0.163 HD
BRANCH  27  30
HETATM   30  C17 UNL     1     -27.549 -55.947  -8.369  1.00  0.00     0.033 A 
HETATM   31  C18 UNL     1     -28.616 -55.186  -7.924  1.00  0.00     0.019 A 
HETATM   32  C19 UNL     1     -29.333 -55.586  -6.816  1.00  0.00     0.031 A 
HETATM   33  C20 UNL     1     -29.033 -56.732  -6.114  1.00  0.00     0.048 A 
HETATM   34  N4  UNL     1     -29.751 -57.090  -5.042  1.00  0.00    -0.323 N 
HETATM   35  C24 UNL     1     -27.961 -57.515  -6.544  1.00  0.00     0.025 A 
HETATM   36  C21 UNL     1     -29.469 -58.202  -4.349  1.00  0.00     0.248 A 
ATOM     37  H4  UNL     1     -30.531 -56.502  -4.745  1.00  0.00     0.169 HD
HETATM   38  O3  UNL     1     -30.139 -58.543  -3.344  1.00  0.00    -0.268 OA
HETATM   39  C22 UNL     1     -28.407 -59.003  -4.753  1.00  0.00     0.111 A 
HETATM   40  C23 UNL     1     -27.653 -58.659  -5.851  1.00  0.00     0.083 A 
HETATM   41  C25 UNL     1     -27.247 -57.095  -7.667  1.00  0.00     0.033 A 
BRANCH  40  42
HETATM   42  O4  UNL     1     -26.616 -59.465  -6.224  1.00  0.00    -0.360 OA
ATOM     43  H4  UNL     1     -26.766 -60.137  -6.879  1.00  0.00     0.217 HD
ENDBRANCH  40  42
ENDBRANCH  27  30
ENDBRANCH   1  26
TORSDOF 8
ENDMDL
