MODEL 10
REMARK VINA RESULT: -9.347140464      2.403      9.955
REMARK  8 active torsions:
REMARK  status: ('A' for Active; 'I' for Inactive)
REMARK    1  A    between atoms: C5_6  and  C6_7 
REMARK    2  A    between atoms: C6_7  and  N2_8 
REMARK       I    between atoms: N2_8  and  C7_10 
REMARK    3  A    between atoms: C7_10  and  C8_12 
REMARK    4  A    between atoms: C8_12  and  C9_13 
REMARK    5  A    between atoms: C8_12  and  N3_20 
REMARK    6  A    between atoms: C9_13  and  C10_14 
REMARK       I    between atoms: N3_20  and  C16_22 
REMARK    7  A    between atoms: C16_22  and  C17_24 
REMARK    8  A    between atoms: C23_33  and  O4_34 
ROOT
HETATM    1  C8  UNL     1     -26.758 -54.019 -11.685  1.00  0.00     0.181 C 
ENDROOT
BRANCH   1   2
HETATM    2  C7  UNL     1     -25.714 -52.967 -11.667  1.00  0.00     0.241 C 
HETATM    3  N2  UNL     1     -24.888 -52.778 -12.802  1.00  0.00    -0.355 N 
ATOM      4  H2  UNL     1     -25.020 -53.376 -13.618  1.00  0.00     0.162 HD
HETATM    5  O1  UNL     1     -25.597 -52.271 -10.631  1.00  0.00    -0.271 OA
BRANCH   3   6
HETATM    6  C6  UNL     1     -23.865 -51.765 -12.837  1.00  0.00     0.162 C 
BRANCH   6   7
HETATM    7  C5  UNL     1     -22.498 -52.286 -12.796  1.00  0.00    -0.028 A 
HETATM    8  C4  UNL     1     -21.473 -51.391 -12.465  1.00  0.00    -0.001 A 
HETATM    9  C3  UNL     1     -21.780 -50.071 -12.219  1.00  0.00     0.017 A 
HETATM   10  C29 UNL     1     -20.150 -51.831 -12.384  1.00  0.00     0.044 A 
HETATM   11  C2  UNL     1     -20.763 -49.211 -11.898  1.00  0.00     0.046 A 
HETATM   12  C1  UNL     1     -19.473 -49.689 -11.831  1.00  0.00     0.116 A 
HETATM   13  N1  UNL     1     -18.429 -48.765 -11.492  1.00  0.00    -0.083 NA
HETATM   14  N5  UNL     1     -19.150 -50.965 -12.064  1.00  0.00    -0.344 N 
ATOM     15  H5  UNL     1     -18.183 -51.281 -12.004  1.00  0.00     0.167 HD
HETATM   16  C28 UNL     1     -19.840 -53.152 -12.632  1.00  0.00     0.030 A 
HETATM   17  C27 UNL     1     -20.866 -54.009 -12.954  1.00  0.00     0.003 A 
HETATM   18  C26 UNL     1     -22.187 -53.601 -13.040  1.00  0.00     0.010 A 
ENDBRANCH   6   7
ENDBRANCH   3   6
ENDBRANCH   1   2
BRANCH   1  19
HETATM   19  C9  UNL     1     -28.068 -53.482 -12.231  1.00  0.00     0.073 C 
BRANCH  19  20
HETATM   20  C10 UNL     1     -28.727 -54.434 -13.131  1.00  0.00    -0.056 A 
HETATM   21  C11 UNL     1     -27.982 -55.136 -14.075  1.00  0.00     0.007 A 
HETATM   22  C12 UNL     1     -28.602 -56.030 -14.921  1.00  0.00     0.001 A 
HETATM   23  C13 UNL     1     -29.982 -56.219 -14.817  1.00  0.00     0.000 A 
HETATM   24  C14 UNL     1     -30.741 -55.536 -13.892  1.00  0.00     0.001 A 
HETATM   25  C15 UNL     1     -30.077 -54.643 -13.056  1.00  0.00     0.007 A 
ENDBRANCH  19  20
ENDBRANCH   1  19
BRANCH   1  26
HETATM   26  N3  UNL     1     -27.042 -54.498 -10.339  1.00  0.00    -0.343 N 
HETATM   27  C16 UNL     1     -27.178 -55.886 -10.084  1.00  0.00     0.252 C 
HETATM   28  O2  UNL     1     -27.043 -56.668 -11.059  1.00  0.00    -0.268 OA
ATOM     29  H3  UNL     1     -27.145 -53.830  -9.575  1.00  0.00     0.163 HD
BRANCH  27  30
HETATM   30  C17 UNL     1     -27.463 -56.439  -8.757  1.00  0.00     0.033 A 
HETATM   31  C18 UNL     1     -26.432 -56.619  -7.851  1.00  0.00     0.019 A 
HETATM   32  C19 UNL     1     -26.695 -57.138  -6.601  1.00  0.00     0.031 A 
HETATM   33  C20 UNL     1     -27.963 -57.494  -6.199  1.00  0.00     0.048 A 
HETATM   34  N4  UNL     1     -28.181 -57.996  -4.977  1.00  0.00    -0.323 N 
HETATM   35  C24 UNL     1     -29.018 -57.323  -7.095  1.00  0.00     0.025 A 
HETATM   36  C21 UNL     1     -29.410 -58.348  -4.574  1.00  0.00     0.248 A 
ATOM     37  H4  UNL     1     -27.395 -58.112  -4.338  1.00  0.00     0.169 HD
HETATM   38  O3  UNL     1     -29.622 -58.818  -3.430  1.00  0.00    -0.268 OA
HETATM   39  C22 UNL     1     -30.482 -58.188  -5.445  1.00  0.00     0.111 A 
HETATM   40  C23 UNL     1     -30.286 -57.675  -6.706  1.00  0.00     0.083 A 
HETATM   41  C25 UNL     1     -28.733 -56.796  -8.356  1.00  0.00     0.033 A 
BRANCH  40  42
HETATM   42  O4  UNL     1     -31.357 -57.530  -7.538  1.00  0.00    -0.360 OA
ATOM     43  H4  UNL     1     -31.403 -58.055  -8.329  1.00  0.00     0.217 HD
ENDBRANCH  40  42
ENDBRANCH  27  30
ENDBRANCH   1  26
TORSDOF 8
ENDMDL
