MODEL 3
REMARK VINA RESULT: -9.665374196      0.844      2.125
REMARK  8 active torsions:
REMARK  status: ('A' for Active; 'I' for Inactive)
REMARK    1  A    between atoms: C5_6  and  C6_7 
REMARK    2  A    between atoms: C6_7  and  N2_8 
REMARK       I    between atoms: N2_8  and  C7_10 
REMARK    3  A    between atoms: C7_10  and  C8_12 
REMARK    4  A    between atoms: C8_12  and  C9_13 
REMARK    5  A    between atoms: C8_12  and  N3_20 
REMARK    6  A    between atoms: C9_13  and  C10_14 
REMARK       I    between atoms: N3_20  and  C16_22 
REMARK    7  A    between atoms: C16_22  and  C17_24 
REMARK    8  A    between atoms: C23_33  and  O4_34 
ROOT
HETATM    1  C8  UNL     1     -26.433 -53.754 -11.523  1.00  0.00     0.181 C 
ENDROOT
BRANCH   1   2
HETATM    2  C7  UNL     1     -27.267 -53.709 -10.298  1.00  0.00     0.241 C 
HETATM    3  N2  UNL     1     -27.456 -54.886  -9.533  1.00  0.00    -0.355 N 
ATOM      4  H2  UNL     1     -27.019 -55.754  -9.841  1.00  0.00     0.162 HD
HETATM    5  O1  UNL     1     -27.783 -52.612  -9.976  1.00  0.00    -0.271 OA
BRANCH   3   6
HETATM    6  C6  UNL     1     -28.250 -54.892  -8.331  1.00  0.00     0.162 C 
BRANCH   6   7
HETATM    7  C5  UNL     1     -28.248 -56.168  -7.613  1.00  0.00    -0.028 A 
HETATM    8  C4  UNL     1     -29.234 -57.103  -7.953  1.00  0.00    -0.001 A 
HETATM    9  C3  UNL     1     -30.167 -56.784  -8.914  1.00  0.00     0.017 A 
HETATM   10  C29 UNL     1     -29.273 -58.349  -7.323  1.00  0.00     0.044 A 
HETATM   11  C2  UNL     1     -31.125 -57.713  -9.231  1.00  0.00     0.046 A 
HETATM   12  C1  UNL     1     -31.124 -58.928  -8.583  1.00  0.00     0.116 A 
HETATM   13  N1  UNL     1     -32.138 -59.879  -8.935  1.00  0.00    -0.083 NA
HETATM   14  N5  UNL     1     -30.228 -59.261  -7.647  1.00  0.00    -0.344 N 
ATOM     15  H5  UNL     1     -30.261 -60.172  -7.191  1.00  0.00     0.167 HD
HETATM   16  C28 UNL     1     -28.340 -58.670  -6.358  1.00  0.00     0.030 A 
HETATM   17  C27 UNL     1     -27.383 -57.733  -6.045  1.00  0.00     0.003 A 
HETATM   18  C26 UNL     1     -27.320 -56.490  -6.654  1.00  0.00     0.010 A 
ENDBRANCH   6   7
ENDBRANCH   3   6
ENDBRANCH   1   2
BRANCH   1  19
HETATM   19  C9  UNL     1     -26.240 -55.181 -12.001  1.00  0.00     0.073 C 
BRANCH  19  20
HETATM   20  C10 UNL     1     -27.226 -55.566 -13.016  1.00  0.00    -0.056 A 
HETATM   21  C11 UNL     1     -27.177 -55.001 -14.288  1.00  0.00     0.007 A 
HETATM   22  C12 UNL     1     -28.104 -55.362 -15.242  1.00  0.00     0.001 A 
HETATM   23  C13 UNL     1     -29.087 -56.298 -14.914  1.00  0.00     0.000 A 
HETATM   24  C14 UNL     1     -29.156 -56.870 -13.663  1.00  0.00     0.001 A 
HETATM   25  C15 UNL     1     -28.202 -56.479 -12.728  1.00  0.00     0.007 A 
ENDBRANCH  19  20
ENDBRANCH   1  19
BRANCH   1  26
HETATM   26  N3  UNL     1     -25.100 -53.225 -11.268  1.00  0.00    -0.343 N 
HETATM   27  C16 UNL     1     -24.468 -52.385 -12.219  1.00  0.00     0.252 C 
HETATM   28  O2  UNL     1     -25.102 -52.126 -13.273  1.00  0.00    -0.268 OA
ATOM     29  H3  UNL     1     -24.619 -53.460 -10.399  1.00  0.00     0.163 HD
BRANCH  27  30
HETATM   30  C17 UNL     1     -23.129 -51.816 -12.030  1.00  0.00     0.033 A 
HETATM   31  C18 UNL     1     -22.063 -52.651 -11.740  1.00  0.00     0.019 A 
HETATM   32  C19 UNL     1     -20.803 -52.122 -11.562  1.00  0.00     0.031 A 
HETATM   33  C20 UNL     1     -20.545 -50.773 -11.661  1.00  0.00     0.048 A 
HETATM   34  N4  UNL     1     -19.308 -50.294 -11.482  1.00  0.00    -0.323 N 
HETATM   35  C24 UNL     1     -21.604 -49.913 -11.953  1.00  0.00     0.025 A 
HETATM   36  C21 UNL     1     -19.044 -48.983 -11.574  1.00  0.00     0.248 A 
ATOM     37  H4  UNL     1     -18.548 -50.941 -11.270  1.00  0.00     0.169 HD
HETATM   38  O3  UNL     1     -17.886 -48.528 -11.408  1.00  0.00    -0.268 OA
HETATM   39  C22 UNL     1     -20.078 -48.101 -11.864  1.00  0.00     0.111 A 
HETATM   40  C23 UNL     1     -21.359 -48.566 -12.053  1.00  0.00     0.083 A 
HETATM   41  C25 UNL     1     -22.873 -50.465 -12.130  1.00  0.00     0.033 A 
BRANCH  40  42
HETATM   42  O4  UNL     1     -22.354 -47.676 -12.336  1.00  0.00    -0.360 OA
ATOM     43  H4  UNL     1     -23.026 -47.511 -11.685  1.00  0.00     0.217 HD
ENDBRANCH  40  42
ENDBRANCH  27  30
ENDBRANCH   1  26
TORSDOF 8
ENDMDL
