MODEL 1
REMARK VINA RESULT: -9.897267859      0.000      0.000
REMARK  8 active torsions:
REMARK  status: ('A' for Active; 'I' for Inactive)
REMARK    1  A    between atoms: C5_6  and  C6_7 
REMARK    2  A    between atoms: C6_7  and  N2_8 
REMARK       I    between atoms: N2_8  and  C7_10 
REMARK    3  A    between atoms: C7_10  and  C8_12 
REMARK    4  A    between atoms: C8_12  and  C9_13 
REMARK    5  A    between atoms: C8_12  and  N3_20 
REMARK    6  A    between atoms: C9_13  and  C10_14 
REMARK       I    between atoms: N3_20  and  C16_22 
REMARK    7  A    between atoms: C16_22  and  C17_24 
REMARK    8  A    between atoms: C23_33  and  O4_34 
ROOT
HETATM    1  C8  UNL     1     -26.498 -53.751 -11.497  1.00  0.00     0.181 C 
ENDROOT
BRANCH   1   2
HETATM    2  C7  UNL     1     -27.326 -53.707 -10.268  1.00  0.00     0.241 C 
HETATM    3  N2  UNL     1     -27.559 -54.897  -9.535  1.00  0.00    -0.355 N 
ATOM      4  H2  UNL     1     -27.156 -55.772  -9.869  1.00  0.00     0.162 HD
HETATM    5  O1  UNL     1     -27.799 -52.601  -9.915  1.00  0.00    -0.271 OA
BRANCH   3   6
HETATM    6  C6  UNL     1     -28.348 -54.905  -8.331  1.00  0.00     0.162 C 
BRANCH   6   7
HETATM    7  C5  UNL     1     -29.205 -56.082  -8.179  1.00  0.00    -0.028 A 
HETATM    8  C4  UNL     1     -28.851 -57.019  -7.200  1.00  0.00    -0.001 A 
HETATM    9  C3  UNL     1     -27.717 -56.814  -6.446  1.00  0.00     0.017 A 
HETATM   10  C29 UNL     1     -29.639 -58.152  -6.988  1.00  0.00     0.044 A 
HETATM   11  C2  UNL     1     -27.387 -57.743  -5.493  1.00  0.00     0.046 A 
HETATM   12  C1  UNL     1     -28.194 -58.845  -5.320  1.00  0.00     0.116 A 
HETATM   13  N1  UNL     1     -27.823 -59.800  -4.316  1.00  0.00    -0.083 NA
HETATM   14  N5  UNL     1     -29.300 -59.065  -6.039  1.00  0.00    -0.344 N 
ATOM     15  H5  UNL     1     -29.872 -59.894  -5.880  1.00  0.00     0.167 HD
HETATM   16  C28 UNL     1     -30.774 -58.360  -7.743  1.00  0.00     0.030 A 
HETATM   17  C27 UNL     1     -31.099 -57.424  -8.698  1.00  0.00     0.003 A 
HETATM   18  C26 UNL     1     -30.336 -56.291  -8.929  1.00  0.00     0.010 A 
ENDBRANCH   6   7
ENDBRANCH   3   6
ENDBRANCH   1   2
BRANCH   1  19
HETATM   19  C9  UNL     1     -26.325 -55.175 -11.991  1.00  0.00     0.073 C 
BRANCH  19  20
HETATM   20  C10 UNL     1     -27.236 -55.495 -13.095  1.00  0.00    -0.056 A 
HETATM   21  C11 UNL     1     -28.378 -56.258 -12.861  1.00  0.00     0.007 A 
HETATM   22  C12 UNL     1     -29.233 -56.559 -13.899  1.00  0.00     0.001 A 
HETATM   23  C13 UNL     1     -28.939 -56.090 -15.181  1.00  0.00     0.000 A 
HETATM   24  C14 UNL     1     -27.816 -55.335 -15.437  1.00  0.00     0.001 A 
HETATM   25  C15 UNL     1     -26.977 -55.052 -14.363  1.00  0.00     0.007 A 
ENDBRANCH  19  20
ENDBRANCH   1  19
BRANCH   1  26
HETATM   26  N3  UNL     1     -25.158 -53.241 -11.243  1.00  0.00    -0.343 N 
HETATM   27  C16 UNL     1     -24.524 -52.388 -12.182  1.00  0.00     0.252 C 
HETATM   28  O2  UNL     1     -25.165 -52.100 -13.224  1.00  0.00    -0.268 OA
ATOM     29  H3  UNL     1     -24.672 -53.500 -10.384  1.00  0.00     0.163 HD
BRANCH  27  30
HETATM   30  C17 UNL     1     -23.178 -51.838 -11.993  1.00  0.00     0.033 A 
HETATM   31  C18 UNL     1     -22.127 -52.686 -11.686  1.00  0.00     0.019 A 
HETATM   32  C19 UNL     1     -20.859 -52.174 -11.508  1.00  0.00     0.031 A 
HETATM   33  C20 UNL     1     -20.580 -50.831 -11.623  1.00  0.00     0.048 A 
HETATM   34  N4  UNL     1     -19.336 -50.369 -11.443  1.00  0.00    -0.323 N 
HETATM   35  C24 UNL     1     -21.623 -49.958 -11.931  1.00  0.00     0.025 A 
HETATM   36  C21 UNL     1     -19.051 -49.063 -11.551  1.00  0.00     0.248 A 
ATOM     37  H4  UNL     1     -18.588 -51.025 -11.218  1.00  0.00     0.169 HD
HETATM   38  O3  UNL     1     -17.887 -48.625 -11.384  1.00  0.00    -0.268 OA
HETATM   39  C22 UNL     1     -20.070 -48.169 -11.858  1.00  0.00     0.111 A 
HETATM   40  C23 UNL     1     -21.356 -48.617 -12.048  1.00  0.00     0.083 A 
HETATM   41  C25 UNL     1     -22.900 -50.493 -12.108  1.00  0.00     0.033 A 
BRANCH  40  42
HETATM   42  O4  UNL     1     -22.336 -47.715 -12.348  1.00  0.00    -0.360 OA
ATOM     43  H4  UNL     1     -22.995 -47.514 -11.694  1.00  0.00     0.217 HD
ENDBRANCH  40  42
ENDBRANCH  27  30
ENDBRANCH   1  26
TORSDOF 8
ENDMDL
