MODEL 1
REMARK VINA RESULT: -10.118363972      0.000      0.000
REMARK  10 active torsions:
REMARK  status: ('A' for Active; 'I' for Inactive)
REMARK       I    between atoms: C1_2  and  N1_3 
REMARK    1  A    between atoms: C1_2  and  C20_32 
REMARK    2  A    between atoms: N1_3  and  C2_5 
REMARK    3  A    between atoms: C2_5  and  C3_6 
REMARK    4  A    between atoms: C2_5  and  C10_13 
REMARK    5  A    between atoms: C3_6  and  C4_7 
REMARK       I    between atoms: C10_13  and  N2_15 
REMARK    6  A    between atoms: N2_15  and  C11_17 
REMARK    7  A    between atoms: C11_17  and  C12_18 
REMARK    8  A    between atoms: C12_18  and  C13_19 
REMARK    9  A    between atoms: C18_25  and  N3_26 
REMARK   10  A    between atoms: C26_41  and  O4_42 
ROOT
HETATM    1  C2  UNL     1      25.261  11.032  53.708  1.00  0.00     0.181 C 
ENDROOT
BRANCH   1   2
HETATM    2  N1  UNL     1      26.264  10.098  54.146  1.00  0.00    -0.343 N 
HETATM    3  C1  UNL     1      26.215   9.436  55.405  1.00  0.00     0.252 C 
HETATM    4  O1  UNL     1      25.225   9.718  56.128  1.00  0.00    -0.268 OA
ATOM      5  H1  UNL     1      27.048   9.901  53.524  1.00  0.00     0.163 HD
BRANCH   3   6
HETATM    6  C20 UNL     1      27.218   8.493  55.862  1.00  0.00     0.033 A 
HETATM    7  C21 UNL     1      28.525   8.680  55.473  1.00  0.00     0.019 A 
HETATM    8  C22 UNL     1      29.540   7.829  55.862  1.00  0.00     0.031 A 
HETATM    9  C23 UNL     1      29.233   6.749  56.673  1.00  0.00     0.048 A 
HETATM   10  N7  UNL     1      30.231   5.919  57.052  1.00  0.00    -0.323 N 
HETATM   11  C27 UNL     1      27.930   6.534  57.081  1.00  0.00     0.025 A 
HETATM   12  C24 UNL     1      30.004   4.851  57.838  1.00  0.00     0.248 A 
ATOM     13  H7  UNL     1      31.182   6.107  56.733  1.00  0.00     0.169 HD
HETATM   14  O3  UNL     1      30.930   4.073  58.195  1.00  0.00    -0.268 OA
HETATM   15  C25 UNL     1      28.739   4.593  58.268  1.00  0.00     0.111 A 
HETATM   16  C26 UNL     1      27.692   5.444  57.885  1.00  0.00     0.083 A 
HETATM   17  C28 UNL     1      26.933   7.413  56.668  1.00  0.00     0.033 A 
BRANCH  16  18
HETATM   18  O4  UNL     1      26.433   5.144  58.343  1.00  0.00    -0.360 OA
ATOM     19  H4  UNL     1      26.223   5.387  59.237  1.00  0.00     0.217 HD
ENDBRANCH  16  18
ENDBRANCH   3   6
ENDBRANCH   1   2
BRANCH   1  20
HETATM   20  C3  UNL     1      25.787  12.424  53.947  1.00  0.00     0.073 C 
BRANCH  20  21
HETATM   21  C4  UNL     1      27.192  12.443  54.414  1.00  0.00    -0.056 A 
HETATM   22  C5  UNL     1      27.517  12.688  55.731  1.00  0.00     0.007 A 
HETATM   23  C6  UNL     1      28.848  12.703  56.163  1.00  0.00     0.001 A 
HETATM   24  C7  UNL     1      29.865  12.472  55.273  1.00  0.00     0.000 A 
HETATM   25  C8  UNL     1      29.557  12.226  53.951  1.00  0.00     0.001 A 
HETATM   26  C9  UNL     1      28.231  12.214  53.537  1.00  0.00     0.007 A 
ENDBRANCH  20  21
ENDBRANCH   1  20
BRANCH   1  27
HETATM   27  C10 UNL     1      24.860  10.807  52.308  1.00  0.00     0.240 C 
HETATM   28  O2  UNL     1      25.628  10.148  51.567  1.00  0.00    -0.271 OA
HETATM   29  N2  UNL     1      23.660  11.299  51.776  1.00  0.00    -0.359 N 
ATOM     30  H2  UNL     1      23.061  11.831  52.407  1.00  0.00     0.162 HD
BRANCH  29  31
HETATM   31  C11 UNL     1      23.187  11.127  50.422  1.00  0.00     0.127 C 
BRANCH  31  32
HETATM   32  C12 UNL     1      22.358  12.331  50.047  1.00  0.00     0.060 C 
BRANCH  32  33
HETATM   33  C13 UNL     1      21.203  11.982  49.208  1.00  0.00    -0.026 A 
HETATM   34  C14 UNL     1      21.292  12.043  47.838  1.00  0.00     0.033 A 
HETATM   35  C15 UNL     1      20.163  11.704  47.079  1.00  0.00     0.034 A 
HETATM   36 CL1  UNL     1      20.277  11.783  45.334  1.00  0.00    -0.084 Cl
HETATM   37  C16 UNL     1      18.986  11.317  47.659  1.00  0.00     0.026 A 
HETATM   38  C17 UNL     1      18.907  11.258  49.034  1.00  0.00     0.033 A 
HETATM   39  C18 UNL     1      20.024  11.594  49.793  1.00  0.00     0.061 A 
BRANCH  39  40
HETATM   40  N3  UNL     1      19.868  11.509  51.203  1.00  0.00    -0.236 N 
HETATM   41  C19 UNL     1      19.183  12.383  51.956  1.00  0.00     0.218 A 
HETATM   42  N4  UNL     1      19.241  11.999  53.247  1.00  0.00    -0.280 N 
HETATM   43  N5  UNL     1      19.962  10.892  53.262  1.00  0.00    -0.007 NA
ATOM     44  H4  UNL     1      18.815  12.466  54.047  1.00  0.00     0.184 HD
HETATM   45  N6  UNL     1      20.344  10.591  52.031  1.00  0.00    -0.000 NA
ENDBRANCH  39  40
ENDBRANCH  32  33
ENDBRANCH  31  32
ENDBRANCH  29  31
ENDBRANCH   1  27
TORSDOF 10
ENDMDL
