MODEL 3
REMARK VINA RESULT: -9.968553095      4.220      9.607
REMARK  10 active torsions:
REMARK  status: ('A' for Active; 'I' for Inactive)
REMARK       I    between atoms: C1_2  and  N1_3 
REMARK    1  A    between atoms: C1_2  and  C20_32 
REMARK    2  A    between atoms: N1_3  and  C2_5 
REMARK    3  A    between atoms: C2_5  and  C3_6 
REMARK    4  A    between atoms: C2_5  and  C10_13 
REMARK    5  A    between atoms: C3_6  and  C4_7 
REMARK       I    between atoms: C10_13  and  N2_15 
REMARK    6  A    between atoms: N2_15  and  C11_17 
REMARK    7  A    between atoms: C11_17  and  C12_18 
REMARK    8  A    between atoms: C12_18  and  C13_19 
REMARK    9  A    between atoms: C18_25  and  N3_26 
REMARK   10  A    between atoms: C26_41  and  O4_42 
ROOT
HETATM    1  C2  UNL     1      25.859  14.751  54.394  1.00  0.00     0.181 C 
ENDROOT
BRANCH   1   2
HETATM    2  N1  UNL     1      24.715  14.122  53.788  1.00  0.00    -0.343 N 
HETATM    3  C1  UNL     1      24.193  14.510  52.521  1.00  0.00     0.252 C 
HETATM    4  O1  UNL     1      24.800  15.451  51.949  1.00  0.00    -0.268 OA
ATOM      5  H1  UNL     1      24.256  13.362  54.290  1.00  0.00     0.163 HD
BRANCH   3   6
HETATM    6  C20 UNL     1      23.040  13.888  51.898  1.00  0.00     0.033 A 
HETATM    7  C21 UNL     1      21.789  14.390  52.174  1.00  0.00     0.019 A 
HETATM    8  C22 UNL     1      20.641  13.855  51.624  1.00  0.00     0.031 A 
HETATM    9  C23 UNL     1      20.752  12.776  50.763  1.00  0.00     0.048 A 
HETATM   10  N7  UNL     1      19.625  12.256  50.226  1.00  0.00    -0.323 N 
HETATM   11  C27 UNL     1      21.995  12.249  50.465  1.00  0.00     0.025 A 
HETATM   12  C24 UNL     1      19.660  11.209  49.382  1.00  0.00     0.248 A 
ATOM     13  H7  UNL     1      18.723  12.670  50.467  1.00  0.00     0.169 HD
HETATM   14  O3  UNL     1      18.612  10.720  48.879  1.00  0.00    -0.268 OA
HETATM   15  C25 UNL     1      20.857  10.652  49.056  1.00  0.00     0.111 A 
HETATM   16  C26 UNL     1      22.037  11.178  49.603  1.00  0.00     0.083 A 
HETATM   17  C28 UNL     1      23.130  12.814  51.039  1.00  0.00     0.033 A 
BRANCH  16  18
HETATM   18  O4  UNL     1      23.220  10.584  49.244  1.00  0.00    -0.360 OA
ATOM     19  H4  UNL     1      23.709  10.976  48.531  1.00  0.00     0.217 HD
ENDBRANCH  16  18
ENDBRANCH   3   6
ENDBRANCH   1   2
BRANCH   1  20
HETATM   20  C3  UNL     1      25.371  15.940  55.181  1.00  0.00     0.073 C 
BRANCH  20  21
HETATM   21  C4  UNL     1      26.122  17.181  54.885  1.00  0.00    -0.056 A 
HETATM   22  C5  UNL     1      27.396  17.393  55.368  1.00  0.00     0.007 A 
HETATM   23  C6  UNL     1      28.097  18.569  55.082  1.00  0.00     0.001 A 
HETATM   24  C7  UNL     1      27.524  19.545  54.307  1.00  0.00     0.000 A 
HETATM   25  C8  UNL     1      26.250  19.348  53.817  1.00  0.00     0.001 A 
HETATM   26  C9  UNL     1      25.565  18.175  54.108  1.00  0.00     0.007 A 
ENDBRANCH  20  21
ENDBRANCH   1  20
BRANCH   1  27
HETATM   27  C10 UNL     1      26.646  13.810  55.211  1.00  0.00     0.240 C 
HETATM   28  O2  UNL     1      26.146  13.387  56.280  1.00  0.00    -0.271 OA
HETATM   29  N2  UNL     1      27.926  13.373  54.840  1.00  0.00    -0.359 N 
ATOM     30  H2  UNL     1      28.300  13.739  53.964  1.00  0.00     0.162 HD
BRANCH  29  31
HETATM   31  C11 UNL     1      28.767  12.457  55.574  1.00  0.00     0.127 C 
BRANCH  31  32
HETATM   32  C12 UNL     1      29.233  11.374  54.633  1.00  0.00     0.060 C 
BRANCH  32  33
HETATM   33  C13 UNL     1      29.009  10.025  55.170  1.00  0.00    -0.026 A 
HETATM   34  C14 UNL     1      29.926   9.447  56.014  1.00  0.00     0.033 A 
HETATM   35  C15 UNL     1      29.671   8.157  56.498  1.00  0.00     0.034 A 
HETATM   36 CL1  UNL     1      30.842   7.423  57.572  1.00  0.00    -0.084 Cl
HETATM   37  C16 UNL     1      28.543   7.462  56.157  1.00  0.00     0.026 A 
HETATM   38  C17 UNL     1      27.627   8.050  55.310  1.00  0.00     0.033 A 
HETATM   39  C18 UNL     1      27.875   9.330  54.826  1.00  0.00     0.061 A 
BRANCH  39  40
HETATM   40  N3  UNL     1      26.887   9.871  53.959  1.00  0.00    -0.236 N 
HETATM   41  C19 UNL     1      25.689  10.331  54.350  1.00  0.00     0.218 A 
HETATM   42  N4  UNL     1      25.008  10.770  53.273  1.00  0.00    -0.280 N 
HETATM   43  N5  UNL     1      25.804  10.570  52.237  1.00  0.00    -0.007 NA
ATOM     44  H4  UNL     1      24.072  11.173  53.259  1.00  0.00     0.184 HD
HETATM   45  N6  UNL     1      26.940  10.028  52.645  1.00  0.00    -0.000 NA
ENDBRANCH  39  40
ENDBRANCH  32  33
ENDBRANCH  31  32
ENDBRANCH  29  31
ENDBRANCH   1  27
TORSDOF 10
ENDMDL
