MODEL 5
REMARK VINA RESULT: -9.750138243      3.695     10.102
REMARK  10 active torsions:
REMARK  status: ('A' for Active; 'I' for Inactive)
REMARK       I    between atoms: C1_2  and  N1_3 
REMARK    1  A    between atoms: C1_2  and  C20_32 
REMARK    2  A    between atoms: N1_3  and  C2_5 
REMARK    3  A    between atoms: C2_5  and  C3_6 
REMARK    4  A    between atoms: C2_5  and  C10_13 
REMARK    5  A    between atoms: C3_6  and  C4_7 
REMARK       I    between atoms: C10_13  and  N2_15 
REMARK    6  A    between atoms: N2_15  and  C11_17 
REMARK    7  A    between atoms: C11_17  and  C12_18 
REMARK    8  A    between atoms: C12_18  and  C13_19 
REMARK    9  A    between atoms: C18_25  and  N3_26 
REMARK   10  A    between atoms: C26_41  and  O4_42 
ROOT
HETATM    1  C2  UNL     1      26.808  11.149  54.124  1.00  0.00     0.181 C 
ENDROOT
BRANCH   1   2
HETATM    2  N1  UNL     1      25.711  11.278  53.201  1.00  0.00    -0.343 N 
HETATM    3  C1  UNL     1      24.370  11.516  53.615  1.00  0.00     0.252 C 
HETATM    4  O1  UNL     1      24.193  11.611  54.857  1.00  0.00    -0.268 OA
ATOM      5  H1  UNL     1      25.904  11.194  52.203  1.00  0.00     0.163 HD
BRANCH   3   6
HETATM    6  C20 UNL     1      23.253  11.646  52.698  1.00  0.00     0.033 A 
HETATM    7  C21 UNL     1      22.137  12.338  53.111  1.00  0.00     0.019 A 
HETATM    8  C22 UNL     1      21.032  12.507  52.302  1.00  0.00     0.031 A 
HETATM    9  C23 UNL     1      21.046  11.962  51.028  1.00  0.00     0.048 A 
HETATM   10  N7  UNL     1      19.961  12.131  50.239  1.00  0.00    -0.323 N 
HETATM   11  C27 UNL     1      22.152  11.261  50.584  1.00  0.00     0.025 A 
HETATM   12  C24 UNL     1      19.907  11.628  48.992  1.00  0.00     0.248 A 
ATOM     13  H7  UNL     1      19.161  12.653  50.598  1.00  0.00     0.169 HD
HETATM   14  O3  UNL     1      18.898  11.782  48.251  1.00  0.00    -0.268 OA
HETATM   15  C25 UNL     1      20.969  10.930  48.505  1.00  0.00     0.111 A 
HETATM   16  C26 UNL     1      22.103  10.745  49.310  1.00  0.00     0.083 A 
HETATM   17  C28 UNL     1      23.248  11.111  51.429  1.00  0.00     0.033 A 
BRANCH  16  18
HETATM   18  O4  UNL     1      23.148  10.035  48.776  1.00  0.00    -0.360 OA
ATOM     19  H4  UNL     1      23.530   9.349  49.311  1.00  0.00     0.217 HD
ENDBRANCH  16  18
ENDBRANCH   3   6
ENDBRANCH   1   2
BRANCH   1  20
HETATM   20  C3  UNL     1      27.554   9.885  53.784  1.00  0.00     0.073 C 
BRANCH  20  21
HETATM   21  C4  UNL     1      27.322   8.793  54.756  1.00  0.00    -0.056 A 
HETATM   22  C5  UNL     1      28.218   7.757  54.914  1.00  0.00     0.007 A 
HETATM   23  C6  UNL     1      27.990   6.730  55.836  1.00  0.00     0.001 A 
HETATM   24  C7  UNL     1      26.856   6.734  56.608  1.00  0.00     0.000 A 
HETATM   25  C8  UNL     1      25.949   7.763  56.461  1.00  0.00     0.001 A 
HETATM   26  C9  UNL     1      26.189   8.776  55.542  1.00  0.00     0.007 A 
ENDBRANCH  20  21
ENDBRANCH   1  20
BRANCH   1  27
HETATM   27  C10 UNL     1      27.676  12.340  54.129  1.00  0.00     0.240 C 
HETATM   28  O2  UNL     1      27.137  13.470  54.192  1.00  0.00    -0.271 OA
HETATM   29  N2  UNL     1      29.075  12.257  54.066  1.00  0.00    -0.359 N 
ATOM     30  H2  UNL     1      29.477  11.322  54.016  1.00  0.00     0.162 HD
BRANCH  29  31
HETATM   31  C11 UNL     1      30.001  13.365  54.067  1.00  0.00     0.127 C 
BRANCH  31  32
HETATM   32  C12 UNL     1      30.687  13.416  55.409  1.00  0.00     0.060 C 
BRANCH  32  33
HETATM   33  C13 UNL     1      29.806  13.915  56.475  1.00  0.00    -0.026 A 
HETATM   34  C14 UNL     1      29.332  15.204  56.443  1.00  0.00     0.033 A 
HETATM   35  C15 UNL     1      28.497  15.636  57.483  1.00  0.00     0.034 A 
HETATM   36 CL1  UNL     1      27.895  17.279  57.441  1.00  0.00    -0.084 Cl
HETATM   37  C16 UNL     1      28.144  14.816  58.520  1.00  0.00     0.026 A 
HETATM   38  C17 UNL     1      28.623  13.524  58.543  1.00  0.00     0.033 A 
HETATM   39  C18 UNL     1      29.453  13.090  57.514  1.00  0.00     0.061 A 
BRANCH  39  40
HETATM   40  N3  UNL     1      29.908  11.746  57.604  1.00  0.00    -0.236 N 
HETATM   41  C19 UNL     1      30.882  11.317  58.420  1.00  0.00     0.218 A 
HETATM   42  N4  UNL     1      31.055   9.991  58.247  1.00  0.00    -0.280 N 
HETATM   43  N5  UNL     1      30.180   9.631  57.324  1.00  0.00    -0.007 NA
ATOM     44  H4  UNL     1      31.722   9.389  58.729  1.00  0.00     0.184 HD
HETATM   45  N6  UNL     1      29.485  10.686  56.932  1.00  0.00    -0.000 NA
ENDBRANCH  39  40
ENDBRANCH  32  33
ENDBRANCH  31  32
ENDBRANCH  29  31
ENDBRANCH   1  27
TORSDOF 10
ENDMDL
