MODEL 4
REMARK VINA RESULT: -9.793078899      4.326      7.482
REMARK  10 active torsions:
REMARK  status: ('A' for Active; 'I' for Inactive)
REMARK       I    between atoms: C1_2  and  N1_3 
REMARK    1  A    between atoms: C1_2  and  C20_32 
REMARK    2  A    between atoms: N1_3  and  C2_5 
REMARK    3  A    between atoms: C2_5  and  C3_6 
REMARK    4  A    between atoms: C2_5  and  C10_13 
REMARK    5  A    between atoms: C3_6  and  C4_7 
REMARK       I    between atoms: C10_13  and  N2_15 
REMARK    6  A    between atoms: N2_15  and  C11_17 
REMARK    7  A    between atoms: C11_17  and  C12_18 
REMARK    8  A    between atoms: C12_18  and  C13_19 
REMARK    9  A    between atoms: C18_25  and  N3_26 
REMARK   10  A    between atoms: C26_41  and  O4_42 
ROOT
HETATM    1  C2  UNL     1      21.292  15.405  53.345  1.00  0.00     0.181 C 
ENDROOT
BRANCH   1   2
HETATM    2  N1  UNL     1      22.718  15.252  53.459  1.00  0.00    -0.343 N 
HETATM    3  C1  UNL     1      23.448  15.618  54.625  1.00  0.00     0.252 C 
HETATM    4  O1  UNL     1      22.764  16.089  55.569  1.00  0.00    -0.268 OA
ATOM      5  H1  UNL     1      23.230  14.865  52.666  1.00  0.00     0.163 HD
BRANCH   3   6
HETATM    6  C20 UNL     1      24.886  15.472  54.756  1.00  0.00     0.033 A 
HETATM    7  C21 UNL     1      25.647  16.599  54.971  1.00  0.00     0.019 A 
HETATM    8  C22 UNL     1      27.020  16.548  55.104  1.00  0.00     0.031 A 
HETATM    9  C23 UNL     1      27.654  15.320  55.021  1.00  0.00     0.048 A 
HETATM   10  N7  UNL     1      29.000  15.275  55.154  1.00  0.00    -0.323 N 
HETATM   11  C27 UNL     1      26.918  14.169  54.806  1.00  0.00     0.025 A 
HETATM   12  C24 UNL     1      29.681  14.116  55.083  1.00  0.00     0.248 A 
ATOM     13  H7  UNL     1      29.513  16.143  55.312  1.00  0.00     0.169 HD
HETATM   14  O3  UNL     1      30.935  14.068  55.206  1.00  0.00    -0.268 OA
HETATM   15  C25 UNL     1      29.004  12.954  54.873  1.00  0.00     0.111 A 
HETATM   16  C26 UNL     1      27.609  12.982  54.734  1.00  0.00     0.083 A 
HETATM   17  C28 UNL     1      25.536  14.260  54.675  1.00  0.00     0.033 A 
BRANCH  16  18
HETATM   18  O4  UNL     1      26.971  11.786  54.523  1.00  0.00    -0.360 OA
ATOM     19  H4  UNL     1      27.460  10.991  54.702  1.00  0.00     0.217 HD
ENDBRANCH  16  18
ENDBRANCH   3   6
ENDBRANCH   1   2
BRANCH   1  20
HETATM   20  C3  UNL     1      21.020  16.705  52.632  1.00  0.00     0.073 C 
BRANCH  20  21
HETATM   21  C4  UNL     1      19.724  17.314  53.006  1.00  0.00    -0.056 A 
HETATM   22  C5  UNL     1      18.719  17.510  52.084  1.00  0.00     0.007 A 
HETATM   23  C6  UNL     1      17.497  18.086  52.448  1.00  0.00     0.001 A 
HETATM   24  C7  UNL     1      17.274  18.471  53.745  1.00  0.00     0.000 A 
HETATM   25  C8  UNL     1      18.270  18.282  54.681  1.00  0.00     0.001 A 
HETATM   26  C9  UNL     1      19.478  17.709  54.305  1.00  0.00     0.007 A 
ENDBRANCH  20  21
ENDBRANCH   1  20
BRANCH   1  27
HETATM   27  C10 UNL     1      20.657  14.250  52.685  1.00  0.00     0.240 C 
HETATM   28  O2  UNL     1      20.309  14.366  51.486  1.00  0.00    -0.271 OA
HETATM   29  N2  UNL     1      20.430  13.033  53.344  1.00  0.00    -0.359 N 
ATOM     30  H2  UNL     1      20.725  12.976  54.318  1.00  0.00     0.162 HD
BRANCH  29  31
HETATM   31  C11 UNL     1      19.818  11.852  52.779  1.00  0.00     0.127 C 
BRANCH  31  32
HETATM   32  C12 UNL     1      20.891  11.029  52.111  1.00  0.00     0.060 C 
BRANCH  32  33
HETATM   33  C13 UNL     1      21.008  11.315  50.674  1.00  0.00    -0.026 A 
HETATM   34  C14 UNL     1      19.912  11.220  49.851  1.00  0.00     0.033 A 
HETATM   35  C15 UNL     1      20.074  11.500  48.487  1.00  0.00     0.034 A 
HETATM   36 CL1  UNL     1      18.676  11.377  47.440  1.00  0.00    -0.084 Cl
HETATM   37  C16 UNL     1      21.282  11.861  47.956  1.00  0.00     0.026 A 
HETATM   38  C17 UNL     1      22.376  11.954  48.790  1.00  0.00     0.033 A 
HETATM   39  C18 UNL     1      22.222  11.678  50.145  1.00  0.00     0.061 A 
BRANCH  39  40
HETATM   40  N3  UNL     1      23.393  11.796  50.942  1.00  0.00    -0.236 N 
HETATM   41  C19 UNL     1      24.138  10.766  51.372  1.00  0.00     0.218 A 
HETATM   42  N4  UNL     1      25.170  11.237  52.100  1.00  0.00    -0.280 N 
HETATM   43  N5  UNL     1      25.038  12.552  52.103  1.00  0.00    -0.007 NA
ATOM     44  H4  UNL     1      25.902  10.692  52.554  1.00  0.00     0.184 HD
HETATM   45  N6  UNL     1      23.967  12.895  51.406  1.00  0.00    -0.000 NA
ENDBRANCH  39  40
ENDBRANCH  32  33
ENDBRANCH  31  32
ENDBRANCH  29  31
ENDBRANCH   1  27
TORSDOF 10
ENDMDL
