MODEL 5
REMARK VINA RESULT: -9.572359977      4.353      9.472
REMARK  9 active torsions:
REMARK  status: ('A' for Active; 'I' for Inactive)
REMARK    1  A    between atoms: C1_2  and  C2_3 
REMARK       I    between atoms: C1_2  and  N5_19 
REMARK    2  A    between atoms: C3_4  and  C4_5 
REMARK    3  A    between atoms: C9_11  and  N1_12 
REMARK    4  A    between atoms: N5_19  and  C11_21 
REMARK    5  A    between atoms: C11_21  and  C12_22 
REMARK    6  A    between atoms: C11_21  and  C19_29 
REMARK    7  A    between atoms: C12_22  and  C13_23 
REMARK       I    between atoms: C19_29  and  N6_31 
REMARK    8  A    between atoms: N6_31  and  C20_33 
REMARK    9  A    between atoms: C23_36  and  C24_37 
ROOT
HETATM    1  C11 UNL     1     -52.318 -11.229 -25.246  1.00  0.00     0.181 C 
ENDROOT
BRANCH   1   2
HETATM    2  N5  UNL     1     -52.570 -12.679 -25.059  1.00  0.00    -0.344 N 
HETATM    3  C1  UNL     1     -52.423 -13.571 -26.114  1.00  0.00     0.241 C 
HETATM    4  O1  UNL     1     -52.064 -13.077 -27.232  1.00  0.00    -0.269 OA
ATOM      5  H5  UNL     1     -52.855 -13.025 -24.143  1.00  0.00     0.163 HD
BRANCH   3   6
HETATM    6  C2  UNL     1     -52.647 -15.034 -26.042  1.00  0.00     0.075 C 
HETATM    7  C3  UNL     1     -52.046 -15.769 -25.148  1.00  0.00     0.019 C 
BRANCH   7   8
HETATM    8  C4  UNL     1     -52.155 -17.171 -24.960  1.00  0.00    -0.006 A 
HETATM    9  C5  UNL     1     -52.386 -17.920 -26.139  1.00  0.00     0.037 A 
HETATM   10  C6  UNL     1     -52.548 -19.276 -26.105  1.00  0.00     0.035 A 
HETATM   11 CL1  UNL     1     -52.834 -20.233 -27.543  1.00  0.00    -0.084 Cl
HETATM   12  C7  UNL     1     -52.480 -19.903 -24.882  1.00  0.00     0.026 A 
HETATM   13  C8  UNL     1     -52.261 -19.205 -23.735  1.00  0.00     0.034 A 
HETATM   14  C9  UNL     1     -52.095 -17.810 -23.768  1.00  0.00     0.069 A 
BRANCH  14  15
HETATM   15  N1  UNL     1     -51.935 -17.172 -22.486  1.00  0.00    -0.237 N 
HETATM   16  C10 UNL     1     -50.843 -17.195 -21.670  1.00  0.00     0.223 A 
HETATM   17  N2  UNL     1     -51.101 -16.534 -20.543  1.00  0.00    -0.277 N 
HETATM   18  N3  UNL     1     -52.358 -16.102 -20.665  1.00  0.00    -0.005 NA
ATOM     19  H2  UNL     1     -50.472 -16.389 -19.753  1.00  0.00     0.185 HD
HETATM   20  N4  UNL     1     -52.850 -16.488 -21.830  1.00  0.00    -0.218 N 
ATOM     21  H4  UNL     1     -53.792 -16.287 -22.169  1.00  0.00     0.206 HD
ENDBRANCH  14  15
ENDBRANCH   7   8
ENDBRANCH   3   6
ENDBRANCH   1   2
BRANCH   1  22
HETATM   22  C12 UNL     1     -53.683 -10.619 -25.008  1.00  0.00     0.073 C 
BRANCH  22  23
HETATM   23  C13 UNL     1     -53.874  -9.295 -25.569  1.00  0.00    -0.056 A 
HETATM   24  C14 UNL     1     -54.533  -8.339 -24.819  1.00  0.00     0.007 A 
HETATM   25  C15 UNL     1     -54.695  -7.079 -25.321  1.00  0.00     0.001 A 
HETATM   26  C16 UNL     1     -54.186  -6.793 -26.582  1.00  0.00     0.000 A 
HETATM   27  C17 UNL     1     -53.530  -7.754 -27.321  1.00  0.00     0.001 A 
HETATM   28  C18 UNL     1     -53.362  -9.024 -26.826  1.00  0.00     0.007 A 
ENDBRANCH  22  23
ENDBRANCH   1  22
BRANCH   1  29
HETATM   29  C19 UNL     1     -51.364 -10.770 -24.181  1.00  0.00     0.245 C 
HETATM   30  O2  UNL     1     -50.568  -9.861 -24.486  1.00  0.00    -0.271 OA
HETATM   31  N6  UNL     1     -51.456 -11.400 -22.936  1.00  0.00    -0.325 N 
ATOM     32  H6  UNL     1     -52.161 -12.125 -22.801  1.00  0.00     0.169 HD
BRANCH  31  33
HETATM   33  C20 UNL     1     -50.603 -11.065 -21.859  1.00  0.00     0.034 A 
HETATM   34  C21 UNL     1     -50.932 -10.270 -20.806  1.00  0.00     0.030 A 
HETATM   35  C22 UNL     1     -50.050  -9.987 -19.750  1.00  0.00     0.017 A 
HETATM   36  C23 UNL     1     -48.783 -10.520 -19.747  1.00  0.00     0.010 A 
HETATM   37  C25 UNL     1     -48.452 -11.325 -20.815  1.00  0.00     0.017 A 
HETATM   38  C26 UNL     1     -49.305 -11.608 -21.849  1.00  0.00     0.030 A 
BRANCH  36  39
HETATM   39  C24 UNL     1     -47.843 -10.246 -18.667  1.00  0.00     0.141 A 
HETATM   40  N7  UNL     1     -46.519 -10.094 -18.825  1.00  0.00    -0.270 N 
HETATM   41  N8  UNL     1     -45.952  -9.856 -17.647  1.00  0.00    -0.007 NA
ATOM     42  H7  UNL     1     -46.024 -10.152 -19.715  1.00  0.00     0.185 HD
HETATM   43  N9  UNL     1     -46.924  -9.859 -16.738  1.00  0.00    -0.007 NA
HETATM   44  N10 UNL     1     -48.086 -10.099 -17.365  1.00  0.00    -0.270 N 
ATOM     45  H10 UNL     1     -49.002 -10.159 -16.920  1.00  0.00     0.185 HD
ENDBRANCH  36  39
ENDBRANCH  31  33
ENDBRANCH   1  29
TORSDOF 9
ENDMDL
