MODEL 3
REMARK VINA RESULT: -9.684431273      1.294      1.628
REMARK  9 active torsions:
REMARK  status: ('A' for Active; 'I' for Inactive)
REMARK    1  A    between atoms: C1_2  and  C2_3 
REMARK       I    between atoms: C1_2  and  N5_19 
REMARK    2  A    between atoms: C3_4  and  C4_5 
REMARK    3  A    between atoms: C9_11  and  N1_12 
REMARK    4  A    between atoms: N5_19  and  C11_21 
REMARK    5  A    between atoms: C11_21  and  C12_22 
REMARK    6  A    between atoms: C11_21  and  C19_29 
REMARK    7  A    between atoms: C12_22  and  C13_23 
REMARK       I    between atoms: C19_29  and  N6_31 
REMARK    8  A    between atoms: N6_31  and  C20_33 
REMARK    9  A    between atoms: C23_36  and  C24_37 
ROOT
HETATM    1  C11 UNL     1     -51.461 -11.513 -24.501  1.00  0.00     0.181 C 
ENDROOT
BRANCH   1   2
HETATM    2  N5  UNL     1     -50.734 -11.220 -23.242  1.00  0.00    -0.344 N 
HETATM    3  C1  UNL     1     -49.878 -10.129 -23.149  1.00  0.00     0.241 C 
HETATM    4  O1  UNL     1     -49.759  -9.408 -24.192  1.00  0.00    -0.269 OA
ATOM      5  H5  UNL     1     -50.864 -11.827 -22.433  1.00  0.00     0.163 HD
BRANCH   3   6
HETATM    6  C2  UNL     1     -49.103  -9.742 -21.946  1.00  0.00     0.075 C 
HETATM    7  C3  UNL     1     -48.795 -10.616 -21.029  1.00  0.00     0.019 C 
BRANCH   7   8
HETATM    8  C4  UNL     1     -48.069 -10.397 -19.829  1.00  0.00    -0.006 A 
HETATM    9  C5  UNL     1     -46.663 -10.343 -19.978  1.00  0.00     0.037 A 
HETATM   10  C6  UNL     1     -45.835 -10.174 -18.905  1.00  0.00     0.035 A 
HETATM   11 CL1  UNL     1     -44.092 -10.101 -19.053  1.00  0.00    -0.084 Cl
HETATM   12  C7  UNL     1     -46.411 -10.058 -17.659  1.00  0.00     0.026 A 
HETATM   13  C8  UNL     1     -47.759 -10.109 -17.491  1.00  0.00     0.034 A 
HETATM   14  C9  UNL     1     -48.612 -10.283 -18.594  1.00  0.00     0.069 A 
BRANCH  14  15
HETATM   15  N1  UNL     1     -50.015 -10.388 -18.286  1.00  0.00    -0.237 N 
HETATM   16  C10 UNL     1     -51.058  -9.764 -18.904  1.00  0.00     0.223 A 
HETATM   17  N2  UNL     1     -52.201 -10.069 -18.292  1.00  0.00    -0.277 N 
HETATM   18  N3  UNL     1     -51.861 -10.885 -17.293  1.00  0.00    -0.005 NA
ATOM     19  H2  UNL     1     -53.137  -9.747 -18.536  1.00  0.00     0.185 HD
HETATM   20  N4  UNL     1     -50.552 -11.071 -17.295  1.00  0.00    -0.218 N 
ATOM     21  H4  UNL     1     -50.037 -11.653 -16.633  1.00  0.00     0.206 HD
ENDBRANCH  14  15
ENDBRANCH   7   8
ENDBRANCH   3   6
ENDBRANCH   1   2
BRANCH   1  22
HETATM   22  C12 UNL     1     -52.052 -12.882 -24.235  1.00  0.00     0.073 C 
BRANCH  22  23
HETATM   23  C13 UNL     1     -52.606 -13.551 -25.396  1.00  0.00    -0.056 A 
HETATM   24  C14 UNL     1     -53.606 -14.488 -25.215  1.00  0.00     0.007 A 
HETATM   25  C15 UNL     1     -54.158 -15.106 -26.301  1.00  0.00     0.001 A 
HETATM   26  C16 UNL     1     -53.694 -14.770 -27.567  1.00  0.00     0.000 A 
HETATM   27  C17 UNL     1     -52.696 -13.834 -27.736  1.00  0.00     0.001 A 
HETATM   28  C18 UNL     1     -52.134 -13.207 -26.651  1.00  0.00     0.007 A 
ENDBRANCH  22  23
ENDBRANCH   1  22
BRANCH   1  29
HETATM   29  C19 UNL     1     -52.565 -10.506 -24.660  1.00  0.00     0.245 C 
HETATM   30  O2  UNL     1     -53.471 -10.518 -23.805  1.00  0.00    -0.271 OA
HETATM   31  N6  UNL     1     -52.475  -9.639 -25.753  1.00  0.00    -0.325 N 
ATOM     32  H6  UNL     1     -51.674  -9.716 -26.380  1.00  0.00     0.169 HD
BRANCH  31  33
HETATM   33  C20 UNL     1     -53.459  -8.658 -26.017  1.00  0.00     0.034 A 
HETATM   34  C21 UNL     1     -54.157  -7.963 -25.079  1.00  0.00     0.030 A 
HETATM   35  C22 UNL     1     -55.110  -6.982 -25.399  1.00  0.00     0.017 A 
HETATM   36  C23 UNL     1     -55.380  -6.683 -26.713  1.00  0.00     0.010 A 
HETATM   37  C25 UNL     1     -54.672  -7.389 -27.661  1.00  0.00     0.017 A 
HETATM   38  C26 UNL     1     -53.740  -8.347 -27.360  1.00  0.00     0.030 A 
BRANCH  36  39
HETATM   39  C24 UNL     1     -56.363  -5.671 -27.079  1.00  0.00     0.141 A 
HETATM   40  N7  UNL     1     -57.122  -4.991 -26.207  1.00  0.00    -0.270 N 
HETATM   41  N8  UNL     1     -57.911  -4.148 -26.864  1.00  0.00    -0.007 NA
ATOM     42  H7  UNL     1     -57.097  -5.104 -25.194  1.00  0.00     0.185 HD
HETATM   43  N9  UNL     1     -57.650  -4.297 -28.160  1.00  0.00    -0.007 NA
HETATM   44  N10 UNL     1     -56.698  -5.234 -28.292  1.00  0.00    -0.270 N 
ATOM     45  H10 UNL     1     -56.298  -5.557 -29.173  1.00  0.00     0.185 HD
ENDBRANCH  36  39
ENDBRANCH  31  33
ENDBRANCH   1  29
TORSDOF 9
ENDMDL
