MODEL 6
REMARK VINA RESULT: -9.508359299      3.953     10.218
REMARK  9 active torsions:
REMARK  status: ('A' for Active; 'I' for Inactive)
REMARK    1  A    between atoms: C1_2  and  C2_3 
REMARK       I    between atoms: C1_2  and  N5_19 
REMARK    2  A    between atoms: C3_4  and  C4_5 
REMARK    3  A    between atoms: C9_11  and  N1_12 
REMARK    4  A    between atoms: N5_19  and  C11_21 
REMARK    5  A    between atoms: C11_21  and  C12_22 
REMARK    6  A    between atoms: C11_21  and  C19_29 
REMARK    7  A    between atoms: C12_22  and  C13_23 
REMARK       I    between atoms: C19_29  and  N6_31 
REMARK    8  A    between atoms: N6_31  and  C20_33 
REMARK    9  A    between atoms: C23_36  and  C24_37 
ROOT
HETATM    1  C11 UNL     1     -52.166 -10.340 -25.314  1.00  0.00     0.181 C 
ENDROOT
BRANCH   1   2
HETATM    2  N5  UNL     1     -52.437 -11.792 -25.446  1.00  0.00    -0.344 N 
HETATM    3  C1  UNL     1     -52.111 -12.477 -26.611  1.00  0.00     0.241 C 
HETATM    4  O1  UNL     1     -51.572 -11.793 -27.542  1.00  0.00    -0.269 OA
ATOM      5  H5  UNL     1     -52.868 -12.296 -24.672  1.00  0.00     0.163 HD
BRANCH   3   6
HETATM    6  C2  UNL     1     -52.336 -13.921 -26.853  1.00  0.00     0.075 C 
HETATM    7  C3  UNL     1     -52.924 -14.673 -25.964  1.00  0.00     0.019 C 
BRANCH   7   8
HETATM    8  C4  UNL     1     -53.202 -16.063 -26.049  1.00  0.00    -0.006 A 
HETATM    9  C5  UNL     1     -52.215 -16.909 -25.489  1.00  0.00     0.037 A 
HETATM   10  C6  UNL     1     -52.331 -18.269 -25.530  1.00  0.00     0.035 A 
HETATM   11 CL1  UNL     1     -51.131 -19.345 -24.847  1.00  0.00    -0.084 Cl
HETATM   12  C7  UNL     1     -53.445 -18.802 -26.139  1.00  0.00     0.026 A 
HETATM   13  C8  UNL     1     -54.405 -18.010 -26.686  1.00  0.00     0.034 A 
HETATM   14  C9  UNL     1     -54.287 -16.610 -26.645  1.00  0.00     0.069 A 
BRANCH  14  15
HETATM   15  N1  UNL     1     -55.331 -15.877 -27.314  1.00  0.00    -0.237 N 
HETATM   16  C10 UNL     1     -56.639 -15.759 -26.947  1.00  0.00     0.223 A 
HETATM   17  N2  UNL     1     -57.305 -15.047 -27.854  1.00  0.00    -0.277 N 
HETATM   18  N3  UNL     1     -56.404 -14.725 -28.784  1.00  0.00    -0.005 NA
ATOM     19  H2  UNL     1     -58.294 -14.800 -27.840  1.00  0.00     0.185 HD
HETATM   20  N4  UNL     1     -55.225 -15.225 -28.454  1.00  0.00    -0.218 N 
ATOM     21  H4  UNL     1     -54.367 -15.123 -28.998  1.00  0.00     0.206 HD
ENDBRANCH  14  15
ENDBRANCH   7   8
ENDBRANCH   3   6
ENDBRANCH   1   2
BRANCH   1  22
HETATM   22  C12 UNL     1     -53.481  -9.800 -24.794  1.00  0.00     0.073 C 
BRANCH  22  23
HETATM   23  C13 UNL     1     -53.981  -8.625 -25.481  1.00  0.00    -0.056 A 
HETATM   24  C14 UNL     1     -53.467  -8.308 -26.724  1.00  0.00     0.007 A 
HETATM   25  C15 UNL     1     -53.946  -7.219 -27.397  1.00  0.00     0.001 A 
HETATM   26  C16 UNL     1     -54.948  -6.458 -26.806  1.00  0.00     0.000 A 
HETATM   27  C17 UNL     1     -55.453  -6.784 -25.566  1.00  0.00     0.001 A 
HETATM   28  C18 UNL     1     -54.977  -7.875 -24.881  1.00  0.00     0.007 A 
ENDBRANCH  22  23
ENDBRANCH   1  22
BRANCH   1  29
HETATM   29  C19 UNL     1     -51.093 -10.148 -24.279  1.00  0.00     0.245 C 
HETATM   30  O2  UNL     1     -50.112  -9.452 -24.603  1.00  0.00    -0.271 OA
HETATM   31  N6  UNL     1     -51.293 -10.765 -23.040  1.00  0.00    -0.325 N 
ATOM     32  H6  UNL     1     -52.148 -11.301 -22.888  1.00  0.00     0.169 HD
BRANCH  31  33
HETATM   33  C20 UNL     1     -50.350 -10.669 -21.992  1.00  0.00     0.034 A 
HETATM   34  C21 UNL     1     -49.041 -11.032 -22.067  1.00  0.00     0.030 A 
HETATM   35  C22 UNL     1     -48.141 -10.895 -20.998  1.00  0.00     0.017 A 
HETATM   36  C23 UNL     1     -48.567 -10.374 -19.799  1.00  0.00     0.010 A 
HETATM   37  C25 UNL     1     -49.893 -10.008 -19.724  1.00  0.00     0.017 A 
HETATM   38  C26 UNL     1     -50.779 -10.137 -20.762  1.00  0.00     0.030 A 
BRANCH  36  39
HETATM   39  C24 UNL     1     -47.659 -10.218 -18.669  1.00  0.00     0.141 A 
HETATM   40  N7  UNL     1     -46.321 -10.206 -18.759  1.00  0.00    -0.270 N 
HETATM   41  N8  UNL     1     -45.793 -10.048 -17.550  1.00  0.00    -0.007 NA
ATOM     42  H7  UNL     1     -45.790 -10.304 -19.624  1.00  0.00     0.185 HD
HETATM   43  N9  UNL     1     -46.805  -9.960 -16.690  1.00  0.00    -0.007 NA
HETATM   44  N10 UNL     1     -47.953 -10.065 -17.379  1.00  0.00    -0.270 N 
ATOM     45  H10 UNL     1     -48.891 -10.033 -16.980  1.00  0.00     0.185 HD
ENDBRANCH  36  39
ENDBRANCH  31  33
ENDBRANCH   1  29
TORSDOF 9
ENDMDL
