MODEL 4
REMARK VINA RESULT: -9.606500529      4.190      9.368
REMARK  9 active torsions:
REMARK  status: ('A' for Active; 'I' for Inactive)
REMARK    1  A    between atoms: C1_2  and  C2_3 
REMARK       I    between atoms: C1_2  and  N5_19 
REMARK    2  A    between atoms: C3_4  and  C4_5 
REMARK    3  A    between atoms: C9_11  and  N1_12 
REMARK    4  A    between atoms: N5_19  and  C11_21 
REMARK    5  A    between atoms: C11_21  and  C12_22 
REMARK    6  A    between atoms: C11_21  and  C19_29 
REMARK    7  A    between atoms: C12_22  and  C13_23 
REMARK       I    between atoms: C19_29  and  N6_31 
REMARK    8  A    between atoms: N6_31  and  C20_33 
REMARK    9  A    between atoms: C23_36  and  C24_37 
ROOT
HETATM    1  C11 UNL     1     -52.513 -10.536 -24.886  1.00  0.00     0.181 C 
ENDROOT
BRANCH   1   2
HETATM    2  N5  UNL     1     -52.906 -11.955 -24.711  1.00  0.00    -0.344 N 
HETATM    3  C1  UNL     1     -52.284 -12.963 -25.438  1.00  0.00     0.241 C 
HETATM    4  O1  UNL     1     -51.371 -12.600 -26.249  1.00  0.00    -0.269 OA
ATOM      5  H5  UNL     1     -53.642 -12.195 -24.047  1.00  0.00     0.163 HD
BRANCH   3   6
HETATM    6  C2  UNL     1     -52.595 -14.409 -25.345  1.00  0.00     0.075 C 
HETATM    7  C3  UNL     1     -51.831 -15.224 -24.672  1.00  0.00     0.019 C 
BRANCH   7   8
HETATM    8  C4  UNL     1     -51.994 -16.624 -24.499  1.00  0.00    -0.006 A 
HETATM    9  C5  UNL     1     -52.303 -17.344 -25.677  1.00  0.00     0.037 A 
HETATM   10  C6  UNL     1     -52.524 -18.692 -25.656  1.00  0.00     0.035 A 
HETATM   11 CL1  UNL     1     -52.908 -19.614 -27.093  1.00  0.00    -0.084 Cl
HETATM   12  C7  UNL     1     -52.436 -19.339 -24.444  1.00  0.00     0.026 A 
HETATM   13  C8  UNL     1     -52.142 -18.669 -23.298  1.00  0.00     0.034 A 
HETATM   14  C9  UNL     1     -51.916 -17.282 -23.319  1.00  0.00     0.069 A 
BRANCH  14  15
HETATM   15  N1  UNL     1     -51.677 -16.671 -22.036  1.00  0.00    -0.237 N 
HETATM   16  C10 UNL     1     -50.531 -16.692 -21.298  1.00  0.00     0.223 A 
HETATM   17  N2  UNL     1     -50.722 -16.062 -20.140  1.00  0.00    -0.277 N 
HETATM   18  N3  UNL     1     -51.991 -15.652 -20.165  1.00  0.00    -0.005 NA
ATOM     19  H2  UNL     1     -50.042 -15.924 -19.393  1.00  0.00     0.185 HD
HETATM   20  N4  UNL     1     -52.557 -16.019 -21.302  1.00  0.00    -0.218 N 
ATOM     21  H4  UNL     1     -53.523 -15.829 -21.570  1.00  0.00     0.206 HD
ENDBRANCH  14  15
ENDBRANCH   7   8
ENDBRANCH   3   6
ENDBRANCH   1   2
BRANCH   1  22
HETATM   22  C12 UNL     1     -53.739  -9.788 -24.406  1.00  0.00     0.073 C 
BRANCH  22  23
HETATM   23  C13 UNL     1     -54.124  -8.650 -25.219  1.00  0.00    -0.056 A 
HETATM   24  C14 UNL     1     -53.487  -8.444 -26.428  1.00  0.00     0.007 A 
HETATM   25  C15 UNL     1     -53.858  -7.393 -27.217  1.00  0.00     0.001 A 
HETATM   26  C16 UNL     1     -54.876  -6.555 -26.778  1.00  0.00     0.000 A 
HETATM   27  C17 UNL     1     -55.505  -6.770 -25.571  1.00  0.00     0.001 A 
HETATM   28  C18 UNL     1     -55.139  -7.823 -24.769  1.00  0.00     0.007 A 
ENDBRANCH  22  23
ENDBRANCH   1  22
BRANCH   1  29
HETATM   29  C19 UNL     1     -51.353 -10.246 -23.975  1.00  0.00     0.245 C 
HETATM   30  O2  UNL     1     -50.426  -9.556 -24.440  1.00  0.00    -0.271 OA
HETATM   31  N6  UNL     1     -51.419 -10.775 -22.682  1.00  0.00    -0.325 N 
ATOM     32  H6  UNL     1     -52.240 -11.316 -22.411  1.00  0.00     0.169 HD
BRANCH  31  33
HETATM   33  C20 UNL     1     -50.383 -10.584 -21.739  1.00  0.00     0.034 A 
HETATM   34  C21 UNL     1     -50.529 -10.039 -20.501  1.00  0.00     0.030 A 
HETATM   35  C22 UNL     1     -49.466  -9.891 -19.595  1.00  0.00     0.017 A 
HETATM   36  C23 UNL     1     -48.202 -10.305 -19.940  1.00  0.00     0.010 A 
HETATM   37  C25 UNL     1     -48.055 -10.855 -21.194  1.00  0.00     0.017 A 
HETATM   38  C26 UNL     1     -49.085 -11.004 -22.085  1.00  0.00     0.030 A 
BRANCH  36  39
HETATM   39  C24 UNL     1     -47.077 -10.166 -19.023  1.00  0.00     0.141 A 
HETATM   40  N7  UNL     1     -45.789 -10.325 -19.363  1.00  0.00    -0.270 N 
HETATM   41  N8  UNL     1     -45.018 -10.130 -18.298  1.00  0.00    -0.007 NA
ATOM     42  H7  UNL     1     -45.453 -10.560 -20.296  1.00  0.00     0.185 HD
HETATM   43  N9  UNL     1     -45.825  -9.846 -17.278  1.00  0.00    -0.007 NA
HETATM   44  N10 UNL     1     -47.091  -9.869 -17.724  1.00  0.00    -0.270 N 
ATOM     45  H10 UNL     1     -47.923  -9.688 -17.163  1.00  0.00     0.185 HD
ENDBRANCH  36  39
ENDBRANCH  31  33
ENDBRANCH   1  29
TORSDOF 9
ENDMDL
