MODEL 2
REMARK VINA RESULT: -10.251610776      1.125      1.340
REMARK  8 active torsions:
REMARK  status: ('A' for Active; 'I' for Inactive)
REMARK       I    between atoms: C1_2  and  N1_3 
REMARK    1  A    between atoms: C1_2  and  C21_31 
REMARK    2  A    between atoms: N1_3  and  C2_5 
REMARK    3  A    between atoms: C2_5  and  C3_6 
REMARK    4  A    between atoms: C2_5  and  C10_13 
REMARK    5  A    between atoms: C3_6  and  C4_7 
REMARK       I    between atoms: C10_13  and  N2_15 
REMARK    6  A    between atoms: N2_15  and  C11_17 
REMARK    7  A    between atoms: C11_17  and  C12_18 
REMARK    8  A    between atoms: C27_40  and  O5_41 
ROOT
HETATM    1  C2  UNL     1      53.468  25.530  11.986  1.00  0.00     0.181 C 
ENDROOT
BRANCH   1   2
HETATM    2  N1  UNL     1      53.982  26.195  10.764  1.00  0.00    -0.343 N 
HETATM    3  C1  UNL     1      55.276  26.000  10.260  1.00  0.00     0.252 C 
HETATM    4  O1  UNL     1      56.080  25.203  10.870  1.00  0.00    -0.268 OA
ATOM      5  H1  UNL     1      53.360  26.829  10.263  1.00  0.00     0.163 HD
BRANCH   3   6
HETATM    6  C21 UNL     1      55.793  26.649   9.066  1.00  0.00     0.033 A 
HETATM    7  C22 UNL     1      55.855  26.033   7.856  1.00  0.00     0.019 A 
HETATM    8  C23 UNL     1      56.374  26.684   6.735  1.00  0.00     0.031 A 
HETATM    9  C24 UNL     1      56.840  27.979   6.831  1.00  0.00     0.048 A 
HETATM   10  N4  UNL     1      57.346  28.611   5.752  1.00  0.00    -0.323 N 
HETATM   11  C28 UNL     1      56.778  28.615   8.073  1.00  0.00     0.025 A 
HETATM   12  C25 UNL     1      57.816  29.858   5.781  1.00  0.00     0.248 A 
ATOM     13  H4  UNL     1      57.370  28.107   4.865  1.00  0.00     0.169 HD
HETATM   14  O4  UNL     1      58.277  30.389   4.735  1.00  0.00    -0.268 OA
HETATM   15  C26 UNL     1      57.771  30.517   6.996  1.00  0.00     0.111 A 
HETATM   16  C27 UNL     1      57.258  29.904   8.137  1.00  0.00     0.083 A 
HETATM   17  C29 UNL     1      56.265  27.953   9.157  1.00  0.00     0.033 A 
BRANCH  16  18
HETATM   18  O5  UNL     1      57.245  30.621   9.297  1.00  0.00    -0.360 OA
ATOM     19  H5  UNL     1      57.420  30.159  10.108  1.00  0.00     0.217 HD
ENDBRANCH  16  18
ENDBRANCH   3   6
ENDBRANCH   1   2
BRANCH   1  20
HETATM   20  C3  UNL     1      53.274  26.571  13.046  1.00  0.00     0.073 C 
BRANCH  20  21
HETATM   21  C4  UNL     1      54.170  27.726  12.939  1.00  0.00    -0.056 A 
HETATM   22  C5  UNL     1      55.484  27.703  13.374  1.00  0.00     0.007 A 
HETATM   23  C6  UNL     1      56.285  28.804  13.257  1.00  0.00     0.001 A 
HETATM   24  C7  UNL     1      55.822  29.984  12.702  1.00  0.00     0.000 A 
HETATM   25  C8  UNL     1      54.519  30.038  12.261  1.00  0.00     0.001 A 
HETATM   26  C9  UNL     1      53.726  28.928  12.383  1.00  0.00     0.007 A 
ENDBRANCH  20  21
ENDBRANCH   1  20
BRANCH   1  27
HETATM   27  C10 UNL     1      52.301  24.713  11.667  1.00  0.00     0.244 C 
HETATM   28  O2  UNL     1      51.767  24.781  10.499  1.00  0.00    -0.271 OA
HETATM   29  N2  UNL     1      51.657  23.795  12.556  1.00  0.00    -0.335 N 
ATOM     30  H2  UNL     1      52.018  23.666  13.501  1.00  0.00     0.168 HD
BRANCH  29  31
HETATM   31  C11 UNL     1      50.494  23.046  12.119  1.00  0.00     0.103 C 
BRANCH  31  32
HETATM   32  C12 UNL     1      50.706  21.642  11.851  1.00  0.00    -0.003 A 
HETATM   33  C13 UNL     1      51.923  21.026  11.680  1.00  0.00     0.088 A 
HETATM   34  C14 UNL     1      52.047  19.676  11.421  1.00  0.00     0.246 A 
HETATM   35  O3  UNL     1      53.186  19.196  11.280  1.00  0.00    -0.268 OA
HETATM   36  N3  UNL     1      50.977  18.892  11.325  1.00  0.00    -0.323 N 
HETATM   37  C15 UNL     1      49.757  19.449  11.486  1.00  0.00     0.046 A 
ATOM     38  H3  UNL     1      51.075  17.894  11.134  1.00  0.00     0.169 HD
HETATM   39  C16 UNL     1      48.649  18.625  11.388  1.00  0.00     0.032 A 
HETATM   40  C20 UNL     1      49.610  20.785  11.742  1.00  0.00     0.004 A 
HETATM   41  C17 UNL     1      47.392  19.144  11.546  1.00  0.00     0.026 A 
HETATM   42  C18 UNL     1      47.223  20.478  11.803  1.00  0.00     0.035 A 
HETATM   43 CL1  UNL     1      45.623  21.130  12.002  1.00  0.00    -0.084 Cl
HETATM   44  C19 UNL     1      48.338  21.303  11.901  1.00  0.00     0.038 A 
ENDBRANCH  31  32
ENDBRANCH  29  31
ENDBRANCH   1  27
TORSDOF 8
ENDMDL
