MODEL 6
REMARK VINA RESULT: -10.054605915      4.212      6.827
REMARK  8 active torsions:
REMARK  status: ('A' for Active; 'I' for Inactive)
REMARK       I    between atoms: C1_2  and  N1_3 
REMARK    1  A    between atoms: C1_2  and  C21_31 
REMARK    2  A    between atoms: N1_3  and  C2_5 
REMARK    3  A    between atoms: C2_5  and  C3_6 
REMARK    4  A    between atoms: C2_5  and  C10_13 
REMARK    5  A    between atoms: C3_6  and  C4_7 
REMARK       I    between atoms: C10_13  and  N2_15 
REMARK    6  A    between atoms: N2_15  and  C11_17 
REMARK    7  A    between atoms: C11_17  and  C12_18 
REMARK    8  A    between atoms: C27_40  and  O5_41 
ROOT
HETATM    1  C2  UNL     1      52.685  24.144  12.240  1.00  0.00     0.181 C 
ENDROOT
BRANCH   1   2
HETATM    2  N1  UNL     1      53.885  24.683  11.556  1.00  0.00    -0.343 N 
HETATM    3  C1  UNL     1      53.848  25.753  10.650  1.00  0.00     0.252 C 
HETATM    4  O1  UNL     1      52.723  26.317  10.383  1.00  0.00    -0.268 OA
ATOM      5  H1  UNL     1      54.788  24.252  11.756  1.00  0.00     0.163 HD
BRANCH   3   6
HETATM    6  C21 UNL     1      55.016  26.289   9.970  1.00  0.00     0.033 A 
HETATM    7  C22 UNL     1      56.281  25.860  10.222  1.00  0.00     0.019 A 
HETATM    8  C23 UNL     1      57.380  26.410   9.560  1.00  0.00     0.031 A 
HETATM    9  C24 UNL     1      57.205  27.413   8.628  1.00  0.00     0.048 A 
HETATM   10  N4  UNL     1      58.265  27.952   7.989  1.00  0.00    -0.323 N 
HETATM   11  C28 UNL     1      55.907  27.856   8.367  1.00  0.00     0.025 A 
HETATM   12  C25 UNL     1      58.162  28.925   7.083  1.00  0.00     0.248 A 
ATOM     13  H4  UNL     1      59.194  27.595   8.211  1.00  0.00     0.169 HD
HETATM   14  O4  UNL     1      59.193  29.385   6.524  1.00  0.00    -0.268 OA
HETATM   15  C26 UNL     1      56.890  29.389   6.802  1.00  0.00     0.111 A 
HETATM   16  C27 UNL     1      55.767  28.863   7.438  1.00  0.00     0.083 A 
HETATM   17  C29 UNL     1      54.846  27.300   9.032  1.00  0.00     0.033 A 
BRANCH  16  18
HETATM   18  O5  UNL     1      54.547  29.372   7.104  1.00  0.00    -0.360 OA
ATOM     19  H5  UNL     1      53.983  28.848   6.548  1.00  0.00     0.217 HD
ENDBRANCH  16  18
ENDBRANCH   3   6
ENDBRANCH   1   2
BRANCH   1  20
HETATM   20  C3  UNL     1      52.604  22.672  11.965  1.00  0.00     0.073 C 
BRANCH  20  21
HETATM   21  C4  UNL     1      51.282  22.201  11.541  1.00  0.00    -0.056 A 
HETATM   22  C5  UNL     1      50.226  23.057  11.275  1.00  0.00     0.007 A 
HETATM   23  C6  UNL     1      49.009  22.575  10.884  1.00  0.00     0.001 A 
HETATM   24  C7  UNL     1      48.777  21.219  10.736  1.00  0.00     0.000 A 
HETATM   25  C8  UNL     1      49.808  20.343  10.994  1.00  0.00     0.001 A 
HETATM   26  C9  UNL     1      51.024  20.838  11.385  1.00  0.00     0.007 A 
ENDBRANCH  20  21
ENDBRANCH   1  20
BRANCH   1  27
HETATM   27  C10 UNL     1      52.682  24.535  13.645  1.00  0.00     0.244 C 
HETATM   28  O2  UNL     1      53.404  25.523  14.041  1.00  0.00    -0.271 OA
HETATM   29  N2  UNL     1      51.920  23.911  14.684  1.00  0.00    -0.335 N 
ATOM     30  H2  UNL     1      51.308  23.126  14.462  1.00  0.00     0.168 HD
BRANCH  29  31
HETATM   31  C11 UNL     1      52.012  24.391  16.050  1.00  0.00     0.103 C 
BRANCH  31  32
HETATM   32  C12 UNL     1      52.843  23.614  16.941  1.00  0.00    -0.003 A 
HETATM   33  C13 UNL     1      52.865  22.243  17.036  1.00  0.00     0.088 A 
HETATM   34  C14 UNL     1      53.686  21.568  17.917  1.00  0.00     0.246 A 
HETATM   35  O3  UNL     1      53.646  20.325  17.940  1.00  0.00    -0.268 OA
HETATM   36  N3  UNL     1      54.510  22.223  18.730  1.00  0.00    -0.323 N 
HETATM   37  C15 UNL     1      54.526  23.573  18.675  1.00  0.00     0.046 A 
ATOM     38  H3  UNL     1      55.115  21.720  19.379  1.00  0.00     0.169 HD
HETATM   39  C16 UNL     1      55.388  24.247  19.522  1.00  0.00     0.032 A 
HETATM   40  C20 UNL     1      53.721  24.262  17.810  1.00  0.00     0.004 A 
HETATM   41  C17 UNL     1      55.442  25.615  19.502  1.00  0.00     0.026 A 
HETATM   42  C18 UNL     1      54.645  26.324  18.643  1.00  0.00     0.035 A 
HETATM   43 CL1  UNL     1      54.718  28.061  18.622  1.00  0.00    -0.084 Cl
HETATM   44  C19 UNL     1      53.779  25.644  17.793  1.00  0.00     0.038 A 
ENDBRANCH  31  32
ENDBRANCH  29  31
ENDBRANCH   1  27
TORSDOF 8
ENDMDL
