MODEL 1
REMARK VINA RESULT: -10.353979366      0.000      0.000
REMARK  8 active torsions:
REMARK  status: ('A' for Active; 'I' for Inactive)
REMARK       I    between atoms: C1_2  and  N1_3 
REMARK    1  A    between atoms: C1_2  and  C21_31 
REMARK    2  A    between atoms: N1_3  and  C2_5 
REMARK    3  A    between atoms: C2_5  and  C3_6 
REMARK    4  A    between atoms: C2_5  and  C10_13 
REMARK    5  A    between atoms: C3_6  and  C4_7 
REMARK       I    between atoms: C10_13  and  N2_15 
REMARK    6  A    between atoms: N2_15  and  C11_17 
REMARK    7  A    between atoms: C11_17  and  C12_18 
REMARK    8  A    between atoms: C27_40  and  O5_41 
ROOT
HETATM    1  C2  UNL     1      53.497  25.570  11.904  1.00  0.00     0.181 C 
ENDROOT
BRANCH   1   2
HETATM    2  N1  UNL     1      53.874  26.404  10.737  1.00  0.00    -0.343 N 
HETATM    3  C1  UNL     1      55.121  26.328  10.099  1.00  0.00     0.252 C 
HETATM    4  O1  UNL     1      56.001  25.493  10.525  1.00  0.00    -0.268 OA
ATOM      5  H1  UNL     1      53.190  27.071  10.380  1.00  0.00     0.163 HD
BRANCH   3   6
HETATM    6  C21 UNL     1      55.504  27.142   8.956  1.00  0.00     0.033 A 
HETATM    7  C22 UNL     1      54.747  28.172   8.493  1.00  0.00     0.019 A 
HETATM    8  C23 UNL     1      55.142  28.921   7.383  1.00  0.00     0.031 A 
HETATM    9  C24 UNL     1      56.320  28.630   6.725  1.00  0.00     0.048 A 
HETATM   10  N4  UNL     1      56.703  29.348   5.649  1.00  0.00    -0.323 N 
HETATM   11  C28 UNL     1      57.099  27.573   7.199  1.00  0.00     0.025 A 
HETATM   12  C25 UNL     1      57.825  29.114   4.968  1.00  0.00     0.248 A 
ATOM     13  H4  UNL     1      56.101  30.112   5.340  1.00  0.00     0.169 HD
HETATM   14  O4  UNL     1      58.123  29.823   3.970  1.00  0.00    -0.268 OA
HETATM   15  C26 UNL     1      58.621  28.073   5.410  1.00  0.00     0.111 A 
HETATM   16  C27 UNL     1      58.264  27.304   6.516  1.00  0.00     0.083 A 
HETATM   17  C29 UNL     1      56.688  26.853   8.289  1.00  0.00     0.033 A 
BRANCH  16  18
HETATM   18  O5  UNL     1      59.103  26.296   6.890  1.00  0.00    -0.360 OA
ATOM     19  H5  UNL     1      58.816  25.711   7.581  1.00  0.00     0.217 HD
ENDBRANCH  16  18
ENDBRANCH   3   6
ENDBRANCH   1   2
BRANCH   1  20
HETATM   20  C3  UNL     1      53.373  26.460  13.103  1.00  0.00     0.073 C 
BRANCH  20  21
HETATM   21  C4  UNL     1      54.193  27.675  13.050  1.00  0.00    -0.056 A 
HETATM   22  C5  UNL     1      55.523  27.704  13.434  1.00  0.00     0.007 A 
HETATM   23  C6  UNL     1      56.250  28.859  13.370  1.00  0.00     0.001 A 
HETATM   24  C7  UNL     1      55.694  30.044  12.920  1.00  0.00     0.000 A 
HETATM   25  C8  UNL     1      54.374  30.046  12.531  1.00  0.00     0.001 A 
HETATM   26  C9  UNL     1      53.654  28.882  12.600  1.00  0.00     0.007 A 
ENDBRANCH  20  21
ENDBRANCH   1  20
BRANCH   1  27
HETATM   27  C10 UNL     1      52.330  24.753  11.587  1.00  0.00     0.244 C 
HETATM   28  O2  UNL     1      51.807  24.804  10.414  1.00  0.00    -0.271 OA
HETATM   29  N2  UNL     1      51.674  23.851  12.485  1.00  0.00    -0.335 N 
ATOM     30  H2  UNL     1      52.026  23.737  13.436  1.00  0.00     0.168 HD
BRANCH  29  31
HETATM   31  C11 UNL     1      50.512  23.100  12.050  1.00  0.00     0.103 C 
BRANCH  31  32
HETATM   32  C12 UNL     1      50.734  21.705  11.747  1.00  0.00    -0.003 A 
HETATM   33  C13 UNL     1      51.954  21.109  11.529  1.00  0.00     0.088 A 
HETATM   34  C14 UNL     1      52.088  19.767  11.238  1.00  0.00     0.246 A 
HETATM   35  O3  UNL     1      53.229  19.305  11.056  1.00  0.00    -0.268 OA
HETATM   36  N3  UNL     1      51.026  18.971  11.154  1.00  0.00    -0.323 N 
HETATM   37  C15 UNL     1      49.804  19.508  11.360  1.00  0.00     0.046 A 
ATOM     38  H3  UNL     1      51.131  17.979  10.940  1.00  0.00     0.169 HD
HETATM   39  C16 UNL     1      48.704  18.672  11.274  1.00  0.00     0.032 A 
HETATM   40  C20 UNL     1      49.647  20.837  11.649  1.00  0.00     0.004 A 
HETATM   41  C17 UNL     1      47.445  19.171  11.477  1.00  0.00     0.026 A 
HETATM   42  C18 UNL     1      47.266  20.497  11.767  1.00  0.00     0.035 A 
HETATM   43 CL1  UNL     1      45.664  21.123  12.024  1.00  0.00    -0.084 Cl
HETATM   44  C19 UNL     1      48.374  21.335  11.853  1.00  0.00     0.038 A 
ENDBRANCH  31  32
ENDBRANCH  29  31
ENDBRANCH   1  27
TORSDOF 8
ENDMDL
