MODEL 3
REMARK VINA RESULT: -10.161333491      1.243      1.868
REMARK  8 active torsions:
REMARK  status: ('A' for Active; 'I' for Inactive)
REMARK       I    between atoms: C1_2  and  N1_3 
REMARK    1  A    between atoms: C1_2  and  C21_31 
REMARK    2  A    between atoms: N1_3  and  C2_5 
REMARK    3  A    between atoms: C2_5  and  C3_6 
REMARK    4  A    between atoms: C2_5  and  C10_13 
REMARK    5  A    between atoms: C3_6  and  C4_7 
REMARK       I    between atoms: C10_13  and  N2_15 
REMARK    6  A    between atoms: N2_15  and  C11_17 
REMARK    7  A    between atoms: C11_17  and  C12_18 
REMARK    8  A    between atoms: C27_40  and  O5_41 
ROOT
HETATM    1  C2  UNL     1      53.457  25.464  11.920  1.00  0.00     0.181 C 
ENDROOT
BRANCH   1   2
HETATM    2  N1  UNL     1      53.834  26.307  10.760  1.00  0.00    -0.343 N 
HETATM    3  C1  UNL     1      55.104  26.287  10.165  1.00  0.00     0.252 C 
HETATM    4  O1  UNL     1      56.008  25.500  10.630  1.00  0.00    -0.268 OA
ATOM      5  H1  UNL     1      53.131  26.936  10.373  1.00  0.00     0.163 HD
BRANCH   3   6
HETATM    6  C21 UNL     1      55.487  27.111   9.030  1.00  0.00     0.033 A 
HETATM    7  C22 UNL     1      54.730  28.143   8.574  1.00  0.00     0.019 A 
HETATM    8  C23 UNL     1      55.124  28.902   7.470  1.00  0.00     0.031 A 
HETATM    9  C24 UNL     1      56.302  28.617   6.810  1.00  0.00     0.048 A 
HETATM   10  N4  UNL     1      56.685  29.344   5.740  1.00  0.00    -0.323 N 
HETATM   11  C28 UNL     1      57.083  27.557   7.276  1.00  0.00     0.025 A 
HETATM   12  C25 UNL     1      57.807  29.116   5.057  1.00  0.00     0.248 A 
ATOM     13  H4  UNL     1      56.083  30.110   5.437  1.00  0.00     0.169 HD
HETATM   14  O4  UNL     1      58.105  29.833   4.065  1.00  0.00    -0.268 OA
HETATM   15  C26 UNL     1      58.604  28.071   5.491  1.00  0.00     0.111 A 
HETATM   16  C27 UNL     1      58.248  27.293   6.591  1.00  0.00     0.083 A 
HETATM   17  C29 UNL     1      56.672  26.827   8.360  1.00  0.00     0.033 A 
BRANCH  16  18
HETATM   18  O5  UNL     1      59.087  26.283   6.957  1.00  0.00    -0.360 OA
ATOM     19  H5  UNL     1      58.717  25.415   7.068  1.00  0.00     0.217 HD
ENDBRANCH  16  18
ENDBRANCH   3   6
ENDBRANCH   1   2
BRANCH   1  20
HETATM   20  C3  UNL     1      53.351  26.342  13.129  1.00  0.00     0.073 C 
BRANCH  20  21
HETATM   21  C4  UNL     1      53.998  25.809  14.331  1.00  0.00    -0.056 A 
HETATM   22  C5  UNL     1      55.369  25.841  14.527  1.00  0.00     0.007 A 
HETATM   23  C6  UNL     1      55.932  25.331  15.662  1.00  0.00     0.001 A 
HETATM   24  C7  UNL     1      55.163  24.762  16.662  1.00  0.00     0.000 A 
HETATM   25  C8  UNL     1      53.797  24.714  16.496  1.00  0.00     0.001 A 
HETATM   26  C9  UNL     1      53.244  25.229  15.354  1.00  0.00     0.007 A 
ENDBRANCH  20  21
ENDBRANCH   1  20
BRANCH   1  27
HETATM   27  C10 UNL     1      52.280  24.662  11.603  1.00  0.00     0.244 C 
HETATM   28  O2  UNL     1      51.764  24.710  10.426  1.00  0.00    -0.271 OA
HETATM   29  N2  UNL     1      51.605  23.778  12.505  1.00  0.00    -0.335 N 
ATOM     30  H2  UNL     1      51.950  23.666  13.459  1.00  0.00     0.168 HD
BRANCH  29  31
HETATM   31  C11 UNL     1      50.434  23.041  12.070  1.00  0.00     0.103 C 
BRANCH  31  32
HETATM   32  C12 UNL     1      50.629  21.632  11.815  1.00  0.00    -0.003 A 
HETATM   33  C13 UNL     1      51.838  21.002  11.639  1.00  0.00     0.088 A 
HETATM   34  C14 UNL     1      51.945  19.648  11.394  1.00  0.00     0.246 A 
HETATM   35  O3  UNL     1      53.078  19.154  11.247  1.00  0.00    -0.268 OA
HETATM   36  N3  UNL     1      50.867  18.874  11.315  1.00  0.00    -0.323 N 
HETATM   37  C15 UNL     1      49.654  19.446  11.481  1.00  0.00     0.046 A 
ATOM     38  H3  UNL     1      50.952  17.874  11.134  1.00  0.00     0.169 HD
HETATM   39  C16 UNL     1      48.536  18.633  11.400  1.00  0.00     0.032 A 
HETATM   40  C20 UNL     1      49.523  20.786  11.724  1.00  0.00     0.004 A 
HETATM   41  C17 UNL     1      47.286  19.167  11.564  1.00  0.00     0.026 A 
HETATM   42  C18 UNL     1      47.133  20.505  11.808  1.00  0.00     0.035 A 
HETATM   43 CL1  UNL     1      45.542  21.176  12.014  1.00  0.00    -0.084 Cl
HETATM   44  C19 UNL     1      48.258  21.320  11.888  1.00  0.00     0.038 A 
ENDBRANCH  31  32
ENDBRANCH  29  31
ENDBRANCH   1  27
TORSDOF 8
ENDMDL
