MODEL 4
REMARK VINA RESULT: -10.152443742      3.986      9.174
REMARK  8 active torsions:
REMARK  status: ('A' for Active; 'I' for Inactive)
REMARK       I    between atoms: C1_2  and  N1_3 
REMARK    1  A    between atoms: C1_2  and  C21_31 
REMARK    2  A    between atoms: N1_3  and  C2_5 
REMARK    3  A    between atoms: C2_5  and  C3_6 
REMARK    4  A    between atoms: C2_5  and  C10_13 
REMARK    5  A    between atoms: C3_6  and  C4_7 
REMARK       I    between atoms: C10_13  and  N2_15 
REMARK    6  A    between atoms: N2_15  and  C11_17 
REMARK    7  A    between atoms: C11_17  and  C12_18 
REMARK    8  A    between atoms: C27_40  and  O5_41 
ROOT
HETATM    1  C2  UNL     1      53.905  26.364  10.996  1.00  0.00     0.181 C 
ENDROOT
BRANCH   1   2
HETATM    2  N1  UNL     1      52.719  25.478  10.910  1.00  0.00    -0.343 N 
HETATM    3  C1  UNL     1      52.704  24.154  11.371  1.00  0.00     0.252 C 
HETATM    4  O1  UNL     1      53.763  23.658  11.908  1.00  0.00    -0.268 OA
ATOM      5  H1  UNL     1      51.867  25.852  10.491  1.00  0.00     0.163 HD
BRANCH   3   6
HETATM    6  C21 UNL     1      51.550  23.273  11.290  1.00  0.00     0.033 A 
HETATM    7  C22 UNL     1      50.293  23.721  11.031  1.00  0.00     0.019 A 
HETATM    8  C23 UNL     1      49.207  22.846  10.976  1.00  0.00     0.031 A 
HETATM    9  C24 UNL     1      49.386  21.494  11.186  1.00  0.00     0.048 A 
HETATM   10  N4  UNL     1      48.339  20.644  11.139  1.00  0.00    -0.323 N 
HETATM   11  C28 UNL     1      50.676  21.030  11.453  1.00  0.00     0.025 A 
HETATM   12  C25 UNL     1      48.445  19.331  11.339  1.00  0.00     0.248 A 
ATOM     13  H4  UNL     1      47.415  21.029  10.940  1.00  0.00     0.169 HD
HETATM   14  O4  UNL     1      47.425  18.593  11.282  1.00  0.00    -0.268 OA
HETATM   15  C26 UNL     1      49.710  18.837  11.607  1.00  0.00     0.111 A 
HETATM   16  C27 UNL     1      50.820  19.677  11.666  1.00  0.00     0.083 A 
HETATM   17  C29 UNL     1      51.725  21.911  11.503  1.00  0.00     0.033 A 
BRANCH  16  18
HETATM   18  O5  UNL     1      52.033  19.114  11.934  1.00  0.00    -0.360 OA
ATOM     19  H5  UNL     1      52.293  19.028  12.844  1.00  0.00     0.217 HD
ENDBRANCH  16  18
ENDBRANCH   3   6
ENDBRANCH   1   2
BRANCH   1  20
HETATM   20  C3  UNL     1      53.784  27.421   9.941  1.00  0.00     0.073 C 
BRANCH  20  21
HETATM   21  C4  UNL     1      54.790  27.342   8.878  1.00  0.00    -0.056 A 
HETATM   22  C5  UNL     1      54.987  28.350   7.949  1.00  0.00     0.007 A 
HETATM   23  C6  UNL     1      55.936  28.235   6.973  1.00  0.00     0.001 A 
HETATM   24  C7  UNL     1      56.739  27.112   6.869  1.00  0.00     0.000 A 
HETATM   25  C8  UNL     1      56.566  26.093   7.778  1.00  0.00     0.001 A 
HETATM   26  C9  UNL     1      55.612  26.220   8.752  1.00  0.00     0.007 A 
ENDBRANCH  20  21
ENDBRANCH   1  20
BRANCH   1  27
HETATM   27  C10 UNL     1      54.084  26.840  12.364  1.00  0.00     0.244 C 
HETATM   28  O2  UNL     1      53.435  27.870  12.779  1.00  0.00    -0.271 OA
HETATM   29  N2  UNL     1      54.945  26.252  13.345  1.00  0.00    -0.335 N 
ATOM     30  H2  UNL     1      55.492  25.424  13.110  1.00  0.00     0.168 HD
BRANCH  29  31
HETATM   31  C11 UNL     1      55.042  26.829  14.673  1.00  0.00     0.103 C 
BRANCH  31  32
HETATM   32  C12 UNL     1      54.427  26.073  15.741  1.00  0.00    -0.003 A 
HETATM   33  C13 UNL     1      53.296  25.299  15.635  1.00  0.00     0.088 A 
HETATM   34  C14 UNL     1      52.762  24.607  16.704  1.00  0.00     0.246 A 
HETATM   35  O3  UNL     1      51.735  23.929  16.525  1.00  0.00    -0.268 OA
HETATM   36  N3  UNL     1      53.327  24.656  17.907  1.00  0.00    -0.323 N 
HETATM   37  C15 UNL     1      54.442  25.403  18.062  1.00  0.00     0.046 A 
ATOM     38  H3  UNL     1      52.929  24.142  18.693  1.00  0.00     0.169 HD
HETATM   39  C16 UNL     1      55.026  25.445  19.317  1.00  0.00     0.032 A 
HETATM   40  C20 UNL     1      54.988  26.097  17.017  1.00  0.00     0.004 A 
HETATM   41  C17 UNL     1      56.158  26.187  19.523  1.00  0.00     0.026 A 
HETATM   42  C18 UNL     1      56.720  26.889  18.491  1.00  0.00     0.035 A 
HETATM   43 CL1  UNL     1      58.159  27.828  18.760  1.00  0.00    -0.084 Cl
HETATM   44  C19 UNL     1      56.132  26.844  17.231  1.00  0.00     0.038 A 
ENDBRANCH  31  32
ENDBRANCH  29  31
ENDBRANCH   1  27
TORSDOF 8
ENDMDL
