MODEL 5
REMARK VINA RESULT: -10.118797451      4.160      7.787
REMARK  8 active torsions:
REMARK  status: ('A' for Active; 'I' for Inactive)
REMARK       I    between atoms: C1_2  and  N1_3 
REMARK    1  A    between atoms: C1_2  and  C21_31 
REMARK    2  A    between atoms: N1_3  and  C2_5 
REMARK    3  A    between atoms: C2_5  and  C3_6 
REMARK    4  A    between atoms: C2_5  and  C10_13 
REMARK    5  A    between atoms: C3_6  and  C4_7 
REMARK       I    between atoms: C10_13  and  N2_15 
REMARK    6  A    between atoms: N2_15  and  C11_17 
REMARK    7  A    between atoms: C11_17  and  C12_18 
REMARK    8  A    between atoms: C27_40  and  O5_41 
ROOT
HETATM    1  C2  UNL     1      53.040  25.483  13.129  1.00  0.00     0.181 C 
ENDROOT
BRANCH   1   2
HETATM    2  N1  UNL     1      53.683  24.557  14.092  1.00  0.00    -0.343 N 
HETATM    3  C1  UNL     1      53.119  24.205  15.327  1.00  0.00     0.252 C 
HETATM    4  O1  UNL     1      51.979  24.696  15.665  1.00  0.00    -0.268 OA
ATOM      5  H1  UNL     1      54.586  24.153  13.843  1.00  0.00     0.163 HD
BRANCH   3   6
HETATM    6  C21 UNL     1      53.740  23.301  16.281  1.00  0.00     0.033 A 
HETATM    7  C22 UNL     1      54.356  23.728  17.415  1.00  0.00     0.019 A 
HETATM    8  C23 UNL     1      54.956  22.830  18.299  1.00  0.00     0.031 A 
HETATM    9  C24 UNL     1      54.937  21.474  18.039  1.00  0.00     0.048 A 
HETATM   10  N4  UNL     1      55.520  20.602  18.888  1.00  0.00    -0.323 N 
HETATM   11  C28 UNL     1      54.306  21.032  16.875  1.00  0.00     0.025 A 
HETATM   12  C25 UNL     1      55.540  19.284  18.691  1.00  0.00     0.248 A 
ATOM     13  H4  UNL     1      55.968  20.972  19.726  1.00  0.00     0.169 HD
HETATM   14  O4  UNL     1      56.103  18.525  19.524  1.00  0.00    -0.268 OA
HETATM   15  C26 UNL     1      54.925  18.811  17.546  1.00  0.00     0.111 A 
HETATM   16  C27 UNL     1      54.312  19.675  16.641  1.00  0.00     0.083 A 
HETATM   17  C29 UNL     1      53.726  21.935  16.023  1.00  0.00     0.033 A 
BRANCH  16  18
HETATM   18  O5  UNL     1      53.724  19.131  15.537  1.00  0.00    -0.360 OA
ATOM     19  H5  UNL     1      52.860  18.748  15.635  1.00  0.00     0.217 HD
ENDBRANCH  16  18
ENDBRANCH   3   6
ENDBRANCH   1   2
BRANCH   1  20
HETATM   20  C3  UNL     1      54.116  26.222  12.393  1.00  0.00     0.073 C 
BRANCH  20  21
HETATM   21  C4  UNL     1      54.359  27.586  12.873  1.00  0.00    -0.056 A 
HETATM   22  C5  UNL     1      53.821  28.707  12.262  1.00  0.00     0.007 A 
HETATM   23  C6  UNL     1      54.074  29.961  12.742  1.00  0.00     0.001 A 
HETATM   24  C7  UNL     1      54.875  30.167  13.852  1.00  0.00     0.000 A 
HETATM   25  C8  UNL     1      55.425  29.072  14.480  1.00  0.00     0.001 A 
HETATM   26  C9  UNL     1      55.163  27.819  13.990  1.00  0.00     0.007 A 
ENDBRANCH  20  21
ENDBRANCH   1  20
BRANCH   1  27
HETATM   27  C10 UNL     1      52.073  24.767  12.305  1.00  0.00     0.244 C 
HETATM   28  O2  UNL     1      52.102  24.889  11.025  1.00  0.00    -0.271 OA
HETATM   29  N2  UNL     1      51.046  23.896  12.790  1.00  0.00    -0.335 N 
ATOM     30  H2  UNL     1      50.952  23.730  13.792  1.00  0.00     0.168 HD
BRANCH  29  31
HETATM   31  C11 UNL     1      50.136  23.249  11.863  1.00  0.00     0.103 C 
BRANCH  31  32
HETATM   32  C12 UNL     1      50.424  21.867  11.551  1.00  0.00    -0.003 A 
HETATM   33  C13 UNL     1      51.660  21.349  11.242  1.00  0.00     0.088 A 
HETATM   34  C14 UNL     1      51.857  20.014  10.950  1.00  0.00     0.246 A 
HETATM   35  O3  UNL     1      53.008  19.625  10.681  1.00  0.00    -0.268 OA
HETATM   36  N3  UNL     1      50.846  19.151  10.954  1.00  0.00    -0.323 N 
HETATM   37  C15 UNL     1      49.611  19.611  11.252  1.00  0.00     0.046 A 
ATOM     38  H3  UNL     1      50.998  18.166  10.738  1.00  0.00     0.169 HD
HETATM   39  C16 UNL     1      48.564  18.705  11.257  1.00  0.00     0.032 A 
HETATM   40  C20 UNL     1      49.392  20.930  11.544  1.00  0.00     0.004 A 
HETATM   41  C17 UNL     1      47.295  19.124  11.556  1.00  0.00     0.026 A 
HETATM   42  C18 UNL     1      47.054  20.439  11.851  1.00  0.00     0.035 A 
HETATM   43 CL1  UNL     1      45.440  20.963  12.229  1.00  0.00    -0.084 Cl
HETATM   44  C19 UNL     1      48.108  21.347  11.845  1.00  0.00     0.038 A 
ENDBRANCH  31  32
ENDBRANCH  29  31
ENDBRANCH   1  27
TORSDOF 8
ENDMDL
