MODEL 5
REMARK VINA RESULT: -10.258613380      2.611      9.460
REMARK  4 active torsions:
REMARK  status: ('A' for Active; 'I' for Inactive)
REMARK    1  A    between atoms: N1_2  and  C3_4 
REMARK    2  A    between atoms: C14_16  and  C15_17 
REMARK    3  A    between atoms: C29_33  and  O2_34 
REMARK    4  A    between atoms: C30_36  and  O3_37 
ROOT
HETATM    1  C3  UNL     1       1.949  16.391  -5.204  1.00  0.00     0.256 C 
HETATM    2  C4  UNL     1       0.869  15.385  -5.173  1.00  0.00     0.081 C 
HETATM    3  C5  UNL     1       0.362  14.889  -6.473  1.00  0.00     0.090 C 
HETATM    4  C6  UNL     1       0.542  13.362  -6.477  1.00  0.00     0.046 C 
HETATM    5  C7  UNL     1      -0.737  12.884  -7.127  1.00  0.00     0.047 C 
HETATM    6  C8  UNL     1      -1.371  14.131  -7.588  1.00  0.00     0.093 C 
HETATM    7  O1  UNL     1      -1.025  15.064  -6.619  1.00  0.00    -0.359 OA
HETATM    8  C9  UNL     1      -0.809  14.531  -8.926  1.00  0.00    -0.027 C 
HETATM    9  C10 UNL     1      -1.473  14.438 -10.051  1.00  0.00    -0.016 C 
HETATM   10  C11 UNL     1      -2.859  13.932 -10.176  1.00  0.00     0.038 C 
HETATM   11  C12 UNL     1      -3.368  13.301  -8.896  1.00  0.00    -0.026 C 
HETATM   12  C13 UNL     1      -3.063  11.849  -8.856  1.00  0.00     0.016 C 
HETATM   13  C14 UNL     1      -4.868  13.501  -8.705  1.00  0.00     0.027 C 
HETATM   14  C24 UNL     1      -5.067  13.984  -7.287  1.00  0.00     0.010 C 
HETATM   15  C25 UNL     1      -3.696  13.782  -6.618  1.00  0.00     0.009 C 
HETATM   16  C26 UNL     1      -2.834  14.124  -7.769  1.00  0.00     0.034 C 
HETATM   17  C27 UNL     1       0.551  15.055  -8.851  1.00  0.00     0.018 C 
HETATM   18  C28 UNL     1       1.004  15.482  -7.660  1.00  0.00    -0.014 C 
HETATM   19  C29 UNL     1       2.086  16.491  -7.620  1.00  0.00     0.181 C 
HETATM   20  C30 UNL     1       1.837  17.329  -6.357  1.00  0.00     0.184 C 
ENDROOT
BRANCH  13  21
HETATM   21  C15 UNL     1      -5.676  12.320  -9.003  1.00  0.00    -0.052 A 
HETATM   22  C16 UNL     1      -5.925  11.363  -8.041  1.00  0.00     0.008 A 
HETATM   23  C17 UNL     1      -6.674  10.243  -8.332  1.00  0.00     0.013 A 
HETATM   24  C18 UNL     1      -7.196  10.051  -9.602  1.00  0.00    -0.023 A 
HETATM   25  C19 UNL     1      -7.951   8.933  -9.917  1.00  0.00     0.029 A 
HETATM   26  C22 UNL     1      -6.935  11.023 -10.552  1.00  0.00    -0.010 A 
HETATM   27  C20 UNL     1      -8.434   8.818 -11.204  1.00  0.00     0.088 A 
HETATM   28  N2  UNL     1      -8.160   9.782 -12.100  1.00  0.00    -0.374 N 
HETATM   29  C21 UNL     1      -7.443  10.868 -11.848  1.00  0.00     0.099 A 
ATOM     30  H2  UNL     1      -8.531   9.669 -13.044  1.00  0.00     0.164 HD
HETATM   31  C23 UNL     1      -6.186  12.155 -10.286  1.00  0.00     0.021 A 
ENDBRANCH  13  21
BRANCH  19  32
HETATM   32  O2  UNL     1       2.109  17.293  -8.750  1.00  0.00    -0.388 OA
ATOM     33  H2  UNL     1       2.290  18.204  -8.548  1.00  0.00     0.210 HD
ENDBRANCH  19  32
BRANCH   1  34
HETATM   34  N1  UNL     1       2.022  17.049  -3.919  1.00  0.00     0.087 N 
HETATM   35  C1  UNL     1       2.960  16.407  -3.024  1.00  0.00     0.310 C 
HETATM   36  C2  UNL     1       0.759  17.180  -3.263  1.00  0.00     0.310 C 
ENDBRANCH   1  34
BRANCH  20  37
HETATM   37  O3  UNL     1       2.771  18.331  -6.351  1.00  0.00    -0.390 OA
ATOM     38  H3  UNL     1       3.408  18.271  -7.054  1.00  0.00     0.210 HD
ENDBRANCH  20  37
TORSDOF 4
ENDMDL
