MODEL 4
REMARK VINA RESULT: -10.533022679      2.551      9.437
REMARK  4 active torsions:
REMARK  status: ('A' for Active; 'I' for Inactive)
REMARK    1  A    between atoms: N1_2  and  C3_4 
REMARK    2  A    between atoms: C14_16  and  C15_17 
REMARK    3  A    between atoms: C29_33  and  O2_34 
REMARK    4  A    between atoms: C30_36  and  O3_37 
ROOT
HETATM    1  C3  UNL     1       1.240  15.017  -3.412  1.00  0.00     0.256 C 
HETATM    2  C4  UNL     1       0.109  14.177  -3.854  1.00  0.00     0.081 C 
HETATM    3  C5  UNL     1      -0.087  14.010  -5.312  1.00  0.00     0.090 C 
HETATM    4  C6  UNL     1      -0.038  12.502  -5.606  1.00  0.00     0.046 C 
HETATM    5  C7  UNL     1      -1.144  12.332  -6.625  1.00  0.00     0.047 C 
HETATM    6  C8  UNL     1      -1.533  13.717  -6.937  1.00  0.00     0.093 C 
HETATM    7  O1  UNL     1      -1.371  14.394  -5.735  1.00  0.00    -0.359 OA
HETATM    8  C9  UNL     1      -0.617  14.286  -7.987  1.00  0.00    -0.027 C 
HETATM    9  C10 UNL     1      -0.975  14.499  -9.229  1.00  0.00    -0.016 C 
HETATM   10  C11 UNL     1      -2.321  14.216  -9.781  1.00  0.00     0.038 C 
HETATM   11  C12 UNL     1      -3.190  13.427  -8.824  1.00  0.00    -0.026 C 
HETATM   12  C13 UNL     1      -3.026  11.967  -9.031  1.00  0.00     0.016 C 
HETATM   13  C14 UNL     1      -4.667  13.786  -8.949  1.00  0.00     0.027 C 
HETATM   14  C24 UNL     1      -5.183  14.012  -7.547  1.00  0.00     0.010 C 
HETATM   15  C25 UNL     1      -4.050  13.505  -6.637  1.00  0.00     0.009 C 
HETATM   16  C26 UNL     1      -2.897  13.941  -7.452  1.00  0.00     0.034 C 
HETATM   17  C27 UNL     1       0.717  14.600  -7.485  1.00  0.00     0.018 C 
HETATM   18  C28 UNL     1       0.884  14.728  -6.158  1.00  0.00    -0.014 C 
HETATM   19  C29 UNL     1       1.999  15.556  -5.648  1.00  0.00     0.181 C 
HETATM   20  C30 UNL     1       1.505  16.164  -4.326  1.00  0.00     0.184 C 
ENDROOT
BRANCH  13  21
HETATM   21  C15 UNL     1      -5.467  12.802  -9.678  1.00  0.00    -0.052 A 
HETATM   22  C16 UNL     1      -5.663  12.908 -11.039  1.00  0.00     0.008 A 
HETATM   23  C17 UNL     1      -6.431  11.986 -11.718  1.00  0.00     0.013 A 
HETATM   24  C18 UNL     1      -7.025  10.928 -11.048  1.00  0.00    -0.023 A 
HETATM   25  C19 UNL     1      -7.801   9.991 -11.709  1.00  0.00     0.029 A 
HETATM   26  C22 UNL     1      -6.815  10.841  -9.682  1.00  0.00    -0.010 A 
HETATM   27  C20 UNL     1      -8.357   8.970 -10.969  1.00  0.00     0.088 A 
HETATM   28  N2  UNL     1      -8.132   8.916  -9.644  1.00  0.00    -0.374 N 
HETATM   29  C21 UNL     1      -7.398   9.788  -8.967  1.00  0.00     0.099 A 
ATOM     30  H2  UNL     1      -8.556   8.149  -9.123  1.00  0.00     0.164 HD
HETATM   31  C23 UNL     1      -6.050  11.753  -8.978  1.00  0.00     0.021 A 
ENDBRANCH  13  21
BRANCH  19  32
HETATM   32  O2  UNL     1       2.377  16.548  -6.539  1.00  0.00    -0.388 OA
ATOM     33  H2  UNL     1       2.511  16.217  -7.419  1.00  0.00     0.210 HD
ENDBRANCH  19  32
BRANCH   1  34
HETATM   34  N1  UNL     1       1.037  15.402  -2.034  1.00  0.00     0.087 N 
HETATM   35  C1  UNL     1       0.438  14.345  -1.248  1.00  0.00     0.310 C 
HETATM   36  C2  UNL     1       0.271  16.599  -1.875  1.00  0.00     0.310 C 
ENDBRANCH   1  34
BRANCH  20  37
HETATM   37  O3  UNL     1       2.486  17.013  -3.885  1.00  0.00    -0.390 OA
ATOM     38  H3  UNL     1       2.266  17.934  -3.967  1.00  0.00     0.210 HD
ENDBRANCH  20  37
TORSDOF 4
ENDMDL
