MODEL 3
REMARK VINA RESULT: -10.618276921      2.555      9.450
REMARK  4 active torsions:
REMARK  status: ('A' for Active; 'I' for Inactive)
REMARK    1  A    between atoms: N1_2  and  C3_4 
REMARK    2  A    between atoms: C14_16  and  C15_17 
REMARK    3  A    between atoms: C29_33  and  O2_34 
REMARK    4  A    between atoms: C30_36  and  O3_37 
ROOT
HETATM    1  C3  UNL     1       1.513  15.856  -4.894  1.00  0.00     0.256 C 
HETATM    2  C4  UNL     1       0.381  14.938  -5.132  1.00  0.00     0.081 C 
HETATM    3  C5  UNL     1       0.060  14.601  -6.537  1.00  0.00     0.090 C 
HETATM    4  C6  UNL     1       0.142  13.072  -6.667  1.00  0.00     0.046 C 
HETATM    5  C7  UNL     1      -1.044  12.755  -7.552  1.00  0.00     0.047 C 
HETATM    6  C8  UNL     1      -1.516  14.083  -7.976  1.00  0.00     0.093 C 
HETATM    7  O1  UNL     1      -1.272  14.896  -6.876  1.00  0.00    -0.359 OA
HETATM    8  C9  UNL     1      -0.723  14.557  -9.165  1.00  0.00    -0.027 C 
HETATM    9  C10 UNL     1      -1.201  14.617 -10.382  1.00  0.00    -0.016 C 
HETATM   10  C11 UNL     1      -2.579  14.233 -10.769  1.00  0.00     0.038 C 
HETATM   11  C12 UNL     1      -3.325  13.532  -9.653  1.00  0.00    -0.026 C 
HETATM   12  C13 UNL     1      -3.122  12.063  -9.714  1.00  0.00     0.016 C 
HETATM   13  C14 UNL     1      -4.821  13.830  -9.676  1.00  0.00     0.027 C 
HETATM   14  C24 UNL     1      -5.214  14.198  -8.264  1.00  0.00     0.010 C 
HETATM   15  C25 UNL     1      -3.984  13.831  -7.416  1.00  0.00     0.009 C 
HETATM   16  C26 UNL     1      -2.929  14.207  -8.380  1.00  0.00     0.034 C 
HETATM   17  C27 UNL     1       0.638  14.965  -8.829  1.00  0.00     0.018 C 
HETATM   18  C28 UNL     1       0.919  15.247  -7.546  1.00  0.00    -0.014 C 
HETATM   19  C29 UNL     1       2.042  16.161  -7.238  1.00  0.00     0.181 C 
HETATM   20  C30 UNL     1       1.647  16.899  -5.950  1.00  0.00     0.184 C 
ENDROOT
BRANCH  13  21
HETATM   21  C15 UNL     1      -5.643  12.747 -10.213  1.00  0.00    -0.052 A 
HETATM   22  C16 UNL     1      -5.962  12.690 -11.554  1.00  0.00     0.008 A 
HETATM   23  C17 UNL     1      -6.751  11.675 -12.052  1.00  0.00     0.013 A 
HETATM   24  C18 UNL     1      -7.243  10.685 -11.215  1.00  0.00    -0.023 A 
HETATM   25  C19 UNL     1      -8.037   9.656 -11.693  1.00  0.00     0.029 A 
HETATM   26  C22 UNL     1      -6.910  10.761  -9.873  1.00  0.00    -0.010 A 
HETATM   27  C20 UNL     1      -8.486   8.712 -10.794  1.00  0.00     0.088 A 
HETATM   28  N2  UNL     1      -8.143   8.818  -9.498  1.00  0.00    -0.374 N 
HETATM   29  C21 UNL     1      -7.387   9.782  -8.993  1.00  0.00     0.099 A 
ATOM     30  H2  UNL     1      -8.490   8.104  -8.858  1.00  0.00     0.164 HD
HETATM   31  C23 UNL     1      -6.121  11.769  -9.349  1.00  0.00     0.021 A 
ENDBRANCH  13  21
BRANCH  19  32
HETATM   32  O2  UNL     1       2.297  17.057  -8.265  1.00  0.00    -0.388 OA
ATOM     33  H2  UNL     1       2.141  16.682  -9.123  1.00  0.00     0.210 HD
ENDBRANCH  19  32
BRANCH   1  34
HETATM   34  N1  UNL     1       1.420  16.388  -3.554  1.00  0.00     0.087 N 
HETATM   35  C1  UNL     1       1.577  15.365  -2.542  1.00  0.00     0.310 C 
HETATM   36  C2  UNL     1       0.217  17.118  -3.303  1.00  0.00     0.310 C 
ENDBRANCH   1  34
BRANCH  20  37
HETATM   37  O3  UNL     1       2.629  17.821  -5.700  1.00  0.00    -0.390 OA
ATOM     38  H3  UNL     1       2.946  18.268  -6.477  1.00  0.00     0.210 HD
ENDBRANCH  20  37
TORSDOF 4
ENDMDL
