MODEL 8
REMARK VINA RESULT: -9.079193051      1.403      1.640
REMARK  4 active torsions:
REMARK  status: ('A' for Active; 'I' for Inactive)
REMARK    1  A    between atoms: N1_2  and  C3_4 
REMARK    2  A    between atoms: C14_16  and  C15_17 
REMARK    3  A    between atoms: C29_33  and  O2_34 
REMARK    4  A    between atoms: C30_36  and  O3_37 
ROOT
HETATM    1  C3  UNL     1      -6.538  11.955 -12.013  1.00  0.00     0.256 C 
HETATM    2  C4  UNL     1      -6.011  12.139 -10.646  1.00  0.00     0.081 C 
HETATM    3  C5  UNL     1      -4.843  13.033 -10.481  1.00  0.00     0.090 C 
HETATM    4  C6  UNL     1      -5.251  14.135  -9.491  1.00  0.00     0.046 C 
HETATM    5  C7  UNL     1      -4.008  14.289  -8.642  1.00  0.00     0.047 C 
HETATM    6  C8  UNL     1      -3.015  13.456  -9.340  1.00  0.00     0.093 C 
HETATM    7  O1  UNL     1      -3.758  12.399  -9.850  1.00  0.00    -0.359 OA
HETATM    8  C9  UNL     1      -2.380  14.239 -10.459  1.00  0.00    -0.027 C 
HETATM    9  C10 UNL     1      -1.151  14.689 -10.426  1.00  0.00    -0.016 C 
HETATM   10  C11 UNL     1      -0.211  14.499  -9.297  1.00  0.00     0.038 C 
HETATM   11  C12 UNL     1      -0.884  13.929  -8.066  1.00  0.00    -0.026 C 
HETATM   12  C13 UNL     1      -1.395  15.009  -7.186  1.00  0.00     0.016 C 
HETATM   13  C14 UNL     1       0.045  13.027  -7.260  1.00  0.00     0.027 C 
HETATM   14  C24 UNL     1      -0.727  11.763  -6.958  1.00  0.00     0.010 C 
HETATM   15  C25 UNL     1      -2.174  12.093  -7.365  1.00  0.00     0.009 C 
HETATM   16  C26 UNL     1      -1.888  12.932  -8.547  1.00  0.00     0.034 C 
HETATM   17  C27 UNL     1      -3.264  14.435 -11.604  1.00  0.00     0.018 C 
HETATM   18  C28 UNL     1      -4.332  13.630 -11.729  1.00  0.00    -0.014 C 
HETATM   19  C29 UNL     1      -4.910  13.402 -13.072  1.00  0.00     0.181 C 
HETATM   20  C30 UNL     1      -5.472  11.973 -13.055  1.00  0.00     0.184 C 
ENDROOT
BRANCH  13  21
HETATM   21  C15 UNL     1       0.585  13.645  -6.050  1.00  0.00    -0.052 A 
HETATM   22  C16 UNL     1       0.190  13.224  -4.796  1.00  0.00     0.008 A 
HETATM   23  C17 UNL     1       0.690  13.821  -3.659  1.00  0.00     0.013 A 
HETATM   24  C18 UNL     1       1.603  14.861  -3.748  1.00  0.00    -0.023 A 
HETATM   25  C19 UNL     1       2.118  15.476  -2.619  1.00  0.00     0.029 A 
HETATM   26  C22 UNL     1       1.985  15.267  -5.015  1.00  0.00    -0.010 A 
HETATM   27  C20 UNL     1       3.021  16.503  -2.794  1.00  0.00     0.088 A 
HETATM   28  N2  UNL     1       3.369  16.871  -4.039  1.00  0.00    -0.374 N 
HETATM   29  C21 UNL     1       2.904  16.314  -5.149  1.00  0.00     0.099 A 
ATOM     30  H2  UNL     1       4.039  17.633  -4.137  1.00  0.00     0.164 HD
HETATM   31  C23 UNL     1       1.498  14.685  -6.171  1.00  0.00     0.021 A 
ENDBRANCH  13  21
BRANCH  19  32
HETATM   32  O2  UNL     1      -3.978  13.557 -14.086  1.00  0.00    -0.388 OA
ATOM     33  H2  UNL     1      -4.314  14.061 -14.818  1.00  0.00     0.210 HD
ENDBRANCH  19  32
BRANCH   1  34
HETATM   34  N1  UNL     1      -7.370  10.774 -12.047  1.00  0.00     0.087 N 
HETATM   35  C1  UNL     1      -8.781  11.093 -12.058  1.00  0.00     0.310 C 
HETATM   36  C2  UNL     1      -7.103   9.848 -10.990  1.00  0.00     0.310 C 
ENDBRANCH   1  34
BRANCH  20  37
HETATM   37  O3  UNL     1      -5.925  11.706 -14.320  1.00  0.00    -0.390 OA
ATOM     38  H3  UNL     1      -5.234  11.604 -14.965  1.00  0.00     0.210 HD
ENDBRANCH  20  37
TORSDOF 4
ENDMDL
