MODEL 1
REMARK VINA RESULT: -10.995901354      0.000      0.000
REMARK  4 active torsions:
REMARK  status: ('A' for Active; 'I' for Inactive)
REMARK    1  A    between atoms: N1_2  and  C3_4 
REMARK    2  A    between atoms: C14_16  and  C15_17 
REMARK    3  A    between atoms: C29_33  and  O2_34 
REMARK    4  A    between atoms: C30_36  and  O3_37 
ROOT
HETATM    1  C3  UNL     1      -6.915  11.384  -9.782  1.00  0.00     0.256 C 
HETATM    2  C4  UNL     1      -6.149  11.745  -8.573  1.00  0.00     0.081 C 
HETATM    3  C5  UNL     1      -5.012  12.679  -8.739  1.00  0.00     0.090 C 
HETATM    4  C6  UNL     1      -5.277  13.884  -7.823  1.00  0.00     0.046 C 
HETATM    5  C7  UNL     1      -3.905  14.169  -7.253  1.00  0.00     0.047 C 
HETATM    6  C8  UNL     1      -3.024  13.279  -8.027  1.00  0.00     0.093 C 
HETATM    7  O1  UNL     1      -3.801  12.152  -8.259  1.00  0.00    -0.359 OA
HETATM    8  C9  UNL     1      -2.647  13.933  -9.330  1.00  0.00    -0.027 C 
HETATM    9  C10 UNL     1      -1.455  14.412  -9.586  1.00  0.00    -0.016 C 
HETATM   10  C11 UNL     1      -0.312  14.383  -8.644  1.00  0.00     0.038 C 
HETATM   11  C12 UNL     1      -0.715  13.952  -7.249  1.00  0.00    -0.026 C 
HETATM   12  C13 UNL     1      -1.100  15.120  -6.418  1.00  0.00     0.016 C 
HETATM   13  C14 UNL     1       0.389  13.176  -6.538  1.00  0.00     0.027 C 
HETATM   14  C24 UNL     1      -0.255  11.942  -5.949  1.00  0.00     0.010 C 
HETATM   15  C25 UNL     1      -1.766  12.187  -6.106  1.00  0.00     0.009 C 
HETATM   16  C26 UNL     1      -1.745  12.882  -7.410  1.00  0.00     0.034 C 
HETATM   17  C27 UNL     1      -3.738  13.969 -10.299  1.00  0.00     0.018 C 
HETATM   18  C28 UNL     1      -4.773  13.131 -10.122  1.00  0.00    -0.014 C 
HETATM   19  C29 UNL     1      -5.582  12.727 -11.294  1.00  0.00     0.181 C 
HETATM   20  C30 UNL     1      -6.065  11.298 -11.004  1.00  0.00     0.184 C 
ENDROOT
BRANCH  13  21
HETATM   21  C15 UNL     1       1.117  13.950  -5.533  1.00  0.00    -0.052 A 
HETATM   22  C16 UNL     1       0.648  14.064  -4.241  1.00  0.00     0.008 A 
HETATM   23  C17 UNL     1       1.330  14.808  -3.303  1.00  0.00     0.013 A 
HETATM   24  C18 UNL     1       2.508  15.460  -3.636  1.00  0.00    -0.023 A 
HETATM   25  C19 UNL     1       3.210  16.213  -2.709  1.00  0.00     0.029 A 
HETATM   26  C22 UNL     1       2.961  15.332  -4.937  1.00  0.00    -0.010 A 
HETATM   27  C20 UNL     1       4.372  16.830  -3.121  1.00  0.00     0.088 A 
HETATM   28  N2  UNL     1       4.782  16.683  -4.393  1.00  0.00    -0.374 N 
HETATM   29  C21 UNL     1       4.146  15.975  -5.315  1.00  0.00     0.099 A 
ATOM     30  H2  UNL     1       5.645  17.151  -4.668  1.00  0.00     0.164 HD
HETATM   31  C23 UNL     1       2.294  14.592  -5.898  1.00  0.00     0.021 A 
ENDBRANCH  13  21
BRANCH  19  32
HETATM   32  O2  UNL     1      -4.865  12.777 -12.479  1.00  0.00    -0.388 OA
ATOM     33  H2  UNL     1      -4.508  11.932 -12.726  1.00  0.00     0.210 HD
ENDBRANCH  19  32
BRANCH   1  34
HETATM   34  N1  UNL     1      -7.683  10.189  -9.519  1.00  0.00     0.087 N 
HETATM   35  C1  UNL     1      -8.573  10.343  -8.389  1.00  0.00     0.310 C 
HETATM   36  C2  UNL     1      -6.885   9.016  -9.335  1.00  0.00     0.310 C 
ENDBRANCH   1  34
BRANCH  20  37
HETATM   37  O3  UNL     1      -6.735  10.869 -12.119  1.00  0.00    -0.390 OA
ATOM     38  H3  UNL     1      -6.264  10.217 -12.626  1.00  0.00     0.210 HD
ENDBRANCH  20  37
TORSDOF 4
ENDMDL
