MODEL 2
REMARK VINA RESULT: -10.929184035      0.912      1.494
REMARK  4 active torsions:
REMARK  status: ('A' for Active; 'I' for Inactive)
REMARK    1  A    between atoms: N1_2  and  C3_4 
REMARK    2  A    between atoms: C14_16  and  C15_17 
REMARK    3  A    between atoms: C29_33  and  O2_34 
REMARK    4  A    between atoms: C30_36  and  O3_37 
ROOT
HETATM    1  C3  UNL     1      -6.769  11.383  -9.883  1.00  0.00     0.256 C 
HETATM    2  C4  UNL     1      -6.028  11.745  -8.658  1.00  0.00     0.081 C 
HETATM    3  C5  UNL     1      -4.910  12.705  -8.797  1.00  0.00     0.090 C 
HETATM    4  C6  UNL     1      -5.213  13.892  -7.869  1.00  0.00     0.046 C 
HETATM    5  C7  UNL     1      -3.856  14.199  -7.276  1.00  0.00     0.047 C 
HETATM    6  C8  UNL     1      -2.945  13.339  -8.050  1.00  0.00     0.093 C 
HETATM    7  O1  UNL     1      -3.694  12.198  -8.307  1.00  0.00    -0.359 OA
HETATM    8  C9  UNL     1      -2.565  14.019  -9.339  1.00  0.00    -0.027 C 
HETATM    9  C10 UNL     1      -1.381  14.527  -9.572  1.00  0.00    -0.016 C 
HETATM   10  C11 UNL     1      -0.250  14.510  -8.615  1.00  0.00     0.038 C 
HETATM   11  C12 UNL     1      -0.662  14.052  -7.232  1.00  0.00    -0.026 C 
HETATM   12  C13 UNL     1      -1.084  15.200  -6.391  1.00  0.00     0.016 C 
HETATM   13  C14 UNL     1       0.449  13.291  -6.516  1.00  0.00     0.027 C 
HETATM   14  C24 UNL     1      -0.175  12.035  -5.952  1.00  0.00     0.010 C 
HETATM   15  C25 UNL     1      -1.689  12.249  -6.126  1.00  0.00     0.009 C 
HETATM   16  C26 UNL     1      -1.666  12.962  -7.421  1.00  0.00     0.034 C 
HETATM   17  C27 UNL     1      -3.644  14.043 -10.322  1.00  0.00     0.018 C 
HETATM   18  C28 UNL     1      -4.662  13.180 -10.171  1.00  0.00    -0.014 C 
HETATM   19  C29 UNL     1      -5.446  12.775 -11.359  1.00  0.00     0.181 C 
HETATM   20  C30 UNL     1      -5.902  11.332 -11.094  1.00  0.00     0.184 C 
ENDROOT
BRANCH  13  21
HETATM   21  C15 UNL     1       1.147  14.067  -5.491  1.00  0.00    -0.052 A 
HETATM   22  C16 UNL     1       2.335  14.711  -5.769  1.00  0.00     0.008 A 
HETATM   23  C17 UNL     1       2.997  15.428  -4.795  1.00  0.00     0.013 A 
HETATM   24  C18 UNL     1       2.483  15.518  -3.511  1.00  0.00    -0.023 A 
HETATM   25  C19 UNL     1       3.132  16.232  -2.517  1.00  0.00     0.029 A 
HETATM   26  C22 UNL     1       1.291  14.865  -3.253  1.00  0.00    -0.010 A 
HETATM   27  C20 UNL     1       2.554  16.272  -1.265  1.00  0.00     0.088 A 
HETATM   28  N2  UNL     1       1.395  15.626  -1.052  1.00  0.00    -0.374 N 
HETATM   29  C21 UNL     1       0.738  14.930  -1.969  1.00  0.00     0.099 A 
ATOM     30  H2  UNL     1       0.993  15.674  -0.116  1.00  0.00     0.164 HD
HETATM   31  C23 UNL     1       0.607  14.139  -4.213  1.00  0.00     0.021 A 
ENDBRANCH  13  21
BRANCH  19  32
HETATM   32  O2  UNL     1      -4.714  12.856 -12.533  1.00  0.00    -0.388 OA
ATOM     33  H2  UNL     1      -5.266  12.917 -13.304  1.00  0.00     0.210 HD
ENDBRANCH  19  32
BRANCH   1  34
HETATM   34  N1  UNL     1      -7.514  10.168  -9.646  1.00  0.00     0.087 N 
HETATM   35  C1  UNL     1      -8.568  10.348  -8.671  1.00  0.00     0.310 C 
HETATM   36  C2  UNL     1      -6.702   9.056  -9.261  1.00  0.00     0.310 C 
ENDBRANCH   1  34
BRANCH  20  37
HETATM   37  O3  UNL     1      -6.547  10.903 -12.224  1.00  0.00    -0.390 OA
ATOM     38  H3  UNL     1      -6.021  10.956 -13.013  1.00  0.00     0.210 HD
ENDBRANCH  20  37
TORSDOF 4
ENDMDL
