MODEL 12
REMARK VINA RESULT: -4.350088015      2.395      4.507
REMARK  4 active torsions:
REMARK  status: ('A' for Active; 'I' for Inactive)
REMARK    1  A    between atoms: O1_2  and  C2_3 
REMARK    2  A    between atoms: C5_7  and  O3_8 
REMARK    3  A    between atoms: C6_10  and  O4_11 
REMARK    4  A    between atoms: C7_13  and  O5_14 
ROOT
HETATM    1  C2  UNL     1     -12.881  -6.893  40.012  1.00  0.00     0.290 C 
HETATM    2  O2  UNL     1     -12.344  -5.651  40.210  1.00  0.00    -0.351 OA
HETATM    3  C3  UNL     1     -13.146  -4.692  40.734  1.00  0.00     0.152 C 
HETATM    4  C4  UNL     1     -12.366  -3.386  40.743  1.00  0.00     0.042 C 
HETATM    5  C5  UNL     1     -14.399  -4.445  39.936  1.00  0.00     0.178 C 
HETATM    6  C6  UNL     1     -15.002  -5.684  39.378  1.00  0.00     0.183 C 
HETATM    7  C7  UNL     1     -14.343  -6.957  39.777  1.00  0.00     0.204 C 
ENDROOT
BRANCH   1   8
HETATM    8  O1  UNL     1     -12.406  -7.745  40.976  1.00  0.00    -0.363 OA
HETATM    9  C1  UNL     1     -11.102  -7.584  41.343  1.00  0.00     0.204 C 
ENDBRANCH   1   8
BRANCH   7  10
HETATM   10  O5  UNL     1     -15.041  -7.478  40.896  1.00  0.00    -0.388 OA
ATOM     11  H5  UNL     1     -15.868  -7.875  40.649  1.00  0.00     0.210 HD
ENDBRANCH   7  10
BRANCH   6  12
HETATM   12  O4  UNL     1     -15.085  -5.543  37.975  1.00  0.00    -0.390 OA
ATOM     13  H4  UNL     1     -15.971  -5.758  37.705  1.00  0.00     0.210 HD
ENDBRANCH   6  12
BRANCH   5  14
HETATM   14  O3  UNL     1     -14.059  -3.532  38.911  1.00  0.00    -0.390 OA
ATOM     15  H3  UNL     1     -13.142  -3.314  39.031  1.00  0.00     0.210 HD
ENDBRANCH   5  14
TORSDOF 4
ENDMDL
