MODEL 10
REMARK VINA RESULT: -4.489003663      2.661      5.420
REMARK  4 active torsions:
REMARK  status: ('A' for Active; 'I' for Inactive)
REMARK    1  A    between atoms: O1_2  and  C2_3 
REMARK    2  A    between atoms: C5_7  and  O3_8 
REMARK    3  A    between atoms: C6_10  and  O4_11 
REMARK    4  A    between atoms: C7_13  and  O5_14 
ROOT
HETATM    1  C2  UNL     1     -15.067  -6.320  39.089  1.00  0.00     0.290 C 
HETATM    2  O2  UNL     1     -13.917  -7.004  39.377  1.00  0.00    -0.351 OA
HETATM    3  C3  UNL     1     -13.333  -6.780  40.579  1.00  0.00     0.152 C 
HETATM    4  C4  UNL     1     -12.023  -7.552  40.610  1.00  0.00     0.042 C 
HETATM    5  C5  UNL     1     -12.992  -5.334  40.829  1.00  0.00     0.178 C 
HETATM    6  C6  UNL     1     -14.018  -4.385  40.322  1.00  0.00     0.183 C 
HETATM    7  C7  UNL     1     -15.244  -5.007  39.753  1.00  0.00     0.204 C 
ENDROOT
BRANCH   1   8
HETATM    8  O1  UNL     1     -16.134  -7.175  39.191  1.00  0.00    -0.363 OA
HETATM    9  C1  UNL     1     -16.749  -7.525  38.024  1.00  0.00     0.204 C 
ENDBRANCH   1   8
BRANCH   7  10
HETATM   10  O5  UNL     1     -16.224  -5.055  40.776  1.00  0.00    -0.388 OA
ATOM     11  H5  UNL     1     -16.028  -5.715  41.430  1.00  0.00     0.210 HD
ENDBRANCH   7  10
BRANCH   6  12
HETATM   12  O4  UNL     1     -13.394  -3.504  39.411  1.00  0.00    -0.390 OA
ATOM     13  H4  UNL     1     -14.053  -2.906  39.077  1.00  0.00     0.210 HD
ENDBRANCH   6  12
BRANCH   5  14
HETATM   14  O3  UNL     1     -11.734  -5.100  40.228  1.00  0.00    -0.390 OA
ATOM     15  H3  UNL     1     -11.770  -4.233  39.843  1.00  0.00     0.210 HD
ENDBRANCH   5  14
TORSDOF 4
ENDMDL
