MODEL 2
REMARK VINA RESULT: -5.096096580      1.499      2.875
REMARK  4 active torsions:
REMARK  status: ('A' for Active; 'I' for Inactive)
REMARK    1  A    between atoms: O1_2  and  C2_3 
REMARK    2  A    between atoms: C5_7  and  O3_8 
REMARK    3  A    between atoms: C6_10  and  O4_11 
REMARK    4  A    between atoms: C7_13  and  O5_14 
ROOT
HETATM    1  C2  UNL     1     -12.165  -3.802  40.792  1.00  0.00     0.290 C 
HETATM    2  O2  UNL     1     -12.183  -5.104  40.373  1.00  0.00    -0.351 OA
HETATM    3  C3  UNL     1     -12.016  -6.070  41.309  1.00  0.00     0.152 C 
HETATM    4  C4  UNL     1     -11.951  -7.409  40.588  1.00  0.00     0.042 C 
HETATM    5  C5  UNL     1     -10.740  -5.939  42.098  1.00  0.00     0.178 C 
HETATM    6  C6  UNL     1     -10.385  -4.532  42.424  1.00  0.00     0.183 C 
HETATM    7  C7  UNL     1     -11.383  -3.506  42.015  1.00  0.00     0.204 C 
ENDROOT
BRANCH   1   8
HETATM    8  O1  UNL     1     -13.447  -3.312  40.786  1.00  0.00    -0.363 OA
HETATM    9  C1  UNL     1     -14.202  -3.593  39.684  1.00  0.00     0.204 C 
ENDBRANCH   1   8
BRANCH   7  10
HETATM   10  O5  UNL     1     -12.216  -3.239  43.131  1.00  0.00    -0.388 OA
ATOM     11  H5  UNL     1     -11.991  -3.775  43.882  1.00  0.00     0.210 HD
ENDBRANCH   7  10
BRANCH   6  12
HETATM   12  O4  UNL     1      -9.101  -4.266  41.897  1.00  0.00    -0.390 OA
ATOM     13  H4  UNL     1      -8.932  -4.887  41.198  1.00  0.00     0.210 HD
ENDBRANCH   6  12
BRANCH   5  14
HETATM   14  O3  UNL     1      -9.723  -6.563  41.340  1.00  0.00    -0.390 OA
ATOM     15  H3  UNL     1     -10.041  -7.430  41.115  1.00  0.00     0.210 HD
ENDBRANCH   5  14
TORSDOF 4
ENDMDL
