MODEL 7
REMARK VINA RESULT: -4.929741776      1.715      2.349
REMARK  4 active torsions:
REMARK  status: ('A' for Active; 'I' for Inactive)
REMARK    1  A    between atoms: O1_2  and  C2_3 
REMARK    2  A    between atoms: C5_7  and  O3_8 
REMARK    3  A    between atoms: C6_10  and  O4_11 
REMARK    4  A    between atoms: C7_13  and  O5_14 
ROOT
HETATM    1  C2  UNL     1     -12.473  -3.895  40.581  1.00  0.00     0.290 C 
HETATM    2  O2  UNL     1     -13.154  -4.981  40.103  1.00  0.00    -0.351 OA
HETATM    3  C3  UNL     1     -13.131  -6.116  40.842  1.00  0.00     0.152 C 
HETATM    4  C4  UNL     1     -13.846  -7.201  40.050  1.00  0.00     0.042 C 
HETATM    5  C5  UNL     1     -11.744  -6.629  41.127  1.00  0.00     0.178 C 
HETATM    6  C6  UNL     1     -10.758  -5.550  41.405  1.00  0.00     0.183 C 
HETATM    7  C7  UNL     1     -11.312  -4.171  41.459  1.00  0.00     0.204 C 
ENDROOT
BRANCH   1   8
HETATM    8  O1  UNL     1     -13.373  -2.984  41.073  1.00  0.00    -0.363 OA
HETATM    9  C1  UNL     1     -14.367  -2.589  40.224  1.00  0.00     0.204 C 
ENDBRANCH   1   8
BRANCH   7  10
HETATM   10  O5  UNL     1     -11.583  -3.862  42.816  1.00  0.00    -0.388 OA
ATOM     11  H5  UNL     1     -10.990  -4.307  43.410  1.00  0.00     0.210 HD
ENDBRANCH   7  10
BRANCH   6  12
HETATM   12  O4  UNL     1      -9.702  -5.666  40.473  1.00  0.00    -0.390 OA
ATOM     13  H4  UNL     1      -8.888  -5.754  40.955  1.00  0.00     0.210 HD
ENDBRANCH   6  12
BRANCH   5  14
HETATM   14  O3  UNL     1     -11.356  -7.404  40.010  1.00  0.00    -0.390 OA
ATOM     15  H3  UNL     1     -11.943  -8.150  39.977  1.00  0.00     0.210 HD
ENDBRANCH   5  14
TORSDOF 4
ENDMDL
