MODEL 6
REMARK VINA RESULT: -7.434788451      1.815      2.134
REMARK  10 active torsions:
REMARK  status: ('A' for Active; 'I' for Inactive)
REMARK    1  A    between atoms: N1_2  and  S1_4 
REMARK    2  A    between atoms: S1_4  and  C2_7 
REMARK    3  A    between atoms: C5_10  and  C6_11 
REMARK    4  A    between atoms: C9_14  and  O3_15 
REMARK    5  A    between atoms: O3_15  and  C10_16 
REMARK    6  A    between atoms: C11_18  and  C12_19 
REMARK    7  A    between atoms: C12_19  and  O5_20 
REMARK    8  A    between atoms: C13_22  and  O6_23 
REMARK    9  A    between atoms: C14_25  and  O7_26 
REMARK   10  A    between atoms: C15_28  and  O8_29 
ROOT
HETATM    1  C6  UNL     1      -7.236  48.491 -12.234  1.00  0.00    -0.026 A 
HETATM    2  C7  UNL     1      -6.526  47.320 -11.980  1.00  0.00     0.015 A 
HETATM    3  C8  UNL     1      -5.178  47.324 -11.727  1.00  0.00     0.038 A 
HETATM    4  C9  UNL     1      -4.505  48.537 -11.728  1.00  0.00     0.072 A 
HETATM    5  C16 UNL     1      -5.181  49.703 -11.975  1.00  0.00     0.038 A 
HETATM    6  C17 UNL     1      -6.540  49.673 -12.226  1.00  0.00     0.015 A 
ENDROOT
BRANCH   4   7
HETATM    7  O3  UNL     1      -3.163  48.515 -11.474  1.00  0.00    -0.318 OA
BRANCH   7   8
HETATM    8  C10 UNL     1      -2.513  48.396 -10.251  1.00  0.00     0.298 C 
HETATM    9  O4  UNL     1      -3.226  49.143  -9.316  1.00  0.00    -0.348 OA
HETATM   10  C11 UNL     1      -3.112  48.575  -8.069  1.00  0.00     0.179 C 
HETATM   11  C13 UNL     1      -1.702  48.131  -7.809  1.00  0.00     0.180 C 
HETATM   12  C14 UNL     1      -1.464  46.877  -8.653  1.00  0.00     0.183 C 
HETATM   13  C15 UNL     1      -2.409  46.934  -9.813  1.00  0.00     0.205 C 
BRANCH  10  14
HETATM   14  C12 UNL     1      -3.635  49.480  -6.975  1.00  0.00     0.198 C 
BRANCH  14  15
HETATM   15  O5  UNL     1      -2.919  50.677  -7.006  1.00  0.00    -0.398 OA
ATOM     16  H5  UNL     1      -2.821  50.996  -6.117  1.00  0.00     0.209 HD
ENDBRANCH  14  15
ENDBRANCH  10  14
BRANCH  11  17
HETATM   17  O6  UNL     1      -1.526  47.793  -6.459  1.00  0.00    -0.390 OA
ATOM     18  H6  UNL     1      -1.389  46.859  -6.360  1.00  0.00     0.210 HD
ENDBRANCH  11  17
BRANCH  12  19
HETATM   19  O7  UNL     1      -0.141  46.895  -9.136  1.00  0.00    -0.390 OA
ATOM     20  H7  UNL     1       0.227  46.022  -9.063  1.00  0.00     0.210 HD
ENDBRANCH  12  19
BRANCH  13  21
HETATM   21  O8  UNL     1      -1.828  46.261 -10.912  1.00  0.00    -0.388 OA
ATOM     22  H8  UNL     1      -1.395  45.503 -10.537  1.00  0.00     0.210 HD
ENDBRANCH  13  21
ENDBRANCH   7   8
ENDBRANCH   4   7
BRANCH   1  23
HETATM   23  C5  UNL     1      -8.670  48.453 -12.499  1.00  0.00    -0.026 A 
HETATM   24  C4  UNL     1      -9.454  47.551 -11.777  1.00  0.00     0.014 A 
HETATM   25  C3  UNL     1     -10.805  47.458 -11.969  1.00  0.00     0.026 A 
HETATM   26  C2  UNL     1     -11.445  48.273 -12.907  1.00  0.00     0.079 A 
HETATM   27  C19 UNL     1     -10.675  49.163 -13.622  1.00  0.00     0.026 A 
HETATM   28  C18 UNL     1      -9.299  49.252 -13.418  1.00  0.00     0.014 A 
BRANCH  26  29
HETATM   29  S1  UNL     1     -13.174  48.152 -13.151  1.00  0.00     0.258 S 
HETATM   30  O1  UNL     1     -13.464  47.195 -14.300  1.00  0.00    -0.201 OA
HETATM   31  O2  UNL     1     -13.761  49.505 -13.458  1.00  0.00    -0.201 OA
BRANCH  29  32
HETATM   32  N1  UNL     1     -13.944  47.548 -11.747  1.00  0.00    -0.320 N 
HETATM   33  C1  UNL     1     -14.482  46.222 -11.930  1.00  0.00     0.159 C 
ATOM     34  H1  UNL     1     -14.015  48.071 -10.874  1.00  0.00     0.171 HD
ENDBRANCH  29  32
ENDBRANCH  26  29
ENDBRANCH   1  23
TORSDOF 10
ENDMDL
