MODEL 2
REMARK VINA RESULT: -7.900320808      0.991      1.561
REMARK  10 active torsions:
REMARK  status: ('A' for Active; 'I' for Inactive)
REMARK    1  A    between atoms: N1_2  and  S1_4 
REMARK    2  A    between atoms: S1_4  and  C2_7 
REMARK    3  A    between atoms: C5_10  and  C6_11 
REMARK    4  A    between atoms: C9_14  and  O3_15 
REMARK    5  A    between atoms: O3_15  and  C10_16 
REMARK    6  A    between atoms: C11_18  and  C12_19 
REMARK    7  A    between atoms: C12_19  and  O5_20 
REMARK    8  A    between atoms: C13_22  and  O6_23 
REMARK    9  A    between atoms: C14_25  and  O7_26 
REMARK   10  A    between atoms: C15_28  and  O8_29 
ROOT
HETATM    1  C6  UNL     1      -8.001  46.995 -11.061  1.00  0.00    -0.026 A 
HETATM    2  C7  UNL     1      -7.385  48.181 -11.451  1.00  0.00     0.015 A 
HETATM    3  C8  UNL     1      -6.021  48.319 -11.483  1.00  0.00     0.038 A 
HETATM    4  C9  UNL     1      -5.234  47.238 -11.113  1.00  0.00     0.072 A 
HETATM    5  C16 UNL     1      -5.816  46.061 -10.725  1.00  0.00     0.038 A 
HETATM    6  C17 UNL     1      -7.194  45.945 -10.701  1.00  0.00     0.015 A 
ENDROOT
BRANCH   4   7
HETATM    7  O3  UNL     1      -3.879  47.400 -11.153  1.00  0.00    -0.318 OA
BRANCH   7   8
HETATM    8  C10 UNL     1      -3.010  47.702 -10.109  1.00  0.00     0.298 C 
HETATM    9  O4  UNL     1      -3.667  48.577  -9.248  1.00  0.00    -0.348 OA
HETATM   10  C11 UNL     1      -3.232  48.388  -7.958  1.00  0.00     0.179 C 
HETATM   11  C13 UNL     1      -1.742  48.215  -7.914  1.00  0.00     0.180 C 
HETATM   12  C14 UNL     1      -1.437  46.819  -8.463  1.00  0.00     0.183 C 
HETATM   13  C15 UNL     1      -2.569  46.439  -9.368  1.00  0.00     0.205 C 
BRANCH  10  14
HETATM   14  C12 UNL     1      -3.705  49.483  -7.025  1.00  0.00     0.198 C 
BRANCH  14  15
HETATM   15  O5  UNL     1      -2.946  50.629  -7.263  1.00  0.00    -0.398 OA
ATOM     16  H5  UNL     1      -2.051  50.462  -6.992  1.00  0.00     0.209 HD
ENDBRANCH  14  15
ENDBRANCH  10  14
BRANCH  11  17
HETATM   17  O6  UNL     1      -1.270  48.282  -6.595  1.00  0.00    -0.390 OA
ATOM     18  H6  UNL     1      -0.900  47.449  -6.326  1.00  0.00     0.210 HD
ENDBRANCH  11  17
BRANCH  12  19
HETATM   19  O7  UNL     1      -0.247  46.874  -9.215  1.00  0.00    -0.390 OA
ATOM     20  H7  UNL     1       0.259  46.086  -9.049  1.00  0.00     0.210 HD
ENDBRANCH  12  19
BRANCH  13  21
HETATM   21  O8  UNL     1      -2.082  45.572 -10.372  1.00  0.00    -0.388 OA
ATOM     22  H8  UNL     1      -2.464  44.725 -10.175  1.00  0.00     0.210 HD
ENDBRANCH  13  21
ENDBRANCH   7   8
ENDBRANCH   4   7
BRANCH   1  23
HETATM   23  C5  UNL     1      -9.455  46.880 -11.038  1.00  0.00    -0.026 A 
HETATM   24  C4  UNL     1     -10.048  46.186  -9.982  1.00  0.00     0.014 A 
HETATM   25  C3  UNL     1     -11.405  46.036  -9.891  1.00  0.00     0.026 A 
HETATM   26  C2  UNL     1     -12.244  46.581 -10.867  1.00  0.00     0.079 A 
HETATM   27  C19 UNL     1     -11.663  47.266 -11.911  1.00  0.00     0.026 A 
HETATM   28  C18 UNL     1     -10.279  47.414 -11.994  1.00  0.00     0.014 A 
BRANCH  26  29
HETATM   29  S1  UNL     1     -13.980  46.389 -10.749  1.00  0.00     0.258 S 
HETATM   30  O1  UNL     1     -14.655  47.750 -10.838  1.00  0.00    -0.201 OA
HETATM   31  O2  UNL     1     -14.351  45.723  -9.449  1.00  0.00    -0.201 OA
BRANCH  29  32
HETATM   32  N1  UNL     1     -14.570  45.416 -12.027  1.00  0.00    -0.320 N 
HETATM   33  C1  UNL     1     -13.896  44.144 -12.121  1.00  0.00     0.159 C 
ATOM     34  H1  UNL     1     -15.319  45.706 -12.657  1.00  0.00     0.171 HD
ENDBRANCH  29  32
ENDBRANCH  26  29
ENDBRANCH   1  23
TORSDOF 10
ENDMDL
