MODEL 17
REMARK VINA RESULT: -6.374506842      5.953     10.256
REMARK  10 active torsions:
REMARK  status: ('A' for Active; 'I' for Inactive)
REMARK    1  A    between atoms: N1_2  and  S1_4 
REMARK    2  A    between atoms: S1_4  and  C2_7 
REMARK    3  A    between atoms: C5_10  and  C6_11 
REMARK    4  A    between atoms: C9_14  and  O3_15 
REMARK    5  A    between atoms: O3_15  and  C10_16 
REMARK    6  A    between atoms: C11_18  and  C12_19 
REMARK    7  A    between atoms: C12_19  and  O5_20 
REMARK    8  A    between atoms: C13_22  and  O6_23 
REMARK    9  A    between atoms: C14_25  and  O7_26 
REMARK   10  A    between atoms: C15_28  and  O8_29 
ROOT
HETATM    1  C6  UNL     1      -5.537  49.881 -12.029  1.00  0.00    -0.026 A 
HETATM    2  C7  UNL     1      -6.789  49.284 -12.162  1.00  0.00     0.015 A 
HETATM    3  C8  UNL     1      -7.768  49.813 -12.963  1.00  0.00     0.038 A 
HETATM    4  C9  UNL     1      -7.498  50.981 -13.660  1.00  0.00     0.072 A 
HETATM    5  C16 UNL     1      -6.276  51.588 -13.546  1.00  0.00     0.038 A 
HETATM    6  C17 UNL     1      -5.303  51.036 -12.733  1.00  0.00     0.015 A 
ENDROOT
BRANCH   4   7
HETATM    7  O3  UNL     1      -8.490  51.488 -14.451  1.00  0.00    -0.318 OA
BRANCH   7   8
HETATM    8  C10 UNL     1      -9.807  51.778 -14.112  1.00  0.00     0.298 C 
HETATM    9  O4  UNL     1      -9.833  53.057 -13.561  1.00  0.00    -0.348 OA
HETATM   10  C11 UNL     1     -11.034  53.667 -13.834  1.00  0.00     0.179 C 
HETATM   11  C13 UNL     1     -12.175  52.710 -13.650  1.00  0.00     0.180 C 
HETATM   12  C14 UNL     1     -12.140  51.738 -14.832  1.00  0.00     0.183 C 
HETATM   13  C15 UNL     1     -10.728  51.693 -15.330  1.00  0.00     0.205 C 
BRANCH  10  14
HETATM   14  C12 UNL     1     -11.226  54.941 -13.040  1.00  0.00     0.198 C 
BRANCH  14  15
HETATM   15  O5  UNL     1     -11.608  54.603 -11.741  1.00  0.00    -0.398 OA
ATOM     16  H5  UNL     1     -11.927  53.708 -11.742  1.00  0.00     0.209 HD
ENDBRANCH  14  15
ENDBRANCH  10  14
BRANCH  11  17
HETATM   17  O6  UNL     1     -13.403  53.386 -13.673  1.00  0.00    -0.390 OA
ATOM     18  H6  UNL     1     -14.069  52.863 -14.103  1.00  0.00     0.210 HD
ENDBRANCH  11  17
BRANCH  12  19
HETATM   19  O7  UNL     1     -12.509  50.455 -14.380  1.00  0.00    -0.390 OA
ATOM     20  H7  UNL     1     -13.453  50.367 -14.441  1.00  0.00     0.210 HD
ENDBRANCH  12  19
BRANCH  13  21
HETATM   21  O8  UNL     1     -10.480  50.420 -15.892  1.00  0.00    -0.388 OA
ATOM     22  H8  UNL     1      -9.959  50.589 -16.669  1.00  0.00     0.210 HD
ENDBRANCH  13  21
ENDBRANCH   7   8
ENDBRANCH   4   7
BRANCH   1  23
HETATM   23  C5  UNL     1      -4.516  49.294 -11.168  1.00  0.00    -0.026 A 
HETATM   24  C4  UNL     1      -4.709  49.336  -9.786  1.00  0.00     0.014 A 
HETATM   25  C3  UNL     1      -3.796  48.807  -8.916  1.00  0.00     0.026 A 
HETATM   26  C2  UNL     1      -2.631  48.201  -9.394  1.00  0.00     0.079 A 
HETATM   27  C19 UNL     1      -2.436  48.159 -10.756  1.00  0.00     0.026 A 
HETATM   28  C18 UNL     1      -3.372  48.700 -11.635  1.00  0.00     0.014 A 
BRANCH  26  29
HETATM   29  S1  UNL     1      -1.464  47.525  -8.278  1.00  0.00     0.258 S 
HETATM   30  O1  UNL     1      -2.072  46.324  -7.566  1.00  0.00    -0.201 OA
HETATM   31  O2  UNL     1      -1.043  48.556  -7.263  1.00  0.00    -0.201 OA
BRANCH  29  32
HETATM   32  N1  UNL     1      -0.064  46.999  -9.110  1.00  0.00    -0.320 N 
HETATM   33  C1  UNL     1       0.998  47.974  -9.090  1.00  0.00     0.159 C 
ATOM     34  H1  UNL     1       0.011  46.091  -9.570  1.00  0.00     0.171 HD
ENDBRANCH  29  32
ENDBRANCH  26  29
ENDBRANCH   1  23
TORSDOF 10
ENDMDL
