MODEL 5
REMARK VINA RESULT: -7.821719912      1.057      1.567
REMARK  10 active torsions:
REMARK  status: ('A' for Active; 'I' for Inactive)
REMARK    1  A    between atoms: N1_2  and  S1_4 
REMARK    2  A    between atoms: S1_4  and  C2_7 
REMARK    3  A    between atoms: C5_10  and  C6_11 
REMARK    4  A    between atoms: C9_14  and  O3_15 
REMARK    5  A    between atoms: O3_15  and  C10_16 
REMARK    6  A    between atoms: C11_18  and  C12_19 
REMARK    7  A    between atoms: C12_19  and  O5_20 
REMARK    8  A    between atoms: C13_22  and  O6_23 
REMARK    9  A    between atoms: C14_25  and  O7_26 
REMARK   10  A    between atoms: C15_28  and  O8_29 
ROOT
HETATM    1  C6  UNL     1      -7.951  47.080 -11.141  1.00  0.00    -0.026 A 
HETATM    2  C7  UNL     1      -7.129  46.031 -10.736  1.00  0.00     0.015 A 
HETATM    3  C8  UNL     1      -5.761  46.128 -10.751  1.00  0.00     0.038 A 
HETATM    4  C9  UNL     1      -5.183  47.312 -11.185  1.00  0.00     0.072 A 
HETATM    5  C16 UNL     1      -5.970  48.358 -11.589  1.00  0.00     0.038 A 
HETATM    6  C17 UNL     1      -7.347  48.237 -11.564  1.00  0.00     0.015 A 
ENDROOT
BRANCH   4   7
HETATM    7  O3  UNL     1      -3.819  47.384 -11.191  1.00  0.00    -0.318 OA
BRANCH   7   8
HETATM    8  C10 UNL     1      -2.962  47.700 -10.142  1.00  0.00     0.298 C 
HETATM    9  O4  UNL     1      -3.630  48.586  -9.299  1.00  0.00    -0.348 OA
HETATM   10  C11 UNL     1      -3.210  48.414  -8.002  1.00  0.00     0.179 C 
HETATM   11  C13 UNL     1      -1.720  48.243  -7.939  1.00  0.00     0.180 C 
HETATM   12  C14 UNL     1      -1.408  46.840  -8.467  1.00  0.00     0.183 C 
HETATM   13  C15 UNL     1      -2.528  46.447  -9.379  1.00  0.00     0.205 C 
BRANCH  10  14
HETATM   14  C12 UNL     1      -3.694  49.520  -7.089  1.00  0.00     0.198 C 
BRANCH  14  15
HETATM   15  O5  UNL     1      -2.837  50.613  -7.220  1.00  0.00    -0.398 OA
ATOM     16  H5  UNL     1      -3.035  51.058  -8.035  1.00  0.00     0.209 HD
ENDBRANCH  14  15
ENDBRANCH  10  14
BRANCH  11  17
HETATM   17  O6  UNL     1      -1.262  48.327  -6.616  1.00  0.00    -0.390 OA
ATOM     18  H6  UNL     1      -0.406  47.926  -6.529  1.00  0.00     0.210 HD
ENDBRANCH  11  17
BRANCH  12  19
HETATM   19  O7  UNL     1      -0.209  46.887  -9.206  1.00  0.00    -0.390 OA
ATOM     20  H7  UNL     1       0.484  46.483  -8.695  1.00  0.00     0.210 HD
ENDBRANCH  12  19
BRANCH  13  21
HETATM   21  O8  UNL     1      -2.029  45.568 -10.367  1.00  0.00    -0.388 OA
ATOM     22  H8  UNL     1      -2.797  45.263 -10.838  1.00  0.00     0.210 HD
ENDBRANCH  13  21
ENDBRANCH   7   8
ENDBRANCH   4   7
BRANCH   1  23
HETATM   23  C5  UNL     1      -9.403  46.945 -11.114  1.00  0.00    -0.026 A 
HETATM   24  C4  UNL     1     -10.145  47.560 -12.124  1.00  0.00     0.014 A 
HETATM   25  C3  UNL     1     -11.510  47.478 -12.165  1.00  0.00     0.026 A 
HETATM   26  C2  UNL     1     -12.207  46.767 -11.184  1.00  0.00     0.079 A 
HETATM   27  C19 UNL     1     -11.479  46.160 -10.186  1.00  0.00     0.026 A 
HETATM   28  C18 UNL     1     -10.088  46.249 -10.152  1.00  0.00     0.014 A 
BRANCH  26  29
HETATM   29  S1  UNL     1     -13.953  46.664 -11.239  1.00  0.00     0.258 S 
HETATM   30  O1  UNL     1     -14.438  46.926 -12.658  1.00  0.00    -0.201 OA
HETATM   31  O2  UNL     1     -14.572  47.666 -10.299  1.00  0.00    -0.201 OA
BRANCH  29  32
HETATM   32  N1  UNL     1     -14.484  45.105 -10.774  1.00  0.00    -0.320 N 
HETATM   33  C1  UNL     1     -14.233  44.104 -11.783  1.00  0.00     0.159 C 
ATOM     34  H1  UNL     1     -14.930  44.905  -9.879  1.00  0.00     0.171 HD
ENDBRANCH  29  32
ENDBRANCH  26  29
ENDBRANCH   1  23
TORSDOF 10
ENDMDL
