MODEL 3
REMARK VINA RESULT: -7.899962724      0.412      1.314
REMARK  10 active torsions:
REMARK  status: ('A' for Active; 'I' for Inactive)
REMARK    1  A    between atoms: N1_2  and  S1_4 
REMARK    2  A    between atoms: S1_4  and  C2_7 
REMARK    3  A    between atoms: C5_10  and  C6_11 
REMARK    4  A    between atoms: C9_14  and  O3_15 
REMARK    5  A    between atoms: O3_15  and  C10_16 
REMARK    6  A    between atoms: C11_18  and  C12_19 
REMARK    7  A    between atoms: C12_19  and  O5_20 
REMARK    8  A    between atoms: C13_22  and  O6_23 
REMARK    9  A    between atoms: C14_25  and  O7_26 
REMARK   10  A    between atoms: C15_28  and  O8_29 
ROOT
HETATM    1  C6  UNL     1      -7.996  46.994 -11.056  1.00  0.00    -0.026 A 
HETATM    2  C7  UNL     1      -7.377  48.180 -11.444  1.00  0.00     0.015 A 
HETATM    3  C8  UNL     1      -6.013  48.314 -11.479  1.00  0.00     0.038 A 
HETATM    4  C9  UNL     1      -5.228  47.230 -11.113  1.00  0.00     0.072 A 
HETATM    5  C16 UNL     1      -5.812  46.053 -10.727  1.00  0.00     0.038 A 
HETATM    6  C17 UNL     1      -7.190  45.941 -10.700  1.00  0.00     0.015 A 
ENDROOT
BRANCH   4   7
HETATM    7  O3  UNL     1      -3.872  47.389 -11.155  1.00  0.00    -0.318 OA
BRANCH   7   8
HETATM    8  C10 UNL     1      -3.001  47.694 -10.115  1.00  0.00     0.298 C 
HETATM    9  O4  UNL     1      -3.653  48.582  -9.262  1.00  0.00    -0.348 OA
HETATM   10  C11 UNL     1      -3.220  48.402  -7.970  1.00  0.00     0.179 C 
HETATM   11  C13 UNL     1      -1.731  48.220  -7.924  1.00  0.00     0.180 C 
HETATM   12  C14 UNL     1      -1.435  46.817  -8.460  1.00  0.00     0.183 C 
HETATM   13  C15 UNL     1      -2.569  46.436  -9.361  1.00  0.00     0.205 C 
BRANCH  10  14
HETATM   14  C12 UNL     1      -3.686  49.509  -7.048  1.00  0.00     0.198 C 
BRANCH  14  15
HETATM   15  O5  UNL     1      -2.911  50.645  -7.288  1.00  0.00    -0.398 OA
ATOM     16  H5  UNL     1      -3.326  51.156  -7.973  1.00  0.00     0.209 HD
ENDBRANCH  14  15
ENDBRANCH  10  14
BRANCH  11  17
HETATM   17  O6  UNL     1      -1.258  48.296  -6.606  1.00  0.00    -0.390 OA
ATOM     18  H6  UNL     1      -0.366  47.974  -6.547  1.00  0.00     0.210 HD
ENDBRANCH  11  17
BRANCH  12  19
HETATM   19  O7  UNL     1      -0.244  46.856  -9.212  1.00  0.00    -0.390 OA
ATOM     20  H7  UNL     1      -0.186  46.068  -9.740  1.00  0.00     0.210 HD
ENDBRANCH  12  19
BRANCH  13  21
HETATM   21  O8  UNL     1      -2.088  45.556 -10.357  1.00  0.00    -0.388 OA
ATOM     22  H8  UNL     1      -1.799  44.783  -9.886  1.00  0.00     0.210 HD
ENDBRANCH  13  21
ENDBRANCH   7   8
ENDBRANCH   4   7
BRANCH   1  23
HETATM   23  C5  UNL     1      -9.450  46.883 -11.030  1.00  0.00    -0.026 A 
HETATM   24  C4  UNL     1     -10.180  47.490 -12.054  1.00  0.00     0.014 A 
HETATM   25  C3  UNL     1     -11.545  47.429 -12.097  1.00  0.00     0.026 A 
HETATM   26  C2  UNL     1     -12.256  46.749 -11.104  1.00  0.00     0.079 A 
HETATM   27  C19 UNL     1     -11.540  46.150 -10.092  1.00  0.00     0.026 A 
HETATM   28  C18 UNL     1     -10.148  46.217 -10.056  1.00  0.00     0.014 A 
BRANCH  26  29
HETATM   29  S1  UNL     1     -14.003  46.672 -11.162  1.00  0.00     0.258 S 
HETATM   30  O1  UNL     1     -14.464  45.244 -10.907  1.00  0.00    -0.201 OA
HETATM   31  O2  UNL     1     -14.509  47.135 -12.504  1.00  0.00    -0.201 OA
BRANCH  29  32
HETATM   32  N1  UNL     1     -14.695  47.677  -9.962  1.00  0.00    -0.320 N 
HETATM   33  C1  UNL     1     -15.184  46.937  -8.825  1.00  0.00     0.159 C 
ATOM     34  H1  UNL     1     -14.755  48.693 -10.043  1.00  0.00     0.171 HD
ENDBRANCH  29  32
ENDBRANCH  26  29
ENDBRANCH   1  23
TORSDOF 10
ENDMDL
