MODEL 13
REMARK VINA RESULT: -6.709387145      4.607      5.374
REMARK  10 active torsions:
REMARK  status: ('A' for Active; 'I' for Inactive)
REMARK    1  A    between atoms: N1_2  and  S1_4 
REMARK    2  A    between atoms: S1_4  and  C2_7 
REMARK    3  A    between atoms: C5_10  and  C6_11 
REMARK    4  A    between atoms: C9_14  and  O3_15 
REMARK    5  A    between atoms: O3_15  and  C10_16 
REMARK    6  A    between atoms: C11_18  and  C12_19 
REMARK    7  A    between atoms: C12_19  and  O5_20 
REMARK    8  A    between atoms: C13_22  and  O6_23 
REMARK    9  A    between atoms: C14_25  and  O7_26 
REMARK   10  A    between atoms: C15_28  and  O8_29 
ROOT
HETATM    1  C6  UNL     1      -6.791  50.423 -12.782  1.00  0.00    -0.026 A 
HETATM    2  C7  UNL     1      -7.167  49.219 -12.191  1.00  0.00     0.015 A 
HETATM    3  C8  UNL     1      -6.249  48.336 -11.685  1.00  0.00     0.038 A 
HETATM    4  C9  UNL     1      -4.901  48.658 -11.767  1.00  0.00     0.072 A 
HETATM    5  C16 UNL     1      -4.506  49.835 -12.344  1.00  0.00     0.038 A 
HETATM    6  C17 UNL     1      -5.451  50.710 -12.847  1.00  0.00     0.015 A 
ENDROOT
BRANCH   4   7
HETATM    7  O3  UNL     1      -4.006  47.762 -11.257  1.00  0.00    -0.318 OA
BRANCH   7   8
HETATM    8  C10 UNL     1      -3.118  47.929 -10.199  1.00  0.00     0.298 C 
HETATM    9  O4  UNL     1      -3.713  48.785  -9.275  1.00  0.00    -0.348 OA
HETATM   10  C11 UNL     1      -3.292  48.476  -8.004  1.00  0.00     0.179 C 
HETATM   11  C13 UNL     1      -1.818  48.198  -7.980  1.00  0.00     0.180 C 
HETATM   12  C14 UNL     1      -1.610  46.827  -8.627  1.00  0.00     0.183 C 
HETATM   13  C15 UNL     1      -2.765  46.590  -9.550  1.00  0.00     0.205 C 
BRANCH  10  14
HETATM   14  C12 UNL     1      -3.689  49.532  -6.995  1.00  0.00     0.198 C 
BRANCH  14  15
HETATM   15  O5  UNL     1      -2.876  50.652  -7.179  1.00  0.00    -0.398 OA
ATOM     16  H5  UNL     1      -1.969  50.386  -7.087  1.00  0.00     0.209 HD
ENDBRANCH  14  15
ENDBRANCH  10  14
BRANCH  11  17
HETATM   17  O6  UNL     1      -1.342  48.139  -6.662  1.00  0.00    -0.390 OA
ATOM     18  H6  UNL     1      -0.417  47.925  -6.646  1.00  0.00     0.210 HD
ENDBRANCH  11  17
BRANCH  12  19
HETATM   19  O7  UNL     1      -0.419  46.852  -9.379  1.00  0.00    -0.390 OA
ATOM     20  H7  UNL     1      -0.212  45.967  -9.660  1.00  0.00     0.210 HD
ENDBRANCH  12  19
BRANCH  13  21
HETATM   21  O8  UNL     1      -2.339  45.764 -10.615  1.00  0.00    -0.388 OA
ATOM     22  H8  UNL     1      -1.412  45.947 -10.715  1.00  0.00     0.210 HD
ENDBRANCH  13  21
ENDBRANCH   7   8
ENDBRANCH   4   7
BRANCH   1  23
HETATM   23  C5  UNL     1      -7.794  51.342 -13.311  1.00  0.00    -0.026 A 
HETATM   24  C4  UNL     1      -7.532  52.712 -13.256  1.00  0.00     0.014 A 
HETATM   25  C3  UNL     1      -8.423  53.634 -13.732  1.00  0.00     0.026 A 
HETATM   26  C2  UNL     1      -9.635  53.223 -14.293  1.00  0.00     0.079 A 
HETATM   27  C19 UNL     1      -9.898  51.873 -14.348  1.00  0.00     0.026 A 
HETATM   28  C18 UNL     1      -8.983  50.940 -13.861  1.00  0.00     0.014 A 
BRANCH  26  29
HETATM   29  S1  UNL     1     -10.774  54.405 -14.901  1.00  0.00     0.258 S 
HETATM   30  O1  UNL     1     -10.802  54.355 -16.423  1.00  0.00    -0.201 OA
HETATM   31  O2  UNL     1     -10.392  55.790 -14.447  1.00  0.00    -0.201 OA
BRANCH  29  32
HETATM   32  N1  UNL     1     -12.353  54.078 -14.328  1.00  0.00    -0.320 N 
HETATM   33  C1  UNL     1     -13.168  53.387 -15.297  1.00  0.00     0.159 C 
ATOM     34  H1  UNL     1     -12.682  54.344 -13.400  1.00  0.00     0.171 HD
ENDBRANCH  29  32
ENDBRANCH  26  29
ENDBRANCH   1  23
TORSDOF 10
ENDMDL
