MODEL 1
REMARK VINA RESULT: -7.935637305      0.000      0.000
REMARK  10 active torsions:
REMARK  status: ('A' for Active; 'I' for Inactive)
REMARK    1  A    between atoms: N1_2  and  S1_4 
REMARK    2  A    between atoms: S1_4  and  C2_7 
REMARK    3  A    between atoms: C5_10  and  C6_11 
REMARK    4  A    between atoms: C9_14  and  O3_15 
REMARK    5  A    between atoms: O3_15  and  C10_16 
REMARK    6  A    between atoms: C11_18  and  C12_19 
REMARK    7  A    between atoms: C12_19  and  O5_20 
REMARK    8  A    between atoms: C13_22  and  O6_23 
REMARK    9  A    between atoms: C14_25  and  O7_26 
REMARK   10  A    between atoms: C15_28  and  O8_29 
ROOT
HETATM    1  C6  UNL     1      -7.993  47.042 -11.075  1.00  0.00    -0.026 A 
HETATM    2  C7  UNL     1      -7.149  46.000 -10.701  1.00  0.00     0.015 A 
HETATM    3  C8  UNL     1      -5.784  46.119 -10.732  1.00  0.00     0.038 A 
HETATM    4  C9  UNL     1      -5.230  47.321 -11.151  1.00  0.00     0.072 A 
HETATM    5  C16 UNL     1      -6.039  48.361 -11.524  1.00  0.00     0.038 A 
HETATM    6  C17 UNL     1      -7.414  48.217 -11.484  1.00  0.00     0.015 A 
ENDROOT
BRANCH   4   7
HETATM    7  O3  UNL     1      -3.868  47.415 -11.174  1.00  0.00    -0.318 OA
BRANCH   7   8
HETATM    8  C10 UNL     1      -3.002  47.714 -10.128  1.00  0.00     0.298 C 
HETATM    9  O4  UNL     1      -3.663  48.582  -9.262  1.00  0.00    -0.348 OA
HETATM   10  C11 UNL     1      -3.229  48.386  -7.972  1.00  0.00     0.179 C 
HETATM   11  C13 UNL     1      -1.738  48.219  -7.928  1.00  0.00     0.180 C 
HETATM   12  C14 UNL     1      -1.428  46.827  -8.485  1.00  0.00     0.183 C 
HETATM   13  C15 UNL     1      -2.557  46.448  -9.393  1.00  0.00     0.205 C 
BRANCH  10  14
HETATM   14  C12 UNL     1      -3.708  49.474  -7.034  1.00  0.00     0.198 C 
BRANCH  14  15
HETATM   15  O5  UNL     1      -2.967  50.631  -7.279  1.00  0.00    -0.398 OA
ATOM     16  H5  UNL     1      -2.236  50.657  -6.673  1.00  0.00     0.209 HD
ENDBRANCH  14  15
ENDBRANCH  10  14
BRANCH  11  17
HETATM   17  O6  UNL     1      -1.268  48.279  -6.608  1.00  0.00    -0.390 OA
ATOM     18  H6  UNL     1      -0.457  48.772  -6.560  1.00  0.00     0.210 HD
ENDBRANCH  11  17
BRANCH  12  19
HETATM   19  O7  UNL     1      -0.237  46.891  -9.235  1.00  0.00    -0.390 OA
ATOM     20  H7  UNL     1       0.034  46.008  -9.460  1.00  0.00     0.210 HD
ENDBRANCH  12  19
BRANCH  13  21
HETATM   21  O8  UNL     1      -2.065  45.589 -10.402  1.00  0.00    -0.388 OA
ATOM     22  H8  UNL     1      -2.302  44.713 -10.119  1.00  0.00     0.210 HD
ENDBRANCH  13  21
ENDBRANCH   7   8
ENDBRANCH   4   7
BRANCH   1  23
HETATM   23  C5  UNL     1      -9.443  46.883 -11.031  1.00  0.00    -0.026 A 
HETATM   24  C4  UNL     1     -10.003  46.203  -9.948  1.00  0.00     0.014 A 
HETATM   25  C3  UNL     1     -11.353  46.014  -9.837  1.00  0.00     0.026 A 
HETATM   26  C2  UNL     1     -12.219  46.504 -10.819  1.00  0.00     0.079 A 
HETATM   27  C19 UNL     1     -11.671  47.174 -11.889  1.00  0.00     0.026 A 
HETATM   28  C18 UNL     1     -10.294  47.362 -11.993  1.00  0.00     0.014 A 
BRANCH  26  29
HETATM   29  S1  UNL     1     -13.946  46.261 -10.674  1.00  0.00     0.258 S 
HETATM   30  O1  UNL     1     -14.229  45.197  -9.623  1.00  0.00    -0.201 OA
HETATM   31  O2  UNL     1     -14.533  45.837 -11.996  1.00  0.00    -0.201 OA
BRANCH  29  32
HETATM   32  N1  UNL     1     -14.724  47.707 -10.192  1.00  0.00    -0.320 N 
HETATM   33  C1  UNL     1     -15.300  47.620  -8.872  1.00  0.00     0.159 C 
ATOM     34  H1  UNL     1     -14.775  48.542 -10.776  1.00  0.00     0.171 HD
ENDBRANCH  29  32
ENDBRANCH  26  29
ENDBRANCH   1  23
TORSDOF 10
ENDMDL
