MODEL 19
REMARK VINA RESULT: -6.210848286      5.902     10.044
REMARK  10 active torsions:
REMARK  status: ('A' for Active; 'I' for Inactive)
REMARK    1  A    between atoms: N1_2  and  S1_4 
REMARK    2  A    between atoms: S1_4  and  C2_7 
REMARK    3  A    between atoms: C5_10  and  C6_11 
REMARK    4  A    between atoms: C9_14  and  O3_15 
REMARK    5  A    between atoms: O3_15  and  C10_16 
REMARK    6  A    between atoms: C11_18  and  C12_19 
REMARK    7  A    between atoms: C12_19  and  O5_20 
REMARK    8  A    between atoms: C13_22  and  O6_23 
REMARK    9  A    between atoms: C14_25  and  O7_26 
REMARK   10  A    between atoms: C15_28  and  O8_29 
ROOT
HETATM    1  C6  UNL     1      -6.402  49.433 -11.995  1.00  0.00    -0.026 A 
HETATM    2  C7  UNL     1      -7.596  48.854 -12.419  1.00  0.00     0.015 A 
HETATM    3  C8  UNL     1      -8.471  49.509 -13.247  1.00  0.00     0.038 A 
HETATM    4  C9  UNL     1      -8.152  50.791 -13.671  1.00  0.00     0.072 A 
HETATM    5  C16 UNL     1      -6.985  51.382 -13.268  1.00  0.00     0.038 A 
HETATM    6  C17 UNL     1      -6.117  50.702 -12.434  1.00  0.00     0.015 A 
ENDROOT
BRANCH   4   7
HETATM    7  O3  UNL     1      -9.040  51.422 -14.494  1.00  0.00    -0.318 OA
BRANCH   7   8
HETATM    8  C10 UNL     1     -10.318  51.886 -14.200  1.00  0.00     0.298 C 
HETATM    9  O4  UNL     1     -10.187  53.102 -13.535  1.00  0.00    -0.348 OA
HETATM   10  C11 UNL     1     -11.260  53.914 -13.813  1.00  0.00     0.179 C 
HETATM   11  C13 UNL     1     -12.543  53.135 -13.780  1.00  0.00     0.180 C 
HETATM   12  C14 UNL     1     -12.577  52.272 -15.043  1.00  0.00     0.183 C 
HETATM   13  C15 UNL     1     -11.158  52.049 -15.468  1.00  0.00     0.205 C 
BRANCH  10  14
HETATM   14  C12 UNL     1     -11.310  55.131 -12.915  1.00  0.00     0.198 C 
BRANCH  14  15
HETATM   15  O5  UNL     1     -11.743  54.733 -11.649  1.00  0.00    -0.398 OA
ATOM     16  H5  UNL     1     -11.752  55.493 -11.079  1.00  0.00     0.209 HD
ENDBRANCH  14  15
ENDBRANCH  10  14
BRANCH  11  17
HETATM   17  O6  UNL     1     -13.651  53.995 -13.805  1.00  0.00    -0.390 OA
ATOM     18  H6  UNL     1     -14.004  54.066 -14.683  1.00  0.00     0.210 HD
ENDBRANCH  11  17
BRANCH  12  19
HETATM   19  O7  UNL     1     -13.165  51.030 -14.733  1.00  0.00    -0.390 OA
ATOM     20  H7  UNL     1     -12.872  50.384 -15.365  1.00  0.00     0.210 HD
ENDBRANCH  12  19
BRANCH  13  21
HETATM   21  O8  UNL     1     -11.069  50.804 -16.132  1.00  0.00    -0.388 OA
ATOM     22  H8  UNL     1     -11.414  50.963 -17.004  1.00  0.00     0.210 HD
ENDBRANCH  13  21
ENDBRANCH   7   8
ENDBRANCH   4   7
BRANCH   1  23
HETATM   23  C5  UNL     1      -5.491  48.710 -11.114  1.00  0.00    -0.026 A 
HETATM   24  C4  UNL     1      -4.736  49.441 -10.196  1.00  0.00     0.014 A 
HETATM   25  C3  UNL     1      -3.862  48.834  -9.337  1.00  0.00     0.026 A 
HETATM   26  C2  UNL     1      -3.698  47.446  -9.357  1.00  0.00     0.079 A 
HETATM   27  C19 UNL     1      -4.440  46.721 -10.262  1.00  0.00     0.026 A 
HETATM   28  C18 UNL     1      -5.330  47.349 -11.133  1.00  0.00     0.014 A 
BRANCH  26  29
HETATM   29  S1  UNL     1      -2.579  46.671  -8.258  1.00  0.00     0.258 S 
HETATM   30  O1  UNL     1      -3.033  45.244  -7.984  1.00  0.00    -0.201 OA
HETATM   31  O2  UNL     1      -2.496  47.435  -6.961  1.00  0.00    -0.201 OA
BRANCH  29  32
HETATM   32  N1  UNL     1      -1.008  46.610  -8.935  1.00  0.00    -0.320 N 
HETATM   33  C1  UNL     1      -0.146  47.659  -8.448  1.00  0.00     0.159 C 
ATOM     34  H1  UNL     1      -0.713  45.906  -9.612  1.00  0.00     0.171 HD
ENDBRANCH  29  32
ENDBRANCH  26  29
ENDBRANCH   1  23
TORSDOF 10
ENDMDL
