MODEL 13
REMARK VINA RESULT: -5.962377442      5.051      9.189
REMARK  8 active torsions:
REMARK  status: ('A' for Active; 'I' for Inactive)
REMARK    1  A    between atoms: C5_6  and  C6_7 
REMARK    2  A    between atoms: C9_10  and  O1_11 
REMARK    3  A    between atoms: O1_11  and  C10_12 
REMARK    4  A    between atoms: C11_14  and  C12_15 
REMARK    5  A    between atoms: C12_15  and  O3_16 
REMARK    6  A    between atoms: C13_18  and  O4_19 
REMARK    7  A    between atoms: C14_21  and  O5_22 
REMARK    8  A    between atoms: C15_24  and  O6_25 
ROOT
HETATM    1  N1  UNL     1       0.413   8.748   7.972  1.00  0.00    -0.191 NA
HETATM    2  C1  UNL     1      -0.586   8.485   8.495  1.00  0.00     0.099 C 
HETATM    3  C2  UNL     1      -1.833   8.179   9.158  1.00  0.00     0.044 A 
HETATM    4  C3  UNL     1      -2.872   7.671   8.414  1.00  0.00     0.023 A 
HETATM    5  C4  UNL     1      -4.074   7.371   9.026  1.00  0.00     0.014 A 
HETATM    6  C5  UNL     1      -4.270   7.569  10.382  1.00  0.00    -0.026 A 
HETATM    7  C18 UNL     1      -3.212   8.080  11.106  1.00  0.00     0.014 A 
HETATM    8  C19 UNL     1      -2.000   8.388  10.523  1.00  0.00     0.023 A 
ENDROOT
BRANCH   6   9
HETATM    9  C6  UNL     1      -5.542   7.245  11.002  1.00  0.00    -0.024 A 
HETATM   10  C7  UNL     1      -5.833   5.950  11.350  1.00  0.00     0.015 A 
HETATM   11  C8  UNL     1      -7.026   5.619  11.936  1.00  0.00     0.039 A 
HETATM   12  C9  UNL     1      -8.026   6.581  12.220  1.00  0.00     0.093 A 
HETATM   13  C16 UNL     1      -7.708   7.865  11.863  1.00  0.00     0.068 A 
HETATM   14 CL1  UNL     1      -8.852   9.144  12.158  1.00  0.00    -0.081 Cl
HETATM   15  C17 UNL     1      -6.479   8.191  11.261  1.00  0.00     0.039 A 
BRANCH  12  16
HETATM   16  O1  UNL     1      -9.153   6.160  12.794  1.00  0.00    -0.316 OA
BRANCH  16  17
HETATM   17  C10 UNL     1     -10.456   5.963  12.504  1.00  0.00     0.298 C 
HETATM   18  O2  UNL     1     -10.799   4.618  12.262  1.00  0.00    -0.348 OA
HETATM   19  C11 UNL     1     -12.119   4.332  12.496  1.00  0.00     0.179 C 
HETATM   20  C13 UNL     1     -13.046   5.512  12.344  1.00  0.00     0.180 C 
HETATM   21  C14 UNL     1     -12.653   6.641  13.295  1.00  0.00     0.183 C 
HETATM   22  C15 UNL     1     -11.261   6.304  13.782  1.00  0.00     0.205 C 
BRANCH  19  23
HETATM   23  C12 UNL     1     -12.608   3.267  11.519  1.00  0.00     0.198 C 
BRANCH  23  24
HETATM   24  O3  UNL     1     -11.625   2.903  10.611  1.00  0.00    -0.398 OA
ATOM     25  H3  UNL     1     -11.837   3.179   9.727  1.00  0.00     0.209 HD
ENDBRANCH  23  24
ENDBRANCH  19  23
BRANCH  20  26
HETATM   26  O4  UNL     1     -14.328   5.079  12.742  1.00  0.00    -0.390 OA
ATOM     27  H4  UNL     1     -14.752   4.728  11.968  1.00  0.00     0.210 HD
ENDBRANCH  20  26
BRANCH  21  28
HETATM   28  O5  UNL     1     -12.604   7.815  12.513  1.00  0.00    -0.390 OA
ATOM     29  H5  UNL     1     -13.495   7.979  12.225  1.00  0.00     0.210 HD
ENDBRANCH  21  28
BRANCH  22  30
HETATM   30  O6  UNL     1     -10.664   7.341  14.475  1.00  0.00    -0.388 OA
ATOM     31  H6  UNL     1     -10.654   7.161  15.407  1.00  0.00     0.210 HD
ENDBRANCH  22  30
ENDBRANCH  16  17
ENDBRANCH  12  16
ENDBRANCH   6   9
TORSDOF 8
ENDMDL
