MODEL 3
REMARK VINA RESULT: -6.976539737      1.858      2.336
REMARK  8 active torsions:
REMARK  status: ('A' for Active; 'I' for Inactive)
REMARK    1  A    between atoms: C5_6  and  C6_7 
REMARK    2  A    between atoms: C9_10  and  O1_11 
REMARK    3  A    between atoms: O1_11  and  C10_12 
REMARK    4  A    between atoms: C11_14  and  C12_15 
REMARK    5  A    between atoms: C12_15  and  O3_16 
REMARK    6  A    between atoms: C13_18  and  O4_19 
REMARK    7  A    between atoms: C14_21  and  O5_22 
REMARK    8  A    between atoms: C15_24  and  O6_25 
ROOT
HETATM    1  N1  UNL     1     -14.746  10.228  13.329  1.00  0.00    -0.191 NA
HETATM    2  C1  UNL     1     -13.630  10.105  13.045  1.00  0.00     0.099 C 
HETATM    3  C2  UNL     1     -12.233   9.970  12.704  1.00  0.00     0.044 A 
HETATM    4  C3  UNL     1     -11.617   8.756  12.896  1.00  0.00     0.023 A 
HETATM    5  C4  UNL     1     -10.281   8.605  12.577  1.00  0.00     0.014 A 
HETATM    6  C5  UNL     1      -9.532   9.649  12.065  1.00  0.00    -0.026 A 
HETATM    7  C18 UNL     1     -10.172  10.857  11.883  1.00  0.00     0.014 A 
HETATM    8  C19 UNL     1     -11.505  11.040  12.191  1.00  0.00     0.023 A 
ENDROOT
BRANCH   6   9
HETATM    9  C6  UNL     1      -8.129   9.464  11.738  1.00  0.00    -0.024 A 
HETATM   10  C7  UNL     1      -7.518   8.257  11.971  1.00  0.00     0.015 A 
HETATM   11  C8  UNL     1      -6.196   8.057  11.670  1.00  0.00     0.039 A 
HETATM   12  C9  UNL     1      -5.384   9.069  11.103  1.00  0.00     0.093 A 
HETATM   13  C16 UNL     1      -6.021  10.262  10.881  1.00  0.00     0.068 A 
HETATM   14 CL1  UNL     1      -5.134  11.589  10.187  1.00  0.00    -0.081 Cl
HETATM   15  C17 UNL     1      -7.378  10.455  11.195  1.00  0.00     0.039 A 
BRANCH  12  16
HETATM   16  O1  UNL     1      -4.109   8.776  10.846  1.00  0.00    -0.316 OA
BRANCH  16  17
HETATM   17  C10 UNL     1      -3.350   8.178   9.905  1.00  0.00     0.298 C 
HETATM   18  O2  UNL     1      -4.073   7.704   8.792  1.00  0.00    -0.348 OA
HETATM   19  C11 UNL     1      -3.324   7.598   7.649  1.00  0.00     0.179 C 
HETATM   20  C13 UNL     1      -1.850   7.385   7.890  1.00  0.00     0.180 C 
HETATM   21  C14 UNL     1      -1.260   8.530   8.712  1.00  0.00     0.183 C 
HETATM   22  C15 UNL     1      -2.444   9.274   9.291  1.00  0.00     0.205 C 
BRANCH  19  23
HETATM   23  C12 UNL     1      -3.802   6.415   6.814  1.00  0.00     0.198 C 
BRANCH  23  24
HETATM   24  O3  UNL     1      -3.005   5.295   6.993  1.00  0.00    -0.398 OA
ATOM     25  H3  UNL     1      -2.120   5.433   6.676  1.00  0.00     0.209 HD
ENDBRANCH  23  24
ENDBRANCH  19  23
BRANCH  20  26
HETATM   26  O4  UNL     1      -1.219   7.429   6.630  1.00  0.00    -0.390 OA
ATOM     27  H4  UNL     1      -0.289   7.315   6.784  1.00  0.00     0.210 HD
ENDBRANCH  20  26
BRANCH  21  28
HETATM   28  O5  UNL     1      -0.529   7.927   9.757  1.00  0.00    -0.390 OA
ATOM     29  H5  UNL     1      -0.219   7.096   9.418  1.00  0.00     0.210 HD
ENDBRANCH  21  28
BRANCH  22  30
HETATM   30  O6  UNL     1      -2.083  10.204  10.248  1.00  0.00    -0.388 OA
ATOM     31  H6  UNL     1      -2.834  10.720  10.516  1.00  0.00     0.210 HD
ENDBRANCH  22  30
ENDBRANCH  16  17
ENDBRANCH  12  16
ENDBRANCH   6   9
TORSDOF 8
ENDMDL
