MODEL 14
REMARK VINA RESULT: -5.956742025      5.274      9.040
REMARK  8 active torsions:
REMARK  status: ('A' for Active; 'I' for Inactive)
REMARK    1  A    between atoms: C5_6  and  C6_7 
REMARK    2  A    between atoms: C9_10  and  O1_11 
REMARK    3  A    between atoms: O1_11  and  C10_12 
REMARK    4  A    between atoms: C11_14  and  C12_15 
REMARK    5  A    between atoms: C12_15  and  O3_16 
REMARK    6  A    between atoms: C13_18  and  O4_19 
REMARK    7  A    between atoms: C14_21  and  O5_22 
REMARK    8  A    between atoms: C15_24  and  O6_25 
ROOT
HETATM    1  N1  UNL     1      -1.075   9.181   6.859  1.00  0.00    -0.191 NA
HETATM    2  C1  UNL     1      -1.892   8.818   7.596  1.00  0.00     0.099 C 
HETATM    3  C2  UNL     1      -2.924   8.385   8.510  1.00  0.00     0.044 A 
HETATM    4  C3  UNL     1      -3.419   7.108   8.394  1.00  0.00     0.023 A 
HETATM    5  C4  UNL     1      -4.406   6.672   9.257  1.00  0.00     0.014 A 
HETATM    6  C5  UNL     1      -4.922   7.490  10.246  1.00  0.00    -0.026 A 
HETATM    7  C18 UNL     1      -4.410   8.768  10.341  1.00  0.00     0.014 A 
HETATM    8  C19 UNL     1      -3.423   9.232   9.495  1.00  0.00     0.023 A 
ENDROOT
BRANCH   6   9
HETATM    9  C6  UNL     1      -5.959   7.008  11.141  1.00  0.00    -0.024 A 
HETATM   10  C7  UNL     1      -5.852   5.769  11.720  1.00  0.00     0.015 A 
HETATM   11  C8  UNL     1      -6.817   5.292  12.569  1.00  0.00     0.039 A 
HETATM   12  C9  UNL     1      -7.974   6.038  12.900  1.00  0.00     0.093 A 
HETATM   13  C16 UNL     1      -8.053   7.271  12.307  1.00  0.00     0.068 A 
HETATM   14 CL1  UNL     1      -9.428   8.290  12.632  1.00  0.00    -0.081 Cl
HETATM   15  C17 UNL     1      -7.056   7.749  11.438  1.00  0.00     0.039 A 
BRANCH  12  16
HETATM   16  O1  UNL     1      -8.855   5.488  13.735  1.00  0.00    -0.316 OA
BRANCH  16  17
HETATM   17  C10 UNL     1      -9.927   4.668  13.723  1.00  0.00     0.298 C 
HETATM   18  O2  UNL     1     -10.404   4.357  12.434  1.00  0.00    -0.348 OA
HETATM   19  C11 UNL     1     -11.092   3.174  12.368  1.00  0.00     0.179 C 
HETATM   20  C13 UNL     1     -11.742   2.762  13.666  1.00  0.00     0.180 C 
HETATM   21  C14 UNL     1     -10.704   2.619  14.776  1.00  0.00     0.183 C 
HETATM   22  C15 UNL     1      -9.453   3.295  14.260  1.00  0.00     0.205 C 
BRANCH  19  23
HETATM   23  C12 UNL     1     -12.209   3.271  11.335  1.00  0.00     0.198 C 
BRANCH  23  24
HETATM   24  O3  UNL     1     -12.351   2.098  10.609  1.00  0.00    -0.398 OA
ATOM     25  H3  UNL     1     -12.183   2.228   9.684  1.00  0.00     0.209 HD
ENDBRANCH  23  24
ENDBRANCH  19  23
BRANCH  20  26
HETATM   26  O4  UNL     1     -12.289   1.478  13.459  1.00  0.00    -0.390 OA
ATOM     27  H4  UNL     1     -13.160   1.486  13.837  1.00  0.00     0.210 HD
ENDBRANCH  20  26
BRANCH  21  28
HETATM   28  O5  UNL     1     -11.205   3.342  15.879  1.00  0.00    -0.390 OA
ATOM     29  H5  UNL     1     -11.651   2.710  16.430  1.00  0.00     0.210 HD
ENDBRANCH  21  28
BRANCH  22  30
HETATM   30  O6  UNL     1      -8.484   3.457  15.233  1.00  0.00    -0.388 OA
ATOM     31  H6  UNL     1      -8.880   3.675  16.069  1.00  0.00     0.210 HD
ENDBRANCH  22  30
ENDBRANCH  16  17
ENDBRANCH  12  16
ENDBRANCH   6   9
TORSDOF 8
ENDMDL
