MODEL 16
REMARK VINA RESULT: -5.906336604      5.343      9.234
REMARK  8 active torsions:
REMARK  status: ('A' for Active; 'I' for Inactive)
REMARK    1  A    between atoms: C5_6  and  C6_7 
REMARK    2  A    between atoms: C9_10  and  O1_11 
REMARK    3  A    between atoms: O1_11  and  C10_12 
REMARK    4  A    between atoms: C11_14  and  C12_15 
REMARK    5  A    between atoms: C12_15  and  O3_16 
REMARK    6  A    between atoms: C13_18  and  O4_19 
REMARK    7  A    between atoms: C14_21  and  O5_22 
REMARK    8  A    between atoms: C15_24  and  O6_25 
ROOT
HETATM    1  N1  UNL     1      -1.074   9.211   6.863  1.00  0.00    -0.191 NA
HETATM    2  C1  UNL     1      -1.887   8.833   7.596  1.00  0.00     0.099 C 
HETATM    3  C2  UNL     1      -2.914   8.381   8.507  1.00  0.00     0.044 A 
HETATM    4  C3  UNL     1      -3.402   7.104   8.374  1.00  0.00     0.023 A 
HETATM    5  C4  UNL     1      -4.385   6.650   9.234  1.00  0.00     0.014 A 
HETATM    6  C5  UNL     1      -4.901   7.451  10.237  1.00  0.00    -0.026 A 
HETATM    7  C18 UNL     1      -4.394   8.730  10.349  1.00  0.00     0.014 A 
HETATM    8  C19 UNL     1      -3.413   9.211   9.507  1.00  0.00     0.023 A 
ENDROOT
BRANCH   6   9
HETATM    9  C6  UNL     1      -5.933   6.951  11.128  1.00  0.00    -0.024 A 
HETATM   10  C7  UNL     1      -7.032   7.721  11.414  1.00  0.00     0.015 A 
HETATM   11  C8  UNL     1      -8.020   7.271  12.251  1.00  0.00     0.039 A 
HETATM   12  C9  UNL     1      -7.972   5.997  12.866  1.00  0.00     0.093 A 
HETATM   13  C16 UNL     1      -6.864   5.251  12.562  1.00  0.00     0.068 A 
HETATM   14 CL1  UNL     1      -6.685   3.663  13.255  1.00  0.00    -0.081 Cl
HETATM   15  C17 UNL     1      -5.857   5.724  11.702  1.00  0.00     0.039 A 
BRANCH  12  16
HETATM   16  O1  UNL     1      -8.983   5.650  13.664  1.00  0.00    -0.316 OA
BRANCH  16  17
HETATM   17  C10 UNL     1     -10.158   4.988  13.625  1.00  0.00     0.298 C 
HETATM   18  O2  UNL     1     -10.437   4.374  12.387  1.00  0.00    -0.348 OA
HETATM   19  C11 UNL     1     -11.292   3.308  12.478  1.00  0.00     0.179 C 
HETATM   20  C13 UNL     1     -12.230   3.363  13.658  1.00  0.00     0.180 C 
HETATM   21  C14 UNL     1     -11.453   3.432  14.971  1.00  0.00     0.183 C 
HETATM   22  C15 UNL     1     -10.032   3.784  14.590  1.00  0.00     0.205 C 
BRANCH  19  23
HETATM   23  C12 UNL     1     -12.167   3.228  11.232  1.00  0.00     0.198 C 
BRANCH  23  24
HETATM   24  O3  UNL     1     -12.315   1.924  10.781  1.00  0.00    -0.398 OA
ATOM     25  H3  UNL     1     -12.372   1.878   9.835  1.00  0.00     0.209 HD
ENDBRANCH  23  24
ENDBRANCH  19  23
BRANCH  20  26
HETATM   26  O4  UNL     1     -12.940   2.145  13.674  1.00  0.00    -0.390 OA
ATOM     27  H4  UNL     1     -13.712   2.283  14.209  1.00  0.00     0.210 HD
ENDBRANCH  20  26
BRANCH  21  28
HETATM   28  O5  UNL     1     -12.018   4.494  15.708  1.00  0.00    -0.390 OA
ATOM     29  H5  UNL     1     -12.876   4.197  15.986  1.00  0.00     0.210 HD
ENDBRANCH  21  28
BRANCH  22  30
HETATM   30  O6  UNL     1      -9.244   4.110  15.680  1.00  0.00    -0.388 OA
ATOM     31  H6  UNL     1      -9.526   4.932  16.065  1.00  0.00     0.210 HD
ENDBRANCH  22  30
ENDBRANCH  16  17
ENDBRANCH  12  16
ENDBRANCH   6   9
TORSDOF 8
ENDMDL
