MODEL 1
REMARK VINA RESULT: -7.397159576      0.000      0.000
REMARK  8 active torsions:
REMARK  status: ('A' for Active; 'I' for Inactive)
REMARK    1  A    between atoms: C5_6  and  C6_7 
REMARK    2  A    between atoms: C9_10  and  O1_11 
REMARK    3  A    between atoms: O1_11  and  C10_12 
REMARK    4  A    between atoms: C11_14  and  C12_15 
REMARK    5  A    between atoms: C12_15  and  O3_16 
REMARK    6  A    between atoms: C13_18  and  O4_19 
REMARK    7  A    between atoms: C14_21  and  O5_22 
REMARK    8  A    between atoms: C15_24  and  O6_25 
ROOT
HETATM    1  N1  UNL     1     -14.906   5.695  13.810  1.00  0.00    -0.191 NA
HETATM    2  C1  UNL     1     -13.809   5.922  13.518  1.00  0.00     0.099 C 
HETATM    3  C2  UNL     1     -12.437   6.219  13.175  1.00  0.00     0.044 A 
HETATM    4  C3  UNL     1     -11.602   5.184  12.829  1.00  0.00     0.023 A 
HETATM    5  C4  UNL     1     -10.285   5.444  12.497  1.00  0.00     0.014 A 
HETATM    6  C5  UNL     1      -9.773   6.730  12.504  1.00  0.00    -0.026 A 
HETATM    7  C18 UNL     1     -10.632   7.751  12.856  1.00  0.00     0.014 A 
HETATM    8  C19 UNL     1     -11.951   7.523  13.191  1.00  0.00     0.023 A 
ENDROOT
BRANCH   6   9
HETATM    9  C6  UNL     1      -8.387   6.977  12.151  1.00  0.00    -0.024 A 
HETATM   10  C7  UNL     1      -7.501   5.933  12.052  1.00  0.00     0.015 A 
HETATM   11  C8  UNL     1      -6.188   6.139  11.720  1.00  0.00     0.039 A 
HETATM   12  C9  UNL     1      -5.664   7.429  11.459  1.00  0.00     0.093 A 
HETATM   13  C16 UNL     1      -6.571   8.451  11.565  1.00  0.00     0.068 A 
HETATM   14 CL1  UNL     1      -6.053  10.087  11.269  1.00  0.00    -0.081 Cl
HETATM   15  C17 UNL     1      -7.916   8.225  11.907  1.00  0.00     0.039 A 
BRANCH  12  16
HETATM   16  O1  UNL     1      -4.373   7.526  11.143  1.00  0.00    -0.316 OA
BRANCH  16  17
HETATM   17  C10 UNL     1      -3.545   7.362  10.090  1.00  0.00     0.298 C 
HETATM   18  O2  UNL     1      -4.199   7.043   8.883  1.00  0.00    -0.348 OA
HETATM   19  C11 UNL     1      -3.493   7.391   7.761  1.00  0.00     0.179 C 
HETATM   20  C13 UNL     1      -1.999   7.444   7.960  1.00  0.00     0.180 C 
HETATM   21  C14 UNL     1      -1.628   8.442   9.056  1.00  0.00     0.183 C 
HETATM   22  C15 UNL     1      -2.916   8.745   9.790  1.00  0.00     0.205 C 
BRANCH  19  23
HETATM   23  C12 UNL     1      -3.747   6.384   6.645  1.00  0.00     0.198 C 
BRANCH  23  24
HETATM   24  O3  UNL     1      -3.048   5.203   6.840  1.00  0.00    -0.398 OA
ATOM     25  H3  UNL     1      -2.733   4.836   6.023  1.00  0.00     0.209 HD
ENDBRANCH  23  24
ENDBRANCH  19  23
BRANCH  20  26
HETATM   26  O4  UNL     1      -1.444   7.939   6.761  1.00  0.00    -0.390 OA
ATOM     27  H4  UNL     1      -0.500   7.891   6.855  1.00  0.00     0.210 HD
ENDBRANCH  20  26
BRANCH  21  28
HETATM   28  O5  UNL     1      -0.743   7.765   9.921  1.00  0.00    -0.390 OA
ATOM     29  H5  UNL     1      -0.384   8.425  10.502  1.00  0.00     0.210 HD
ENDBRANCH  21  28
BRANCH  22  30
HETATM   30  O6  UNL     1      -2.718   9.457  10.959  1.00  0.00    -0.388 OA
ATOM     31  H6  UNL     1      -3.310  10.199  11.005  1.00  0.00     0.210 HD
ENDBRANCH  22  30
ENDBRANCH  16  17
ENDBRANCH  12  16
ENDBRANCH   6   9
TORSDOF 8
ENDMDL
