MODEL 3
REMARK VINA RESULT: -7.134089822      2.339      6.069
REMARK  4 active torsions:
REMARK  status: ('A' for Active; 'I' for Inactive)
REMARK    1  A    between atoms: C2_2  and  O1_3 
REMARK    2  A    between atoms: C2_2  and  C3_5 
REMARK    3  A    between atoms: C3_5  and  O2_6 
REMARK    4  A    between atoms: C3_5  and  C4_8 
ROOT
HETATM    1  C4  UNL     1       1.982   6.222  55.999  1.00  0.00     0.131 C 
HETATM    2  C5  UNL     1       1.247   5.159  56.791  1.00  0.00     0.149 C 
HETATM    3  N1  UNL     1       0.579   4.272  55.851  1.00  0.00    -0.372 N 
ATOM      4  H1  UNL     1      -0.398   4.019  56.001  1.00  0.00     0.161 HD
HETATM    5  C6  UNL     1       1.277   3.753  54.723  1.00  0.00     0.136 A 
HETATM    6  N2  UNL     1       0.944   2.594  54.130  1.00  0.00    -0.315 N 
ATOM      7  H2  UNL     1       0.157   2.065  54.505  1.00  0.00     0.170 HD
HETATM    8  C7  UNL     1       1.598   2.097  53.065  1.00  0.00     0.196 A 
HETATM    9  N3  UNL     1       1.246   0.873  52.437  1.00  0.00    -0.063 NA
HETATM   10  N4  UNL     1       2.634   2.798  52.575  1.00  0.00    -0.295 N 
ATOM     11  H4  UNL     1       3.140   2.436  51.767  1.00  0.00     0.171 HD
HETATM   12  C8  UNL     1       3.025   3.976  53.126  1.00  0.00     0.278 A 
HETATM   13  O3  UNL     1       3.995   4.631  52.667  1.00  0.00    -0.265 OA
HETATM   14  C9  UNL     1       2.342   4.476  54.222  1.00  0.00     0.141 A 
HETATM   15  N5  UNL     1       2.670   5.688  54.863  1.00  0.00    -0.374 N 
ATOM     16  H5  UNL     1       3.454   6.224  54.491  1.00  0.00     0.160 HD
ENDROOT
BRANCH   1  17
HETATM   17  C3  UNL     1       0.975   7.293  55.641  1.00  0.00     0.170 C 
BRANCH  17  18
HETATM   18  C2  UNL     1       1.622   8.675  55.610  1.00  0.00     0.145 C 
HETATM   19  C1  UNL     1       0.923   9.538  56.626  1.00  0.00     0.042 C 
BRANCH  18  20
HETATM   20  O1  UNL     1       1.515   9.263  54.362  1.00  0.00    -0.393 OA
ATOM     21  H1  UNL     1       1.215   8.616  53.735  1.00  0.00     0.210 HD
ENDBRANCH  18  20
ENDBRANCH  17  18
BRANCH  17  22
HETATM   22  O2  UNL     1       0.040   7.323  56.692  1.00  0.00    -0.391 OA
ATOM     23  H2  UNL     1      -0.593   6.642  56.500  1.00  0.00     0.210 HD
ENDBRANCH  17  22
ENDBRANCH   1  17
TORSDOF 4
ENDMDL
