MODEL 2
REMARK VINA RESULT: -7.370243906      1.046      1.233
REMARK  4 active torsions:
REMARK  status: ('A' for Active; 'I' for Inactive)
REMARK    1  A    between atoms: C2_2  and  O1_3 
REMARK    2  A    between atoms: C2_2  and  C3_5 
REMARK    3  A    between atoms: C3_5  and  O2_6 
REMARK    4  A    between atoms: C3_5  and  C4_8 
ROOT
HETATM    1  C4  UNL     1       2.325   2.724  54.136  1.00  0.00     0.131 C 
HETATM    2  C5  UNL     1       3.462   3.574  53.603  1.00  0.00     0.149 C 
HETATM    3  N1  UNL     1       3.024   4.962  53.589  1.00  0.00    -0.372 N 
ATOM      4  H1  UNL     1       3.181   5.533  52.758  1.00  0.00     0.161 HD
HETATM    5  C6  UNL     1       2.379   5.530  54.725  1.00  0.00     0.136 A 
HETATM    6  N2  UNL     1       2.409   6.845  54.998  1.00  0.00    -0.315 N 
ATOM      7  H2  UNL     1       2.916   7.461  54.362  1.00  0.00     0.170 HD
HETATM    8  C7  UNL     1       1.804   7.389  56.068  1.00  0.00     0.196 A 
HETATM    9  N3  UNL     1       1.834   8.780  56.356  1.00  0.00    -0.063 NA
HETATM   10  N4  UNL     1       1.137   6.573  56.901  1.00  0.00    -0.295 N 
ATOM     11  H4  UNL     1       0.671   6.970  57.717  1.00  0.00     0.171 HD
HETATM   12  C8  UNL     1       1.067   5.235  56.686  1.00  0.00     0.278 A 
HETATM   13  O3  UNL     1       0.443   4.471  57.467  1.00  0.00    -0.265 OA
HETATM   14  C9  UNL     1       1.696   4.688  55.580  1.00  0.00     0.141 A 
HETATM   15  N5  UNL     1       1.680   3.312  55.270  1.00  0.00    -0.374 N 
ATOM     16  H5  UNL     1       1.172   2.691  55.899  1.00  0.00     0.160 HD
ENDROOT
BRANCH   1  17
HETATM   17  C3  UNL     1       1.384   2.459  52.981  1.00  0.00     0.170 C 
BRANCH  17  18
HETATM   18  C2  UNL     1       0.504   1.240  53.251  1.00  0.00     0.145 C 
HETATM   19  C1  UNL     1      -0.921   1.621  52.954  1.00  0.00     0.042 C 
BRANCH  18  20
HETATM   20  O1  UNL     1       0.599   0.820  54.566  1.00  0.00    -0.393 OA
ATOM     21  H1  UNL     1       0.333   1.528  55.141  1.00  0.00     0.210 HD
ENDBRANCH  18  20
ENDBRANCH  17  18
BRANCH  17  22
HETATM   22  O2  UNL     1       2.193   2.120  51.882  1.00  0.00    -0.391 OA
ATOM     23  H2  UNL     1       1.701   2.369  51.108  1.00  0.00     0.210 HD
ENDBRANCH  17  22
ENDBRANCH   1  17
TORSDOF 4
ENDMDL
