MODEL 5
REMARK VINA RESULT: -6.927207513      3.057      5.355
REMARK  4 active torsions:
REMARK  status: ('A' for Active; 'I' for Inactive)
REMARK    1  A    between atoms: C2_2  and  O1_3 
REMARK    2  A    between atoms: C2_2  and  C3_5 
REMARK    3  A    between atoms: C3_5  and  O2_6 
REMARK    4  A    between atoms: C3_5  and  C4_8 
ROOT
HETATM    1  C4  UNL     1      -0.423   1.353  53.809  1.00  0.00     0.131 C 
HETATM    2  C5  UNL     1      -0.224   2.838  54.038  1.00  0.00     0.149 C 
HETATM    3  N1  UNL     1       1.203   3.093  54.157  1.00  0.00    -0.372 N 
ATOM      4  H1  UNL     1       1.551   3.673  54.921  1.00  0.00     0.161 HD
HETATM    5  C6  UNL     1       2.119   2.539  53.217  1.00  0.00     0.136 A 
HETATM    6  N2  UNL     1       3.309   3.100  52.942  1.00  0.00    -0.315 N 
ATOM      7  H2  UNL     1       3.565   3.959  53.429  1.00  0.00     0.170 HD
HETATM    8  C7  UNL     1       4.179   2.584  52.057  1.00  0.00     0.196 A 
HETATM    9  N3  UNL     1       5.438   3.177  51.766  1.00  0.00    -0.063 NA
HETATM   10  N4  UNL     1       3.837   1.453  51.419  1.00  0.00    -0.295 N 
ATOM     11  H4  UNL     1       4.487   1.048  50.744  1.00  0.00     0.171 HD
HETATM   12  C8  UNL     1       2.651   0.834  51.648  1.00  0.00     0.278 A 
HETATM   13  O3  UNL     1       2.332  -0.225  51.050  1.00  0.00    -0.265 OA
HETATM   14  C9  UNL     1       1.764   1.376  52.563  1.00  0.00     0.141 A 
HETATM   15  N5  UNL     1       0.511   0.808  52.871  1.00  0.00    -0.374 N 
ATOM     16  H5  UNL     1       0.250  -0.053  52.390  1.00  0.00     0.160 HD
ENDROOT
BRANCH   1  17
HETATM   17  C3  UNL     1      -0.375   0.679  55.162  1.00  0.00     0.170 C 
BRANCH  17  18
HETATM   18  C2  UNL     1      -1.723   0.765  55.874  1.00  0.00     0.145 C 
HETATM   19  C1  UNL     1      -1.787  -0.350  56.883  1.00  0.00     0.042 C 
BRANCH  18  20
HETATM   20  O1  UNL     1      -2.779   0.642  54.990  1.00  0.00    -0.393 OA
ATOM     21  H1  UNL     1      -3.596   0.661  55.474  1.00  0.00     0.210 HD
ENDBRANCH  18  20
ENDBRANCH  17  18
BRANCH  17  22
HETATM   22  O2  UNL     1       0.527   1.425  55.943  1.00  0.00    -0.391 OA
ATOM     23  H2  UNL     1       0.413   2.331  55.683  1.00  0.00     0.210 HD
ENDBRANCH  17  22
ENDBRANCH   1  17
TORSDOF 4
ENDMDL
