MODEL 1
REMARK VINA RESULT: -7.682407204      0.000      0.000
REMARK  4 active torsions:
REMARK  status: ('A' for Active; 'I' for Inactive)
REMARK    1  A    between atoms: C2_2  and  O1_3 
REMARK    2  A    between atoms: C2_2  and  C3_5 
REMARK    3  A    between atoms: C3_5  and  O2_6 
REMARK    4  A    between atoms: C3_5  and  C4_8 
ROOT
HETATM    1  C4  UNL     1       2.835   2.670  53.826  1.00  0.00     0.131 C 
HETATM    2  C5  UNL     1       3.929   3.638  53.419  1.00  0.00     0.149 C 
HETATM    3  N1  UNL     1       3.371   4.982  53.424  1.00  0.00    -0.372 N 
ATOM      4  H1  UNL     1       3.539   5.601  52.630  1.00  0.00     0.161 HD
HETATM    5  C6  UNL     1       2.593   5.440  54.525  1.00  0.00     0.136 A 
HETATM    6  N2  UNL     1       2.485   6.740  54.850  1.00  0.00    -0.315 N 
ATOM      7  H2  UNL     1       2.981   7.425  54.281  1.00  0.00     0.170 HD
HETATM    8  C7  UNL     1       1.753   7.181  55.888  1.00  0.00     0.196 A 
HETATM    9  N3  UNL     1       1.637   8.555  56.231  1.00  0.00    -0.063 NA
HETATM   10  N4  UNL     1       1.101   6.273  56.633  1.00  0.00    -0.295 N 
ATOM     11  H4  UNL     1       0.540   6.592  57.424  1.00  0.00     0.171 HD
HETATM   12  C8  UNL     1       1.167   4.945  56.362  1.00  0.00     0.278 A 
HETATM   13  O3  UNL     1       0.556   4.096  57.061  1.00  0.00    -0.265 OA
HETATM   14  C9  UNL     1       1.925   4.505  55.289  1.00  0.00     0.141 A 
HETATM   15  N5  UNL     1       2.055   3.148  54.927  1.00  0.00    -0.374 N 
ATOM     16  H5  UNL     1       1.559   2.457  55.490  1.00  0.00     0.160 HD
ENDROOT
BRANCH   1  17
HETATM   17  C3  UNL     1       2.012   2.376  52.591  1.00  0.00     0.170 C 
BRANCH  17  18
HETATM   18  C2  UNL     1       1.618   0.903  52.524  1.00  0.00     0.145 C 
HETATM   19  C1  UNL     1       2.377   0.271  51.389  1.00  0.00     0.042 C 
BRANCH  18  20
HETATM   20  O1  UNL     1       0.261   0.744  52.310  1.00  0.00    -0.393 OA
ATOM     21  H1  UNL     1      -0.212   1.004  53.092  1.00  0.00     0.210 HD
ENDBRANCH  18  20
ENDBRANCH  17  18
BRANCH  17  22
HETATM   22  O2  UNL     1       2.857   2.605  51.490  1.00  0.00    -0.391 OA
ATOM     23  H2  UNL     1       3.668   2.947  51.847  1.00  0.00     0.210 HD
ENDBRANCH  17  22
ENDBRANCH   1  17
TORSDOF 4
ENDMDL
