MODEL 7
REMARK VINA RESULT: -6.577819307      7.041      8.477
REMARK  4 active torsions:
REMARK  status: ('A' for Active; 'I' for Inactive)
REMARK    1  A    between atoms: C2_2  and  O1_3 
REMARK    2  A    between atoms: C2_2  and  C3_5 
REMARK    3  A    between atoms: C3_5  and  O2_6 
REMARK    4  A    between atoms: C3_5  and  C4_8 
ROOT
HETATM    1  C4  UNL     1      -2.917   2.151  59.302  1.00  0.00     0.131 C 
HETATM    2  C5  UNL     1      -1.845   3.216  59.426  1.00  0.00     0.149 C 
HETATM    3  N1  UNL     1      -2.495   4.481  59.735  1.00  0.00    -0.372 N 
ATOM      4  H1  UNL     1      -2.238   5.321  59.216  1.00  0.00     0.161 HD
HETATM    5  C6  UNL     1      -3.486   4.557  60.755  1.00  0.00     0.136 A 
HETATM    6  N2  UNL     1      -3.748   5.686  61.434  1.00  0.00    -0.315 N 
ATOM      7  H2  UNL     1      -3.213   6.524  61.207  1.00  0.00     0.170 HD
HETATM    8  C7  UNL     1      -4.682   5.766  62.398  1.00  0.00     0.196 A 
HETATM    9  N3  UNL     1      -4.960   6.961  63.115  1.00  0.00    -0.063 NA
HETATM   10  N4  UNL     1      -5.384   4.660  62.691  1.00  0.00    -0.295 N 
ATOM     11  H4  UNL     1      -6.098   4.704  63.420  1.00  0.00     0.171 HD
HETATM   12  C8  UNL     1      -5.172   3.485  62.046  1.00  0.00     0.278 A 
HETATM   13  O3  UNL     1      -5.829   2.450  62.322  1.00  0.00    -0.265 OA
HETATM   14  C9  UNL     1      -4.206   3.417  61.054  1.00  0.00     0.141 A 
HETATM   15  N5  UNL     1      -3.912   2.246  60.327  1.00  0.00    -0.374 N 
ATOM     16  H5  UNL     1      -4.446   1.405  60.546  1.00  0.00     0.160 HD
ENDROOT
BRANCH   1  17
HETATM   17  C3  UNL     1      -3.486   2.247  57.904  1.00  0.00     0.170 C 
BRANCH  17  18
HETATM   18  C2  UNL     1      -4.587   1.212  57.680  1.00  0.00     0.145 C 
HETATM   19  C1  UNL     1      -3.933  -0.078  57.265  1.00  0.00     0.042 C 
BRANCH  18  20
HETATM   20  O1  UNL     1      -5.473   1.612  56.696  1.00  0.00    -0.393 OA
ATOM     21  H1  UNL     1      -5.928   2.395  56.984  1.00  0.00     0.210 HD
ENDBRANCH  18  20
ENDBRANCH  17  18
BRANCH  17  22
HETATM   22  O2  UNL     1      -2.441   1.900  57.028  1.00  0.00    -0.391 OA
ATOM     23  H2  UNL     1      -2.017   2.716  56.789  1.00  0.00     0.210 HD
ENDBRANCH  17  22
ENDBRANCH   1  17
TORSDOF 4
ENDMDL
