MODEL 1
REMARK VINA RESULT: -5.434192289      0.000      0.000
REMARK  4 active torsions:
REMARK  status: ('A' for Active; 'I' for Inactive)
REMARK    1  A    between atoms: O1_1  and  C1_3 
REMARK    2  A    between atoms: C1_3  and  C2_4 
REMARK    3  A    between atoms: C5_10  and  O2_11 
REMARK    4  A    between atoms: C6_13  and  O3_14 
ROOT
HETATM    1  C2  UNL     1      98.832  11.160   6.444  1.00  0.00     0.066 C 
HETATM    2  C3  UNL     1      99.862  11.775   7.309  1.00  0.00     0.241 C 
HETATM    3  N1  UNL     1      99.560  13.073   7.810  1.00  0.00    -0.072 N 
ATOM      4  H11 UNL     1      99.859  13.794   7.155  1.00  0.00     0.277 HD
ATOM      5  H12 UNL     1     100.161  13.306   8.601  1.00  0.00     0.277 HD
HETATM    6  C4  UNL     1      98.177  13.236   8.154  1.00  0.00     0.266 C 
HETATM    7  C5  UNL     1      97.354  13.139   6.914  1.00  0.00     0.172 C 
HETATM    8  C6  UNL     1      97.755  12.071   5.969  1.00  0.00     0.156 C 
ENDROOT
BRANCH   1   9
HETATM    9  C1  UNL     1      99.532  10.618   5.194  1.00  0.00     0.173 C 
BRANCH   9  10
HETATM   10  O1  UNL     1      98.840   9.537   4.667  1.00  0.00    -0.400 OA
ATOM     11  H1  UNL     1      99.134   8.722   5.057  1.00  0.00     0.209 HD
ENDBRANCH   9  10
ENDBRANCH   1   9
BRANCH   8  12
HETATM   12  O3  UNL     1      98.068  12.616   4.707  1.00  0.00    -0.392 OA
ATOM     13  H3  UNL     1      98.489  11.972   4.149  1.00  0.00     0.210 HD
ENDBRANCH   8  12
BRANCH   7  14
HETATM   14  O2  UNL     1      97.409  14.394   6.269  1.00  0.00    -0.391 OA
ATOM     15  H2  UNL     1      96.515  14.670   6.105  1.00  0.00     0.210 HD
ENDBRANCH   7  14
TORSDOF 4
ENDMDL
