MODEL 18
REMARK VINA RESULT: -4.360584782      3.874      4.605
REMARK  4 active torsions:
REMARK  status: ('A' for Active; 'I' for Inactive)
REMARK    1  A    between atoms: O1_1  and  C1_3 
REMARK    2  A    between atoms: C1_3  and  C2_4 
REMARK    3  A    between atoms: C5_10  and  O2_11 
REMARK    4  A    between atoms: C6_13  and  O3_14 
ROOT
HETATM    1  C2  UNL     1     102.285  10.168   8.226  1.00  0.00     0.066 C 
HETATM    2  C3  UNL     1     100.920   9.664   8.495  1.00  0.00     0.241 C 
HETATM    3  N1  UNL     1      99.851  10.519   8.108  1.00  0.00    -0.072 N 
ATOM      4  H11 UNL     1      99.621  11.174   8.854  1.00  0.00     0.277 HD
ATOM      5  H12 UNL     1      98.972  10.004   8.060  1.00  0.00     0.277 HD
HETATM    6  C4  UNL     1     100.104  11.214   6.879  1.00  0.00     0.266 C 
HETATM    7  C5  UNL     1     101.248  12.149   7.076  1.00  0.00     0.172 C 
HETATM    8  C6  UNL     1     102.383  11.608   7.859  1.00  0.00     0.156 C 
ENDROOT
BRANCH   1   9
HETATM    9  C1  UNL     1     103.114   9.981   9.500  1.00  0.00     0.173 C 
BRANCH   9  10
HETATM   10  O1  UNL     1     102.925   8.714  10.034  1.00  0.00    -0.400 OA
ATOM     11  H1  UNL     1     103.439   8.599  10.825  1.00  0.00     0.209 HD
ENDBRANCH   9  10
ENDBRANCH   1   9
BRANCH   8  12
HETATM   12  O3  UNL     1     102.629  12.407   8.995  1.00  0.00    -0.392 OA
ATOM     13  H3  UNL     1     103.257  13.094   8.802  1.00  0.00     0.210 HD
ENDBRANCH   8  12
BRANCH   7  14
HETATM   14  O2  UNL     1     100.744  13.311   7.704  1.00  0.00    -0.391 OA
ATOM     15  H2  UNL     1     100.153  13.030   8.392  1.00  0.00     0.210 HD
ENDBRANCH   7  14
TORSDOF 4
ENDMDL
