MODEL 14
REMARK VINA RESULT: -4.533391698      3.494      4.790
REMARK  4 active torsions:
REMARK  status: ('A' for Active; 'I' for Inactive)
REMARK    1  A    between atoms: O1_1  and  C1_3 
REMARK    2  A    between atoms: C1_3  and  C2_4 
REMARK    3  A    between atoms: C5_10  and  O2_11 
REMARK    4  A    between atoms: C6_13  and  O3_14 
ROOT
HETATM    1  C2  UNL     1     101.866  11.820   7.206  1.00  0.00     0.066 C 
HETATM    2  C3  UNL     1     102.540  12.737   8.152  1.00  0.00     0.241 C 
HETATM    3  N1  UNL     1     102.915  12.175   9.405  1.00  0.00    -0.072 N 
ATOM      4  H11 UNL     1     102.151  12.244  10.077  1.00  0.00     0.277 HD
ATOM      5  H12 UNL     1     103.605  12.761   9.874  1.00  0.00     0.277 HD
HETATM    6  C4  UNL     1     103.380  10.823   9.298  1.00  0.00     0.266 C 
HETATM    7  C5  UNL     1     102.254   9.955   8.847  1.00  0.00     0.172 C 
HETATM    8  C6  UNL     1     101.404  10.525   7.776  1.00  0.00     0.156 C 
ENDROOT
BRANCH   1   9
HETATM    9  C1  UNL     1     100.622  12.533   6.668  1.00  0.00     0.173 C 
BRANCH   9  10
HETATM   10  O1  UNL     1     100.061  13.352   7.638  1.00  0.00    -0.400 OA
ATOM     11  H1  UNL     1     100.220  14.268   7.441  1.00  0.00     0.209 HD
ENDBRANCH   9  10
ENDBRANCH   1   9
BRANCH   8  12
HETATM   12  O3  UNL     1     100.061  10.604   8.198  1.00  0.00    -0.392 OA
ATOM     13  H3  UNL     1      99.527  11.067   7.562  1.00  0.00     0.210 HD
ENDBRANCH   8  12
BRANCH   7  14
HETATM   14  O2  UNL     1     101.464   9.662   9.981  1.00  0.00    -0.391 OA
ATOM     15  H2  UNL     1     100.899  10.409  10.136  1.00  0.00     0.210 HD
ENDBRANCH   7  14
TORSDOF 4
ENDMDL
