MODEL 5
REMARK VINA RESULT: -5.532358041      1.536      3.774
REMARK  5 active torsions:
REMARK  status: ('A' for Active; 'I' for Inactive)
REMARK    1  A    between atoms: O1_1  and  C1_3 
REMARK    2  A    between atoms: C1_3  and  C2_4 
REMARK    3  A    between atoms: C4_8  and  O2_9 
REMARK    4  A    between atoms: C5_11  and  O3_12 
REMARK    5  A    between atoms: C6_14  and  O4_15 
ROOT
HETATM    1  C2  UNL     1      40.279 -47.254   6.266  1.00  0.00     0.131 C 
HETATM    2  N1  UNL     1      41.670 -47.127   6.501  1.00  0.00    -0.410 N 
ATOM      3  H1  UNL     1      42.357 -47.590   5.905  1.00  0.00     0.153 HD
HETATM    4  C3  UNL     1      42.060 -46.327   7.603  1.00  0.00     0.148 C 
HETATM    5  C4  UNL     1      41.277 -45.049   7.752  1.00  0.00     0.166 C 
HETATM    6  C5  UNL     1      39.811 -45.493   7.848  1.00  0.00     0.179 C 
HETATM    7  C6  UNL     1      39.486 -45.991   6.467  1.00  0.00     0.173 C 
ENDROOT
BRANCH   1   8
HETATM    8  C1  UNL     1      40.079 -47.677   4.816  1.00  0.00     0.191 C 
BRANCH   8   9
HETATM    9  O1  UNL     1      40.706 -48.892   4.615  1.00  0.00    -0.399 OA
ATOM     10  H1  UNL     1      40.468 -49.480   5.322  1.00  0.00     0.209 HD
ENDBRANCH   8   9
ENDBRANCH   1   8
BRANCH   7  11
HETATM   11  O4  UNL     1      39.967 -45.055   5.541  1.00  0.00    -0.391 OA
ATOM     12  H4  UNL     1      40.838 -45.339   5.288  1.00  0.00     0.210 HD
ENDBRANCH   7  11
BRANCH   6  13
HETATM   13  O3  UNL     1      38.992 -44.483   8.284  1.00  0.00    -0.390 OA
ATOM     14  H3  UNL     1      38.895 -43.796   7.635  1.00  0.00     0.210 HD
ENDBRANCH   6  13
BRANCH   5  15
HETATM   15  O2  UNL     1      41.680 -44.353   8.855  1.00  0.00    -0.391 OA
ATOM     16  H2  UNL     1      42.287 -44.863   9.378  1.00  0.00     0.210 HD
ENDBRANCH   5  15
TORSDOF 5
ENDMDL
