MODEL 2
REMARK VINA RESULT: -5.738990680      1.401      3.682
REMARK  5 active torsions:
REMARK  status: ('A' for Active; 'I' for Inactive)
REMARK    1  A    between atoms: O1_1  and  C1_3 
REMARK    2  A    between atoms: C1_3  and  C2_4 
REMARK    3  A    between atoms: C4_8  and  O2_9 
REMARK    4  A    between atoms: C5_11  and  O3_12 
REMARK    5  A    between atoms: C6_14  and  O4_15 
ROOT
HETATM    1  C2  UNL     1      39.893 -47.238   5.875  1.00  0.00     0.131 C 
HETATM    2  N1  UNL     1      40.425 -47.687   7.108  1.00  0.00    -0.410 N 
ATOM      3  H1  UNL     1      41.044 -48.496   7.161  1.00  0.00     0.153 HD
HETATM    4  C3  UNL     1      40.056 -46.956   8.265  1.00  0.00     0.148 C 
HETATM    5  C4  UNL     1      40.059 -45.461   8.085  1.00  0.00     0.166 C 
HETATM    6  C5  UNL     1      39.108 -45.203   6.908  1.00  0.00     0.179 C 
HETATM    7  C6  UNL     1      39.845 -45.742   5.714  1.00  0.00     0.173 C 
ENDROOT
BRANCH   1   8
HETATM    8  C1  UNL     1      40.774 -47.777   4.754  1.00  0.00     0.191 C 
BRANCH   8   9
HETATM    9  O1  UNL     1      40.760 -49.157   4.800  1.00  0.00    -0.399 OA
ATOM     10  H1  UNL     1      41.208 -49.494   4.033  1.00  0.00     0.209 HD
ENDBRANCH   8   9
ENDBRANCH   1   8
BRANCH   7  11
HETATM   11  O4  UNL     1      41.169 -45.283   5.773  1.00  0.00    -0.391 OA
ATOM     12  H4  UNL     1      41.388 -45.188   6.692  1.00  0.00     0.210 HD
ENDBRANCH   7  11
BRANCH   6  13
HETATM   13  O3  UNL     1      38.765 -43.880   6.801  1.00  0.00    -0.390 OA
ATOM     14  H3  UNL     1      38.030 -43.655   7.359  1.00  0.00     0.210 HD
ENDBRANCH   6  13
BRANCH   5  15
HETATM   15  O2  UNL     1      39.656 -44.829   9.225  1.00  0.00    -0.391 OA
ATOM     16  H2  UNL     1      38.714 -44.888   9.333  1.00  0.00     0.210 HD
ENDBRANCH   5  15
TORSDOF 5
ENDMDL
