MODEL 14
REMARK VINA RESULT: -7.800981317      1.998      2.709
REMARK  2 active torsions:
REMARK  status: ('A' for Active; 'I' for Inactive)
REMARK    1  A    between atoms: C2_2  and  C3_3 
REMARK    2  A    between atoms: C3_3  and  C4_4 
ROOT
HETATM    1  C4  UNL     1       4.723  11.330  23.821  1.00  0.00     0.106 A 
HETATM    2  N1  UNL     1       3.772  12.254  24.147  1.00  0.00    -0.344 N 
ATOM      3  H1  UNL     1       2.793  12.016  23.987  1.00  0.00     0.167 HD
HETATM    4  C5  UNL     1       4.053  13.444  24.660  1.00  0.00     0.047 A 
HETATM    5  C6  UNL     1       3.085  14.379  24.990  1.00  0.00     0.030 A 
HETATM    6  C7  UNL     1       3.417  15.606  25.523  1.00  0.00     0.002 A 
HETATM    7  C8  UNL     1       4.731  15.938  25.744  1.00  0.00     0.001 A 
HETATM    8  C9  UNL     1       5.689  15.003  25.414  1.00  0.00     0.017 A 
HETATM    9  C10 UNL     1       5.373  13.771  24.880  1.00  0.00     0.037 A 
HETATM   10  C11 UNL     1       6.331  12.828  24.546  1.00  0.00     0.143 A 
HETATM   11  N2  UNL     1       7.674  12.849  24.629  1.00  0.00    -0.313 N 
ATOM     12  H2  UNL     1       8.217  13.634  24.988  1.00  0.00     0.170 HD
HETATM   13  C12 UNL     1       8.205  11.704  24.178  1.00  0.00     0.209 A 
HETATM   14  N3  UNL     1       9.586  11.321  24.092  1.00  0.00    -0.062 NA
HETATM   15  N4  UNL     1       7.151  10.959  23.807  1.00  0.00    -0.264 N 
ATOM     16  H4  UNL     1       7.213  10.019  23.415  1.00  0.00     0.190 HD
HETATM   17  N5  UNL     1       6.016  11.617  24.021  1.00  0.00    -0.224 N 
ENDROOT
BRANCH   1  18
HETATM   18  C3  UNL     1       4.234  10.083  23.241  1.00  0.00     0.078 C 
BRANCH  18  19
HETATM   19  C2  UNL     1       4.170   8.895  24.125  1.00  0.00     0.003 C 
HETATM   20  C1  UNL     1       5.200   7.846  23.901  1.00  0.00     0.005 C 
ENDBRANCH  18  19
ENDBRANCH   1  18
TORSDOF 2
ENDMDL
