MODEL 2
REMARK VINA RESULT: -8.807233035      1.275      3.953
REMARK  2 active torsions:
REMARK  status: ('A' for Active; 'I' for Inactive)
REMARK    1  A    between atoms: C2_2  and  C3_3 
REMARK    2  A    between atoms: C3_3  and  C4_4 
ROOT
HETATM    1  C4  UNL     1       8.208  13.661  25.985  1.00  0.00     0.106 A 
HETATM    2  N1  UNL     1       7.294  14.582  26.408  1.00  0.00    -0.344 N 
ATOM      3  H1  UNL     1       7.589  15.271  27.100  1.00  0.00     0.167 HD
HETATM    4  C5  UNL     1       6.043  14.629  25.969  1.00  0.00     0.047 A 
HETATM    5  C6  UNL     1       5.119  15.566  26.402  1.00  0.00     0.030 A 
HETATM    6  C7  UNL     1       3.827  15.582  25.920  1.00  0.00     0.002 A 
HETATM    7  C8  UNL     1       3.419  14.661  24.989  1.00  0.00     0.001 A 
HETATM    8  C9  UNL     1       4.343  13.732  24.562  1.00  0.00     0.017 A 
HETATM    9  C10 UNL     1       5.640  13.702  25.034  1.00  0.00     0.037 A 
HETATM   10  C11 UNL     1       6.573  12.770  24.609  1.00  0.00     0.143 A 
HETATM   11  N2  UNL     1       6.487  11.753  23.734  1.00  0.00    -0.313 N 
ATOM     12  H2  UNL     1       5.645  11.512  23.211  1.00  0.00     0.170 HD
HETATM   13  C12 UNL     1       7.652  11.097  23.637  1.00  0.00     0.209 A 
HETATM   14  N3  UNL     1       7.984   9.961  22.825  1.00  0.00    -0.062 NA
HETATM   15  N4  UNL     1       8.476  11.735  24.483  1.00  0.00    -0.264 N 
ATOM     16  H4  UNL     1       9.451  11.481  24.647  1.00  0.00     0.190 HD
HETATM   17  N5  UNL     1       7.847  12.745  25.076  1.00  0.00    -0.224 N 
ENDROOT
BRANCH   1  18
HETATM   18  C3  UNL     1       9.531  13.741  26.595  1.00  0.00     0.078 C 
BRANCH  18  19
HETATM   19  C2  UNL     1      10.286  15.005  26.433  1.00  0.00     0.003 C 
HETATM   20  C1  UNL     1      11.766  14.912  26.539  1.00  0.00     0.005 C 
ENDBRANCH  18  19
ENDBRANCH   1  18
TORSDOF 2
ENDMDL
