MODEL 5
REMARK VINA RESULT: -8.353332074      0.876      4.119
REMARK  2 active torsions:
REMARK  status: ('A' for Active; 'I' for Inactive)
REMARK    1  A    between atoms: C2_2  and  C3_3 
REMARK    2  A    between atoms: C3_3  and  C4_4 
ROOT
HETATM    1  C4  UNL     1       6.423  14.191  25.736  1.00  0.00     0.106 A 
HETATM    2  N1  UNL     1       5.775  13.305  24.926  1.00  0.00    -0.344 N 
ATOM      3  H1  UNL     1       4.775  13.434  24.771  1.00  0.00     0.167 HD
HETATM    4  C5  UNL     1       6.375  12.285  24.327  1.00  0.00     0.047 A 
HETATM    5  C6  UNL     1       5.713  11.388  23.504  1.00  0.00     0.030 A 
HETATM    6  C7  UNL     1       6.373  10.339  22.899  1.00  0.00     0.002 A 
HETATM    7  C8  UNL     1       7.719  10.155  23.097  1.00  0.00     0.001 A 
HETATM    8  C9  UNL     1       8.371  11.051  23.916  1.00  0.00     0.017 A 
HETATM    9  C10 UNL     1       7.725  12.105  24.530  1.00  0.00     0.037 A 
HETATM   10  C11 UNL     1       8.376  13.009  25.354  1.00  0.00     0.143 A 
HETATM   11  N2  UNL     1       9.660  13.097  25.748  1.00  0.00    -0.313 N 
ATOM     12  H2  UNL     1      10.397  12.453  25.460  1.00  0.00     0.170 HD
HETATM   13  C12 UNL     1       9.844  14.142  26.568  1.00  0.00     0.209 A 
HETATM   14  N3  UNL     1      11.050  14.586  27.207  1.00  0.00    -0.062 NA
HETATM   15  N4  UNL     1       8.632  14.710  26.677  1.00  0.00    -0.264 N 
ATOM     16  H4  UNL     1       8.428  15.537  27.238  1.00  0.00     0.190 HD
HETATM   17  N5  UNL     1       7.737  14.044  25.954  1.00  0.00    -0.224 N 
ENDROOT
BRANCH   1  18
HETATM   18  C3  UNL     1       5.599  15.237  26.333  1.00  0.00     0.078 C 
BRANCH  18  19
HETATM   19  C2  UNL     1       4.577  15.879  25.473  1.00  0.00     0.003 C 
HETATM   20  C1  UNL     1       3.277  15.170  25.347  1.00  0.00     0.005 C 
ENDBRANCH  18  19
ENDBRANCH   1  18
TORSDOF 2
ENDMDL
