MODEL 20
REMARK VINA RESULT: -7.398847290      3.236      4.718
REMARK  2 active torsions:
REMARK  status: ('A' for Active; 'I' for Inactive)
REMARK    1  A    between atoms: C2_2  and  C3_3 
REMARK    2  A    between atoms: C3_3  and  C4_4 
ROOT
HETATM    1  C4  UNL     1       4.155   9.836  23.534  1.00  0.00     0.106 A 
HETATM    2  N1  UNL     1       3.733  11.090  23.867  1.00  0.00    -0.344 N 
ATOM      3  H1  UNL     1       2.733  11.289  23.832  1.00  0.00     0.167 HD
HETATM    4  C5  UNL     1       4.554  12.066  24.233  1.00  0.00     0.047 A 
HETATM    5  C6  UNL     1       4.122  13.338  24.571  1.00  0.00     0.030 A 
HETATM    6  C7  UNL     1       5.008  14.326  24.948  1.00  0.00     0.002 A 
HETATM    7  C8  UNL     1       6.355  14.071  25.000  1.00  0.00     0.001 A 
HETATM    8  C9  UNL     1       6.778  12.803  24.663  1.00  0.00     0.017 A 
HETATM    9  C10 UNL     1       5.905  11.804  24.283  1.00  0.00     0.037 A 
HETATM   10  C11 UNL     1       6.325  10.528  23.944  1.00  0.00     0.143 A 
HETATM   11  N2  UNL     1       7.550   9.975  23.885  1.00  0.00    -0.313 N 
ATOM     12  H2  UNL     1       8.415  10.465  24.111  1.00  0.00     0.170 HD
HETATM   13  C12 UNL     1       7.485   8.695  23.492  1.00  0.00     0.209 A 
HETATM   14  N3  UNL     1       8.552   7.754  23.302  1.00  0.00    -0.062 NA
HETATM   15  N4  UNL     1       6.177   8.459  23.305  1.00  0.00    -0.264 N 
ATOM     16  H4  UNL     1       5.785   7.568  22.999  1.00  0.00     0.190 HD
HETATM   17  N5  UNL     1       5.463   9.549  23.572  1.00  0.00    -0.224 N 
ENDROOT
BRANCH   1  18
HETATM   18  C3  UNL     1       3.115   8.895  23.128  1.00  0.00     0.078 C 
BRANCH  18  19
HETATM   19  C2  UNL     1       1.865   8.871  23.924  1.00  0.00     0.003 C 
HETATM   20  C1  UNL     1       0.966   7.706  23.710  1.00  0.00     0.005 C 
ENDBRANCH  18  19
ENDBRANCH   1  18
TORSDOF 2
ENDMDL
