MODEL 12
REMARK VINA RESULT: -7.862592841      1.636      4.937
REMARK  2 active torsions:
REMARK  status: ('A' for Active; 'I' for Inactive)
REMARK    1  A    between atoms: C2_2  and  C3_3 
REMARK    2  A    between atoms: C3_3  and  C4_4 
ROOT
HETATM    1  C4  UNL     1       8.196  13.826  25.755  1.00  0.00     0.106 A 
HETATM    2  N1  UNL     1       8.642  12.696  25.132  1.00  0.00    -0.344 N 
ATOM      3  H1  UNL     1       9.626  12.446  25.232  1.00  0.00     0.167 HD
HETATM    4  C5  UNL     1       7.864  11.905  24.405  1.00  0.00     0.047 A 
HETATM    5  C6  UNL     1       8.321  10.758  23.775  1.00  0.00     0.030 A 
HETATM    6  C7  UNL     1       7.480   9.961  23.028  1.00  0.00     0.002 A 
HETATM    7  C8  UNL     1       6.154  10.286  22.887  1.00  0.00     0.001 A 
HETATM    8  C9  UNL     1       5.706  11.427  23.516  1.00  0.00     0.017 A 
HETATM    9  C10 UNL     1       6.535  12.236  24.267  1.00  0.00     0.037 A 
HETATM   10  C11 UNL     1       6.091  13.385  24.902  1.00  0.00     0.143 A 
HETATM   11  N2  UNL     1       4.879  13.969  24.951  1.00  0.00    -0.313 N 
ATOM     12  H2  UNL     1       4.046  13.607  24.488  1.00  0.00     0.170 HD
HETATM   13  C12 UNL     1       4.911  15.089  25.686  1.00  0.00     0.209 A 
HETATM   14  N3  UNL     1       3.845  16.002  25.987  1.00  0.00    -0.062 NA
HETATM   15  N4  UNL     1       6.184  15.192  26.101  1.00  0.00    -0.264 N 
ATOM     16  H4  UNL     1       6.545  15.945  26.687  1.00  0.00     0.190 HD
HETATM   17  N5  UNL     1       6.908  14.177  25.640  1.00  0.00    -0.224 N 
ENDROOT
BRANCH   1  18
HETATM   18  C3  UNL     1       9.198  14.591  26.491  1.00  0.00     0.078 C 
BRANCH  18  19
HETATM   19  C2  UNL     1      10.601  14.118  26.433  1.00  0.00     0.003 C 
HETATM   20  C1  UNL     1      11.471  14.482  27.583  1.00  0.00     0.005 C 
ENDBRANCH  18  19
ENDBRANCH   1  18
TORSDOF 2
ENDMDL
