MODEL 8
REMARK VINA RESULT: -8.271935952      2.497      4.096
REMARK  2 active torsions:
REMARK  status: ('A' for Active; 'I' for Inactive)
REMARK    1  A    between atoms: C2_2  and  C3_3 
REMARK    2  A    between atoms: C3_3  and  C4_4 
ROOT
HETATM    1  C4  UNL     1       3.603  11.337  23.907  1.00  0.00     0.106 A 
HETATM    2  N1  UNL     1       3.174  12.549  24.365  1.00  0.00    -0.344 N 
ATOM      3  H1  UNL     1       2.169  12.714  24.425  1.00  0.00     0.167 HD
HETATM    4  C5  UNL     1       3.993  13.525  24.735  1.00  0.00     0.047 A 
HETATM    5  C6  UNL     1       3.552  14.753  25.200  1.00  0.00     0.030 A 
HETATM    6  C7  UNL     1       4.436  15.743  25.577  1.00  0.00     0.002 A 
HETATM    7  C8  UNL     1       5.790  15.533  25.501  1.00  0.00     0.001 A 
HETATM    8  C9  UNL     1       6.222  14.309  25.039  1.00  0.00     0.017 A 
HETATM    9  C10 UNL     1       5.350  13.308  24.657  1.00  0.00     0.037 A 
HETATM   10  C11 UNL     1       5.778  12.076  24.192  1.00  0.00     0.143 A 
HETATM   11  N2  UNL     1       7.010  11.572  23.994  1.00  0.00    -0.313 N 
ATOM     12  H2  UNL     1       7.876  12.076  24.185  1.00  0.00     0.170 HD
HETATM   13  C12 UNL     1       6.951  10.322  23.514  1.00  0.00     0.209 A 
HETATM   14  N3  UNL     1       8.026   9.436  23.169  1.00  0.00    -0.062 NA
HETATM   15  N4  UNL     1       5.639  10.054  23.415  1.00  0.00    -0.264 N 
ATOM     16  H4  UNL     1       5.250   9.173  23.077  1.00  0.00     0.190 HD
HETATM   17  N5  UNL     1       4.918  11.095  23.818  1.00  0.00    -0.224 N 
ENDROOT
BRANCH   1  18
HETATM   18  C3  UNL     1       2.562  10.392  23.518  1.00  0.00     0.078 C 
BRANCH  18  19
HETATM   19  C2  UNL     1       1.700   9.842  24.590  1.00  0.00     0.003 C 
HETATM   20  C1  UNL     1       2.395   9.275  25.775  1.00  0.00     0.005 C 
ENDBRANCH  18  19
ENDBRANCH   1  18
TORSDOF 2
ENDMDL
