MODEL 2
REMARK VINA RESULT: -10.358358246      3.676      5.043
REMARK  4 active torsions:
REMARK  status: ('A' for Active; 'I' for Inactive)
REMARK    1  A    between atoms: O1_2  and  C2_3 
REMARK    2  A    between atoms: C4_5  and  C5_6 
REMARK    3  A    between atoms: C5_6  and  C6_7 
REMARK    4  A    between atoms: C16_25  and  O2_26 
ROOT
HETATM    1  C6  UNL     1       3.601  11.399  24.005  1.00  0.00     0.110 A 
HETATM    2  N1  UNL     1       3.240  12.601  24.493  1.00  0.00    -0.343 N 
ATOM      3  H1  UNL     1       2.248  12.802  24.619  1.00  0.00     0.167 HD
HETATM    4  C7  UNL     1       4.141  13.546  24.820  1.00  0.00     0.047 A 
HETATM    5  C8  UNL     1       3.769  14.784  25.321  1.00  0.00     0.030 A 
HETATM    6  C9  UNL     1       4.719  15.750  25.654  1.00  0.00     0.002 A 
HETATM    7  C10 UNL     1       6.065  15.492  25.489  1.00  0.00     0.001 A 
HETATM    8  C11 UNL     1       6.453  14.259  24.990  1.00  0.00     0.017 A 
HETATM    9  C12 UNL     1       5.495  13.316  24.666  1.00  0.00     0.037 A 
HETATM   10  C13 UNL     1       5.858  12.082  24.165  1.00  0.00     0.143 A 
HETATM   11  N2  UNL     1       7.081  11.568  23.907  1.00  0.00    -0.313 N 
ATOM     12  H2  UNL     1       7.981  12.027  24.045  1.00  0.00     0.170 HD
HETATM   13  C14 UNL     1       6.869  10.328  23.432  1.00  0.00     0.209 A 
HETATM   14  N3  UNL     1       7.924   9.446  23.037  1.00  0.00    -0.062 NA
HETATM   15  N4  UNL     1       5.540  10.086  23.400  1.00  0.00    -0.264 N 
ATOM     16  H4  UNL     1       5.093   9.226  23.083  1.00  0.00     0.190 HD
HETATM   17  N5  UNL     1       4.918  11.170  23.853  1.00  0.00    -0.224 N 
ENDROOT
BRANCH   1  18
HETATM   18  C5  UNL     1       2.580  10.372  23.652  1.00  0.00     0.117 C 
BRANCH  18  19
HETATM   19  C4  UNL     1       1.258  10.693  24.256  1.00  0.00    -0.046 A 
HETATM   20  C3  UNL     1       0.318  11.462  23.599  1.00  0.00     0.044 A 
HETATM   21  C2  UNL     1      -0.912  11.774  24.135  1.00  0.00     0.071 A 
HETATM   22  C18 UNL     1      -1.229  11.291  25.408  1.00  0.00     0.073 A 
HETATM   23  C16 UNL     1      -0.313  10.520  26.094  1.00  0.00     0.071 A 
HETATM   24  C15 UNL     1       0.904  10.232  25.519  1.00  0.00     0.044 A 
BRANCH  21  25
HETATM   25  O1  UNL     1      -1.843  12.548  23.458  1.00  0.00    -0.356 OA
HETATM   26  C1  UNL     1      -1.857  12.699  22.073  1.00  0.00     0.210 C 
ENDBRANCH  21  25
BRANCH  23  27
HETATM   27  O2  UNL     1      -0.660  10.060  27.351  1.00  0.00    -0.356 OA
HETATM   28  C17 UNL     1      -0.220   8.872  27.920  1.00  0.00     0.210 C 
ENDBRANCH  23  27
ENDBRANCH  18  19
ENDBRANCH   1  18
TORSDOF 4
ENDMDL
