MODEL 1
REMARK VINA RESULT: -10.368645833      0.000      0.000
REMARK  4 active torsions:
REMARK  status: ('A' for Active; 'I' for Inactive)
REMARK    1  A    between atoms: O1_2  and  C2_3 
REMARK    2  A    between atoms: C4_5  and  C5_6 
REMARK    3  A    between atoms: C5_6  and  C6_7 
REMARK    4  A    between atoms: C16_25  and  O2_26 
ROOT
HETATM    1  C6  UNL     1       7.198  12.135  24.224  1.00  0.00     0.110 A 
HETATM    2  N1  UNL     1       5.891  12.448  24.159  1.00  0.00    -0.343 N 
ATOM      3  H1  UNL     1       5.265  11.839  23.632  1.00  0.00     0.167 HD
HETATM    4  C7  UNL     1       5.379  13.536  24.765  1.00  0.00     0.047 A 
HETATM    5  C8  UNL     1       4.032  13.859  24.697  1.00  0.00     0.030 A 
HETATM    6  C9  UNL     1       3.523  14.991  25.333  1.00  0.00     0.002 A 
HETATM    7  C10 UNL     1       4.357  15.825  26.049  1.00  0.00     0.001 A 
HETATM    8  C11 UNL     1       5.705  15.517  26.127  1.00  0.00     0.017 A 
HETATM    9  C12 UNL     1       6.190  14.389  25.489  1.00  0.00     0.037 A 
HETATM   10  C13 UNL     1       7.530  14.063  25.552  1.00  0.00     0.143 A 
HETATM   11  N2  UNL     1       8.554  14.688  26.172  1.00  0.00    -0.313 N 
ATOM     12  H2  UNL     1       8.507  15.545  26.724  1.00  0.00     0.170 HD
HETATM   13  C14 UNL     1       9.649  13.950  25.916  1.00  0.00     0.209 A 
HETATM   14  N3  UNL     1      10.953  14.281  26.401  1.00  0.00    -0.062 NA
HETATM   15  N4  UNL     1       9.301  12.891  25.151  1.00  0.00    -0.264 N 
ATOM     16  H4  UNL     1       9.930  12.166  24.806  1.00  0.00     0.190 HD
HETATM   17  N5  UNL     1       7.992  12.963  24.929  1.00  0.00    -0.224 N 
ENDROOT
BRANCH   1  18
HETATM   18  C5  UNL     1       7.737  10.923  23.543  1.00  0.00     0.117 C 
BRANCH  18  19
HETATM   19  C4  UNL     1       6.642   9.996  23.145  1.00  0.00    -0.046 A 
HETATM   20  C3  UNL     1       6.232   9.864  21.833  1.00  0.00     0.044 A 
HETATM   21  C2  UNL     1       5.222   9.014  21.439  1.00  0.00     0.071 A 
HETATM   22  C18 UNL     1       4.577   8.245  22.412  1.00  0.00     0.073 A 
HETATM   23  C16 UNL     1       4.961   8.351  23.733  1.00  0.00     0.071 A 
HETATM   24  C15 UNL     1       5.975   9.214  24.081  1.00  0.00     0.044 A 
BRANCH  21  25
HETATM   25  O1  UNL     1       4.824   8.896  20.115  1.00  0.00    -0.356 OA
HETATM   26  C1  UNL     1       4.379   7.704  19.549  1.00  0.00     0.210 C 
ENDBRANCH  21  25
BRANCH  23  27
HETATM   27  O2  UNL     1       4.300   7.576  24.668  1.00  0.00    -0.356 OA
HETATM   28  C17 UNL     1       3.166   7.959  25.371  1.00  0.00     0.210 C 
ENDBRANCH  23  27
ENDBRANCH  18  19
ENDBRANCH   1  18
TORSDOF 4
ENDMDL
