MODEL 12
REMARK VINA RESULT: -9.560878754      4.128      7.628
REMARK  4 active torsions:
REMARK  status: ('A' for Active; 'I' for Inactive)
REMARK    1  A    between atoms: O1_2  and  C2_3 
REMARK    2  A    between atoms: C4_5  and  C5_6 
REMARK    3  A    between atoms: C5_6  and  C6_7 
REMARK    4  A    between atoms: C16_25  and  O2_26 
ROOT
HETATM    1  C6  UNL     1       2.587   9.980  24.705  1.00  0.00     0.110 A 
HETATM    2  N1  UNL     1       3.019   9.291  25.778  1.00  0.00    -0.343 N 
ATOM      3  H1  UNL     1       4.012   9.066  25.850  1.00  0.00     0.167 HD
HETATM    4  C7  UNL     1       2.189   8.888  26.758  1.00  0.00     0.047 A 
HETATM    5  C8  UNL     1       2.635   8.177  27.862  1.00  0.00     0.030 A 
HETATM    6  C9  UNL     1       1.758   7.769  28.867  1.00  0.00     0.002 A 
HETATM    7  C10 UNL     1       0.413   8.067  28.784  1.00  0.00     0.001 A 
HETATM    8  C11 UNL     1      -0.048   8.777  27.687  1.00  0.00     0.017 A 
HETATM    9  C12 UNL     1       0.839   9.172  26.701  1.00  0.00     0.037 A 
HETATM   10  C13 UNL     1       0.401   9.879  25.599  1.00  0.00     0.143 A 
HETATM   11  N2  UNL     1      -0.838  10.300  25.265  1.00  0.00    -0.313 N 
ATOM     12  H2  UNL     1      -1.698  10.159  25.796  1.00  0.00     0.170 HD
HETATM   13  C14 UNL     1      -0.708  10.942  24.091  1.00  0.00     0.209 A 
HETATM   14  N3  UNL     1      -1.805  11.542  23.396  1.00  0.00    -0.062 NA
HETATM   15  N4  UNL     1       0.589  10.916  23.713  1.00  0.00    -0.264 N 
ATOM     16  H4  UNL     1       0.976  11.325  22.863  1.00  0.00     0.190 HD
HETATM   17  N5  UNL     1       1.272  10.259  24.646  1.00  0.00    -0.224 N 
ENDROOT
BRANCH   1  18
HETATM   18  C5  UNL     1       3.530  10.413  23.634  1.00  0.00     0.117 C 
BRANCH  18  19
HETATM   19  C4  UNL     1       4.314  11.607  24.056  1.00  0.00    -0.046 A 
HETATM   20  C3  UNL     1       3.707  12.760  24.512  1.00  0.00     0.044 A 
HETATM   21  C2  UNL     1       4.408  13.878  24.907  1.00  0.00     0.071 A 
HETATM   22  C18 UNL     1       5.804  13.848  24.845  1.00  0.00     0.073 A 
HETATM   23  C16 UNL     1       6.444  12.712  24.395  1.00  0.00     0.071 A 
HETATM   24  C15 UNL     1       5.703  11.618  24.010  1.00  0.00     0.044 A 
BRANCH  21  25
HETATM   25  O1  UNL     1       3.779  15.027  25.363  1.00  0.00    -0.356 OA
HETATM   26  C1  UNL     1       4.435  16.038  26.061  1.00  0.00     0.210 C 
ENDBRANCH  21  25
BRANCH  23  27
HETATM   27  O2  UNL     1       7.826  12.719  24.347  1.00  0.00    -0.356 OA
HETATM   28  C17 UNL     1       8.656  13.404  25.224  1.00  0.00     0.210 C 
ENDBRANCH  23  27
ENDBRANCH  18  19
ENDBRANCH   1  18
TORSDOF 4
ENDMDL
