MODEL 3
REMARK VINA RESULT: -10.347099014      0.026      2.360
REMARK  4 active torsions:
REMARK  status: ('A' for Active; 'I' for Inactive)
REMARK    1  A    between atoms: O1_2  and  C2_3 
REMARK    2  A    between atoms: C4_5  and  C5_6 
REMARK    3  A    between atoms: C5_6  and  C6_7 
REMARK    4  A    between atoms: C16_25  and  O2_26 
ROOT
HETATM    1  C6  UNL     1       7.189  12.133  24.203  1.00  0.00     0.110 A 
HETATM    2  N1  UNL     1       5.881  12.444  24.137  1.00  0.00    -0.343 N 
ATOM      3  H1  UNL     1       5.258  11.835  23.606  1.00  0.00     0.167 HD
HETATM    4  C7  UNL     1       5.365  13.527  24.747  1.00  0.00     0.047 A 
HETATM    5  C8  UNL     1       4.018  13.847  24.677  1.00  0.00     0.030 A 
HETATM    6  C9  UNL     1       3.504  14.975  25.317  1.00  0.00     0.002 A 
HETATM    7  C10 UNL     1       4.334  15.808  26.039  1.00  0.00     0.001 A 
HETATM    8  C11 UNL     1       5.683  15.502  26.119  1.00  0.00     0.017 A 
HETATM    9  C12 UNL     1       6.172  14.378  25.477  1.00  0.00     0.037 A 
HETATM   10  C13 UNL     1       7.513  14.055  25.541  1.00  0.00     0.143 A 
HETATM   11  N2  UNL     1       8.534  14.680  26.167  1.00  0.00    -0.313 N 
ATOM     12  H2  UNL     1       8.484  15.534  26.722  1.00  0.00     0.170 HD
HETATM   13  C14 UNL     1       9.631  13.946  25.909  1.00  0.00     0.209 A 
HETATM   14  N3  UNL     1      10.934  14.278  26.400  1.00  0.00    -0.062 NA
HETATM   15  N4  UNL     1       9.287  12.890  25.139  1.00  0.00    -0.264 N 
ATOM     16  H4  UNL     1       9.919  12.168  24.792  1.00  0.00     0.190 HD
HETATM   17  N5  UNL     1       7.979  12.960  24.914  1.00  0.00    -0.224 N 
ENDROOT
BRANCH   1  18
HETATM   18  C5  UNL     1       7.732  10.926  23.518  1.00  0.00     0.117 C 
BRANCH  18  19
HETATM   19  C4  UNL     1       6.641   9.991  23.128  1.00  0.00    -0.046 A 
HETATM   20  C3  UNL     1       5.982   9.204  24.052  1.00  0.00     0.044 A 
HETATM   21  C2  UNL     1       4.971   8.331  23.717  1.00  0.00     0.071 A 
HETATM   22  C18 UNL     1       4.588   8.233  22.377  1.00  0.00     0.073 A 
HETATM   23  C16 UNL     1       5.225   9.004  21.426  1.00  0.00     0.071 A 
HETATM   24  C15 UNL     1       6.230   9.863  21.805  1.00  0.00     0.044 A 
BRANCH  21  25
HETATM   25  O1  UNL     1       4.321   7.550  24.662  1.00  0.00    -0.356 OA
HETATM   26  C1  UNL     1       3.200   7.973  25.371  1.00  0.00     0.210 C 
ENDBRANCH  21  25
BRANCH  23  27
HETATM   27  O2  UNL     1       4.820   8.880  20.109  1.00  0.00    -0.356 OA
HETATM   28  C17 UNL     1       4.372   7.707  19.515  1.00  0.00     0.210 C 
ENDBRANCH  23  27
ENDBRANCH  18  19
ENDBRANCH   1  18
TORSDOF 4
ENDMDL
