MODEL 11
REMARK VINA RESULT: -9.575966612      4.129      7.527
REMARK  4 active torsions:
REMARK  status: ('A' for Active; 'I' for Inactive)
REMARK    1  A    between atoms: O1_2  and  C2_3 
REMARK    2  A    between atoms: C4_5  and  C5_6 
REMARK    3  A    between atoms: C5_6  and  C6_7 
REMARK    4  A    between atoms: C16_25  and  O2_26 
ROOT
HETATM    1  C6  UNL     1       2.594  10.002  24.694  1.00  0.00     0.110 A 
HETATM    2  N1  UNL     1       3.021   9.286  25.751  1.00  0.00    -0.343 N 
ATOM      3  H1  UNL     1       4.009   9.039  25.811  1.00  0.00     0.167 HD
HETATM    4  C7  UNL     1       2.190   8.883  26.731  1.00  0.00     0.047 A 
HETATM    5  C8  UNL     1       2.630   8.143  27.818  1.00  0.00     0.030 A 
HETATM    6  C9  UNL     1       1.753   7.735  28.823  1.00  0.00     0.002 A 
HETATM    7  C10 UNL     1       0.413   8.061  28.756  1.00  0.00     0.001 A 
HETATM    8  C11 UNL     1      -0.042   8.800  27.676  1.00  0.00     0.017 A 
HETATM    9  C12 UNL     1       0.845   9.194  26.690  1.00  0.00     0.037 A 
HETATM   10  C13 UNL     1       0.414   9.929  25.604  1.00  0.00     0.143 A 
HETATM   11  N2  UNL     1      -0.820  10.381  25.288  1.00  0.00    -0.313 N 
ATOM     12  H2  UNL     1      -1.678  10.248  25.823  1.00  0.00     0.170 HD
HETATM   13  C14 UNL     1      -0.685  11.041  24.124  1.00  0.00     0.209 A 
HETATM   14  N3  UNL     1      -1.776  11.675  23.448  1.00  0.00    -0.062 NA
HETATM   15  N4  UNL     1       0.608  10.995  23.734  1.00  0.00    -0.264 N 
ATOM     16  H4  UNL     1       0.997  11.412  22.889  1.00  0.00     0.190 HD
HETATM   17  N5  UNL     1       1.284  10.308  24.650  1.00  0.00    -0.224 N 
ENDROOT
BRANCH   1  18
HETATM   18  C5  UNL     1       3.537  10.435  23.624  1.00  0.00     0.117 C 
BRANCH  18  19
HETATM   19  C4  UNL     1       4.333  11.619  24.051  1.00  0.00    -0.046 A 
HETATM   20  C3  UNL     1       5.713  11.632  24.004  1.00  0.00     0.044 A 
HETATM   21  C2  UNL     1       6.473  12.713  24.394  1.00  0.00     0.071 A 
HETATM   22  C18 UNL     1       5.818  13.856  24.861  1.00  0.00     0.073 A 
HETATM   23  C16 UNL     1       4.440  13.879  24.922  1.00  0.00     0.071 A 
HETATM   24  C15 UNL     1       3.721  12.776  24.522  1.00  0.00     0.044 A 
BRANCH  21  25
HETATM   25  O1  UNL     1       7.859  12.706  24.339  1.00  0.00    -0.356 OA
HETATM   26  C1  UNL     1       8.666  13.471  25.177  1.00  0.00     0.210 C 
ENDBRANCH  21  25
BRANCH  23  27
HETATM   27  O2  UNL     1       3.828  15.027  25.389  1.00  0.00    -0.356 OA
HETATM   28  C17 UNL     1       4.466  16.060  26.062  1.00  0.00     0.210 C 
ENDBRANCH  23  27
ENDBRANCH  18  19
ENDBRANCH   1  18
TORSDOF 4
ENDMDL
