MODEL 5
REMARK VINA RESULT: -10.064368900      3.653      4.944
REMARK  4 active torsions:
REMARK  status: ('A' for Active; 'I' for Inactive)
REMARK    1  A    between atoms: C2_6  and  C3_7 
REMARK    2  A    between atoms: C3_7  and  C4_8 
REMARK    3  A    between atoms: C6_10  and  O1_11 
REMARK    4  A    between atoms: C8_14  and  O2_15 
ROOT
HETATM    1  N1  UNL     1       7.690   9.538  23.312  1.00  0.00    -0.062 NA
HETATM    2  C1  UNL     1       6.719  10.457  23.791  1.00  0.00     0.209 A 
HETATM    3  N2  UNL     1       5.398  10.263  23.815  1.00  0.00    -0.264 N 
ATOM      4  H2  UNL     1       4.924   9.421  23.486  1.00  0.00     0.190 HD
HETATM    5  N3  UNL     1       4.788  11.332  24.330  1.00  0.00    -0.224 N 
HETATM    6  C2  UNL     1       3.491  11.606  24.555  1.00  0.00     0.110 A 
HETATM    7  N4  UNL     1       3.181  12.792  25.097  1.00  0.00    -0.343 N 
ATOM      8  H4  UNL     1       2.199  13.005  25.269  1.00  0.00     0.167 HD
HETATM    9  C10 UNL     1       4.101  13.709  25.422  1.00  0.00     0.047 A 
HETATM   10  C11 UNL     1       3.784  14.931  25.981  1.00  0.00     0.030 A 
HETATM   11  C12 UNL     1       4.749  15.868  26.312  1.00  0.00     0.002 A 
HETATM   12  C13 UNL     1       6.080  15.582  26.079  1.00  0.00     0.001 A 
HETATM   13  C14 UNL     1       6.408  14.364  25.520  1.00  0.00     0.017 A 
HETATM   14  C15 UNL     1       5.439  13.426  25.190  1.00  0.00     0.037 A 
HETATM   15  C16 UNL     1       5.773  12.197  24.628  1.00  0.00     0.143 A 
HETATM   16  N5  UNL     1       6.973  11.686  24.308  1.00  0.00    -0.313 N 
ATOM     17  H5  UNL     1       7.884  12.129  24.427  1.00  0.00     0.170 HD
ENDROOT
BRANCH   6  18
HETATM   18  C3  UNL     1       2.405  10.658  24.229  1.00  0.00     0.117 C 
BRANCH  18  19
HETATM   19  C4  UNL     1       1.135  11.362  23.898  1.00  0.00    -0.046 A 
HETATM   20  C5  UNL     1      -0.014  11.059  24.609  1.00  0.00     0.044 A 
HETATM   21  C6  UNL     1      -1.174  11.726  24.279  1.00  0.00     0.068 A 
HETATM   22  C7  UNL     1      -1.190  12.674  23.264  1.00  0.00     0.073 A 
HETATM   23  C8  UNL     1      -0.040  12.970  22.561  1.00  0.00     0.068 A 
HETATM   24  C9  UNL     1       1.114  12.300  22.895  1.00  0.00     0.044 A 
BRANCH  21  25
HETATM   25  O1  UNL     1      -2.346  11.426  24.996  1.00  0.00    -0.361 OA
ATOM     26  H1  UNL     1      -3.037  10.946  24.554  1.00  0.00     0.217 HD
ENDBRANCH  21  25
BRANCH  23  27
HETATM   27  O2  UNL     1      -0.051  13.930  21.532  1.00  0.00    -0.361 OA
ATOM     28  H2  UNL     1       0.754  14.190  21.100  1.00  0.00     0.217 HD
ENDBRANCH  23  27
ENDBRANCH  18  19
ENDBRANCH   6  18
TORSDOF 4
ENDMDL
