MODEL 4
REMARK VINA RESULT: -10.081834672      3.618      5.146
REMARK  4 active torsions:
REMARK  status: ('A' for Active; 'I' for Inactive)
REMARK    1  A    between atoms: C2_6  and  C3_7 
REMARK    2  A    between atoms: C3_7  and  C4_8 
REMARK    3  A    between atoms: C6_10  and  O1_11 
REMARK    4  A    between atoms: C8_14  and  O2_15 
ROOT
HETATM    1  N1  UNL     1       7.788   9.645  23.477  1.00  0.00    -0.062 NA
HETATM    2  C1  UNL     1       6.770  10.553  23.873  1.00  0.00     0.209 A 
HETATM    3  N2  UNL     1       5.455  10.378  23.712  1.00  0.00    -0.264 N 
ATOM      4  H2  UNL     1       5.023   9.562  23.279  1.00  0.00     0.190 HD
HETATM    5  N3  UNL     1       4.791  11.427  24.200  1.00  0.00    -0.224 N 
HETATM    6  C2  UNL     1       3.479  11.709  24.266  1.00  0.00     0.110 A 
HETATM    7  N4  UNL     1       3.109  12.869  24.826  1.00  0.00    -0.343 N 
ATOM      8  H4  UNL     1       2.115  13.089  24.880  1.00  0.00     0.167 HD
HETATM    9  C10 UNL     1       3.985  13.754  25.319  1.00  0.00     0.047 A 
HETATM   10  C11 UNL     1       3.608  14.950  25.896  1.00  0.00     0.030 A 
HETATM   11  C12 UNL     1       4.528  15.853  26.401  1.00  0.00     0.002 A 
HETATM   12  C13 UNL     1       5.876  15.560  26.331  1.00  0.00     0.001 A 
HETATM   13  C14 UNL     1       6.265  14.367  25.755  1.00  0.00     0.017 A 
HETATM   14  C15 UNL     1       5.340  13.463  25.250  1.00  0.00     0.037 A 
HETATM   15  C16 UNL     1       5.735  12.261  24.671  1.00  0.00     0.143 A 
HETATM   16  N5  UNL     1       6.963  11.749  24.484  1.00  0.00    -0.313 N 
ATOM     17  H5  UNL     1       7.854  12.171  24.746  1.00  0.00     0.170 HD
ENDROOT
BRANCH   6  18
HETATM   18  C3  UNL     1       2.438  10.796  23.750  1.00  0.00     0.117 C 
BRANCH  18  19
HETATM   19  C4  UNL     1       1.143  10.970  24.466  1.00  0.00    -0.046 A 
HETATM   20  C5  UNL     1       0.137  11.718  23.876  1.00  0.00     0.044 A 
HETATM   21  C6  UNL     1      -1.048  11.862  24.563  1.00  0.00     0.068 A 
HETATM   22  C7  UNL     1      -1.230  11.275  25.809  1.00  0.00     0.073 A 
HETATM   23  C8  UNL     1      -0.222  10.532  26.389  1.00  0.00     0.068 A 
HETATM   24  C9  UNL     1       0.959  10.392  25.698  1.00  0.00     0.044 A 
BRANCH  21  25
HETATM   25  O1  UNL     1      -2.077  12.619  23.974  1.00  0.00    -0.361 OA
ATOM     26  H1  UNL     1      -2.932  12.217  23.870  1.00  0.00     0.217 HD
ENDBRANCH  21  25
BRANCH  23  27
HETATM   27  O2  UNL     1      -0.401   9.935  27.651  1.00  0.00    -0.361 OA
ATOM     28  H2  UNL     1      -0.466  10.466  28.436  1.00  0.00     0.217 HD
ENDBRANCH  23  27
ENDBRANCH  18  19
ENDBRANCH   6  18
TORSDOF 4
ENDMDL
