MODEL 3
REMARK VINA RESULT: -10.085717198      3.610      4.898
REMARK  4 active torsions:
REMARK  status: ('A' for Active; 'I' for Inactive)
REMARK    1  A    between atoms: C2_6  and  C3_7 
REMARK    2  A    between atoms: C3_7  and  C4_8 
REMARK    3  A    between atoms: C6_10  and  O1_11 
REMARK    4  A    between atoms: C8_14  and  O2_15 
ROOT
HETATM    1  N1  UNL     1       7.814   9.646  23.449  1.00  0.00    -0.062 NA
HETATM    2  C1  UNL     1       6.793  10.547  23.851  1.00  0.00     0.209 A 
HETATM    3  N2  UNL     1       5.479  10.364  23.701  1.00  0.00    -0.264 N 
ATOM      4  H2  UNL     1       5.048   9.544  23.273  1.00  0.00     0.190 HD
HETATM    5  N3  UNL     1       4.812  11.409  24.192  1.00  0.00    -0.224 N 
HETATM    6  C2  UNL     1       3.498  11.683  24.268  1.00  0.00     0.110 A 
HETATM    7  N4  UNL     1       3.125  12.842  24.828  1.00  0.00    -0.343 N 
ATOM      8  H4  UNL     1       2.130  13.055  24.889  1.00  0.00     0.167 HD
HETATM    9  C10 UNL     1       3.999  13.733  25.312  1.00  0.00     0.047 A 
HETATM   10  C11 UNL     1       3.619  14.928  25.891  1.00  0.00     0.030 A 
HETATM   11  C12 UNL     1       4.537  15.838  26.387  1.00  0.00     0.002 A 
HETATM   12  C13 UNL     1       5.886  15.553  26.306  1.00  0.00     0.001 A 
HETATM   13  C14 UNL     1       6.278  14.362  25.730  1.00  0.00     0.017 A 
HETATM   14  C15 UNL     1       5.356  13.451  25.234  1.00  0.00     0.037 A 
HETATM   15  C16 UNL     1       5.754  12.250  24.654  1.00  0.00     0.143 A 
HETATM   16  N5  UNL     1       6.984  11.746  24.459  1.00  0.00    -0.313 N 
ATOM     17  H5  UNL     1       7.874  12.175  24.713  1.00  0.00     0.170 HD
ENDROOT
BRANCH   6  18
HETATM   18  C3  UNL     1       2.459  10.762  23.761  1.00  0.00     0.117 C 
BRANCH  18  19
HETATM   19  C4  UNL     1       1.170  10.927  24.489  1.00  0.00    -0.046 A 
HETATM   20  C5  UNL     1       1.001  10.312  25.719  1.00  0.00     0.044 A 
HETATM   21  C6  UNL     1      -0.203  10.482  26.367  1.00  0.00     0.068 A 
HETATM   22  C7  UNL     1      -1.217  11.248  25.804  1.00  0.00     0.073 A 
HETATM   23  C8  UNL     1      -1.040  11.857  24.579  1.00  0.00     0.068 A 
HETATM   24  C9  UNL     1       0.164  11.683  23.937  1.00  0.00     0.044 A 
BRANCH  21  25
HETATM   25  O1  UNL     1      -0.385   9.863  27.616  1.00  0.00    -0.361 OA
ATOM     26  H1  UNL     1      -1.104  10.154  28.166  1.00  0.00     0.217 HD
ENDBRANCH  21  25
BRANCH  23  27
HETATM   27  O2  UNL     1      -2.063  12.634  24.005  1.00  0.00    -0.361 OA
ATOM     28  H2  UNL     1      -1.863  13.310  23.369  1.00  0.00     0.217 HD
ENDBRANCH  23  27
ENDBRANCH  18  19
ENDBRANCH   6  18
TORSDOF 4
ENDMDL
