MODEL 8
REMARK VINA RESULT: -9.541102432      4.573      6.729
REMARK  4 active torsions:
REMARK  status: ('A' for Active; 'I' for Inactive)
REMARK    1  A    between atoms: C2_6  and  C3_7 
REMARK    2  A    between atoms: C3_7  and  C4_8 
REMARK    3  A    between atoms: C6_10  and  O1_11 
REMARK    4  A    between atoms: C8_14  and  O2_15 
ROOT
HETATM    1  N1  UNL     1       1.807   8.186  27.804  1.00  0.00    -0.062 NA
HETATM    2  C1  UNL     1       1.731   9.131  26.747  1.00  0.00     0.209 A 
HETATM    3  N2  UNL     1       2.767   9.669  26.098  1.00  0.00    -0.264 N 
ATOM      4  H2  UNL     1       3.748   9.462  26.289  1.00  0.00     0.190 HD
HETATM    5  N3  UNL     1       2.332  10.516  25.164  1.00  0.00    -0.224 N 
HETATM    6  C2  UNL     1       2.983  11.285  24.274  1.00  0.00     0.110 A 
HETATM    7  N4  UNL     1       2.255  12.048  23.447  1.00  0.00    -0.343 N 
ATOM      8  H4  UNL     1       2.743  12.634  22.770  1.00  0.00     0.167 HD
HETATM    9  C10 UNL     1       0.916  12.078  23.470  1.00  0.00     0.047 A 
HETATM   10  C11 UNL     1       0.163  12.863  22.619  1.00  0.00     0.030 A 
HETATM   11  C12 UNL     1      -1.221  12.881  22.657  1.00  0.00     0.002 A 
HETATM   12  C13 UNL     1      -1.885  12.090  23.573  1.00  0.00     0.001 A 
HETATM   13  C14 UNL     1      -1.143  11.302  24.428  1.00  0.00     0.017 A 
HETATM   14  C15 UNL     1       0.245  11.285  24.389  1.00  0.00     0.037 A 
HETATM   15  C16 UNL     1       0.991  10.488  25.252  1.00  0.00     0.143 A 
HETATM   16  N5  UNL     1       0.591   9.644  26.217  1.00  0.00    -0.313 N 
ATOM     17  H5  UNL     1      -0.367   9.432  26.495  1.00  0.00     0.170 HD
ENDROOT
BRANCH   6  18
HETATM   18  C3  UNL     1       4.457  11.319  24.174  1.00  0.00     0.117 C 
BRANCH  18  19
HETATM   19  C4  UNL     1       5.028  12.535  24.818  1.00  0.00    -0.046 A 
HETATM   20  C5  UNL     1       4.173  13.470  25.379  1.00  0.00     0.044 A 
HETATM   21  C6  UNL     1       4.730  14.584  25.967  1.00  0.00     0.068 A 
HETATM   22  C7  UNL     1       6.107  14.765  25.997  1.00  0.00     0.073 A 
HETATM   23  C8  UNL     1       6.951  13.829  25.435  1.00  0.00     0.068 A 
HETATM   24  C9  UNL     1       6.388  12.719  24.850  1.00  0.00     0.044 A 
BRANCH  21  25
HETATM   25  O1  UNL     1       3.872  15.540  26.541  1.00  0.00    -0.361 OA
ATOM     26  H1  UNL     1       4.027  16.458  26.353  1.00  0.00     0.217 HD
ENDBRANCH  21  25
BRANCH  23  27
HETATM   27  O2  UNL     1       8.347  14.007  25.462  1.00  0.00    -0.361 OA
ATOM     28  H2  UNL     1       8.766  14.457  26.186  1.00  0.00     0.217 HD
ENDBRANCH  23  27
ENDBRANCH  18  19
ENDBRANCH   6  18
TORSDOF 4
ENDMDL
