MODEL 1
REMARK VINA RESULT: -10.466736683      0.000      0.000
REMARK  4 active torsions:
REMARK  status: ('A' for Active; 'I' for Inactive)
REMARK    1  A    between atoms: C2_6  and  C3_7 
REMARK    2  A    between atoms: C3_7  and  C4_8 
REMARK    3  A    between atoms: C6_10  and  O1_11 
REMARK    4  A    between atoms: C8_14  and  O2_15 
ROOT
HETATM    1  N1  UNL     1      10.908  14.198  27.277  1.00  0.00    -0.062 NA
HETATM    2  C1  UNL     1       9.620  13.934  26.740  1.00  0.00     0.209 A 
HETATM    3  N2  UNL     1       9.296  12.915  25.940  1.00  0.00    -0.264 N 
ATOM      4  H2  UNL     1       9.944  12.197  25.615  1.00  0.00     0.190 HD
HETATM    5  N3  UNL     1       8.000  12.973  25.627  1.00  0.00    -0.224 N 
HETATM    6  C2  UNL     1       7.223  12.185  24.864  1.00  0.00     0.110 A 
HETATM    7  N4  UNL     1       5.929  12.508  24.737  1.00  0.00    -0.343 N 
ATOM      8  H4  UNL     1       5.334  11.914  24.159  1.00  0.00     0.167 HD
HETATM    9  C10 UNL     1       5.380  13.574  25.333  1.00  0.00     0.047 A 
HETATM   10  C11 UNL     1       4.046  13.909  25.204  1.00  0.00     0.030 A 
HETATM   11  C12 UNL     1       3.496  15.015  25.829  1.00  0.00     0.002 A 
HETATM   12  C13 UNL     1       4.298  15.821  26.612  1.00  0.00     0.001 A 
HETATM   13  C14 UNL     1       5.632  15.497  26.747  1.00  0.00     0.017 A 
HETATM   14  C15 UNL     1       6.182  14.387  26.121  1.00  0.00     0.037 A 
HETATM   15  C16 UNL     1       7.528  14.061  26.260  1.00  0.00     0.143 A 
HETATM   16  N5  UNL     1       8.502  14.673  26.954  1.00  0.00    -0.313 N 
ATOM     17  H5  UNL     1       8.419  15.516  27.522  1.00  0.00     0.170 HD
ENDROOT
BRANCH   6  18
HETATM   18  C3  UNL     1       7.738  10.988  24.166  1.00  0.00     0.117 C 
BRANCH  18  19
HETATM   19  C4  UNL     1       6.636  10.101  23.701  1.00  0.00    -0.046 A 
HETATM   20  C5  UNL     1       5.880   9.412  24.636  1.00  0.00     0.044 A 
HETATM   21  C6  UNL     1       4.868   8.598  24.175  1.00  0.00     0.068 A 
HETATM   22  C7  UNL     1       4.614   8.472  22.815  1.00  0.00     0.073 A 
HETATM   23  C8  UNL     1       5.371   9.162  21.892  1.00  0.00     0.068 A 
HETATM   24  C9  UNL     1       6.380   9.973  22.358  1.00  0.00     0.044 A 
BRANCH  21  25
HETATM   25  O1  UNL     1       4.093   7.895  25.115  1.00  0.00    -0.361 OA
ATOM     26  H1  UNL     1       4.434   7.078  25.462  1.00  0.00     0.217 HD
ENDBRANCH  21  25
BRANCH  23  27
HETATM   27  O2  UNL     1       5.118   9.039  20.513  1.00  0.00    -0.361 OA
ATOM     28  H2  UNL     1       5.384   9.719  19.906  1.00  0.00     0.217 HD
ENDBRANCH  23  27
ENDBRANCH  18  19
ENDBRANCH   6  18
TORSDOF 4
ENDMDL
