MODEL 2
REMARK VINA RESULT: -10.454970157      0.022      1.746
REMARK  4 active torsions:
REMARK  status: ('A' for Active; 'I' for Inactive)
REMARK    1  A    between atoms: C2_6  and  C3_7 
REMARK    2  A    between atoms: C3_7  and  C4_8 
REMARK    3  A    between atoms: C6_10  and  O1_11 
REMARK    4  A    between atoms: C8_14  and  O2_15 
ROOT
HETATM    1  N1  UNL     1      10.914  14.208  27.277  1.00  0.00    -0.062 NA
HETATM    2  C1  UNL     1       9.626  13.941  26.741  1.00  0.00     0.209 A 
HETATM    3  N2  UNL     1       9.303  12.921  25.943  1.00  0.00    -0.264 N 
ATOM      4  H2  UNL     1       9.952  12.203  25.619  1.00  0.00     0.190 HD
HETATM    5  N3  UNL     1       8.007  12.977  25.630  1.00  0.00    -0.224 N 
HETATM    6  C2  UNL     1       7.230  12.187  24.869  1.00  0.00     0.110 A 
HETATM    7  N4  UNL     1       5.936  12.508  24.741  1.00  0.00    -0.343 N 
ATOM      8  H4  UNL     1       5.341  11.913  24.165  1.00  0.00     0.167 HD
HETATM    9  C10 UNL     1       5.386  13.575  25.335  1.00  0.00     0.047 A 
HETATM   10  C11 UNL     1       4.052  13.908  25.206  1.00  0.00     0.030 A 
HETATM   11  C12 UNL     1       3.500  15.015  25.829  1.00  0.00     0.002 A 
HETATM   12  C13 UNL     1       4.302  15.824  26.609  1.00  0.00     0.001 A 
HETATM   13  C14 UNL     1       5.636  15.501  26.746  1.00  0.00     0.017 A 
HETATM   14  C15 UNL     1       6.188  14.390  26.121  1.00  0.00     0.037 A 
HETATM   15  C16 UNL     1       7.534  14.066  26.261  1.00  0.00     0.143 A 
HETATM   16  N5  UNL     1       8.507  14.680  26.953  1.00  0.00    -0.313 N 
ATOM     17  H5  UNL     1       8.424  15.524  27.519  1.00  0.00     0.170 HD
ENDROOT
BRANCH   6  18
HETATM   18  C3  UNL     1       7.746  10.989  24.174  1.00  0.00     0.117 C 
BRANCH  18  19
HETATM   19  C4  UNL     1       6.644  10.110  23.692  1.00  0.00    -0.046 A 
HETATM   20  C5  UNL     1       6.415   9.994  22.331  1.00  0.00     0.044 A 
HETATM   21  C6  UNL     1       5.388   9.175  21.916  1.00  0.00     0.068 A 
HETATM   22  C7  UNL     1       4.606   8.486  22.834  1.00  0.00     0.073 A 
HETATM   23  C8  UNL     1       4.842   8.607  24.188  1.00  0.00     0.068 A 
HETATM   24  C9  UNL     1       5.868   9.427  24.596  1.00  0.00     0.044 A 
BRANCH  21  25
HETATM   25  O1  UNL     1       5.147   9.049  20.536  1.00  0.00    -0.361 OA
ATOM     26  H1  UNL     1       4.249   9.087  20.228  1.00  0.00     0.217 HD
ENDBRANCH  21  25
BRANCH  23  27
HETATM   27  O2  UNL     1       4.053   7.911  25.123  1.00  0.00    -0.361 OA
ATOM     28  H2  UNL     1       3.170   8.198  25.324  1.00  0.00     0.217 HD
ENDBRANCH  23  27
ENDBRANCH  18  19
ENDBRANCH   6  18
TORSDOF 4
ENDMDL
