MODEL 3
REMARK VINA RESULT: -10.874164066      0.639      1.376
REMARK  2 active torsions:
REMARK  status: ('A' for Active; 'I' for Inactive)
REMARK    1  A    between atoms: C2_6  and  C3_7 
REMARK    2  A    between atoms: C3_7  and  C4_8 
ROOT
HETATM    1  N1  UNL     1       7.681   9.426  22.714  1.00  0.00    -0.062 NA
HETATM    2  C1  UNL     1       6.792  10.440  23.163  1.00  0.00     0.209 A 
HETATM    3  N2  UNL     1       5.449  10.286  23.152  1.00  0.00    -0.264 N 
ATOM      4  H2  UNL     1       4.958   9.452  22.830  1.00  0.00     0.190 HD
HETATM    5  N3  UNL     1       4.865  11.377  23.621  1.00  0.00    -0.224 N 
HETATM    6  C2  UNL     1       3.573  11.693  23.801  1.00  0.00     0.110 A 
HETATM    7  N4  UNL     1       3.260  12.896  24.305  1.00  0.00    -0.343 N 
ATOM      8  H4  UNL     1       2.278  13.134  24.441  1.00  0.00     0.167 HD
HETATM    9  C11 UNL     1       4.206  13.801  24.638  1.00  0.00     0.047 A 
HETATM   10  C12 UNL     1       3.851  15.029  25.154  1.00  0.00     0.030 A 
HETATM   11  C13 UNL     1       4.832  15.931  25.485  1.00  0.00     0.002 A 
HETATM   12  C14 UNL     1       6.175  15.617  25.304  1.00  0.00     0.001 A 
HETATM   13  C15 UNL     1       6.502  14.364  24.779  1.00  0.00     0.017 A 
HETATM   14  C16 UNL     1       5.529  13.454  24.445  1.00  0.00     0.037 A 
HETATM   15  C17 UNL     1       5.865  12.227  23.930  1.00  0.00     0.143 A 
HETATM   16  N5  UNL     1       7.057  11.660  23.652  1.00  0.00    -0.313 N 
ATOM     17  H5  UNL     1       7.978  12.076  23.787  1.00  0.00     0.170 HD
ENDROOT
BRANCH   6  18
HETATM   18  C3  UNL     1       2.520  10.747  23.455  1.00  0.00     0.117 C 
BRANCH  18  19
HETATM   19  C4  UNL     1       1.330  10.816  24.316  1.00  0.00    -0.048 A 
HETATM   20  C5  UNL     1       0.197  11.543  24.011  1.00  0.00     0.010 A 
HETATM   21  C6  UNL     1      -0.896  11.579  24.845  1.00  0.00     0.040 A 
HETATM   22  C7  UNL     1      -0.897  10.880  26.030  1.00  0.00     0.105 A 
HETATM   23  C8  UNL     1       0.228  10.142  26.361  1.00  0.00     0.105 A 
HETATM   24  O2  UNL     1      -1.832  10.720  27.068  1.00  0.00    -0.323 OA
HETATM   25  C9  UNL     1       1.327  10.116  25.505  1.00  0.00     0.047 A 
HETATM   26  O1  UNL     1      -0.050   9.551  27.592  1.00  0.00    -0.323 OA
HETATM   27  C10 UNL     1      -1.450   9.562  27.820  1.00  0.00     0.352 C 
ENDBRANCH  18  19
ENDBRANCH   6  18
TORSDOF 2
ENDMDL
