MODEL 5
REMARK VINA RESULT: -10.291996634      3.498      7.174
REMARK  2 active torsions:
REMARK  status: ('A' for Active; 'I' for Inactive)
REMARK    1  A    between atoms: C2_6  and  C3_7 
REMARK    2  A    between atoms: C3_7  and  C4_8 
ROOT
HETATM    1  N1  UNL     1      -1.923  12.583  23.326  1.00  0.00    -0.062 NA
HETATM    2  C1  UNL     1      -0.932  11.805  23.984  1.00  0.00     0.209 A 
HETATM    3  N2  UNL     1       0.372  11.838  23.630  1.00  0.00    -0.264 N 
ATOM      4  H2  UNL     1       0.760  12.407  22.878  1.00  0.00     0.190 HD
HETATM    5  N3  UNL     1       1.072  11.023  24.403  1.00  0.00    -0.224 N 
HETATM    6  C2  UNL     1       2.380  10.722  24.434  1.00  0.00     0.110 A 
HETATM    7  N4  UNL     1       2.824   9.842  25.344  1.00  0.00    -0.343 N 
ATOM      8  H4  UNL     1       3.818   9.615  25.366  1.00  0.00     0.167 HD
HETATM    9  C11 UNL     1       1.997   9.248  26.231  1.00  0.00     0.047 A 
HETATM   10  C12 UNL     1       2.487   8.349  27.154  1.00  0.00     0.030 A 
HETATM   11  C13 UNL     1       1.624   7.760  28.044  1.00  0.00     0.002 A 
HETATM   12  C14 UNL     1       0.267   8.062  28.024  1.00  0.00     0.001 A 
HETATM   13  C15 UNL     1      -0.198   8.978  27.077  1.00  0.00     0.017 A 
HETATM   14  C16 UNL     1       0.655   9.574  26.181  1.00  0.00     0.037 A 
HETATM   15  C17 UNL     1       0.185  10.472  25.256  1.00  0.00     0.143 A 
HETATM   16  N5  UNL     1      -1.054  10.947  25.007  1.00  0.00    -0.313 N 
ATOM     17  H5  UNL     1      -1.913  10.702  25.500  1.00  0.00     0.170 HD
ENDROOT
BRANCH   6  18
HETATM   18  C3  UNL     1       3.307  11.339  23.496  1.00  0.00     0.117 C 
BRANCH  18  19
HETATM   19  C4  UNL     1       4.050  12.486  24.037  1.00  0.00    -0.048 A 
HETATM   20  C5  UNL     1       3.454  13.629  24.532  1.00  0.00     0.010 A 
HETATM   21  C6  UNL     1       4.188  14.680  25.030  1.00  0.00     0.040 A 
HETATM   22  C7  UNL     1       5.563  14.627  25.053  1.00  0.00     0.105 A 
HETATM   23  C8  UNL     1       6.187  13.492  24.561  1.00  0.00     0.105 A 
HETATM   24  O2  UNL     1       6.566  15.512  25.485  1.00  0.00    -0.323 OA
HETATM   25  C9  UNL     1       5.429  12.436  24.060  1.00  0.00     0.047 A 
HETATM   26  O1  UNL     1       7.555  13.714  24.706  1.00  0.00    -0.323 OA
HETATM   27  C10 UNL     1       7.771  14.754  25.646  1.00  0.00     0.352 C 
ENDBRANCH  18  19
ENDBRANCH   6  18
TORSDOF 2
ENDMDL
