MODEL 2
REMARK VINA RESULT: -10.897408439      0.788      1.450
REMARK  2 active torsions:
REMARK  status: ('A' for Active; 'I' for Inactive)
REMARK    1  A    between atoms: C2_6  and  C3_7 
REMARK    2  A    between atoms: C3_7  and  C4_8 
ROOT
HETATM    1  N1  UNL     1       7.825   9.566  22.697  1.00  0.00    -0.062 NA
HETATM    2  C1  UNL     1       6.878  10.523  23.153  1.00  0.00     0.209 A 
HETATM    3  N2  UNL     1       5.545  10.304  23.110  1.00  0.00    -0.264 N 
ATOM      4  H2  UNL     1       5.102   9.457  22.755  1.00  0.00     0.190 HD
HETATM    5  N3  UNL     1       4.899  11.352  23.595  1.00  0.00    -0.224 N 
HETATM    6  C2  UNL     1       3.589  11.601  23.756  1.00  0.00     0.110 A 
HETATM    7  N4  UNL     1       3.208  12.772  24.286  1.00  0.00    -0.343 N 
ATOM      8  H4  UNL     1       2.213  12.959  24.407  1.00  0.00     0.167 HD
HETATM    9  C11 UNL     1       4.102  13.713  24.664  1.00  0.00     0.047 A 
HETATM   10  C12 UNL     1       3.677  14.907  25.206  1.00  0.00     0.030 A 
HETATM   11  C13 UNL     1       4.606  15.845  25.581  1.00  0.00     0.002 A 
HETATM   12  C14 UNL     1       5.966  15.602  25.421  1.00  0.00     0.001 A 
HETATM   13  C15 UNL     1       6.364  14.381  24.869  1.00  0.00     0.017 A 
HETATM   14  C16 UNL     1       5.444  13.435  24.490  1.00  0.00     0.037 A 
HETATM   15  C17 UNL     1       5.850  12.241  23.949  1.00  0.00     0.143 A 
HETATM   16  N5  UNL     1       7.074  11.740  23.681  1.00  0.00    -0.313 N 
ATOM     17  H5  UNL     1       7.971  12.197  23.847  1.00  0.00     0.170 HD
ENDROOT
BRANCH   6  18
HETATM   18  C3  UNL     1       2.591  10.615  23.363  1.00  0.00     0.117 C 
BRANCH  18  19
HETATM   19  C4  UNL     1       1.730  10.147  24.458  1.00  0.00    -0.048 A 
HETATM   20  C5  UNL     1       0.353  10.256  24.459  1.00  0.00     0.010 A 
HETATM   21  C6  UNL     1      -0.416   9.804  25.505  1.00  0.00     0.040 A 
HETATM   22  C7  UNL     1       0.170   9.217  26.604  1.00  0.00     0.105 A 
HETATM   23  C8  UNL     1       1.549   9.095  26.628  1.00  0.00     0.105 A 
HETATM   24  O2  UNL     1      -0.328   8.670  27.799  1.00  0.00    -0.323 OA
HETATM   25  C9  UNL     1       2.314   9.559  25.561  1.00  0.00     0.047 A 
HETATM   26  O1  UNL     1       1.857   8.477  27.839  1.00  0.00    -0.323 OA
HETATM   27  C10 UNL     1       0.699   7.843  28.357  1.00  0.00     0.352 C 
ENDBRANCH  18  19
ENDBRANCH   6  18
TORSDOF 2
ENDMDL
