MODEL 1
REMARK VINA RESULT: -11.010051853      0.000      0.000
REMARK  2 active torsions:
REMARK  status: ('A' for Active; 'I' for Inactive)
REMARK    1  A    between atoms: C2_6  and  C3_7 
REMARK    2  A    between atoms: C3_7  and  C4_8 
ROOT
HETATM    1  N1  UNL     1       7.832   9.441  22.773  1.00  0.00    -0.062 NA
HETATM    2  C1  UNL     1       6.912  10.434  23.204  1.00  0.00     0.209 A 
HETATM    3  N2  UNL     1       5.574  10.239  23.197  1.00  0.00    -0.264 N 
ATOM      4  H2  UNL     1       5.109   9.385  22.889  1.00  0.00     0.190 HD
HETATM    5  N3  UNL     1       4.956  11.319  23.648  1.00  0.00    -0.224 N 
HETATM    6  C2  UNL     1       3.655  11.598  23.823  1.00  0.00     0.110 A 
HETATM    7  N4  UNL     1       3.305  12.799  24.307  1.00  0.00    -0.343 N 
ATOM      8  H4  UNL     1       2.316  13.008  24.439  1.00  0.00     0.167 HD
HETATM    9  C11 UNL     1       4.222  13.739  24.625  1.00  0.00     0.047 A 
HETATM   10  C12 UNL     1       3.829  14.963  25.120  1.00  0.00     0.030 A 
HETATM   11  C13 UNL     1       4.782  15.900  25.435  1.00  0.00     0.002 A 
HETATM   12  C14 UNL     1       6.134  15.626  25.259  1.00  0.00     0.001 A 
HETATM   13  C15 UNL     1       6.500  14.374  24.755  1.00  0.00     0.017 A 
HETATM   14  C16 UNL     1       5.555  13.429  24.436  1.00  0.00     0.037 A 
HETATM   15  C17 UNL     1       5.929  12.205  23.942  1.00  0.00     0.143 A 
HETATM   16  N5  UNL     1       7.139  11.670  23.673  1.00  0.00    -0.313 N 
ATOM     17  H5  UNL     1       8.047  12.118  23.801  1.00  0.00     0.170 HD
ENDROOT
BRANCH   6  18
HETATM   18  C3  UNL     1       2.632  10.614  23.494  1.00  0.00     0.117 C 
BRANCH  18  19
HETATM   19  C4  UNL     1       1.851  10.137  24.643  1.00  0.00    -0.048 A 
HETATM   20  C5  UNL     1       2.246   9.106  25.473  1.00  0.00     0.010 A 
HETATM   21  C6  UNL     1       1.483   8.691  26.540  1.00  0.00     0.040 A 
HETATM   22  C7  UNL     1       0.282   9.301  26.822  1.00  0.00     0.105 A 
HETATM   23  C8  UNL     1      -0.138  10.339  26.006  1.00  0.00     0.105 A 
HETATM   24  O2  UNL     1      -0.698   9.112  27.811  1.00  0.00    -0.323 OA
HETATM   25  C9  UNL     1       0.646  10.746  24.929  1.00  0.00     0.047 A 
HETATM   26  O1  UNL     1      -1.365  10.756  26.519  1.00  0.00    -0.323 OA
HETATM   27  C10 UNL     1      -1.503  10.297  27.854  1.00  0.00     0.352 C 
ENDBRANCH  18  19
ENDBRANCH   6  18
TORSDOF 2
ENDMDL
