MODEL 10
REMARK VINA RESULT: -9.933249582      3.284      6.982
REMARK  2 active torsions:
REMARK  status: ('A' for Active; 'I' for Inactive)
REMARK    1  A    between atoms: C2_6  and  C3_7 
REMARK    2  A    between atoms: C3_7  and  C4_8 
ROOT
HETATM    1  N1  UNL     1      -1.920  12.805  23.269  1.00  0.00    -0.062 NA
HETATM    2  C1  UNL     1      -1.002  11.957  23.947  1.00  0.00     0.209 A 
HETATM    3  N2  UNL     1       0.245  11.717  23.482  1.00  0.00    -0.264 N 
ATOM      4  H2  UNL     1       0.635  12.108  22.625  1.00  0.00     0.190 HD
HETATM    5  N3  UNL     1       0.883  10.898  24.303  1.00  0.00    -0.224 N 
HETATM    6  C2  UNL     1       2.121  10.381  24.267  1.00  0.00     0.110 A 
HETATM    7  N4  UNL     1       2.515   9.562  25.252  1.00  0.00    -0.343 N 
ATOM      8  H4  UNL     1       3.456   9.170  25.223  1.00  0.00     0.167 HD
HETATM    9  C11 UNL     1       1.703   9.240  26.284  1.00  0.00     0.047 A 
HETATM   10  C12 UNL     1       2.139   8.395  27.281  1.00  0.00     0.030 A 
HETATM   11  C13 UNL     1       1.294   8.084  28.318  1.00  0.00     0.002 A 
HETATM   12  C14 UNL     1       0.008   8.612  28.369  1.00  0.00     0.001 A 
HETATM   13  C15 UNL     1      -0.403   9.466  27.342  1.00  0.00     0.017 A 
HETATM   14  C16 UNL     1       0.434   9.784  26.301  1.00  0.00     0.037 A 
HETATM   15  C17 UNL     1       0.016  10.624  25.299  1.00  0.00     0.143 A 
HETATM   16  N5  UNL     1      -1.149  11.272  25.090  1.00  0.00    -0.313 N 
ATOM     17  H5  UNL     1      -1.978  11.245  25.684  1.00  0.00     0.170 HD
ENDROOT
BRANCH   6  18
HETATM   18  C3  UNL     1       3.029  10.701  23.173  1.00  0.00     0.117 C 
BRANCH  18  19
HETATM   19  C4  UNL     1       4.248  11.415  23.581  1.00  0.00    -0.048 A 
HETATM   20  C5  UNL     1       5.523  10.898  23.460  1.00  0.00     0.010 A 
HETATM   21  C6  UNL     1       6.638  11.600  23.854  1.00  0.00     0.040 A 
HETATM   22  C7  UNL     1       6.519  12.863  24.389  1.00  0.00     0.105 A 
HETATM   23  C8  UNL     1       5.251  13.405  24.521  1.00  0.00     0.105 A 
HETATM   24  O2  UNL     1       7.440  13.808  24.872  1.00  0.00    -0.323 OA
HETATM   25  C9  UNL     1       4.132  12.680  24.118  1.00  0.00     0.047 A 
HETATM   26  O1  UNL     1       5.432  14.668  25.082  1.00  0.00    -0.323 OA
HETATM   27  C10 UNL     1       6.778  15.079  24.906  1.00  0.00     0.352 C 
ENDBRANCH  18  19
ENDBRANCH   6  18
TORSDOF 2
ENDMDL
