MODEL 3
REMARK VINA RESULT: -10.124339279      3.064      6.991
REMARK  4 active torsions:
REMARK  status: ('A' for Active; 'I' for Inactive)
REMARK    1  A    between atoms: C2_6  and  C3_7 
REMARK    2  A    between atoms: C3_7  and  C4_8 
REMARK    3  A    between atoms: C13_21  and  S1_22 
REMARK    4  A    between atoms: S1_22  and  N5_23 
ROOT
HETATM    1  N1  UNL     1      -1.452  12.748  23.386  1.00  0.00    -0.062 NA
HETATM    2  C1  UNL     1      -0.066  12.436  23.576  1.00  0.00     0.209 A 
HETATM    3  N2  UNL     1       0.556  11.253  23.411  1.00  0.00    -0.264 N 
ATOM      4  H2  UNL     1       0.096  10.391  23.115  1.00  0.00     0.190 HD
HETATM    5  N3  UNL     1       1.833  11.365  23.683  1.00  0.00    -0.224 N 
HETATM    6  C2  UNL     1       2.850  10.489  23.666  1.00  0.00     0.110 A 
HETATM    7  N4  UNL     1       4.118  10.823  23.990  1.00  0.00    -0.343 N 
ATOM      8  H4  UNL     1       4.849  10.112  23.959  1.00  0.00     0.167 HD
HETATM    9  C11 UNL     1       4.430  12.084  24.353  1.00  0.00     0.049 A 
HETATM   10  C12 UNL     1       5.725  12.449  24.687  1.00  0.00     0.055 A 
HETATM   11  C13 UNL     1       6.018  13.741  25.055  1.00  0.00     0.081 A 
HETATM   12  C14 UNL     1       4.976  14.652  25.075  1.00  0.00     0.026 A 
HETATM   13  C15 UNL     1       3.677  14.287  24.738  1.00  0.00     0.019 A 
HETATM   14  C16 UNL     1       3.389  12.991  24.372  1.00  0.00     0.037 A 
HETATM   15  C17 UNL     1       2.092  12.640  24.039  1.00  0.00     0.143 A 
HETATM   16  N6  UNL     1       0.916  13.288  23.969  1.00  0.00    -0.313 N 
ATOM     17  H6  UNL     1       0.781  14.277  24.180  1.00  0.00     0.170 HD
ENDROOT
BRANCH   6  18
HETATM   18  C3  UNL     1       2.531   9.081  23.267  1.00  0.00     0.117 C 
BRANCH  18  19
HETATM   19  C4  UNL     1       1.763   8.391  24.344  1.00  0.00    -0.048 A 
HETATM   20  C5  UNL     1       0.677   7.580  24.086  1.00  0.00     0.010 A 
HETATM   21  C6  UNL     1      -0.009   6.956  25.123  1.00  0.00     0.040 A 
HETATM   22  C7  UNL     1       0.370   7.127  26.440  1.00  0.00     0.105 A 
HETATM   23  C8  UNL     1       1.462   7.941  26.710  1.00  0.00     0.105 A 
HETATM   24  O2  UNL     1      -0.103   6.650  27.670  1.00  0.00    -0.323 OA
HETATM   25  C9  UNL     1       2.128   8.550  25.675  1.00  0.00     0.047 A 
HETATM   26  O1  UNL     1       1.622   7.936  28.098  1.00  0.00    -0.323 OA
HETATM   27  C10 UNL     1       0.979   6.772  28.587  1.00  0.00     0.352 C 
ENDBRANCH  18  19
ENDBRANCH   6  18
BRANCH  11  28
HETATM   28  S1  UNL     1       7.634  14.265  25.491  1.00  0.00     0.256 S 
HETATM   29  O3  UNL     1       7.635  15.047  26.773  1.00  0.00    -0.201 OA
HETATM   30  O4  UNL     1       8.162  15.146  24.398  1.00  0.00    -0.201 OA
BRANCH  28  31
HETATM   31  N5  UNL     1       8.628  12.873  25.725  1.00  0.00    -0.324 N 
ATOM     32  H52 UNL     1       8.555  12.233  26.516  1.00  0.00     0.169 HD
ATOM     33  H51 UNL     1       9.287  12.805  24.950  1.00  0.00     0.169 HD
ENDBRANCH  28  31
ENDBRANCH  11  28
TORSDOF 4
ENDMDL
