MODEL 2
REMARK VINA RESULT: -10.344222980      0.747      1.425
REMARK  4 active torsions:
REMARK  status: ('A' for Active; 'I' for Inactive)
REMARK    1  A    between atoms: C2_6  and  C3_7 
REMARK    2  A    between atoms: C3_7  and  C4_8 
REMARK    3  A    between atoms: C13_21  and  S1_22 
REMARK    4  A    between atoms: S1_22  and  N5_23 
ROOT
HETATM    1  N1  UNL     1      -2.242  12.050  22.848  1.00  0.00    -0.062 NA
HETATM    2  C1  UNL     1      -1.176  11.426  23.577  1.00  0.00     0.209 A 
HETATM    3  N2  UNL     1       0.143  11.442  23.306  1.00  0.00    -0.264 N 
ATOM      4  H2  UNL     1       0.568  11.922  22.513  1.00  0.00     0.190 HD
HETATM    5  N3  UNL     1       0.803  10.753  24.206  1.00  0.00    -0.224 N 
HETATM    6  C2  UNL     1       2.106  10.479  24.371  1.00  0.00     0.110 A 
HETATM    7  N4  UNL     1       2.581   9.733  25.392  1.00  0.00    -0.343 N 
ATOM      8  H4  UNL     1       3.583   9.559  25.463  1.00  0.00     0.167 HD
HETATM    9  C11 UNL     1       1.747   9.217  26.317  1.00  0.00     0.049 A 
HETATM   10  C12 UNL     1       2.213   8.449  27.373  1.00  0.00     0.055 A 
HETATM   11  C13 UNL     1       1.342   7.933  28.304  1.00  0.00     0.081 A 
HETATM   12  C14 UNL     1      -0.004   8.210  28.143  1.00  0.00     0.026 A 
HETATM   13  C15 UNL     1      -0.472   8.981  27.085  1.00  0.00     0.019 A 
HETATM   14  C16 UNL     1       0.404   9.495  26.155  1.00  0.00     0.037 A 
HETATM   15  C17 UNL     1      -0.075  10.260  25.105  1.00  0.00     0.143 A 
HETATM   16  N6  UNL     1      -1.287  10.682  24.706  1.00  0.00    -0.313 N 
ATOM     17  H6  UNL     1      -2.164  10.473  25.184  1.00  0.00     0.170 HD
ENDROOT
BRANCH   6  18
HETATM   18  C3  UNL     1       3.054  11.041  23.357  1.00  0.00     0.117 C 
BRANCH  18  19
HETATM   19  C4  UNL     1       3.898  12.112  23.963  1.00  0.00    -0.048 A 
HETATM   20  C5  UNL     1       3.373  13.293  24.446  1.00  0.00     0.010 A 
HETATM   21  C6  UNL     1       4.198  14.265  25.004  1.00  0.00     0.040 A 
HETATM   22  C7  UNL     1       5.564  14.082  25.091  1.00  0.00     0.105 A 
HETATM   23  C8  UNL     1       6.102  12.897  24.607  1.00  0.00     0.105 A 
HETATM   24  O2  UNL     1       6.630  14.848  25.583  1.00  0.00    -0.323 OA
HETATM   25  C9  UNL     1       5.273  11.948  24.060  1.00  0.00     0.047 A 
HETATM   26  O1  UNL     1       7.480  12.976  24.819  1.00  0.00    -0.323 OA
HETATM   27  C10 UNL     1       7.691  13.935  25.841  1.00  0.00     0.352 C 
ENDBRANCH  18  19
ENDBRANCH   6  18
BRANCH  11  28
HETATM   28  S1  UNL     1       1.868   6.954  29.662  1.00  0.00     0.256 S 
HETATM   29  O3  UNL     1       3.364   6.954  29.796  1.00  0.00    -0.201 OA
HETATM   30  O4  UNL     1       1.412   5.543  29.439  1.00  0.00    -0.201 OA
BRANCH  28  31
HETATM   31  N5  UNL     1       1.212   7.616  31.114  1.00  0.00    -0.324 N 
ATOM     32  H52 UNL     1       0.594   8.426  31.157  1.00  0.00     0.169 HD
ATOM     33  H51 UNL     1       1.545   7.066  31.906  1.00  0.00     0.169 HD
ENDBRANCH  28  31
ENDBRANCH  11  28
TORSDOF 4
ENDMDL
