MODEL 4
REMARK VINA RESULT: -9.993058408      3.225      7.072
REMARK  4 active torsions:
REMARK  status: ('A' for Active; 'I' for Inactive)
REMARK    1  A    between atoms: C2_6  and  C3_7 
REMARK    2  A    between atoms: C3_7  and  C4_8 
REMARK    3  A    between atoms: C13_21  and  S1_22 
REMARK    4  A    between atoms: S1_22  and  N5_23 
ROOT
HETATM    1  N1  UNL     1      -1.163  12.878  23.340  1.00  0.00    -0.062 NA
HETATM    2  C1  UNL     1       0.223  12.564  23.533  1.00  0.00     0.209 A 
HETATM    3  N2  UNL     1       0.849  11.389  23.336  1.00  0.00    -0.264 N 
ATOM      4  H2  UNL     1       0.395  10.535  23.009  1.00  0.00     0.190 HD
HETATM    5  N3  UNL     1       2.124  11.495  23.622  1.00  0.00    -0.224 N 
HETATM    6  C2  UNL     1       3.144  10.623  23.588  1.00  0.00     0.110 A 
HETATM    7  N4  UNL     1       4.408  10.951  23.932  1.00  0.00    -0.343 N 
ATOM      8  H4  UNL     1       5.141  10.243  23.886  1.00  0.00     0.167 HD
HETATM    9  C11 UNL     1       4.713  12.201  24.337  1.00  0.00     0.049 A 
HETATM   10  C12 UNL     1       6.003  12.558  24.695  1.00  0.00     0.055 A 
HETATM   11  C13 UNL     1       6.289  13.840  25.105  1.00  0.00     0.081 A 
HETATM   12  C14 UNL     1       5.244  14.746  25.145  1.00  0.00     0.026 A 
HETATM   13  C15 UNL     1       3.950  14.388  24.785  1.00  0.00     0.019 A 
HETATM   14  C16 UNL     1       3.668  13.104  24.376  1.00  0.00     0.037 A 
HETATM   15  C17 UNL     1       2.376  12.760  24.020  1.00  0.00     0.143 A 
HETATM   16  N6  UNL     1       1.198  13.406  23.960  1.00  0.00    -0.313 N 
ATOM     17  H6  UNL     1       1.058  14.387  24.201  1.00  0.00     0.170 HD
ENDROOT
BRANCH   6  18
HETATM   18  C3  UNL     1       2.832   9.228  23.141  1.00  0.00     0.117 C 
BRANCH  18  19
HETATM   19  C4  UNL     1       2.536   8.355  24.315  1.00  0.00    -0.048 A 
HETATM   20  C5  UNL     1       3.523   7.795  25.098  1.00  0.00     0.010 A 
HETATM   21  C6  UNL     1       3.200   6.986  26.184  1.00  0.00     0.040 A 
HETATM   22  C7  UNL     1       1.885   6.718  26.512  1.00  0.00     0.105 A 
HETATM   23  C8  UNL     1       0.884   7.278  25.730  1.00  0.00     0.105 A 
HETATM   24  O2  UNL     1       1.255   5.967  27.514  1.00  0.00    -0.323 OA
HETATM   25  C9  UNL     1       1.221   8.074  24.662  1.00  0.00     0.047 A 
HETATM   26  O1  UNL     1      -0.327   6.851  26.279  1.00  0.00    -0.323 OA
HETATM   27  C10 UNL     1      -0.069   6.477  27.621  1.00  0.00     0.352 C 
ENDBRANCH  18  19
ENDBRANCH   6  18
BRANCH  11  28
HETATM   28  S1  UNL     1       7.900  14.354  25.572  1.00  0.00     0.256 S 
HETATM   29  O3  UNL     1       7.881  15.138  26.853  1.00  0.00    -0.201 OA
HETATM   30  O4  UNL     1       8.455  15.230  24.488  1.00  0.00    -0.201 OA
BRANCH  28  31
HETATM   31  N5  UNL     1       8.880  12.957  25.828  1.00  0.00    -0.324 N 
ATOM     32  H52 UNL     1       8.599  12.001  25.608  1.00  0.00     0.169 HD
ATOM     33  H51 UNL     1       9.770  13.248  26.231  1.00  0.00     0.169 HD
ENDBRANCH  28  31
ENDBRANCH  11  28
TORSDOF 4
ENDMDL
