MODEL 1
REMARK VINA RESULT: -10.404066876      0.000      0.000
REMARK  4 active torsions:
REMARK  status: ('A' for Active; 'I' for Inactive)
REMARK    1  A    between atoms: C2_6  and  C3_7 
REMARK    2  A    between atoms: C3_7  and  C4_8 
REMARK    3  A    between atoms: C13_21  and  S1_22 
REMARK    4  A    between atoms: S1_22  and  N5_23 
ROOT
HETATM    1  N1  UNL     1      -2.283  11.832  23.008  1.00  0.00    -0.062 NA
HETATM    2  C1  UNL     1      -1.213  11.201  23.724  1.00  0.00     0.209 A 
HETATM    3  N2  UNL     1       0.096  11.164  23.412  1.00  0.00    -0.264 N 
ATOM      4  H2  UNL     1       0.510  11.602  22.588  1.00  0.00     0.190 HD
HETATM    5  N3  UNL     1       0.764  10.488  24.314  1.00  0.00    -0.224 N 
HETATM    6  C2  UNL     1       2.063  10.177  24.447  1.00  0.00     0.110 A 
HETATM    7  N4  UNL     1       2.548   9.453  25.478  1.00  0.00    -0.343 N 
ATOM      8  H4  UNL     1       3.547   9.249  25.524  1.00  0.00     0.167 HD
HETATM    9  C11 UNL     1       1.730   8.997  26.449  1.00  0.00     0.049 A 
HETATM   10  C12 UNL     1       2.207   8.253  27.516  1.00  0.00     0.055 A 
HETATM   11  C13 UNL     1       1.352   7.798  28.493  1.00  0.00     0.081 A 
HETATM   12  C14 UNL     1       0.010   8.113  28.366  1.00  0.00     0.026 A 
HETATM   13  C15 UNL     1      -0.468   8.860  27.295  1.00  0.00     0.019 A 
HETATM   14  C16 UNL     1       0.391   9.312  26.319  1.00  0.00     0.037 A 
HETATM   15  C17 UNL     1      -0.098  10.055  25.258  1.00  0.00     0.143 A 
HETATM   16  N6  UNL     1      -1.309  10.501  24.883  1.00  0.00    -0.313 N 
ATOM     17  H6  UNL     1      -2.175  10.337  25.396  1.00  0.00     0.170 HD
ENDROOT
BRANCH   6  18
HETATM   18  C3  UNL     1       2.994  10.672  23.383  1.00  0.00     0.117 C 
BRANCH  18  19
HETATM   19  C4  UNL     1       3.865  11.761  23.912  1.00  0.00    -0.048 A 
HETATM   20  C5  UNL     1       5.240  11.659  23.965  1.00  0.00     0.010 A 
HETATM   21  C6  UNL     1       6.014  12.701  24.467  1.00  0.00     0.040 A 
HETATM   22  C7  UNL     1       5.435  13.867  24.929  1.00  0.00     0.105 A 
HETATM   23  C8  UNL     1       4.053  13.979  24.880  1.00  0.00     0.105 A 
HETATM   24  O2  UNL     1       5.927  15.059  25.477  1.00  0.00    -0.323 OA
HETATM   25  C9  UNL     1       3.303  12.941  24.381  1.00  0.00     0.047 A 
HETATM   26  O1  UNL     1       3.743  15.238  25.400  1.00  0.00    -0.323 OA
HETATM   27  C10 UNL     1       4.908  16.035  25.286  1.00  0.00     0.352 C 
ENDBRANCH  18  19
ENDBRANCH   6  18
BRANCH  11  28
HETATM   28  S1  UNL     1       1.893   6.852  29.868  1.00  0.00     0.256 S 
HETATM   29  O3  UNL     1       3.390   6.862  29.991  1.00  0.00    -0.201 OA
HETATM   30  O4  UNL     1       1.442   5.434  29.680  1.00  0.00    -0.201 OA
BRANCH  28  31
HETATM   31  N5  UNL     1       1.245   7.543  31.310  1.00  0.00    -0.324 N 
ATOM     32  H52 UNL     1       0.676   8.389  31.346  1.00  0.00     0.169 HD
ATOM     33  H51 UNL     1       1.525   6.969  32.105  1.00  0.00     0.169 HD
ENDBRANCH  28  31
ENDBRANCH  11  28
TORSDOF 4
ENDMDL
