MODEL 5
REMARK VINA RESULT: -9.842334400      3.553      7.347
REMARK  4 active torsions:
REMARK  status: ('A' for Active; 'I' for Inactive)
REMARK    1  A    between atoms: C2_6  and  C3_7 
REMARK    2  A    between atoms: C3_7  and  C4_8 
REMARK    3  A    between atoms: C13_21  and  S1_22 
REMARK    4  A    between atoms: S1_22  and  N5_23 
ROOT
HETATM    1  N1  UNL     1       4.232   6.761  21.471  1.00  0.00    -0.062 NA
HETATM    2  C1  UNL     1       4.246   8.031  22.136  1.00  0.00     0.209 A 
HETATM    3  N2  UNL     1       3.206   8.837  22.422  1.00  0.00    -0.264 N 
ATOM      4  H2  UNL     1       2.233   8.635  22.190  1.00  0.00     0.190 HD
HETATM    5  N3  UNL     1       3.619   9.917  23.039  1.00  0.00    -0.224 N 
HETATM    6  C2  UNL     1       2.981  10.996  23.519  1.00  0.00     0.110 A 
HETATM    7  N4  UNL     1       3.615  12.016  24.135  1.00  0.00    -0.343 N 
ATOM      8  H4  UNL     1       3.074  12.810  24.479  1.00  0.00     0.167 HD
HETATM    9  C11 UNL     1       4.953  12.000  24.302  1.00  0.00     0.049 A 
HETATM   10  C12 UNL     1       5.624  13.036  24.931  1.00  0.00     0.055 A 
HETATM   11  C13 UNL     1       6.990  12.996  25.088  1.00  0.00     0.081 A 
HETATM   12  C14 UNL     1       7.658  11.889  24.596  1.00  0.00     0.026 A 
HETATM   13  C15 UNL     1       6.985  10.848  23.966  1.00  0.00     0.019 A 
HETATM   14  C16 UNL     1       5.618  10.893  23.810  1.00  0.00     0.037 A 
HETATM   15  C17 UNL     1       4.960   9.851  23.180  1.00  0.00     0.143 A 
HETATM   16  N6  UNL     1       5.331   8.686  22.621  1.00  0.00    -0.313 N 
ATOM     17  H6  UNL     1       6.291   8.344  22.569  1.00  0.00     0.170 HD
ENDROOT
BRANCH   6  18
HETATM   18  C3  UNL     1       1.493  11.039  23.348  1.00  0.00     0.117 C 
BRANCH  18  19
HETATM   19  C4  UNL     1       0.807  10.599  24.598  1.00  0.00    -0.048 A 
HETATM   20  C5  UNL     1      -0.333  11.209  25.079  1.00  0.00     0.010 A 
HETATM   21  C6  UNL     1      -0.939  10.764  26.250  1.00  0.00     0.040 A 
HETATM   22  C7  UNL     1      -0.422   9.703  26.968  1.00  0.00     0.105 A 
HETATM   23  C8  UNL     1       0.725   9.083  26.491  1.00  0.00     0.105 A 
HETATM   24  O2  UNL     1      -0.791   9.041  28.147  1.00  0.00    -0.323 OA
HETATM   25  C9  UNL     1       1.311   9.534  25.334  1.00  0.00     0.047 A 
HETATM   26  O1  UNL     1       1.022   8.061  27.396  1.00  0.00    -0.323 OA
HETATM   27  C10 UNL     1      -0.175   7.759  28.092  1.00  0.00     0.352 C 
ENDBRANCH  18  19
ENDBRANCH   6  18
BRANCH  11  28
HETATM   28  S1  UNL     1       7.896  14.276  25.874  1.00  0.00     0.256 S 
HETATM   29  O3  UNL     1       7.001  15.176  26.677  1.00  0.00    -0.201 OA
HETATM   30  O4  UNL     1       8.575  15.099  24.821  1.00  0.00    -0.201 OA
BRANCH  28  31
HETATM   31  N5  UNL     1       9.034  13.567  26.961  1.00  0.00    -0.324 N 
ATOM     32  H52 UNL     1       8.789  12.979  27.758  1.00  0.00     0.169 HD
ATOM     33  H51 UNL     1       9.976  13.834  26.673  1.00  0.00     0.169 HD
ENDBRANCH  28  31
ENDBRANCH  11  28
TORSDOF 4
ENDMDL
