MODEL 6
REMARK VINA RESULT: -10.334636919      3.901      7.083
REMARK  2 active torsions:
REMARK  status: ('A' for Active; 'I' for Inactive)
REMARK    1  A    between atoms: C2_6  and  C3_7 
REMARK    2  A    between atoms: C3_7  and  C4_8 
ROOT
HETATM    1  N1  UNL     1      -1.726  11.848  23.628  1.00  0.00    -0.062 NA
HETATM    2  C1  UNL     1      -0.669  11.171  24.293  1.00  0.00     0.209 A 
HETATM    3  N2  UNL     1       0.592  11.090  23.832  1.00  0.00    -0.264 N 
ATOM      4  H2  UNL     1       0.941  11.498  22.964  1.00  0.00     0.190 HD
HETATM    5  N3  UNL     1       1.304  10.386  24.706  1.00  0.00    -0.224 N 
HETATM    6  C2  UNL     1       2.601  10.040  24.685  1.00  0.00     0.110 A 
HETATM    7  N4  UNL     1       3.083   9.314  25.708  1.00  0.00    -0.343 N 
ATOM      8  H4  UNL     1       4.066   9.041  25.708  1.00  0.00     0.167 HD
HETATM    9  C11 UNL     1       2.281   8.932  26.746  1.00  0.00     0.050 A 
HETATM   10  C12 UNL     1       2.761   8.186  27.802  1.00  0.00     0.030 A 
HETATM   11  C13 UNL     1       1.964   7.787  28.869  1.00  0.00     0.005 A 
HETATM   12  C14 UNL     1       0.636   8.154  28.868  1.00  0.00     0.043 A 
HETATM   13  C15 UNL     1       0.132   8.902  27.818  1.00  0.00     0.132 A 
HETATM   14  F1  UNL     1      -1.174   9.231  27.871  1.00  0.00    -0.205 F 
HETATM   15  C16 UNL     1       0.950   9.287  26.768  1.00  0.00     0.075 A 
HETATM   16  C17 UNL     1       0.461  10.032  25.716  1.00  0.00     0.147 A 
HETATM   17  N5  UNL     1      -0.767  10.512  25.473  1.00  0.00    -0.313 N 
ATOM     18  H5  UNL     1      -1.600  10.404  26.053  1.00  0.00     0.170 HD
ENDROOT
BRANCH   6  19
HETATM   19  C3  UNL     1       3.481  10.462  23.543  1.00  0.00     0.117 C 
BRANCH  19  20
HETATM   20  C4  UNL     1       4.257  11.691  23.900  1.00  0.00    -0.048 A 
HETATM   21  C5  UNL     1       5.641  11.725  23.729  1.00  0.00     0.010 A 
HETATM   22  C6  UNL     1       6.319  12.878  24.070  1.00  0.00     0.040 A 
HETATM   23  C7  UNL     1       5.664  13.992  24.574  1.00  0.00     0.105 A 
HETATM   24  C8  UNL     1       4.296  13.961  24.745  1.00  0.00     0.105 A 
HETATM   25  O2  UNL     1       6.143  15.232  24.974  1.00  0.00    -0.323 OA
HETATM   26  C9  UNL     1       3.625  12.806  24.401  1.00  0.00     0.047 A 
HETATM   27  O1  UNL     1       3.893  15.192  25.259  1.00  0.00    -0.323 OA
HETATM   28  C10 UNL     1       5.044  16.040  25.327  1.00  0.00     0.352 A 
ENDBRANCH  19  20
ENDBRANCH   6  19
TORSDOF 2
ENDMDL
