MODEL 3
REMARK VINA RESULT: -11.317961266      0.664      1.400
REMARK  2 active torsions:
REMARK  status: ('A' for Active; 'I' for Inactive)
REMARK    1  A    between atoms: C2_6  and  C3_7 
REMARK    2  A    between atoms: C3_7  and  C4_8 
ROOT
HETATM    1  N1  UNL     1       8.152   9.602  23.076  1.00  0.00    -0.062 NA
HETATM    2  C1  UNL     1       7.107  10.504  23.415  1.00  0.00     0.209 A 
HETATM    3  N2  UNL     1       5.796  10.212  23.340  1.00  0.00    -0.264 N 
ATOM      4  H2  UNL     1       5.395   9.324  23.037  1.00  0.00     0.190 HD
HETATM    5  N3  UNL     1       5.115  11.285  23.729  1.00  0.00    -0.224 N 
HETATM    6  C2  UNL     1       3.789  11.479  23.825  1.00  0.00     0.110 A 
HETATM    7  N4  UNL     1       3.351  12.675  24.252  1.00  0.00    -0.343 N 
ATOM      8  H4  UNL     1       2.347  12.841  24.331  1.00  0.00     0.167 HD
HETATM    9  C11 UNL     1       4.222  13.673  24.584  1.00  0.00     0.050 A 
HETATM   10  C12 UNL     1       3.787  14.905  25.024  1.00  0.00     0.030 A 
HETATM   11  C13 UNL     1       4.656  15.935  25.366  1.00  0.00     0.005 A 
HETATM   12  C14 UNL     1       6.011  15.712  25.259  1.00  0.00     0.043 A 
HETATM   13  C15 UNL     1       6.471  14.483  24.819  1.00  0.00     0.132 A 
HETATM   14  F1  UNL     1       7.807  14.324  24.735  1.00  0.00    -0.205 F 
HETATM   15  C16 UNL     1       5.582  13.474  24.486  1.00  0.00     0.075 A 
HETATM   16  C17 UNL     1       6.027  12.246  24.046  1.00  0.00     0.147 A 
HETATM   17  N5  UNL     1       7.268  11.775  23.855  1.00  0.00    -0.313 N 
ATOM     18  H5  UNL     1       8.147  12.269  24.009  1.00  0.00     0.170 HD
ENDROOT
BRANCH   6  19
HETATM   19  C3  UNL     1       2.833  10.379  23.461  1.00  0.00     0.117 C 
BRANCH  19  20
HETATM   20  C4  UNL     1       2.001   9.991  24.643  1.00  0.00    -0.048 A 
HETATM   21  C5  UNL     1       2.317   8.852  25.385  1.00  0.00     0.010 A 
HETATM   22  C6  UNL     1       1.525   8.529  26.467  1.00  0.00     0.040 A 
HETATM   23  C7  UNL     1       0.432   9.302  26.833  1.00  0.00     0.105 A 
HETATM   24  C8  UNL     1       0.117  10.428  26.102  1.00  0.00     0.105 A 
HETATM   25  O2  UNL     1      -0.482   9.162  27.868  1.00  0.00    -0.323 OA
HETATM   26  C9  UNL     1       0.914  10.745  25.022  1.00  0.00     0.047 A 
HETATM   27  O1  UNL     1      -1.011  11.017  26.673  1.00  0.00    -0.323 OA
HETATM   28  C10 UNL     1      -1.349  10.273  27.848  1.00  0.00     0.352 A 
ENDBRANCH  19  20
ENDBRANCH   6  19
TORSDOF 2
ENDMDL
