MODEL 8
REMARK VINA RESULT: -10.235560337      4.033      7.239
REMARK  2 active torsions:
REMARK  status: ('A' for Active; 'I' for Inactive)
REMARK    1  A    between atoms: C2_6  and  C3_7 
REMARK    2  A    between atoms: C3_7  and  C4_8 
ROOT
HETATM    1  N1  UNL     1      -1.730  12.683  23.517  1.00  0.00    -0.062 NA
HETATM    2  C1  UNL     1      -0.736  11.898  24.163  1.00  0.00     0.209 A 
HETATM    3  N2  UNL     1       0.540  11.796  23.750  1.00  0.00    -0.264 N 
ATOM      4  H2  UNL     1       0.947  12.261  22.938  1.00  0.00     0.190 HD
HETATM    5  N3  UNL     1       1.177  10.982  24.587  1.00  0.00    -0.224 N 
HETATM    6  C2  UNL     1       2.457  10.576  24.590  1.00  0.00     0.110 A 
HETATM    7  N4  UNL     1       2.856   9.739  25.562  1.00  0.00    -0.343 N 
ATOM      8  H4  UNL     1       3.824   9.419  25.580  1.00  0.00     0.167 HD
HETATM    9  C11 UNL     1       1.990   9.307  26.526  1.00  0.00     0.050 A 
HETATM   10  C12 UNL     1       2.385   8.448  27.529  1.00  0.00     0.030 A 
HETATM   11  C13 UNL     1       1.521   7.996  28.521  1.00  0.00     0.005 A 
HETATM   12  C14 UNL     1       0.212   8.427  28.496  1.00  0.00     0.043 A 
HETATM   13  C15 UNL     1      -0.207   9.289  27.498  1.00  0.00     0.132 A 
HETATM   14  F1  UNL     1      -1.497   9.676  27.525  1.00  0.00    -0.205 F 
HETATM   15  C16 UNL     1       0.677   9.724  26.523  1.00  0.00     0.075 A 
HETATM   16  C17 UNL     1       0.272  10.583  25.523  1.00  0.00     0.147 A 
HETATM   17  N5  UNL     1      -0.920  11.143  25.272  1.00  0.00    -0.313 N 
ATOM     18  H5  UNL     1      -1.783  11.025  25.804  1.00  0.00     0.170 HD
ENDROOT
BRANCH   6  19
HETATM   19  C3  UNL     1       3.408  11.053  23.529  1.00  0.00     0.117 C 
BRANCH  19  20
HETATM   20  C4  UNL     1       4.146  12.270  23.991  1.00  0.00    -0.048 A 
HETATM   21  C5  UNL     1       3.447  13.392  24.436  1.00  0.00     0.010 A 
HETATM   22  C6  UNL     1       4.166  14.494  24.854  1.00  0.00     0.040 A 
HETATM   23  C7  UNL     1       5.553  14.512  24.841  1.00  0.00     0.105 A 
HETATM   24  C8  UNL     1       6.247  13.405  24.401  1.00  0.00     0.105 A 
HETATM   25  O2  UNL     1       6.458  15.497  25.211  1.00  0.00    -0.323 OA
HETATM   26  C9  UNL     1       5.522  12.307  23.986  1.00  0.00     0.047 A 
HETATM   27  O1  UNL     1       7.610  13.681  24.489  1.00  0.00    -0.323 OA
HETATM   28  C10 UNL     1       7.761  14.973  25.085  1.00  0.00     0.352 A 
ENDBRANCH  19  20
ENDBRANCH   6  19
TORSDOF 2
ENDMDL
