MODEL 2
REMARK VINA RESULT: -11.339373187      1.086      1.356
REMARK  2 active torsions:
REMARK  status: ('A' for Active; 'I' for Inactive)
REMARK    1  A    between atoms: C2_6  and  C3_7 
REMARK    2  A    between atoms: C3_7  and  C4_8 
ROOT
HETATM    1  N1  UNL     1       8.238   9.758  23.044  1.00  0.00    -0.062 NA
HETATM    2  C1  UNL     1       7.156  10.614  23.385  1.00  0.00     0.209 A 
HETATM    3  N2  UNL     1       5.858  10.276  23.282  1.00  0.00    -0.264 N 
ATOM      4  H2  UNL     1       5.494   9.381  22.953  1.00  0.00     0.190 HD
HETATM    5  N3  UNL     1       5.132  11.315  23.683  1.00  0.00    -0.224 N 
HETATM    6  C2  UNL     1       3.799  11.459  23.761  1.00  0.00     0.110 A 
HETATM    7  N4  UNL     1       3.310  12.628  24.207  1.00  0.00    -0.343 N 
ATOM      8  H4  UNL     1       2.300  12.756  24.273  1.00  0.00     0.167 HD
HETATM    9  C11 UNL     1       4.140  13.650  24.575  1.00  0.00     0.050 A 
HETATM   10  C12 UNL     1       3.653  14.855  25.034  1.00  0.00     0.030 A 
HETATM   11  C13 UNL     1       4.479  15.908  25.414  1.00  0.00     0.005 A 
HETATM   12  C14 UNL     1       5.843  15.736  25.324  1.00  0.00     0.043 A 
HETATM   13  C15 UNL     1       6.354  14.535  24.865  1.00  0.00     0.132 A 
HETATM   14  F1  UNL     1       7.695  14.425  24.799  1.00  0.00    -0.205 F 
HETATM   15  C16 UNL     1       5.507  13.502  24.495  1.00  0.00     0.075 A 
HETATM   16  C17 UNL     1       6.004  12.301  24.036  1.00  0.00     0.147 A 
HETATM   17  N5  UNL     1       7.264  11.879  23.855  1.00  0.00    -0.313 N 
ATOM     18  H5  UNL     1       8.122  12.401  24.034  1.00  0.00     0.170 HD
ENDROOT
BRANCH   6  19
HETATM   19  C3  UNL     1       2.889  10.334  23.358  1.00  0.00     0.117 C 
BRANCH  19  20
HETATM   20  C4  UNL     1       2.017   9.923  24.504  1.00  0.00    -0.048 A 
HETATM   21  C5  UNL     1       0.631  10.044  24.413  1.00  0.00     0.010 A 
HETATM   22  C6  UNL     1      -0.137   9.654  25.491  1.00  0.00     0.040 A 
HETATM   23  C7  UNL     1       0.432   9.150  26.652  1.00  0.00     0.105 A 
HETATM   24  C8  UNL     1       1.802   9.029  26.745  1.00  0.00     0.105 A 
HETATM   25  O2  UNL     1      -0.143   8.705  27.835  1.00  0.00    -0.323 OA
HETATM   26  C9  UNL     1       2.563   9.420  25.663  1.00  0.00     0.047 A 
HETATM   27  O1  UNL     1       2.111   8.503  27.998  1.00  0.00    -0.323 OA
HETATM   28  C10 UNL     1       0.880   8.210  28.668  1.00  0.00     0.352 A 
ENDBRANCH  19  20
ENDBRANCH   6  19
TORSDOF 2
ENDMDL
