MODEL 1
REMARK VINA RESULT: -11.440976538      0.000      0.000
REMARK  2 active torsions:
REMARK  status: ('A' for Active; 'I' for Inactive)
REMARK    1  A    between atoms: C2_6  and  C3_7 
REMARK    2  A    between atoms: C3_7  and  C4_8 
ROOT
HETATM    1  N1  UNL     1       7.919   9.649  22.852  1.00  0.00    -0.062 NA
HETATM    2  C1  UNL     1       6.923  10.578  23.256  1.00  0.00     0.209 A 
HETATM    3  N2  UNL     1       5.600  10.343  23.207  1.00  0.00    -0.264 N 
ATOM      4  H2  UNL     1       5.154   9.485  22.882  1.00  0.00     0.190 HD
HETATM    5  N3  UNL     1       4.975  11.427  23.659  1.00  0.00    -0.224 N 
HETATM    6  C2  UNL     1       3.662  11.671  23.801  1.00  0.00     0.110 A 
HETATM    7  N4  UNL     1       3.286  12.865  24.287  1.00  0.00    -0.343 N 
ATOM      8  H4  UNL     1       2.293  13.069  24.401  1.00  0.00     0.167 HD
HETATM    9  C11 UNL     1       4.208  13.812  24.632  1.00  0.00     0.050 A 
HETATM   10  C12 UNL     1       3.837  15.043  25.132  1.00  0.00     0.030 A 
HETATM   11  C13 UNL     1       4.758  16.022  25.490  1.00  0.00     0.005 A 
HETATM   12  C14 UNL     1       6.099  15.748  25.335  1.00  0.00     0.043 A 
HETATM   13  C15 UNL     1       6.494  14.520  24.834  1.00  0.00     0.132 A 
HETATM   14  F1  UNL     1       7.819  14.309  24.704  1.00  0.00    -0.205 F 
HETATM   15  C16 UNL     1       5.554  13.562  24.486  1.00  0.00     0.075 A 
HETATM   16  C17 UNL     1       5.936  12.336  23.986  1.00  0.00     0.147 A 
HETATM   17  N5  UNL     1       7.150  11.822  23.741  1.00  0.00    -0.313 N 
ATOM     18  H5  UNL     1       8.053  12.274  23.888  1.00  0.00     0.170 HD
ENDROOT
BRANCH   6  19
HETATM   19  C3  UNL     1       2.650  10.627  23.422  1.00  0.00     0.117 C 
BRANCH  19  20
HETATM   20  C4  UNL     1       1.422  10.751  24.268  1.00  0.00    -0.048 A 
HETATM   21  C5  UNL     1       0.351  11.538  23.844  1.00  0.00     0.010 A 
HETATM   22  C6  UNL     1      -0.764  11.625  24.653  1.00  0.00     0.040 A 
HETATM   23  C7  UNL     1      -0.844  10.957  25.866  1.00  0.00     0.105 A 
HETATM   24  C8  UNL     1       0.213  10.178  26.288  1.00  0.00     0.105 A 
HETATM   25  O2  UNL     1      -1.852  10.906  26.819  1.00  0.00    -0.323 OA
HETATM   26  C9  UNL     1       1.323  10.094  25.473  1.00  0.00     0.047 A 
HETATM   27  O1  UNL     1      -0.119   9.623  27.523  1.00  0.00    -0.323 OA
HETATM   28  C10 UNL     1      -1.463  10.006  27.831  1.00  0.00     0.352 A 
ENDBRANCH  19  20
ENDBRANCH   6  19
TORSDOF 2
ENDMDL
