MODEL 6
REMARK VINA RESULT: -9.699154534      0.812      1.407
REMARK  6 active torsions:
REMARK  status: ('A' for Active; 'I' for Inactive)
REMARK    1  A    between atoms: C2_6  and  C3_7 
REMARK    2  A    between atoms: C3_7  and  C4_8 
REMARK    3  A    between atoms: C13_21  and  N5_22 
REMARK    4  A    between atoms: N5_22  and  C14_24 
REMARK    5  A    between atoms: C14_24  and  C15_25 
REMARK    6  A    between atoms: C15_25  and  O3_26 
ROOT
HETATM    1  N1  UNL     1      -1.671  11.723  23.685  1.00  0.00    -0.062 NA
HETATM    2  C1  UNL     1      -0.566  11.133  24.392  1.00  0.00     0.209 A 
HETATM    3  N2  UNL     1       0.723  11.142  24.010  1.00  0.00    -0.264 N 
ATOM      4  H2  UNL     1       1.062  11.579  23.153  1.00  0.00     0.190 HD
HETATM    5  N3  UNL     1       1.495  10.514  24.877  1.00  0.00    -0.224 N 
HETATM    6  C2  UNL     1       2.824  10.276  24.912  1.00  0.00     0.110 A 
HETATM    7  N4  UNL     1       3.332   9.603  25.936  1.00  0.00    -0.343 N 
ATOM      8  H4  UNL     1       4.338   9.431  25.950  1.00  0.00     0.167 HD
HETATM    9  C11 UNL     1       2.583   9.132  26.967  1.00  0.00     0.049 A 
HETATM   10  C12 UNL     1       3.151   8.438  28.012  1.00  0.00     0.059 A 
HETATM   11  C13 UNL     1       2.357   7.962  29.066  1.00  0.00     0.030 A 
HETATM   12  C16 UNL     1       1.010   8.230  28.983  1.00  0.00     0.030 A 
HETATM   13  C17 UNL     1       0.443   8.938  27.916  1.00  0.00     0.020 A 
HETATM   14  C18 UNL     1       1.231   9.393  26.902  1.00  0.00     0.037 A 
HETATM   15  C19 UNL     1       0.664  10.093  25.846  1.00  0.00     0.143 A 
HETATM   16  N6  UNL     1      -0.607  10.468  25.560  1.00  0.00    -0.313 N 
ATOM     17  H6  UNL     1      -1.437  10.280  26.123  1.00  0.00     0.170 HD
ENDROOT
BRANCH   6  18
HETATM   18  C3  UNL     1       3.628  10.796  23.777  1.00  0.00     0.117 C 
BRANCH  18  19
HETATM   19  C4  UNL     1       4.385  12.019  24.104  1.00  0.00    -0.048 A 
HETATM   20  C5  UNL     1       5.754  12.089  23.945  1.00  0.00     0.010 A 
HETATM   21  C6  UNL     1       6.450  13.242  24.256  1.00  0.00     0.040 A 
HETATM   22  C7  UNL     1       5.820  14.385  24.740  1.00  0.00     0.105 A 
HETATM   23  C8  UNL     1       4.456  14.317  24.899  1.00  0.00     0.105 A 
HETATM   24  O2  UNL     1       6.297  15.634  25.113  1.00  0.00    -0.323 OA
HETATM   25  C9  UNL     1       3.755  13.147  24.582  1.00  0.00     0.047 A 
HETATM   26  O1  UNL     1       4.057  15.553  25.385  1.00  0.00    -0.323 OA
HETATM   27  C10 UNL     1       5.154  16.451  25.273  1.00  0.00     0.352 C 
ENDBRANCH  18  19
ENDBRANCH   6  18
BRANCH  11  28
HETATM   28  N5  UNL     1       2.937   7.233  30.133  1.00  0.00    -0.388 N 
ATOM     29  H5  UNL     1       3.878   6.858  30.020  1.00  0.00     0.159 HD
BRANCH  28  30
HETATM   30  C14 UNL     1       2.249   7.008  31.355  1.00  0.00     0.146 C 
BRANCH  30  31
HETATM   31  C15 UNL     1       2.961   6.100  32.318  1.00  0.00     0.183 C 
BRANCH  31  32
HETATM   32  O3  UNL     1       3.586   6.837  33.343  1.00  0.00    -0.399 OA
ATOM     33  H3  UNL     1       3.378   7.762  33.276  1.00  0.00     0.209 HD
ENDBRANCH  31  32
ENDBRANCH  30  31
ENDBRANCH  28  30
ENDBRANCH  11  28
TORSDOF 6
ENDMDL
