MODEL 1
REMARK VINA RESULT: -9.925335616      0.000      0.000
REMARK  6 active torsions:
REMARK  status: ('A' for Active; 'I' for Inactive)
REMARK    1  A    between atoms: C2_6  and  C3_7 
REMARK    2  A    between atoms: C3_7  and  C4_8 
REMARK    3  A    between atoms: C13_21  and  N5_22 
REMARK    4  A    between atoms: N5_22  and  C14_24 
REMARK    5  A    between atoms: C14_24  and  C15_25 
REMARK    6  A    between atoms: C15_25  and  O3_26 
ROOT
HETATM    1  N1  UNL     1      -1.907  12.089  23.317  1.00  0.00    -0.062 NA
HETATM    2  C1  UNL     1      -0.814  11.518  24.059  1.00  0.00     0.209 A 
HETATM    3  N2  UNL     1       0.492  11.605  23.751  1.00  0.00    -0.264 N 
ATOM      4  H2  UNL     1       0.855  12.099  22.936  1.00  0.00     0.190 HD
HETATM    5  N3  UNL     1       1.245  10.973  24.631  1.00  0.00    -0.224 N 
HETATM    6  C2  UNL     1       2.580  10.795  24.731  1.00  0.00     0.110 A 
HETATM    7  N4  UNL     1       3.064  10.098  25.750  1.00  0.00    -0.343 N 
ATOM      8  H4  UNL     1       4.075   9.972  25.814  1.00  0.00     0.167 HD
HETATM    9  C11 UNL     1       2.284   9.543  26.714  1.00  0.00     0.049 A 
HETATM   10  C12 UNL     1       2.827   8.826  27.757  1.00  0.00     0.059 A 
HETATM   11  C13 UNL     1       2.001   8.263  28.741  1.00  0.00     0.030 A 
HETATM   12  C16 UNL     1       0.649   8.471  28.593  1.00  0.00     0.030 A 
HETATM   13  C17 UNL     1       0.107   9.203  27.530  1.00  0.00     0.020 A 
HETATM   14  C18 UNL     1       0.926   9.743  26.584  1.00  0.00     0.037 A 
HETATM   15  C19 UNL     1       0.384  10.467  25.531  1.00  0.00     0.143 A 
HETATM   16  N6  UNL     1      -0.886  10.795  25.191  1.00  0.00    -0.313 N 
ATOM     17  H6  UNL     1      -1.736  10.541  25.696  1.00  0.00     0.170 HD
ENDROOT
BRANCH   6  18
HETATM   18  C3  UNL     1       3.419  11.407  23.670  1.00  0.00     0.117 C 
BRANCH  18  19
HETATM   19  C4  UNL     1       4.172  12.591  24.123  1.00  0.00    -0.048 A 
HETATM   20  C5  UNL     1       3.535  13.712  24.615  1.00  0.00     0.010 A 
HETATM   21  C6  UNL     1       4.254  14.815  25.036  1.00  0.00     0.040 A 
HETATM   22  C7  UNL     1       5.644  14.859  24.989  1.00  0.00     0.105 A 
HETATM   23  C8  UNL     1       6.281  13.744  24.500  1.00  0.00     0.105 A 
HETATM   24  O2  UNL     1       6.565  15.834  25.348  1.00  0.00    -0.323 OA
HETATM   25  C9  UNL     1       5.548  12.629  24.075  1.00  0.00     0.047 A 
HETATM   26  O1  UNL     1       7.640  14.015  24.549  1.00  0.00    -0.323 OA
HETATM   27  C10 UNL     1       7.829  15.201  25.312  1.00  0.00     0.352 C 
ENDBRANCH  18  19
ENDBRANCH   6  18
BRANCH  11  28
HETATM   28  N5  UNL     1       2.556   7.510  29.804  1.00  0.00    -0.388 N 
ATOM     29  H5  UNL     1       3.492   7.119  29.696  1.00  0.00     0.159 HD
BRANCH  28  30
HETATM   30  C14 UNL     1       1.853   7.284  31.017  1.00  0.00     0.146 C 
BRANCH  30  31
HETATM   31  C15 UNL     1       2.481   6.265  31.927  1.00  0.00     0.183 C 
BRANCH  31  32
HETATM   32  O3  UNL     1       3.405   6.867  32.802  1.00  0.00    -0.399 OA
ATOM     33  H3  UNL     1       4.297   6.738  32.501  1.00  0.00     0.209 HD
ENDBRANCH  31  32
ENDBRANCH  30  31
ENDBRANCH  28  30
ENDBRANCH  11  28
TORSDOF 6
ENDMDL
