MODEL 3
REMARK VINA RESULT: -9.733500463      3.370      7.337
REMARK  6 active torsions:
REMARK  status: ('A' for Active; 'I' for Inactive)
REMARK    1  A    between atoms: C2_6  and  C3_7 
REMARK    2  A    between atoms: C3_7  and  C4_8 
REMARK    3  A    between atoms: C13_21  and  N5_22 
REMARK    4  A    between atoms: N5_22  and  C14_24 
REMARK    5  A    between atoms: C14_24  and  C15_25 
REMARK    6  A    between atoms: C15_25  and  O3_26 
ROOT
HETATM    1  N1  UNL     1      -0.297  13.206  24.065  1.00  0.00    -0.062 NA
HETATM    2  C1  UNL     1       1.133  13.047  24.072  1.00  0.00     0.209 A 
HETATM    3  N2  UNL     1       1.817  11.951  23.701  1.00  0.00    -0.264 N 
ATOM      4  H2  UNL     1       1.381  11.091  23.365  1.00  0.00     0.190 HD
HETATM    5  N3  UNL     1       3.120  12.121  23.823  1.00  0.00    -0.224 N 
HETATM    6  C2  UNL     1       4.174  11.315  23.574  1.00  0.00     0.110 A 
HETATM    7  N4  UNL     1       5.400  11.768  23.796  1.00  0.00    -0.343 N 
ATOM      8  H4  UNL     1       6.188  11.149  23.603  1.00  0.00     0.167 HD
HETATM    9  C11 UNL     1       5.662  13.016  24.266  1.00  0.00     0.049 A 
HETATM   10  C12 UNL     1       6.951  13.449  24.482  1.00  0.00     0.059 A 
HETATM   11  C13 UNL     1       7.197  14.742  24.968  1.00  0.00     0.030 A 
HETATM   12  C16 UNL     1       6.090  15.523  25.206  1.00  0.00     0.030 A 
HETATM   13  C17 UNL     1       4.783  15.074  24.981  1.00  0.00     0.020 A 
HETATM   14  C18 UNL     1       4.565  13.815  24.509  1.00  0.00     0.037 A 
HETATM   15  C19 UNL     1       3.267  13.374  24.289  1.00  0.00     0.143 A 
HETATM   16  N6  UNL     1       2.053  13.954  24.447  1.00  0.00    -0.313 N 
ATOM     17  H6  UNL     1       1.871  14.900  24.785  1.00  0.00     0.170 HD
ENDROOT
BRANCH   6  18
HETATM   18  C3  UNL     1       3.871   9.954  23.062  1.00  0.00     0.117 C 
BRANCH  18  19
HETATM   19  C4  UNL     1       3.973   8.901  24.089  1.00  0.00    -0.048 A 
HETATM   20  C5  UNL     1       3.363   9.028  25.320  1.00  0.00     0.010 A 
HETATM   21  C6  UNL     1       3.467   8.032  26.274  1.00  0.00     0.040 A 
HETATM   22  C7  UNL     1       4.184   6.860  26.052  1.00  0.00     0.105 A 
HETATM   23  C8  UNL     1       4.793   6.733  24.826  1.00  0.00     0.105 A 
HETATM   24  O2  UNL     1       4.425   5.743  26.840  1.00  0.00    -0.323 OA
HETATM   25  C9  UNL     1       4.684   7.744  23.863  1.00  0.00     0.047 A 
HETATM   26  O1  UNL     1       5.437   5.504  24.835  1.00  0.00    -0.323 OA
HETATM   27  C10 UNL     1       4.997   4.780  25.977  1.00  0.00     0.352 C 
ENDBRANCH  18  19
ENDBRANCH   6  18
BRANCH  11  28
HETATM   28  N5  UNL     1       8.521  15.183  25.207  1.00  0.00    -0.388 N 
ATOM     29  H5  UNL     1       9.071  15.540  24.425  1.00  0.00     0.159 HD
BRANCH  28  30
HETATM   30  C14 UNL     1       9.109  15.144  26.499  1.00  0.00     0.146 C 
BRANCH  30  31
HETATM   31  C15 UNL     1      10.551  14.722  26.522  1.00  0.00     0.183 C 
BRANCH  31  32
HETATM   32  O3  UNL     1      10.931  14.283  27.805  1.00  0.00    -0.399 OA
ATOM     33  H3  UNL     1      10.990  15.011  28.413  1.00  0.00     0.209 HD
ENDBRANCH  31  32
ENDBRANCH  30  31
ENDBRANCH  28  30
ENDBRANCH  11  28
TORSDOF 6
ENDMDL
