MODEL 16
REMARK VINA RESULT: -8.868142953      1.265      1.813
REMARK  6 active torsions:
REMARK  status: ('A' for Active; 'I' for Inactive)
REMARK    1  A    between atoms: C2_6  and  C3_7 
REMARK    2  A    between atoms: C3_7  and  C4_8 
REMARK    3  A    between atoms: C13_21  and  N5_22 
REMARK    4  A    between atoms: N5_22  and  C14_24 
REMARK    5  A    between atoms: C14_24  and  C15_25 
REMARK    6  A    between atoms: C15_25  and  O3_26 
ROOT
HETATM    1  N1  UNL     1      -1.674  11.634  24.707  1.00  0.00    -0.062 NA
HETATM    2  C1  UNL     1      -0.498  10.974  25.208  1.00  0.00     0.209 A 
HETATM    3  N2  UNL     1       0.689  10.876  24.585  1.00  0.00    -0.264 N 
ATOM      4  H2  UNL     1       0.886  11.269  23.664  1.00  0.00     0.190 HD
HETATM    5  N3  UNL     1       1.568  10.208  25.308  1.00  0.00    -0.224 N 
HETATM    6  C2  UNL     1       2.858   9.868  25.094  1.00  0.00     0.110 A 
HETATM    7  N4  UNL     1       3.506   9.178  26.023  1.00  0.00    -0.343 N 
ATOM      8  H4  UNL     1       4.480   8.929  25.849  1.00  0.00     0.167 HD
HETATM    9  C11 UNL     1       2.940   8.787  27.194  1.00  0.00     0.049 A 
HETATM   10  C12 UNL     1       3.649   8.071  28.134  1.00  0.00     0.059 A 
HETATM   11  C13 UNL     1       3.043   7.679  29.336  1.00  0.00     0.030 A 
HETATM   12  C16 UNL     1       1.729   8.048  29.505  1.00  0.00     0.030 A 
HETATM   13  C17 UNL     1       1.017   8.776  28.545  1.00  0.00     0.020 A 
HETATM   14  C18 UNL     1       1.623   9.149  27.383  1.00  0.00     0.037 A 
HETATM   15  C19 UNL     1       0.914   9.871  26.433  1.00  0.00     0.143 A 
HETATM   16  N6  UNL     1      -0.358  10.337  26.384  1.00  0.00    -0.313 N 
ATOM     17  H6  UNL     1      -1.074  10.224  27.103  1.00  0.00     0.170 HD
ENDROOT
BRANCH   6  18
HETATM   18  C3  UNL     1       3.461  10.302  23.809  1.00  0.00     0.117 C 
BRANCH  18  19
HETATM   19  C4  UNL     1       4.526  11.311  23.969  1.00  0.00    -0.048 A 
HETATM   20  C5  UNL     1       5.835  11.043  23.627  1.00  0.00     0.010 A 
HETATM   21  C6  UNL     1       6.823  11.998  23.783  1.00  0.00     0.040 A 
HETATM   22  C7  UNL     1       6.557  13.268  24.287  1.00  0.00     0.105 A 
HETATM   23  C8  UNL     1       5.253  13.536  24.628  1.00  0.00     0.105 A 
HETATM   24  O2  UNL     1       7.366  14.370  24.529  1.00  0.00    -0.323 OA
HETATM   25  C9  UNL     1       4.256  12.565  24.468  1.00  0.00     0.047 A 
HETATM   26  O1  UNL     1       5.232  14.841  25.098  1.00  0.00    -0.323 OA
HETATM   27  C10 UNL     1       6.485  15.443  24.796  1.00  0.00     0.352 C 
ENDBRANCH  18  19
ENDBRANCH   6  18
BRANCH  11  28
HETATM   28  N5  UNL     1       3.766   6.928  30.296  1.00  0.00    -0.388 N 
ATOM     29  H5  UNL     1       4.759   6.756  30.142  1.00  0.00     0.159 HD
BRANCH  28  30
HETATM   30  C14 UNL     1       3.152   6.407  31.466  1.00  0.00     0.146 C 
BRANCH  30  31
HETATM   31  C15 UNL     1       3.670   5.066  31.904  1.00  0.00     0.183 C 
BRANCH  31  32
HETATM   32  O3  UNL     1       3.075   4.026  31.165  1.00  0.00    -0.399 OA
ATOM     33  H3  UNL     1       2.242   4.299  30.797  1.00  0.00     0.209 HD
ENDBRANCH  31  32
ENDBRANCH  30  31
ENDBRANCH  28  30
ENDBRANCH  11  28
TORSDOF 6
ENDMDL
