MODEL 2
REMARK VINA RESULT: -9.748738149      2.660      7.362
REMARK  6 active torsions:
REMARK  status: ('A' for Active; 'I' for Inactive)
REMARK    1  A    between atoms: C2_6  and  C3_7 
REMARK    2  A    between atoms: C3_7  and  C4_8 
REMARK    3  A    between atoms: C13_21  and  N5_22 
REMARK    4  A    between atoms: N5_22  and  C14_24 
REMARK    5  A    between atoms: C14_24  and  C15_25 
REMARK    6  A    between atoms: C15_25  and  O3_26 
ROOT
HETATM    1  N1  UNL     1      -0.654  13.307  24.121  1.00  0.00    -0.062 NA
HETATM    2  C1  UNL     1       0.769  13.094  24.139  1.00  0.00     0.209 A 
HETATM    3  N2  UNL     1       1.407  11.940  23.876  1.00  0.00    -0.264 N 
ATOM      4  H2  UNL     1       0.936  11.069  23.629  1.00  0.00     0.190 HD
HETATM    5  N3  UNL     1       2.717  12.071  23.976  1.00  0.00    -0.224 N 
HETATM    6  C2  UNL     1       3.737  11.203  23.806  1.00  0.00     0.110 A 
HETATM    7  N4  UNL     1       4.982  11.629  23.977  1.00  0.00    -0.343 N 
ATOM      8  H4  UNL     1       5.743  10.963  23.845  1.00  0.00     0.167 HD
HETATM    9  C11 UNL     1       5.294  12.906  24.320  1.00  0.00     0.049 A 
HETATM   10  C12 UNL     1       6.601  13.307  24.488  1.00  0.00     0.059 A 
HETATM   11  C13 UNL     1       6.899  14.632  24.842  1.00  0.00     0.030 A 
HETATM   12  C16 UNL     1       5.825  15.475  25.004  1.00  0.00     0.030 A 
HETATM   13  C17 UNL     1       4.500  15.057  24.830  1.00  0.00     0.020 A 
HETATM   14  C18 UNL     1       4.231  13.767  24.486  1.00  0.00     0.037 A 
HETATM   15  C19 UNL     1       2.915  13.357  24.315  1.00  0.00     0.143 A 
HETATM   16  N6  UNL     1       1.725  13.997  24.418  1.00  0.00    -0.313 N 
ATOM     17  H6  UNL     1       1.582  14.978  24.662  1.00  0.00     0.170 HD
ENDROOT
BRANCH   6  18
HETATM   18  C3  UNL     1       3.379   9.811  23.432  1.00  0.00     0.117 C 
BRANCH  18  19
HETATM   19  C4  UNL     1       2.575   9.115  24.454  1.00  0.00    -0.048 A 
HETATM   20  C5  UNL     1       1.580   8.223  24.110  1.00  0.00     0.010 A 
HETATM   21  C6  UNL     1       0.833   7.579  25.079  1.00  0.00     0.040 A 
HETATM   22  C7  UNL     1       1.039   7.788  26.440  1.00  0.00     0.105 A 
HETATM   23  C8  UNL     1       2.030   8.677  26.784  1.00  0.00     0.105 A 
HETATM   24  O2  UNL     1       0.429   7.268  27.573  1.00  0.00    -0.323 OA
HETATM   25  C9  UNL     1       2.783   9.327  25.799  1.00  0.00     0.047 A 
HETATM   26  O1  UNL     1       2.051   8.722  28.170  1.00  0.00    -0.323 OA
HETATM   27  C10 UNL     1       1.241   7.661  28.662  1.00  0.00     0.352 C 
ENDBRANCH  18  19
ENDBRANCH   6  18
BRANCH  11  28
HETATM   28  N5  UNL     1       8.241  15.042  25.031  1.00  0.00    -0.388 N 
ATOM     29  H5  UNL     1       8.786  15.339  24.221  1.00  0.00     0.159 HD
BRANCH  28  30
HETATM   30  C14 UNL     1       8.854  15.054  26.313  1.00  0.00     0.146 C 
BRANCH  30  31
HETATM   31  C15 UNL     1      10.355  15.110  26.291  1.00  0.00     0.183 C 
BRANCH  31  32
HETATM   32  O3  UNL     1      10.905  13.859  25.949  1.00  0.00    -0.399 OA
ATOM     33  H3  UNL     1      11.821  13.941  25.710  1.00  0.00     0.209 HD
ENDBRANCH  31  32
ENDBRANCH  30  31
ENDBRANCH  28  30
ENDBRANCH  11  28
TORSDOF 6
ENDMDL
