MODEL 4
REMARK VINA RESULT: -9.726152205      3.014      7.278
REMARK  6 active torsions:
REMARK  status: ('A' for Active; 'I' for Inactive)
REMARK    1  A    between atoms: C2_6  and  C3_7 
REMARK    2  A    between atoms: C3_7  and  C4_8 
REMARK    3  A    between atoms: C13_21  and  N5_22 
REMARK    4  A    between atoms: N5_22  and  C14_24 
REMARK    5  A    between atoms: C14_24  and  C15_25 
REMARK    6  A    between atoms: C15_25  and  O3_26 
ROOT
HETATM    1  N1  UNL     1      -0.312  13.236  24.060  1.00  0.00    -0.062 NA
HETATM    2  C1  UNL     1       1.118  13.074  24.079  1.00  0.00     0.209 A 
HETATM    3  N2  UNL     1       1.801  11.966  23.745  1.00  0.00    -0.264 N 
ATOM      4  H2  UNL     1       1.365  11.097  23.435  1.00  0.00     0.190 HD
HETATM    5  N3  UNL     1       3.104  12.137  23.868  1.00  0.00    -0.224 N 
HETATM    6  C2  UNL     1       4.157  11.322  23.651  1.00  0.00     0.110 A 
HETATM    7  N4  UNL     1       5.384  11.780  23.864  1.00  0.00    -0.343 N 
ATOM      8  H4  UNL     1       6.171  11.153  23.695  1.00  0.00     0.167 HD
HETATM    9  C11 UNL     1       5.646  13.041  24.296  1.00  0.00     0.049 A 
HETATM   10  C12 UNL     1       6.935  13.478  24.505  1.00  0.00     0.059 A 
HETATM   11  C13 UNL     1       7.180  14.786  24.950  1.00  0.00     0.030 A 
HETATM   12  C16 UNL     1       6.074  15.576  25.158  1.00  0.00     0.030 A 
HETATM   13  C17 UNL     1       4.767  15.123  24.942  1.00  0.00     0.020 A 
HETATM   14  C18 UNL     1       4.549  13.850  24.508  1.00  0.00     0.037 A 
HETATM   15  C19 UNL     1       3.251  13.404  24.296  1.00  0.00     0.143 A 
HETATM   16  N6  UNL     1       2.037  13.991  24.429  1.00  0.00    -0.313 N 
ATOM     17  H6  UNL     1       1.855  14.947  24.737  1.00  0.00     0.170 HD
ENDROOT
BRANCH   6  18
HETATM   18  C3  UNL     1       3.854   9.946  23.180  1.00  0.00     0.117 C 
BRANCH  18  19
HETATM   19  C4  UNL     1       4.021   8.916  24.222  1.00  0.00    -0.048 A 
HETATM   20  C5  UNL     1       4.636   7.710  23.957  1.00  0.00     0.010 A 
HETATM   21  C6  UNL     1       4.785   6.753  24.944  1.00  0.00     0.040 A 
HETATM   22  C7  UNL     1       4.330   6.948  26.245  1.00  0.00     0.105 A 
HETATM   23  C8  UNL     1       3.718   8.150  26.510  1.00  0.00     0.105 A 
HETATM   24  O2  UNL     1       4.366   6.152  27.381  1.00  0.00    -0.323 OA
HETATM   25  C9  UNL     1       3.569   9.116  25.507  1.00  0.00     0.047 A 
HETATM   26  O1  UNL     1       3.355   8.117  27.849  1.00  0.00    -0.323 OA
HETATM   27  C10 UNL     1       3.984   6.992  28.452  1.00  0.00     0.352 C 
ENDBRANCH  18  19
ENDBRANCH   6  18
BRANCH  11  28
HETATM   28  N5  UNL     1       8.504  15.231  25.182  1.00  0.00    -0.388 N 
ATOM     29  H5  UNL     1       9.046  15.598  24.399  1.00  0.00     0.159 HD
BRANCH  28  30
HETATM   30  C14 UNL     1       9.103  15.185  26.469  1.00  0.00     0.146 C 
BRANCH  30  31
HETATM   31  C15 UNL     1      10.543  14.757  26.478  1.00  0.00     0.183 C 
BRANCH  31  32
HETATM   32  O3  UNL     1      10.933  14.310  27.755  1.00  0.00    -0.399 OA
ATOM     33  H3  UNL     1      11.848  14.055  27.765  1.00  0.00     0.209 HD
ENDBRANCH  31  32
ENDBRANCH  30  31
ENDBRANCH  28  30
ENDBRANCH  11  28
TORSDOF 6
ENDMDL
