MODEL 6
REMARK VINA RESULT: -9.932916766      1.950      2.359
REMARK  6 active torsions:
REMARK  status: ('A' for Active; 'I' for Inactive)
REMARK    1  A    between atoms: C2_6  and  C3_7 
REMARK    2  A    between atoms: C3_7  and  C4_8 
REMARK    3  A    between atoms: C15_24  and  N5_25 
REMARK    4  A    between atoms: N5_25  and  C16_27 
REMARK    5  A    between atoms: C16_27  and  C17_28 
REMARK    6  A    between atoms: C17_28  and  O3_29 
ROOT
HETATM    1  N1  UNL     1       8.929   9.876  22.833  1.00  0.00    -0.062 NA
HETATM    2  C1  UNL     1       7.799  10.637  23.197  1.00  0.00     0.209 A 
HETATM    3  N2  UNL     1       6.510  10.322  23.052  1.00  0.00    -0.264 N 
ATOM      4  H2  UNL     1       6.157   9.457  22.643  1.00  0.00     0.190 HD
HETATM    5  N3  UNL     1       5.759  11.311  23.524  1.00  0.00    -0.224 N 
HETATM    6  C2  UNL     1       4.426  11.367  23.591  1.00  0.00     0.110 A 
HETATM    7  N4  UNL     1       3.901  12.467  24.150  1.00  0.00    -0.343 N 
ATOM      8  H4  UNL     1       2.886  12.544  24.220  1.00  0.00     0.167 HD
HETATM    9  C11 UNL     1       4.660  13.473  24.623  1.00  0.00     0.052 A 
HETATM   10  C12 UNL     1       4.091  14.587  25.215  1.00  0.00     0.072 A 
HETATM   11  C13 UNL     1       4.849  15.616  25.720  1.00  0.00     0.120 A 
HETATM   12  F1  UNL     1       4.276  16.712  26.307  1.00  0.00    -0.206 F 
HETATM   13  C14 UNL     1       6.215  15.530  25.627  1.00  0.00     0.072 A 
HETATM   14  C15 UNL     1       6.830  14.404  25.024  1.00  0.00     0.047 A 
HETATM   15  C18 UNL     1       6.025  13.406  24.544  1.00  0.00     0.063 A 
HETATM   16  C19 UNL     1       6.597  12.297  23.984  1.00  0.00     0.146 A 
HETATM   17  N6  UNL     1       7.847  11.871  23.782  1.00  0.00    -0.313 N 
ATOM     18  H6  UNL     1       8.696  12.383  24.024  1.00  0.00     0.170 HD
ENDROOT
BRANCH   6  19
HETATM   19  C3  UNL     1       3.582  10.264  23.071  1.00  0.00     0.117 C 
BRANCH  19  20
HETATM   20  C4  UNL     1       3.619   9.062  23.920  1.00  0.00    -0.048 A 
HETATM   21  C5  UNL     1       3.098   9.037  25.210  1.00  0.00     0.010 A 
HETATM   22  C6  UNL     1       3.144   7.892  25.995  1.00  0.00     0.040 A 
HETATM   23  C7  UNL     1       3.715   6.741  25.499  1.00  0.00     0.105 A 
HETATM   24  C8  UNL     1       4.240   6.738  24.222  1.00  0.00     0.105 A 
HETATM   25  O2  UNL     1       3.900   5.460  26.051  1.00  0.00    -0.323 OA
HETATM   26  C9  UNL     1       4.182   7.885  23.468  1.00  0.00     0.047 A 
HETATM   27  O1  UNL     1       4.737   5.441  24.026  1.00  0.00    -0.323 OA
HETATM   28  C10 UNL     1       4.124   4.563  24.982  1.00  0.00     0.352 C 
ENDBRANCH  19  20
ENDBRANCH   6  19
BRANCH  14  29
HETATM   29  N5  UNL     1       8.200  14.524  24.862  1.00  0.00    -0.387 N 
ATOM     30  H5  UNL     1       8.625  14.325  23.956  1.00  0.00     0.159 HD
BRANCH  29  31
HETATM   31  C16 UNL     1       9.046  14.941  26.000  1.00  0.00     0.146 C 
BRANCH  31  32
HETATM   32  C17 UNL     1      10.110  13.912  26.269  1.00  0.00     0.183 C 
BRANCH  32  33
HETATM   33  O3  UNL     1      10.137  13.044  25.190  1.00  0.00    -0.399 OA
ATOM     34  H3  UNL     1      11.023  13.037  24.848  1.00  0.00     0.209 HD
ENDBRANCH  32  33
ENDBRANCH  31  32
ENDBRANCH  29  31
ENDBRANCH  14  29
TORSDOF 6
ENDMDL
