MODEL 9
REMARK VINA RESULT: -9.352647233      2.757      7.367
REMARK  6 active torsions:
REMARK  status: ('A' for Active; 'I' for Inactive)
REMARK    1  A    between atoms: C2_6  and  C3_7 
REMARK    2  A    between atoms: C3_7  and  C4_8 
REMARK    3  A    between atoms: C15_24  and  N5_25 
REMARK    4  A    between atoms: N5_25  and  C16_27 
REMARK    5  A    between atoms: C16_27  and  C17_28 
REMARK    6  A    between atoms: C17_28  and  O3_29 
ROOT
HETATM    1  N1  UNL     1       3.559   6.937  26.306  1.00  0.00    -0.062 NA
HETATM    2  C1  UNL     1       3.193   8.112  25.618  1.00  0.00     0.209 A 
HETATM    3  N2  UNL     1       3.983   8.962  24.957  1.00  0.00    -0.264 N 
ATOM      4  H2  UNL     1       4.995   8.871  24.859  1.00  0.00     0.190 HD
HETATM    5  N3  UNL     1       3.247   9.942  24.448  1.00  0.00    -0.224 N 
HETATM    6  C2  UNL     1       3.656  10.968  23.696  1.00  0.00     0.110 A 
HETATM    7  N4  UNL     1       2.705  11.811  23.267  1.00  0.00    -0.343 N 
ATOM      8  H4  UNL     1       2.980  12.605  22.689  1.00  0.00     0.167 HD
HETATM    9  C11 UNL     1       1.404  11.652  23.570  1.00  0.00     0.052 A 
HETATM   10  C12 UNL     1       0.442  12.527  23.095  1.00  0.00     0.072 A 
HETATM   11  C13 UNL     1      -0.894  12.370  23.378  1.00  0.00     0.120 A 
HETATM   12  F1  UNL     1      -1.837  13.239  22.901  1.00  0.00    -0.206 F 
HETATM   13  C14 UNL     1      -1.278  11.311  24.161  1.00  0.00     0.072 A 
HETATM   14  C15 UNL     1      -0.319  10.398  24.665  1.00  0.00     0.047 A 
HETATM   15  C18 UNL     1       0.998  10.599  24.346  1.00  0.00     0.063 A 
HETATM   16  C19 UNL     1       1.939   9.715  24.797  1.00  0.00     0.146 A 
HETATM   17  N6  UNL     1       1.917   8.587  25.512  1.00  0.00    -0.313 N 
ATOM     18  H6  UNL     1       1.085   8.153  25.912  1.00  0.00     0.170 HD
ENDROOT
BRANCH   6  19
HETATM   19  C3  UNL     1       5.088  11.152  23.358  1.00  0.00     0.117 C 
BRANCH  19  20
HETATM   20  C4  UNL     1       5.698  12.303  24.044  1.00  0.00    -0.048 A 
HETATM   21  C5  UNL     1       4.944  13.327  24.607  1.00  0.00     0.010 A 
HETATM   22  C6  UNL     1       5.540  14.405  25.251  1.00  0.00     0.040 A 
HETATM   23  C7  UNL     1       6.911  14.477  25.344  1.00  0.00     0.105 A 
HETATM   24  C8  UNL     1       7.684  13.474  24.793  1.00  0.00     0.105 A 
HETATM   25  O2  UNL     1       7.775  15.426  25.922  1.00  0.00    -0.323 OA
HETATM   26  C9  UNL     1       7.068  12.420  24.162  1.00  0.00     0.047 A 
HETATM   27  O1  UNL     1       9.013  13.841  25.053  1.00  0.00    -0.323 OA
HETATM   28  C10 UNL     1       9.026  14.800  26.121  1.00  0.00     0.352 C 
ENDBRANCH  19  20
ENDBRANCH   6  19
BRANCH  14  29
HETATM   29  N5  UNL     1      -0.829   9.474  25.561  1.00  0.00    -0.387 N 
ATOM     30  H5  UNL     1      -1.117   8.552  25.234  1.00  0.00     0.159 HD
BRANCH  29  31
HETATM   31  C16 UNL     1      -0.957   9.824  26.992  1.00  0.00     0.146 C 
BRANCH  31  32
HETATM   32  C17 UNL     1      -0.288   8.785  27.850  1.00  0.00     0.183 C 
BRANCH  32  33
HETATM   33  O3  UNL     1      -0.222   7.613  27.114  1.00  0.00    -0.399 OA
ATOM     34  H3  UNL     1       0.573   7.644  26.595  1.00  0.00     0.209 HD
ENDBRANCH  32  33
ENDBRANCH  31  32
ENDBRANCH  29  31
ENDBRANCH  14  29
TORSDOF 6
ENDMDL
