MODEL 3
REMARK VINA RESULT: -10.321036701      1.138      1.516
REMARK  6 active torsions:
REMARK  status: ('A' for Active; 'I' for Inactive)
REMARK    1  A    between atoms: C2_6  and  C3_7 
REMARK    2  A    between atoms: C3_7  and  C4_8 
REMARK    3  A    between atoms: C15_24  and  N5_25 
REMARK    4  A    between atoms: N5_25  and  C16_27 
REMARK    5  A    between atoms: C16_27  and  C17_28 
REMARK    6  A    between atoms: C17_28  and  O3_29 
ROOT
HETATM    1  N1  UNL     1       8.806   9.901  23.024  1.00  0.00    -0.062 NA
HETATM    2  C1  UNL     1       7.688  10.677  23.396  1.00  0.00     0.209 A 
HETATM    3  N2  UNL     1       6.398  10.338  23.357  1.00  0.00    -0.264 N 
ATOM      4  H2  UNL     1       6.034   9.439  23.041  1.00  0.00     0.190 HD
HETATM    5  N3  UNL     1       5.662  11.353  23.794  1.00  0.00    -0.224 N 
HETATM    6  C2  UNL     1       4.334  11.400  23.939  1.00  0.00     0.110 A 
HETATM    7  N4  UNL     1       3.828  12.536  24.440  1.00  0.00    -0.343 N 
ATOM      8  H4  UNL     1       2.818  12.607  24.567  1.00  0.00     0.167 HD
HETATM    9  C11 UNL     1       4.598  13.585  24.783  1.00  0.00     0.052 A 
HETATM   10  C12 UNL     1       4.049  14.736  25.319  1.00  0.00     0.072 A 
HETATM   11  C13 UNL     1       4.821  15.811  25.693  1.00  0.00     0.120 A 
HETATM   12  F1  UNL     1       4.267  16.944  26.224  1.00  0.00    -0.206 F 
HETATM   13  C14 UNL     1       6.180  15.732  25.522  1.00  0.00     0.072 A 
HETATM   14  C15 UNL     1       6.774  14.568  24.974  1.00  0.00     0.047 A 
HETATM   15  C18 UNL     1       5.957  13.526  24.626  1.00  0.00     0.063 A 
HETATM   16  C19 UNL     1       6.511  12.381  24.121  1.00  0.00     0.146 A 
HETATM   17  N6  UNL     1       7.752  11.955  23.876  1.00  0.00    -0.313 N 
ATOM     18  H6  UNL     1       8.606  12.493  24.024  1.00  0.00     0.170 HD
ENDROOT
BRANCH   6  19
HETATM   19  C3  UNL     1       3.478  10.249  23.562  1.00  0.00     0.117 C 
BRANCH  19  20
HETATM   20  C4  UNL     1       3.379   9.234  24.623  1.00  0.00    -0.048 A 
HETATM   21  C5  UNL     1       3.794   7.919  24.445  1.00  0.00     0.010 A 
HETATM   22  C6  UNL     1       3.692   6.976  25.460  1.00  0.00     0.040 A 
HETATM   23  C7  UNL     1       3.169   7.335  26.682  1.00  0.00     0.105 A 
HETATM   24  C8  UNL     1       2.748   8.634  26.886  1.00  0.00     0.105 A 
HETATM   25  O2  UNL     1       2.947   6.613  27.869  1.00  0.00    -0.323 OA
HETATM   26  C9  UNL     1       2.861   9.546  25.864  1.00  0.00     0.047 A 
HETATM   27  O1  UNL     1       2.276   8.671  28.206  1.00  0.00    -0.323 OA
HETATM   28  C10 UNL     1       2.814   7.548  28.921  1.00  0.00     0.352 C 
ENDBRANCH  19  20
ENDBRANCH   6  19
BRANCH  14  29
HETATM   29  N5  UNL     1       8.129  14.689  24.717  1.00  0.00    -0.387 N 
ATOM     30  H5  UNL     1       8.487  14.515  23.778  1.00  0.00     0.159 HD
BRANCH  29  31
HETATM   31  C16 UNL     1       9.056  15.072  25.803  1.00  0.00     0.146 C 
BRANCH  31  32
HETATM   32  C17 UNL     1       9.805  13.869  26.305  1.00  0.00     0.183 C 
BRANCH  32  33
HETATM   33  O3  UNL     1      10.101  13.072  25.210  1.00  0.00    -0.399 OA
ATOM     34  H3  UNL     1      10.856  12.542  25.436  1.00  0.00     0.209 HD
ENDBRANCH  32  33
ENDBRANCH  31  32
ENDBRANCH  29  31
ENDBRANCH  14  29
TORSDOF 6
ENDMDL
