MODEL 14
REMARK VINA RESULT: -9.091792942      2.784      7.222
REMARK  6 active torsions:
REMARK  status: ('A' for Active; 'I' for Inactive)
REMARK    1  A    between atoms: C2_6  and  C3_7 
REMARK    2  A    between atoms: C3_7  and  C4_8 
REMARK    3  A    between atoms: C15_24  and  N5_25 
REMARK    4  A    between atoms: N5_25  and  C16_27 
REMARK    5  A    between atoms: C16_27  and  C17_28 
REMARK    6  A    between atoms: C17_28  and  O3_29 
ROOT
HETATM    1  N1  UNL     1       3.605   5.908  25.683  1.00  0.00    -0.062 NA
HETATM    2  C1  UNL     1       3.378   7.173  25.104  1.00  0.00     0.209 A 
HETATM    3  N2  UNL     1       4.223   7.915  24.383  1.00  0.00    -0.264 N 
ATOM      4  H2  UNL     1       5.180   7.656  24.147  1.00  0.00     0.190 HD
HETATM    5  N3  UNL     1       3.621   9.043  24.022  1.00  0.00    -0.224 N 
HETATM    6  C2  UNL     1       4.114  10.030  23.270  1.00  0.00     0.110 A 
HETATM    7  N4  UNL     1       3.289  11.054  23.011  1.00  0.00    -0.343 N 
ATOM      8  H4  UNL     1       3.631  11.826  22.438  1.00  0.00     0.167 HD
HETATM    9  C11 UNL     1       2.028  11.105  23.478  1.00  0.00     0.052 A 
HETATM   10  C12 UNL     1       1.191  12.166  23.177  1.00  0.00     0.072 A 
HETATM   11  C13 UNL     1      -0.106  12.227  23.628  1.00  0.00     0.120 A 
HETATM   12  F1  UNL     1      -0.926  13.279  23.322  1.00  0.00    -0.206 F 
HETATM   13  C14 UNL     1      -0.578  11.200  24.406  1.00  0.00     0.072 A 
HETATM   14  C15 UNL     1       0.254  10.100  24.735  1.00  0.00     0.047 A 
HETATM   15  C18 UNL     1       1.535  10.089  24.252  1.00  0.00     0.063 A 
HETATM   16  C19 UNL     1       2.346   9.024  24.533  1.00  0.00     0.146 A 
HETATM   17  N6  UNL     1       2.207   7.871  25.192  1.00  0.00    -0.313 N 
ATOM     18  H6  UNL     1       1.366   7.563  25.680  1.00  0.00     0.170 HD
ENDROOT
BRANCH   6  19
HETATM   19  C3  UNL     1       5.504   9.983  22.752  1.00  0.00     0.117 C 
BRANCH  19  20
HETATM   20  C4  UNL     1       6.377  11.005  23.353  1.00  0.00    -0.048 A 
HETATM   21  C5  UNL     1       7.762  10.882  23.388  1.00  0.00     0.010 A 
HETATM   22  C6  UNL     1       8.567  11.859  23.960  1.00  0.00     0.040 A 
HETATM   23  C7  UNL     1       7.997  12.985  24.511  1.00  0.00     0.105 A 
HETATM   24  C8  UNL     1       6.625  13.132  24.489  1.00  0.00     0.105 A 
HETATM   25  O2  UNL     1       8.547  14.114  25.144  1.00  0.00    -0.323 OA
HETATM   26  C9  UNL     1       5.852  12.150  23.917  1.00  0.00     0.047 A 
HETATM   27  O1  UNL     1       6.370  14.360  25.117  1.00  0.00    -0.323 OA
HETATM   28  C10 UNL     1       7.575  15.140  25.110  1.00  0.00     0.352 C 
ENDBRANCH  19  20
ENDBRANCH   6  19
BRANCH  14  29
HETATM   29  N5  UNL     1      -0.303   9.221  25.648  1.00  0.00    -0.387 N 
ATOM     30  H5  UNL     1      -0.687   8.332  25.331  1.00  0.00     0.159 HD
BRANCH  29  31
HETATM   31  C16 UNL     1      -0.339   9.571  27.084  1.00  0.00     0.146 C 
BRANCH  31  32
HETATM   32  C17 UNL     1       0.059   8.389  27.925  1.00  0.00     0.183 C 
BRANCH  32  33
HETATM   33  O3  UNL     1      -0.120   7.249  27.157  1.00  0.00    -0.399 OA
ATOM     34  H3  UNL     1       0.541   6.620  27.419  1.00  0.00     0.209 HD
ENDBRANCH  32  33
ENDBRANCH  31  32
ENDBRANCH  29  31
ENDBRANCH  14  29
TORSDOF 6
ENDMDL
