MODEL 2
REMARK VINA RESULT: -10.670132891      0.660      1.114
REMARK  6 active torsions:
REMARK  status: ('A' for Active; 'I' for Inactive)
REMARK    1  A    between atoms: C2_6  and  C3_7 
REMARK    2  A    between atoms: C3_7  and  C4_8 
REMARK    3  A    between atoms: C15_24  and  N5_25 
REMARK    4  A    between atoms: N5_25  and  C16_27 
REMARK    5  A    between atoms: C16_27  and  C17_28 
REMARK    6  A    between atoms: C17_28  and  O3_29 
ROOT
HETATM    1  N1  UNL     1       8.777   9.702  23.061  1.00  0.00    -0.062 NA
HETATM    2  C1  UNL     1       7.673  10.521  23.377  1.00  0.00     0.209 A 
HETATM    3  N2  UNL     1       6.374  10.255  23.216  1.00  0.00    -0.264 N 
ATOM      4  H2  UNL     1       5.993   9.392  22.829  1.00  0.00     0.190 HD
HETATM    5  N3  UNL     1       5.657  11.289  23.640  1.00  0.00    -0.224 N 
HETATM    6  C2  UNL     1       4.326  11.402  23.678  1.00  0.00     0.110 A 
HETATM    7  N4  UNL     1       3.838  12.541  24.191  1.00  0.00    -0.343 N 
ATOM      8  H4  UNL     1       2.826  12.662  24.238  1.00  0.00     0.167 HD
HETATM    9  C11 UNL     1       4.629  13.530  24.646  1.00  0.00     0.052 A 
HETATM   10  C12 UNL     1       4.095  14.685  25.190  1.00  0.00     0.072 A 
HETATM   11  C13 UNL     1       4.887  15.698  25.677  1.00  0.00     0.120 A 
HETATM   12  F1  UNL     1       4.349  16.836  26.216  1.00  0.00    -0.206 F 
HETATM   13  C14 UNL     1       6.250  15.553  25.614  1.00  0.00     0.072 A 
HETATM   14  C15 UNL     1       6.828  14.383  25.061  1.00  0.00     0.047 A 
HETATM   15  C18 UNL     1       5.991  13.404  24.598  1.00  0.00     0.063 A 
HETATM   16  C19 UNL     1       6.527  12.254  24.085  1.00  0.00     0.146 A 
HETATM   17  N6  UNL     1       7.761  11.771  23.923  1.00  0.00    -0.313 N 
ATOM     18  H6  UNL     1       8.626  12.255  24.165  1.00  0.00     0.170 HD
ENDROOT
BRANCH   6  19
HETATM   19  C3  UNL     1       3.447  10.318  23.178  1.00  0.00     0.117 C 
BRANCH  19  20
HETATM   20  C4  UNL     1       2.802   9.554  24.259  1.00  0.00    -0.048 A 
HETATM   21  C5  UNL     1       3.383   8.429  24.834  1.00  0.00     0.010 A 
HETATM   22  C6  UNL     1       2.757   7.724  25.853  1.00  0.00     0.040 A 
HETATM   23  C7  UNL     1       1.529   8.134  26.320  1.00  0.00     0.105 A 
HETATM   24  C8  UNL     1       0.929   9.248  25.767  1.00  0.00     0.105 A 
HETATM   25  O2  UNL     1       0.676   7.629  27.319  1.00  0.00    -0.323 OA
HETATM   26  C9  UNL     1       1.570   9.927  24.759  1.00  0.00     0.047 A 
HETATM   27  O1  UNL     1      -0.288   9.395  26.449  1.00  0.00    -0.323 OA
HETATM   28  C10 UNL     1      -0.216   8.664  27.683  1.00  0.00     0.352 C 
ENDBRANCH  19  20
ENDBRANCH   6  19
BRANCH  14  29
HETATM   29  N5  UNL     1       8.204  14.441  24.922  1.00  0.00    -0.387 N 
ATOM     30  H5  UNL     1       8.632  14.281  24.010  1.00  0.00     0.159 HD
BRANCH  29  31
HETATM   31  C16 UNL     1       9.054  14.736  26.096  1.00  0.00     0.146 C 
BRANCH  31  32
HETATM   32  C17 UNL     1      10.237  13.809  26.135  1.00  0.00     0.183 C 
BRANCH  32  33
HETATM   33  O3  UNL     1      10.110  12.920  25.079  1.00  0.00    -0.399 OA
ATOM     34  H3  UNL     1      10.467  12.086  25.360  1.00  0.00     0.209 HD
ENDBRANCH  32  33
ENDBRANCH  31  32
ENDBRANCH  29  31
ENDBRANCH  14  29
TORSDOF 6
ENDMDL
