MODEL 1
REMARK VINA RESULT: -10.751621198      0.000      0.000
REMARK  6 active torsions:
REMARK  status: ('A' for Active; 'I' for Inactive)
REMARK    1  A    between atoms: C2_6  and  C3_7 
REMARK    2  A    between atoms: C3_7  and  C4_8 
REMARK    3  A    between atoms: C15_24  and  N5_25 
REMARK    4  A    between atoms: N5_25  and  C16_27 
REMARK    5  A    between atoms: C16_27  and  C17_28 
REMARK    6  A    between atoms: C17_28  and  O3_29 
ROOT
HETATM    1  N1  UNL     1       8.751   9.675  23.089  1.00  0.00    -0.062 NA
HETATM    2  C1  UNL     1       7.648  10.494  23.408  1.00  0.00     0.209 A 
HETATM    3  N2  UNL     1       6.349  10.221  23.264  1.00  0.00    -0.264 N 
ATOM      4  H2  UNL     1       5.966   9.352  22.891  1.00  0.00     0.190 HD
HETATM    5  N3  UNL     1       5.632  11.258  23.683  1.00  0.00    -0.224 N 
HETATM    6  C2  UNL     1       4.301  11.367  23.734  1.00  0.00     0.110 A 
HETATM    7  N4  UNL     1       3.815  12.510  24.238  1.00  0.00    -0.343 N 
ATOM      8  H4  UNL     1       2.803  12.628  24.295  1.00  0.00     0.167 HD
HETATM    9  C11 UNL     1       4.607  13.507  24.673  1.00  0.00     0.052 A 
HETATM   10  C12 UNL     1       4.076  14.667  25.209  1.00  0.00     0.072 A 
HETATM   11  C13 UNL     1       4.869  15.689  25.675  1.00  0.00     0.120 A 
HETATM   12  F1  UNL     1       4.333  16.831  26.206  1.00  0.00    -0.206 F 
HETATM   13  C14 UNL     1       6.231  15.547  25.600  1.00  0.00     0.072 A 
HETATM   14  C15 UNL     1       6.808  14.373  25.054  1.00  0.00     0.047 A 
HETATM   15  C18 UNL     1       5.969  13.385  24.612  1.00  0.00     0.063 A 
HETATM   16  C19 UNL     1       6.503  12.231  24.107  1.00  0.00     0.146 A 
HETATM   17  N6  UNL     1       7.737  11.750  23.937  1.00  0.00    -0.313 N 
ATOM     18  H6  UNL     1       8.603  12.239  24.165  1.00  0.00     0.170 HD
ENDROOT
BRANCH   6  19
HETATM   19  C3  UNL     1       3.420  10.274  23.256  1.00  0.00     0.117 C 
BRANCH  19  20
HETATM   20  C4  UNL     1       2.398   9.886  24.242  1.00  0.00    -0.048 A 
HETATM   21  C5  UNL     1       1.039   9.874  23.948  1.00  0.00     0.010 A 
HETATM   22  C6  UNL     1       0.090   9.504  24.894  1.00  0.00     0.040 A 
HETATM   23  C7  UNL     1       0.488   9.136  26.159  1.00  0.00     0.105 A 
HETATM   24  C8  UNL     1       1.831   9.139  26.478  1.00  0.00     0.105 A 
HETATM   25  O2  UNL     1      -0.229   8.724  27.297  1.00  0.00    -0.323 OA
HETATM   26  C9  UNL     1       2.748   9.510  25.523  1.00  0.00     0.047 A 
HETATM   27  O1  UNL     1       1.900   8.724  27.815  1.00  0.00    -0.323 OA
HETATM   28  C10 UNL     1       0.675   8.055  28.154  1.00  0.00     0.352 C 
ENDBRANCH  19  20
ENDBRANCH   6  19
BRANCH  14  29
HETATM   29  N5  UNL     1       8.182  14.434  24.900  1.00  0.00    -0.387 N 
ATOM     30  H5  UNL     1       8.602  14.248  23.989  1.00  0.00     0.159 HD
BRANCH  29  31
HETATM   31  C16 UNL     1       9.042  14.769  26.055  1.00  0.00     0.146 C 
BRANCH  31  32
HETATM   32  C17 UNL     1      10.192  13.805  26.152  1.00  0.00     0.183 C 
BRANCH  32  33
HETATM   33  O3  UNL     1      10.076  12.905  25.105  1.00  0.00    -0.399 OA
ATOM     34  H3  UNL     1       9.835  12.064  25.475  1.00  0.00     0.209 HD
ENDBRANCH  32  33
ENDBRANCH  31  32
ENDBRANCH  29  31
ENDBRANCH  14  29
TORSDOF 6
ENDMDL
