MODEL 12
REMARK VINA RESULT: -9.114347378      2.024      2.403
REMARK  6 active torsions:
REMARK  status: ('A' for Active; 'I' for Inactive)
REMARK    1  A    between atoms: C2_6  and  C3_7 
REMARK    2  A    between atoms: C3_7  and  C4_8 
REMARK    3  A    between atoms: C15_24  and  N5_25 
REMARK    4  A    between atoms: N5_25  and  C16_27 
REMARK    5  A    between atoms: C16_27  and  C17_28 
REMARK    6  A    between atoms: C17_28  and  O3_29 
ROOT
HETATM    1  N1  UNL     1       9.155   9.114  23.069  1.00  0.00    -0.062 NA
HETATM    2  C1  UNL     1       8.015   9.903  23.322  1.00  0.00     0.209 A 
HETATM    3  N2  UNL     1       6.732   9.584  23.137  1.00  0.00    -0.264 N 
ATOM      4  H2  UNL     1       6.393   8.693  22.774  1.00  0.00     0.190 HD
HETATM    5  N3  UNL     1       5.966  10.607  23.499  1.00  0.00    -0.224 N 
HETATM    6  C2  UNL     1       4.632  10.673  23.497  1.00  0.00     0.110 A 
HETATM    7  N4  UNL     1       4.089  11.812  23.950  1.00  0.00    -0.343 N 
ATOM      8  H4  UNL     1       3.072  11.897  23.964  1.00  0.00     0.167 HD
HETATM    9  C11 UNL     1       4.831  12.846  24.386  1.00  0.00     0.052 A 
HETATM   10  C12 UNL     1       4.242  14.002  24.868  1.00  0.00     0.072 A 
HETATM   11  C13 UNL     1       4.983  15.062  25.335  1.00  0.00     0.120 A 
HETATM   12  F1  UNL     1       4.390  16.199  25.813  1.00  0.00    -0.206 F 
HETATM   13  C14 UNL     1       6.351  14.964  25.315  1.00  0.00     0.072 A 
HETATM   14  C15 UNL     1       6.986  13.795  24.826  1.00  0.00     0.047 A 
HETATM   15  C18 UNL     1       6.198  12.768  24.379  1.00  0.00     0.063 A 
HETATM   16  C19 UNL     1       6.788  11.619  23.928  1.00  0.00     0.146 A 
HETATM   17  N6  UNL     1       8.043  11.176  23.819  1.00  0.00    -0.313 N 
ATOM     18  H6  UNL     1       8.883  11.700  24.065  1.00  0.00     0.170 HD
ENDROOT
BRANCH   6  19
HETATM   19  C3  UNL     1       3.806   9.538  23.016  1.00  0.00     0.117 C 
BRANCH  19  20
HETATM   20  C4  UNL     1       3.927   8.339  23.863  1.00  0.00    -0.048 A 
HETATM   21  C5  UNL     1       4.420   7.130  23.386  1.00  0.00     0.010 A 
HETATM   22  C6  UNL     1       4.526   6.011  24.202  1.00  0.00     0.040 A 
HETATM   23  C7  UNL     1       4.138   6.082  25.521  1.00  0.00     0.105 A 
HETATM   24  C8  UNL     1       3.644   7.271  26.021  1.00  0.00     0.105 A 
HETATM   25  O2  UNL     1       4.130   5.135  26.561  1.00  0.00    -0.323 OA
HETATM   26  C9  UNL     1       3.550   8.362  25.191  1.00  0.00     0.047 A 
HETATM   27  O1  UNL     1       3.345   7.015  27.366  1.00  0.00    -0.323 OA
HETATM   28  C10 UNL     1       4.059   5.841  27.783  1.00  0.00     0.352 C 
ENDBRANCH  19  20
ENDBRANCH   6  19
BRANCH  14  29
HETATM   29  N5  UNL     1       8.363  13.898  24.722  1.00  0.00    -0.387 N 
ATOM     30  H5  UNL     1       8.792  14.105  23.820  1.00  0.00     0.159 HD
BRANCH  29  31
HETATM   31  C16 UNL     1       9.211  13.708  25.918  1.00  0.00     0.146 C 
BRANCH  31  32
HETATM   32  C17 UNL     1       9.867  15.003  26.309  1.00  0.00     0.183 C 
BRANCH  32  33
HETATM   33  O3  UNL     1       9.068  15.605  27.268  1.00  0.00    -0.399 OA
ATOM     34  H3  UNL     1       8.405  14.976  27.526  1.00  0.00     0.209 HD
ENDBRANCH  32  33
ENDBRANCH  31  32
ENDBRANCH  29  31
ENDBRANCH  14  29
TORSDOF 6
ENDMDL
