MODEL 10
REMARK VINA RESULT: -9.330352854      3.151      8.651
REMARK  6 active torsions:
REMARK  status: ('A' for Active; 'I' for Inactive)
REMARK    1  A    between atoms: C2_6  and  C3_7 
REMARK    2  A    between atoms: C3_7  and  C4_8 
REMARK    3  A    between atoms: C15_24  and  N5_25 
REMARK    4  A    between atoms: N5_25  and  C16_27 
REMARK    5  A    between atoms: C16_27  and  C17_28 
REMARK    6  A    between atoms: C17_28  and  O3_29 
ROOT
HETATM    1  N1  UNL     1       3.542  15.560  25.578  1.00  0.00    -0.062 NA
HETATM    2  C1  UNL     1       4.725  14.854  25.277  1.00  0.00     0.209 A 
HETATM    3  N2  UNL     1       5.988  15.233  25.484  1.00  0.00    -0.264 N 
ATOM      4  H2  UNL     1       6.277  16.116  25.903  1.00  0.00     0.190 HD
HETATM    5  N3  UNL     1       6.809  14.279  25.059  1.00  0.00    -0.224 N 
HETATM    6  C2  UNL     1       8.144  14.260  25.119  1.00  0.00     0.110 A 
HETATM    7  N4  UNL     1       8.748  13.157  24.656  1.00  0.00    -0.343 N 
ATOM      8  H4  UNL     1       9.766  13.106  24.687  1.00  0.00     0.167 HD
HETATM    9  C11 UNL     1       8.064  12.113  24.151  1.00  0.00     0.052 A 
HETATM   10  C12 UNL     1       8.714  10.978  23.699  1.00  0.00     0.072 A 
HETATM   11  C13 UNL     1       8.032   9.894  23.198  1.00  0.00     0.120 A 
HETATM   12  F1  UNL     1       8.684   8.775  22.757  1.00  0.00    -0.206 F 
HETATM   13  C14 UNL     1       6.662   9.951  23.143  1.00  0.00     0.072 A 
HETATM   14  C15 UNL     1       5.966  11.099  23.595  1.00  0.00     0.047 A 
HETATM   15  C18 UNL     1       6.696  12.146  24.091  1.00  0.00     0.063 A 
HETATM   16  C19 UNL     1       6.045  13.254  24.559  1.00  0.00     0.146 A 
HETATM   17  N6  UNL     1       4.767  13.616  24.701  1.00  0.00    -0.313 N 
ATOM     18  H6  UNL     1       3.957  13.060  24.424  1.00  0.00     0.170 HD
ENDROOT
BRANCH   6  19
HETATM   19  C3  UNL     1       8.905  15.407  25.673  1.00  0.00     0.117 C 
BRANCH  19  20
HETATM   20  C4  UNL     1      10.072  14.992  26.469  1.00  0.00    -0.048 A 
HETATM   21  C5  UNL     1       9.967  14.154  27.574  1.00  0.00     0.010 A 
HETATM   22  C6  UNL     1      11.081  13.775  28.312  1.00  0.00     0.040 A 
HETATM   23  C7  UNL     1      12.331  14.230  27.954  1.00  0.00     0.105 A 
HETATM   24  C8  UNL     1      12.464  15.063  26.861  1.00  0.00     0.105 A 
HETATM   25  O2  UNL     1      13.610  14.018  28.500  1.00  0.00    -0.323 OA
HETATM   26  C9  UNL     1      11.344  15.422  26.150  1.00  0.00     0.047 A 
HETATM   27  O1  UNL     1      13.835  15.341  26.767  1.00  0.00    -0.323 OA
HETATM   28  C10 UNL     1      14.559  14.344  27.504  1.00  0.00     0.352 C 
ENDBRANCH  19  20
ENDBRANCH   6  19
BRANCH  14  29
HETATM   29  N5  UNL     1       4.606  11.077  23.337  1.00  0.00    -0.387 N 
ATOM     30  H5  UNL     1       4.196  11.765  22.706  1.00  0.00     0.159 HD
BRANCH  29  31
HETATM   31  C16 UNL     1       3.748  10.057  23.976  1.00  0.00     0.146 C 
BRANCH  31  32
HETATM   32  C17 UNL     1       2.327  10.193  23.504  1.00  0.00     0.183 C 
BRANCH  32  33
HETATM   33  O3  UNL     1       2.201  11.435  22.903  1.00  0.00    -0.399 OA
ATOM     34  H3  UNL     1       2.479  12.089  23.533  1.00  0.00     0.209 HD
ENDBRANCH  32  33
ENDBRANCH  31  32
ENDBRANCH  29  31
ENDBRANCH  14  29
TORSDOF 6
ENDMDL
