MODEL 4
REMARK VINA RESULT: -4.774781452      7.710      8.367
REMARK  5 active torsions:
REMARK  status: ('A' for Active; 'I' for Inactive)
REMARK    1  A    between atoms: O1_1  and  C1_3 
REMARK    2  A    between atoms: C1_3  and  C2_4 
REMARK    3  A    between atoms: C4_8  and  O2_9 
REMARK    4  A    between atoms: C5_11  and  O3_12 
REMARK    5  A    between atoms: C6_14  and  O4_15 
ROOT
HETATM    1  C2  UNL     1      69.923  29.117  32.375  1.00  0.00     0.131 C 
HETATM    2  N1  UNL     1      70.864  30.171  32.470  1.00  0.00    -0.410 N 
ATOM      3  H1  UNL     1      71.717  30.080  33.023  1.00  0.00     0.153 HD
HETATM    4  C3  UNL     1      70.563  31.360  31.759  1.00  0.00     0.148 C 
HETATM    5  C4  UNL     1      70.006  31.136  30.379  1.00  0.00     0.166 C 
HETATM    6  C5  UNL     1      68.766  30.257  30.590  1.00  0.00     0.179 C 
HETATM    7  C6  UNL     1      69.325  28.925  31.007  1.00  0.00     0.173 C 
ENDROOT
BRANCH   1   8
HETATM    8  C1  UNL     1      70.630  27.816  32.736  1.00  0.00     0.191 C 
BRANCH   8   9
HETATM    9  O1  UNL     1      69.857  26.755  32.308  1.00  0.00    -0.399 OA
ATOM     10  H1  UNL     1      69.076  26.708  32.847  1.00  0.00     0.209 HD
ENDBRANCH   8   9
ENDBRANCH   1   8
BRANCH   7  11
HETATM   11  O4  UNL     1      70.380  28.604  30.142  1.00  0.00    -0.391 OA
ATOM     12  H4  UNL     1      70.642  27.713  30.344  1.00  0.00     0.210 HD
ENDBRANCH   7  11
BRANCH   6  13
HETATM   13  O3  UNL     1      67.973  30.204  29.474  1.00  0.00    -0.390 OA
ATOM     14  H3  UNL     1      67.061  30.049  29.689  1.00  0.00     0.210 HD
ENDBRANCH   6  13
BRANCH   5  15
HETATM   15  O2  UNL     1      69.704  32.321  29.773  1.00  0.00    -0.391 OA
ATOM     16  H2  UNL     1      69.762  32.246  28.828  1.00  0.00     0.210 HD
ENDBRANCH   5  15
TORSDOF 5
ENDMDL
