MODEL 5
REMARK VINA RESULT: -4.684203803      1.304      1.368
REMARK  5 active torsions:
REMARK  status: ('A' for Active; 'I' for Inactive)
REMARK    1  A    between atoms: O1_1  and  C1_3 
REMARK    2  A    between atoms: C1_3  and  C2_4 
REMARK    3  A    between atoms: C4_8  and  O2_9 
REMARK    4  A    between atoms: C5_11  and  O3_12 
REMARK    5  A    between atoms: C6_14  and  O4_15 
ROOT
HETATM    1  C2  UNL     1      63.367  29.538  36.855  1.00  0.00     0.131 C 
HETATM    2  N1  UNL     1      64.711  29.633  36.419  1.00  0.00    -0.410 N 
ATOM      3  H1  UNL     1      65.489  29.623  37.078  1.00  0.00     0.153 HD
HETATM    4  C3  UNL     1      64.921  29.743  35.022  1.00  0.00     0.148 C 
HETATM    5  C4  UNL     1      64.051  28.841  34.188  1.00  0.00     0.166 C 
HETATM    6  C5  UNL     1      62.613  29.198  34.588  1.00  0.00     0.179 C 
HETATM    7  C6  UNL     1      62.482  28.679  35.993  1.00  0.00     0.173 C 
ENDROOT
BRANCH   1   8
HETATM    8  C1  UNL     1      63.363  28.921  38.248  1.00  0.00     0.191 C 
BRANCH   8   9
HETATM    9  O1  UNL     1      62.064  28.600  38.590  1.00  0.00    -0.399 OA
ATOM     10  H1  UNL     1      61.997  28.557  39.537  1.00  0.00     0.209 HD
ENDBRANCH   8   9
ENDBRANCH   1   8
BRANCH   7  11
HETATM   11  O4  UNL     1      63.011  27.381  36.031  1.00  0.00    -0.391 OA
ATOM     12  H4  UNL     1      63.769  27.408  36.603  1.00  0.00     0.210 HD
ENDBRANCH   7  11
BRANCH   6  13
HETATM   13  O3  UNL     1      61.690  28.683  33.715  1.00  0.00    -0.390 OA
ATOM     14  H3  UNL     1      61.396  27.818  33.974  1.00  0.00     0.210 HD
ENDBRANCH   6  13
BRANCH   5  15
HETATM   15  O2  UNL     1      64.281  29.031  32.857  1.00  0.00    -0.391 OA
ATOM     16  H2  UNL     1      63.480  29.263  32.402  1.00  0.00     0.210 HD
ENDBRANCH   5  15
TORSDOF 5
ENDMDL
