MODEL 1
REMARK VINA RESULT: -5.128879557      0.000      0.000
REMARK  5 active torsions:
REMARK  status: ('A' for Active; 'I' for Inactive)
REMARK    1  A    between atoms: O1_1  and  C1_3 
REMARK    2  A    between atoms: C1_3  and  C2_4 
REMARK    3  A    between atoms: C4_8  and  O2_9 
REMARK    4  A    between atoms: C5_11  and  O3_12 
REMARK    5  A    between atoms: C6_14  and  O4_15 
ROOT
HETATM    1  C2  UNL     1      63.417  29.741  35.901  1.00  0.00     0.131 C 
HETATM    2  N1  UNL     1      64.430  29.603  34.921  1.00  0.00    -0.410 N 
ATOM      3  H1  UNL     1      65.405  29.824  35.124  1.00  0.00     0.153 HD
HETATM    4  C3  UNL     1      64.023  29.141  33.644  1.00  0.00     0.148 C 
HETATM    5  C4  UNL     1      63.022  28.017  33.679  1.00  0.00     0.166 C 
HETATM    6  C5  UNL     1      61.845  28.560  34.502  1.00  0.00     0.179 C 
HETATM    7  C6  UNL     1      62.384  28.646  35.902  1.00  0.00     0.173 C 
ENDROOT
BRANCH   1   8
HETATM    8  C1  UNL     1      64.079  29.728  37.273  1.00  0.00     0.191 C 
BRANCH   8   9
HETATM    9  O1  UNL     1      63.105  29.556  38.237  1.00  0.00    -0.399 OA
ATOM     10  H1  UNL     1      63.526  29.436  39.081  1.00  0.00     0.209 HD
ENDBRANCH   8   9
ENDBRANCH   1   8
BRANCH   7  11
HETATM   11  O4  UNL     1      63.059  27.450  36.186  1.00  0.00    -0.391 OA
ATOM     12  H4  UNL     1      62.398  26.771  36.263  1.00  0.00     0.210 HD
ENDBRANCH   7  11
BRANCH   6  13
HETATM   13  O3  UNL     1      60.726  27.777  34.382  1.00  0.00    -0.390 OA
ATOM     14  H3  UNL     1      60.324  27.597  35.223  1.00  0.00     0.210 HD
ENDBRANCH   6  13
BRANCH   5  15
HETATM   15  O2  UNL     1      62.648  27.654  32.417  1.00  0.00    -0.391 OA
ATOM     16  H2  UNL     1      63.305  27.099  32.013  1.00  0.00     0.210 HD
ENDBRANCH   5  15
TORSDOF 5
ENDMDL
