MODEL 6
REMARK VINA RESULT: -4.673272282      6.658      7.964
REMARK  5 active torsions:
REMARK  status: ('A' for Active; 'I' for Inactive)
REMARK    1  A    between atoms: O1_1  and  C1_3 
REMARK    2  A    between atoms: C1_3  and  C2_4 
REMARK    3  A    between atoms: C4_8  and  O2_9 
REMARK    4  A    between atoms: C5_11  and  O3_12 
REMARK    5  A    between atoms: C6_14  and  O4_15 
ROOT
HETATM    1  C2  UNL     1      69.808  30.136  30.229  1.00  0.00     0.131 C 
HETATM    2  N1  UNL     1      70.763  29.114  30.452  1.00  0.00    -0.410 N 
ATOM      3  H1  UNL     1      71.751  29.249  30.238  1.00  0.00     0.153 HD
HETATM    4  C3  UNL     1      70.279  27.895  30.988  1.00  0.00     0.148 C 
HETATM    5  C4  UNL     1      69.262  28.059  32.087  1.00  0.00     0.166 C 
HETATM    6  C5  UNL     1      68.142  28.905  31.468  1.00  0.00     0.179 C 
HETATM    7  C6  UNL     1      68.759  30.266  31.300  1.00  0.00     0.173 C 
ENDROOT
BRANCH   1   8
HETATM    8  C1  UNL     1      70.545  31.468  30.165  1.00  0.00     0.191 C 
BRANCH   8   9
HETATM    9  O1  UNL     1      69.618  32.485  30.042  1.00  0.00    -0.399 OA
ATOM     10  H1  UNL     1      69.303  32.506  29.146  1.00  0.00     0.209 HD
ENDBRANCH   8   9
ENDBRANCH   1   8
BRANCH   7  11
HETATM   11  O4  UNL     1      69.428  30.592  32.488  1.00  0.00    -0.391 OA
ATOM     12  H4  UNL     1      68.821  31.095  33.019  1.00  0.00     0.210 HD
ENDBRANCH   7  11
BRANCH   6  13
HETATM   13  O3  UNL     1      67.005  28.899  32.233  1.00  0.00    -0.390 OA
ATOM     14  H3  UNL     1      66.467  29.667  32.082  1.00  0.00     0.210 HD
ENDBRANCH   6  13
BRANCH   5  15
HETATM   15  O2  UNL     1      68.814  26.846  32.525  1.00  0.00    -0.391 OA
ATOM     16  H2  UNL     1      67.878  26.759  32.388  1.00  0.00     0.210 HD
ENDBRANCH   5  15
TORSDOF 5
ENDMDL
