MODEL 3
REMARK VINA RESULT: -9.462912739      6.402      9.568
REMARK  4 active torsions:
REMARK  status: ('A' for Active; 'I' for Inactive)
REMARK    1  A    between atoms: N5_13  and  C6_14 
REMARK    2  A    between atoms: C13_32  and  O10_33 
REMARK    3  A    between atoms: C14_36  and  N6_37 
REMARK    4  A    between atoms: C20_50  and  O12_51 
ROOT
HETATM    1  C6  UNL     1     -14.407  -5.328 -12.910  1.00  0.00     0.262 C 
HETATM    2  O1  UNL     1     -13.835  -6.173 -13.854  1.00  0.00    -0.353 OA
HETATM    3  C7  UNL     1     -12.788  -6.726 -13.065  1.00  0.00     0.180 C 
HETATM    4  C8  UNL     1     -12.251  -7.942 -13.797  1.00  0.00     0.216 C 
HETATM    5  O2  UNL     1     -11.861  -8.951 -12.976  1.00  0.00    -0.287 OA
HETATM    6  P1  UNL     1     -10.360  -9.557 -13.434  1.00  0.00     0.408 P 
HETATM    7  O3  UNL     1      -9.998  -9.471 -15.062  1.00  0.00    -0.624 OA
HETATM    8  O4  UNL     1     -11.048 -10.921 -13.640  1.00  0.00    -0.624 OA
HETATM    9  O5  UNL     1      -9.284 -10.105 -12.381  1.00  0.00    -0.279 OA
HETATM   10  C9  UNL     1      -9.147  -9.610 -11.138  1.00  0.00     0.198 C 
HETATM   11  C10 UNL     1      -8.551  -8.257 -10.975  1.00  0.00     0.180 C 
HETATM   12  C11 UNL     1      -9.017  -7.513  -9.728  1.00  0.00     0.216 C 
HETATM   13  O6  UNL     1     -10.311  -7.831  -9.479  1.00  0.00    -0.287 OA
HETATM   14  P2  UNL     1     -11.539  -7.087  -9.997  1.00  0.00     0.408 P 
HETATM   15  O7  UNL     1     -12.373  -8.512  -9.993  1.00  0.00    -0.624 OA
HETATM   16  O8  UNL     1     -10.690  -6.657 -11.347  1.00  0.00    -0.624 OA
HETATM   17  O9  UNL     1     -12.746  -6.370 -10.649  1.00  0.00    -0.279 OA
HETATM   18  C12 UNL     1     -13.385  -7.014 -11.737  1.00  0.00     0.198 C 
HETATM   19  C13 UNL     1     -14.728  -6.320 -11.809  1.00  0.00     0.199 C 
HETATM   20  O11 UNL     1      -7.167  -8.411 -10.798  1.00  0.00    -0.353 OA
HETATM   21  C14 UNL     1      -6.841  -9.711 -11.065  1.00  0.00     0.262 C 
HETATM   22  C20 UNL     1      -8.037 -10.463 -10.473  1.00  0.00     0.199 C 
ENDROOT
BRANCH   1  23
HETATM   23  N5  UNL     1     -15.519  -4.588 -13.366  1.00  0.00    -0.297 N 
HETATM   24  C3  UNL     1     -15.667  -4.124 -14.634  1.00  0.00     0.142 A 
HETATM   25  N3  UNL     1     -14.868  -4.225 -15.728  1.00  0.00    -0.336 N 
HETATM   26  C4  UNL     1     -16.838  -3.454 -14.753  1.00  0.00     0.119 A 
HETATM   27  C2  UNL     1     -15.206  -3.685 -16.907  1.00  0.00     0.183 A 
ATOM     28  H3  UNL     1     -13.984  -4.727 -15.650  1.00  0.00     0.168 HD
HETATM   29  N2  UNL     1     -16.362  -3.026 -17.016  1.00  0.00    -0.339 N 
HETATM   30  C1  UNL     1     -17.204  -2.887 -15.974  1.00  0.00     0.148 A 
ATOM     31  H2  UNL     1     -16.615  -2.617 -17.915  1.00  0.00     0.167 HD
HETATM   32  N1  UNL     1     -18.425  -2.202 -16.053  1.00  0.00    -0.080 NA
HETATM   33  N4  UNL     1     -17.434  -3.499 -13.541  1.00  0.00    -0.346 N 
HETATM   34  C5  UNL     1     -16.618  -4.189 -12.722  1.00  0.00     0.188 A 
ATOM     35  H4  UNL     1     -18.333  -3.087 -13.294  1.00  0.00     0.167 HD
ENDBRANCH   1  23
BRANCH  19  36
HETATM   36  O10 UNL     1     -15.087  -5.691 -10.632  1.00  0.00    -0.388 OA
ATOM     37  H10 UNL     1     -15.995  -5.411 -10.639  1.00  0.00     0.210 HD
ENDBRANCH  19  36
BRANCH  22  38
HETATM   38  O12 UNL     1      -8.051 -11.755 -10.932  1.00  0.00    -0.388 OA
ATOM     39  H12 UNL     1      -7.246 -12.211 -10.717  1.00  0.00     0.210 HD
ENDBRANCH  22  38
BRANCH  21  40
HETATM   40  N6  UNL     1      -5.609 -10.095 -10.458  1.00  0.00    -0.297 N 
HETATM   41  C15 UNL     1      -5.283  -9.760  -9.175  1.00  0.00     0.188 A 
HETATM   42  N7  UNL     1      -4.082 -10.244  -8.868  1.00  0.00    -0.346 N 
HETATM   43  C16 UNL     1      -3.636 -10.891  -9.956  1.00  0.00     0.119 A 
ATOM     44  H7  UNL     1      -3.595 -10.144  -7.977  1.00  0.00     0.167 HD
HETATM   45  C17 UNL     1      -2.455 -11.566 -10.166  1.00  0.00     0.148 A 
HETATM   46  C19 UNL     1      -4.587 -10.796 -10.941  1.00  0.00     0.142 A 
HETATM   47  N8  UNL     1      -1.493 -11.649  -9.137  1.00  0.00    -0.080 NA
HETATM   48  N9  UNL     1      -2.260 -12.135 -11.380  1.00  0.00    -0.339 N 
HETATM   49  C18 UNL     1      -3.203 -12.034 -12.336  1.00  0.00     0.183 A 
ATOM     50  H9  UNL     1      -1.396 -12.642 -11.570  1.00  0.00     0.167 HD
HETATM   51  N10 UNL     1      -4.362 -11.367 -12.121  1.00  0.00    -0.336 N 
ATOM     52  H10 UNL     1      -5.061 -11.303 -12.861  1.00  0.00     0.168 HD
ENDBRANCH  21  40
TORSDOF 4
ENDMDL
