MODEL 1
REMARK VINA RESULT: -10.028935168      0.000      0.000
REMARK  4 active torsions:
REMARK  status: ('A' for Active; 'I' for Inactive)
REMARK    1  A    between atoms: N5_13  and  C6_14 
REMARK    2  A    between atoms: C13_32  and  O10_33 
REMARK    3  A    between atoms: C14_36  and  N6_37 
REMARK    4  A    between atoms: C20_50  and  O12_51 
ROOT
HETATM    1  C6  UNL     1      -9.226  -3.533  -4.739  1.00  0.00     0.262 C 
HETATM    2  O1  UNL     1      -9.157  -4.899  -4.490  1.00  0.00    -0.353 OA
HETATM    3  C7  UNL     1      -9.255  -5.383  -5.824  1.00  0.00     0.180 C 
HETATM    4  C8  UNL     1      -8.846  -6.844  -5.817  1.00  0.00     0.216 C 
HETATM    5  O2  UNL     1      -8.179  -7.234  -6.934  1.00  0.00    -0.287 OA
HETATM    6  P1  UNL     1      -8.782  -8.691  -7.519  1.00  0.00     0.408 P 
HETATM    7  O3  UNL     1      -9.408  -9.739  -6.379  1.00  0.00    -0.624 OA
HETATM    8  O4  UNL     1      -7.373  -9.280  -7.313  1.00  0.00    -0.624 OA
HETATM    9  O5  UNL     1      -8.849  -9.042  -9.081  1.00  0.00    -0.279 OA
HETATM   10  C9  UNL     1      -9.051  -8.120 -10.038  1.00  0.00     0.198 C 
HETATM   11  C10 UNL     1     -10.403  -7.511 -10.163  1.00  0.00     0.180 C 
HETATM   12  C11 UNL     1     -10.402  -6.099 -10.738  1.00  0.00     0.216 C 
HETATM   13  O6  UNL     1      -9.289  -5.448 -10.320  1.00  0.00    -0.287 OA
HETATM   14  P2  UNL     1      -9.162  -4.595  -9.060  1.00  0.00     0.408 P 
HETATM   15  O7  UNL     1      -7.571  -5.026  -8.960  1.00  0.00    -0.624 OA
HETATM   16  O8  UNL     1     -10.299  -5.541  -8.324  1.00  0.00    -0.624 OA
HETATM   17  O9  UNL     1      -9.055  -3.845  -7.711  1.00  0.00    -0.279 OA
HETATM   18  C12 UNL     1      -8.391  -4.499  -6.644  1.00  0.00     0.198 C 
HETATM   19  C13 UNL     1      -8.062  -3.367  -5.696  1.00  0.00     0.199 C 
HETATM   20  O11 UNL     1     -11.136  -8.269 -11.088  1.00  0.00    -0.353 OA
HETATM   21  C14 UNL     1     -10.435  -9.410 -11.363  1.00  0.00     0.262 C 
HETATM   22  C20 UNL     1      -8.992  -8.894 -11.379  1.00  0.00     0.199 C 
ENDROOT
BRANCH   1  23
HETATM   23  N5  UNL     1      -9.158  -2.712  -3.593  1.00  0.00    -0.297 N 
HETATM   24  C3  UNL     1     -10.229  -2.124  -3.002  1.00  0.00     0.142 A 
HETATM   25  N3  UNL     1     -11.552  -2.148  -3.309  1.00  0.00    -0.336 N 
HETATM   26  C4  UNL     1      -9.832  -1.403  -1.926  1.00  0.00     0.119 A 
HETATM   27  C2  UNL     1     -12.462  -1.486  -2.583  1.00  0.00     0.183 A 
ATOM     28  H3  UNL     1     -11.863  -2.688  -4.117  1.00  0.00     0.168 HD
HETATM   29  N2  UNL     1     -12.063  -0.777  -1.524  1.00  0.00    -0.339 N 
HETATM   30  C1  UNL     1     -10.769  -0.707  -1.160  1.00  0.00     0.148 A 
ATOM     31  H2  UNL     1     -12.760  -0.274  -0.974  1.00  0.00     0.167 HD
HETATM   32  N1  UNL     1     -10.315   0.026  -0.055  1.00  0.00    -0.080 NA
HETATM   33  N4  UNL     1      -8.491  -1.542  -1.841  1.00  0.00    -0.346 N 
HETATM   34  C5  UNL     1      -8.108  -2.337  -2.858  1.00  0.00     0.188 A 
ATOM     35  H4  UNL     1      -7.883  -1.122  -1.138  1.00  0.00     0.167 HD
ENDBRANCH   1  23
BRANCH  19  36
HETATM   36  O10 UNL     1      -8.059  -2.124  -6.300  1.00  0.00    -0.388 OA
ATOM     37  H10 UNL     1      -7.545  -2.116  -7.100  1.00  0.00     0.210 HD
ENDBRANCH  19  36
BRANCH  22  38
HETATM   38  O12 UNL     1      -8.118  -9.948 -11.314  1.00  0.00    -0.388 OA
ATOM     39  H12 UNL     1      -7.290  -9.742 -11.731  1.00  0.00     0.210 HD
ENDBRANCH  22  38
BRANCH  21  40
HETATM   40  N6  UNL     1     -10.814  -9.991 -12.609  1.00  0.00    -0.297 N 
HETATM   41  C15 UNL     1     -10.679 -11.324 -12.871  1.00  0.00     0.188 A 
HETATM   42  N7  UNL     1     -11.108 -11.593 -14.102  1.00  0.00    -0.346 N 
HETATM   43  C16 UNL     1     -11.518 -10.429 -14.631  1.00  0.00     0.119 A 
ATOM     44  H7  UNL     1     -11.122 -12.506 -14.556  1.00  0.00     0.167 HD
HETATM   45  C17 UNL     1     -12.047 -10.155 -15.872  1.00  0.00     0.148 A 
HETATM   46  C19 UNL     1     -11.335  -9.438 -13.700  1.00  0.00     0.142 A 
HETATM   47  N8  UNL     1     -12.226 -11.192 -16.811  1.00  0.00    -0.080 NA
HETATM   48  N9  UNL     1     -12.380  -8.871 -16.146  1.00  0.00    -0.339 N 
HETATM   49  C18 UNL     1     -12.195  -7.909 -15.222  1.00  0.00     0.183 A 
ATOM     50  H9  UNL     1     -12.773  -8.632 -17.056  1.00  0.00     0.167 HD
HETATM   51  N10 UNL     1     -11.673  -8.188 -14.004  1.00  0.00    -0.336 N 
ATOM     52  H10 UNL     1     -11.540  -7.442 -13.321  1.00  0.00     0.168 HD
ENDBRANCH  21  40
TORSDOF 4
ENDMDL
