MODEL 2
REMARK VINA RESULT: -9.844375434      1.002      1.687
REMARK  4 active torsions:
REMARK  status: ('A' for Active; 'I' for Inactive)
REMARK    1  A    between atoms: N5_13  and  C6_14 
REMARK    2  A    between atoms: C13_32  and  O10_33 
REMARK    3  A    between atoms: C14_36  and  N6_37 
REMARK    4  A    between atoms: C20_50  and  O12_51 
ROOT
HETATM    1  C6  UNL     1      -9.089  -3.307  -4.888  1.00  0.00     0.262 C 
HETATM    2  O1  UNL     1      -9.101  -4.665  -4.591  1.00  0.00    -0.353 OA
HETATM    3  C7  UNL     1      -9.191  -5.190  -5.911  1.00  0.00     0.180 C 
HETATM    4  C8  UNL     1      -8.862  -6.669  -5.844  1.00  0.00     0.216 C 
HETATM    5  O2  UNL     1      -8.189  -7.133  -6.929  1.00  0.00    -0.287 OA
HETATM    6  P1  UNL     1      -8.856  -8.575  -7.482  1.00  0.00     0.408 P 
HETATM    7  O3  UNL     1      -9.568  -9.547  -6.326  1.00  0.00    -0.624 OA
HETATM    8  O4  UNL     1      -7.486  -9.232  -7.217  1.00  0.00    -0.624 OA
HETATM    9  O5  UNL     1      -8.900  -8.975  -9.033  1.00  0.00    -0.279 OA
HETATM   10  C9  UNL     1      -9.026  -8.077 -10.025  1.00  0.00     0.198 C 
HETATM   11  C10 UNL     1     -10.340  -7.401 -10.207  1.00  0.00     0.180 C 
HETATM   12  C11 UNL     1     -10.246  -6.012 -10.829  1.00  0.00     0.216 C 
HETATM   13  O6  UNL     1      -9.111  -5.408 -10.402  1.00  0.00    -0.287 OA
HETATM   14  P2  UNL     1      -8.970  -4.520  -9.168  1.00  0.00     0.408 P 
HETATM   15  O7  UNL     1      -7.408  -5.032  -9.009  1.00  0.00    -0.624 OA
HETATM   16  O8  UNL     1     -10.175  -5.377  -8.433  1.00  0.00    -0.624 OA
HETATM   17  O9  UNL     1      -8.857  -3.730  -7.841  1.00  0.00    -0.279 OA
HETATM   18  C12 UNL     1      -8.258  -4.382  -6.736  1.00  0.00     0.198 C 
HETATM   19  C13 UNL     1      -7.892  -3.237  -5.817  1.00  0.00     0.199 C 
HETATM   20  O11 UNL     1     -11.089  -8.150 -11.127  1.00  0.00    -0.353 OA
HETATM   21  C14 UNL     1     -10.444  -9.336 -11.345  1.00  0.00     0.262 C 
HETATM   22  C20 UNL     1      -8.975  -8.899 -11.337  1.00  0.00     0.199 C 
ENDROOT
BRANCH   1  23
HETATM   23  N5  UNL     1      -9.005  -2.452  -3.768  1.00  0.00    -0.297 N 
HETATM   24  C3  UNL     1      -8.207  -2.670  -2.691  1.00  0.00     0.142 A 
HETATM   25  N3  UNL     1      -7.340  -3.676  -2.402  1.00  0.00    -0.336 N 
HETATM   26  C4  UNL     1      -8.355  -1.670  -1.790  1.00  0.00     0.119 A 
HETATM   27  C2  UNL     1      -6.637  -3.702  -1.262  1.00  0.00     0.183 A 
ATOM     28  H3  UNL     1      -7.221  -4.434  -3.074  1.00  0.00     0.168 HD
HETATM   29  N2  UNL     1      -6.789  -2.713  -0.378  1.00  0.00    -0.339 N 
HETATM   30  C1  UNL     1      -7.629  -1.683  -0.597  1.00  0.00     0.148 A 
ATOM     31  H2  UNL     1      -6.251  -2.737   0.488  1.00  0.00     0.167 HD
HETATM   32  N1  UNL     1      -7.813  -0.629   0.308  1.00  0.00    -0.080 NA
HETATM   33  N4  UNL     1      -9.259  -0.812  -2.310  1.00  0.00    -0.346 N 
HETATM   34  C5  UNL     1      -9.636  -1.306  -3.504  1.00  0.00     0.188 A 
ATOM     35  H4  UNL     1      -9.594   0.049  -1.878  1.00  0.00     0.167 HD
ENDBRANCH   1  23
BRANCH  19  36
HETATM   36  O10 UNL     1      -7.805  -2.018  -6.462  1.00  0.00    -0.388 OA
ATOM     37  H10 UNL     1      -7.782  -1.291  -5.850  1.00  0.00     0.210 HD
ENDBRANCH  19  36
BRANCH  22  38
HETATM   38  O12 UNL     1      -8.162  -9.997 -11.213  1.00  0.00    -0.388 OA
ATOM     39  H12 UNL     1      -7.979 -10.392 -12.057  1.00  0.00     0.210 HD
ENDBRANCH  22  38
BRANCH  21  40
HETATM   40  N6  UNL     1     -10.822  -9.938 -12.580  1.00  0.00    -0.297 N 
HETATM   41  C15 UNL     1     -10.684 -11.276 -12.820  1.00  0.00     0.188 A 
HETATM   42  N7  UNL     1     -11.112 -11.566 -14.047  1.00  0.00    -0.346 N 
HETATM   43  C16 UNL     1     -11.525 -10.412 -14.595  1.00  0.00     0.119 A 
ATOM     44  H7  UNL     1     -11.125 -12.487 -14.485  1.00  0.00     0.167 HD
HETATM   45  C17 UNL     1     -12.054 -10.159 -15.841  1.00  0.00     0.148 A 
HETATM   46  C19 UNL     1     -11.343  -9.405 -13.681  1.00  0.00     0.142 A 
HETATM   47  N8  UNL     1     -12.231 -11.213 -16.762  1.00  0.00    -0.080 NA
HETATM   48  N9  UNL     1     -12.389  -8.881 -16.137  1.00  0.00    -0.339 N 
HETATM   49  C18 UNL     1     -12.205  -7.903 -15.229  1.00  0.00     0.183 A 
ATOM     50  H9  UNL     1     -12.782  -8.658 -17.051  1.00  0.00     0.167 HD
HETATM   51  N10 UNL     1     -11.683  -8.161 -14.006  1.00  0.00    -0.336 N 
ATOM     52  H10 UNL     1     -11.552  -7.403 -13.335  1.00  0.00     0.168 HD
ENDBRANCH  21  40
TORSDOF 4
ENDMDL
