MODEL 2
REMARK VINA RESULT: -6.577693290      1.572      3.096
REMARK  10 active torsions:
REMARK  status: ('A' for Active; 'I' for Inactive)
REMARK    1  A    between atoms: O1_1  and  C1_3 
REMARK    2  A    between atoms: C1_3  and  C2_4 
REMARK    3  A    between atoms: C3_6  and  O3_7 
REMARK    4  A    between atoms: O3_7  and  C4_8 
REMARK    5  A    between atoms: C4_8  and  C5_9 
REMARK    6  A    between atoms: C8_15  and  O4_16 
REMARK    7  A    between atoms: C9_18  and  O5_19 
REMARK    8  A    between atoms: C10_21  and  O6_22 
REMARK    9  A    between atoms: C11_24  and  O7_25 
REMARK   10  A    between atoms: C12_27  and  O8_28 
ROOT
HETATM    1  C2  UNL     1       4.224 -13.017   4.840  1.00  0.00     0.179 C 
HETATM    2  O2  UNL     1       5.493 -12.568   5.172  1.00  0.00    -0.348 OA
HETATM    3  C3  UNL     1       5.451 -11.732   6.281  1.00  0.00     0.291 C 
HETATM    4  C10 UNL     1       4.564 -10.532   6.067  1.00  0.00     0.204 C 
HETATM    5  C11 UNL     1       3.277 -10.845   5.389  1.00  0.00     0.183 C 
HETATM    6  C12 UNL     1       3.488 -11.811   4.242  1.00  0.00     0.180 C 
ENDROOT
BRANCH   3   7
HETATM    7  O3  UNL     1       5.111 -12.442   7.427  1.00  0.00    -0.358 OA
BRANCH   7   8
HETATM    8  C4  UNL     1       4.463 -11.648   8.339  1.00  0.00     0.179 C 
BRANCH   8   9
HETATM    9  C5  UNL     1       3.627 -12.431   9.321  1.00  0.00     0.066 C 
HETATM   10  C6  UNL     1       3.157 -11.570  10.474  1.00  0.00     0.241 C 
HETATM   11  N1  UNL     1       2.495 -12.459  11.412  1.00  0.00    -0.072 N 
HETATM   12  C7  UNL     1       1.295 -13.046  10.879  1.00  0.00     0.266 C 
ATOM     13  H12 UNL     1       3.135 -13.179  11.745  1.00  0.00     0.277 HD
ATOM     14  H11 UNL     1       2.306 -11.983  12.294  1.00  0.00     0.277 HD
HETATM   15  C8  UNL     1       1.492 -13.708   9.542  1.00  0.00     0.172 C 
HETATM   16  C9  UNL     1       2.382 -12.938   8.621  1.00  0.00     0.156 C 
BRANCH  15  17
HETATM   17  O4  UNL     1       0.221 -13.781   8.936  1.00  0.00    -0.391 OA
ATOM     18  H4  UNL     1      -0.203 -14.557   9.284  1.00  0.00     0.210 HD
ENDBRANCH  15  17
BRANCH  16  19
HETATM   19  O5  UNL     1       2.774 -13.773   7.570  1.00  0.00    -0.392 OA
ATOM     20  H5  UNL     1       2.548 -13.350   6.750  1.00  0.00     0.210 HD
ENDBRANCH  16  19
ENDBRANCH   8   9
ENDBRANCH   7   8
ENDBRANCH   3   7
BRANCH   4  21
HETATM   21  O6  UNL     1       5.232  -9.491   5.419  1.00  0.00    -0.388 OA
ATOM     22  H6  UNL     1       5.902  -9.810   4.825  1.00  0.00     0.210 HD
ENDBRANCH   4  21
BRANCH   1  23
HETATM   23  C1  UNL     1       4.262 -14.156   3.870  1.00  0.00     0.198 C 
BRANCH  23  24
HETATM   24  O1  UNL     1       4.370 -13.664   2.573  1.00  0.00    -0.398 OA
ATOM     25  H1  UNL     1       3.690 -14.044   2.029  1.00  0.00     0.209 HD
ENDBRANCH  23  24
ENDBRANCH   1  23
BRANCH   5  26
HETATM   26  O7  UNL     1       2.691  -9.659   4.953  1.00  0.00    -0.390 OA
ATOM     27  H7  UNL     1       2.919  -9.515   4.042  1.00  0.00     0.210 HD
ENDBRANCH   5  26
BRANCH   6  28
HETATM   28  O8  UNL     1       2.294 -12.180   3.670  1.00  0.00    -0.390 OA
ATOM     29  H8  UNL     1       1.823 -11.429   3.328  1.00  0.00     0.210 HD
ENDBRANCH   6  28
TORSDOF 10
ENDMDL
