MODEL 10
REMARK VINA RESULT: -6.185655410      1.473      2.801
REMARK  10 active torsions:
REMARK  status: ('A' for Active; 'I' for Inactive)
REMARK    1  A    between atoms: O1_1  and  C1_3 
REMARK    2  A    between atoms: C1_3  and  C2_4 
REMARK    3  A    between atoms: C3_6  and  O3_7 
REMARK    4  A    between atoms: O3_7  and  C4_8 
REMARK    5  A    between atoms: C4_8  and  C5_9 
REMARK    6  A    between atoms: C8_15  and  O4_16 
REMARK    7  A    between atoms: C9_18  and  O5_19 
REMARK    8  A    between atoms: C10_21  and  O6_22 
REMARK    9  A    between atoms: C11_24  and  O7_25 
REMARK   10  A    between atoms: C12_27  and  O8_28 
ROOT
HETATM    1  C2  UNL     1       5.575 -12.332   4.181  1.00  0.00     0.179 C 
HETATM    2  O2  UNL     1       5.718 -10.967   4.373  1.00  0.00    -0.348 OA
HETATM    3  C3  UNL     1       4.781 -10.490   5.280  1.00  0.00     0.291 C 
HETATM    4  C10 UNL     1       3.364 -10.761   4.843  1.00  0.00     0.204 C 
HETATM    5  C11 UNL     1       3.154 -12.123   4.284  1.00  0.00     0.183 C 
HETATM    6  C12 UNL     1       4.290 -12.514   3.363  1.00  0.00     0.180 C 
ENDROOT
BRANCH   3   7
HETATM    7  O3  UNL     1       5.038 -10.968   6.560  1.00  0.00    -0.358 OA
BRANCH   7   8
HETATM    8  C4  UNL     1       3.900 -11.002   7.325  1.00  0.00     0.179 C 
BRANCH   8   9
HETATM    9  C5  UNL     1       4.051 -11.825   8.580  1.00  0.00     0.066 C 
HETATM   10  C6  UNL     1       4.837 -11.092   9.646  1.00  0.00     0.241 C 
HETATM   11  N1  UNL     1       5.036 -12.031  10.734  1.00  0.00    -0.072 N 
HETATM   12  C7  UNL     1       3.810 -12.412  11.380  1.00  0.00     0.266 C 
ATOM     13  H12 UNL     1       5.551 -12.853  10.417  1.00  0.00     0.277 HD
ATOM     14  H11 UNL     1       5.707 -11.667  11.411  1.00  0.00     0.277 HD
HETATM   15  C8  UNL     1       2.753 -12.896  10.425  1.00  0.00     0.172 C 
HETATM   16  C9  UNL     1       2.679 -12.099   9.163  1.00  0.00     0.156 C 
BRANCH  15  17
HETATM   17  O4  UNL     1       1.515 -12.753  11.086  1.00  0.00    -0.391 OA
ATOM     18  H4  UNL     1       1.515 -13.377  11.802  1.00  0.00     0.210 HD
ENDBRANCH  15  17
BRANCH  16  19
HETATM   19  O5  UNL     1       1.933 -12.813   8.221  1.00  0.00    -0.392 OA
ATOM     20  H5  UNL     1       1.513 -12.193   7.636  1.00  0.00     0.210 HD
ENDBRANCH  16  19
ENDBRANCH   8   9
ENDBRANCH   7   8
ENDBRANCH   3   7
BRANCH   4  21
HETATM   21  O6  UNL     1       2.885  -9.782   3.970  1.00  0.00    -0.388 OA
ATOM     22  H6  UNL     1       3.588  -9.288   3.565  1.00  0.00     0.210 HD
ENDBRANCH   4  21
BRANCH   1  23
HETATM   23  C1  UNL     1       6.750 -12.932   3.474  1.00  0.00     0.198 C 
BRANCH  23  24
HETATM   24  O1  UNL     1       6.845 -14.285   3.785  1.00  0.00    -0.398 OA
ATOM     25  H1  UNL     1       7.724 -14.483   4.086  1.00  0.00     0.209 HD
ENDBRANCH  23  24
ENDBRANCH   1  23
BRANCH   5  26
HETATM   26  O7  UNL     1       1.927 -12.162   3.624  1.00  0.00    -0.390 OA
ATOM     27  H7  UNL     1       1.795 -13.032   3.263  1.00  0.00     0.210 HD
ENDBRANCH   5  26
BRANCH   6  28
HETATM   28  O8  UNL     1       4.153 -13.807   2.917  1.00  0.00    -0.390 OA
ATOM     29  H8  UNL     1       4.860 -14.052   2.330  1.00  0.00     0.210 HD
ENDBRANCH   6  28
TORSDOF 10
ENDMDL
