MODEL 14
REMARK VINA RESULT: -6.081873254      3.624      5.632
REMARK  10 active torsions:
REMARK  status: ('A' for Active; 'I' for Inactive)
REMARK    1  A    between atoms: O1_1  and  C1_3 
REMARK    2  A    between atoms: C1_3  and  C2_4 
REMARK    3  A    between atoms: C3_6  and  O3_7 
REMARK    4  A    between atoms: O3_7  and  C4_8 
REMARK    5  A    between atoms: C4_8  and  C5_9 
REMARK    6  A    between atoms: C8_15  and  O4_16 
REMARK    7  A    between atoms: C9_18  and  O5_19 
REMARK    8  A    between atoms: C10_21  and  O6_22 
REMARK    9  A    between atoms: C11_24  and  O7_25 
REMARK   10  A    between atoms: C12_27  and  O8_28 
ROOT
HETATM    1  C2  UNL     1       5.091 -12.356   7.843  1.00  0.00     0.179 C 
HETATM    2  O2  UNL     1       5.130 -11.040   8.277  1.00  0.00    -0.348 OA
HETATM    3  C3  UNL     1       4.835 -10.954   9.631  1.00  0.00     0.291 C 
HETATM    4  C10 UNL     1       3.479 -11.524   9.965  1.00  0.00     0.204 C 
HETATM    5  C11 UNL     1       3.175 -12.804   9.272  1.00  0.00     0.183 C 
HETATM    6  C12 UNL     1       3.609 -12.754   7.822  1.00  0.00     0.180 C 
ENDROOT
BRANCH   3   7
HETATM    7  O3  UNL     1       5.847 -11.518  10.399  1.00  0.00    -0.358 OA
BRANCH   7   8
HETATM    8  C4  UNL     1       5.866 -11.002  11.670  1.00  0.00     0.179 C 
BRANCH   8   9
HETATM    9  C5  UNL     1       5.675 -12.048  12.739  1.00  0.00     0.066 C 
HETATM   10  C6  UNL     1       6.995 -12.522  13.309  1.00  0.00     0.241 C 
HETATM   11  N1  UNL     1       6.689 -13.616  14.212  1.00  0.00    -0.072 N 
HETATM   12  C7  UNL     1       5.923 -13.204  15.356  1.00  0.00     0.266 C 
ATOM     13  H12 UNL     1       6.224 -14.377  13.717  1.00  0.00     0.277 HD
ATOM     14  H11 UNL     1       7.540 -14.100  14.499  1.00  0.00     0.277 HD
HETATM   15  C8  UNL     1       4.685 -12.424  15.001  1.00  0.00     0.172 C 
HETATM   16  C9  UNL     1       4.895 -11.447  13.891  1.00  0.00     0.156 C 
BRANCH  15  17
HETATM   17  O4  UNL     1       4.329 -11.687  16.150  1.00  0.00    -0.391 OA
ATOM     18  H4  UNL     1       4.488 -12.253  16.897  1.00  0.00     0.210 HD
ENDBRANCH  15  17
BRANCH  16  19
HETATM   19  O5  UNL     1       3.648 -11.033  13.412  1.00  0.00    -0.392 OA
ATOM     20  H5  UNL     1       3.757 -10.199  12.970  1.00  0.00     0.210 HD
ENDBRANCH  16  19
ENDBRANCH   8   9
ENDBRANCH   7   8
ENDBRANCH   3   7
BRANCH   4  21
HETATM   21  O6  UNL     1       2.455 -10.594   9.774  1.00  0.00    -0.388 OA
ATOM     22  H6  UNL     1       2.142 -10.585   8.878  1.00  0.00     0.210 HD
ENDBRANCH   4  21
BRANCH   1  23
HETATM   23  C1  UNL     1       5.709 -12.524   6.490  1.00  0.00     0.198 C 
BRANCH  23  24
HETATM   24  O1  UNL     1       6.454 -13.699   6.457  1.00  0.00    -0.398 OA
ATOM     25  H1  UNL     1       6.711 -13.891   5.563  1.00  0.00     0.209 HD
ENDBRANCH  23  24
ENDBRANCH   1  23
BRANCH   5  26
HETATM   26  O7  UNL     1       1.812 -13.072   9.385  1.00  0.00    -0.390 OA
ATOM     27  H7  UNL     1       1.384 -12.862   8.563  1.00  0.00     0.210 HD
ENDBRANCH   5  26
BRANCH   6  28
HETATM   28  O8  UNL     1       3.419 -13.964   7.199  1.00  0.00    -0.390 OA
ATOM     29  H8  UNL     1       4.148 -14.183   6.629  1.00  0.00     0.210 HD
ENDBRANCH   6  28
TORSDOF 10
ENDMDL
