MODEL 5
REMARK VINA RESULT: -6.366932150      3.684      6.190
REMARK  10 active torsions:
REMARK  status: ('A' for Active; 'I' for Inactive)
REMARK    1  A    between atoms: O1_1  and  C1_3 
REMARK    2  A    between atoms: C1_3  and  C2_4 
REMARK    3  A    between atoms: C3_6  and  O3_7 
REMARK    4  A    between atoms: O3_7  and  C4_8 
REMARK    5  A    between atoms: C4_8  and  C5_9 
REMARK    6  A    between atoms: C8_15  and  O4_16 
REMARK    7  A    between atoms: C9_18  and  O5_19 
REMARK    8  A    between atoms: C10_21  and  O6_22 
REMARK    9  A    between atoms: C11_24  and  O7_25 
REMARK   10  A    between atoms: C12_27  and  O8_28 
ROOT
HETATM    1  C2  UNL     1       3.821 -12.582   8.451  1.00  0.00     0.179 C 
HETATM    2  O2  UNL     1       4.047 -11.305   8.943  1.00  0.00    -0.348 OA
HETATM    3  C3  UNL     1       4.125 -11.313  10.330  1.00  0.00     0.291 C 
HETATM    4  C10 UNL     1       2.877 -11.857  10.977  1.00  0.00     0.204 C 
HETATM    5  C11 UNL     1       2.329 -13.068  10.309  1.00  0.00     0.183 C 
HETATM    6  C12 UNL     1       2.367 -12.923   8.802  1.00  0.00     0.180 C 
ENDROOT
BRANCH   3   7
HETATM    7  O3  UNL     1       5.272 -11.971  10.760  1.00  0.00    -0.358 OA
BRANCH   7   8
HETATM    8  C4  UNL     1       5.821 -11.363  11.860  1.00  0.00     0.179 C 
BRANCH   8   9
HETATM    9  C5  UNL     1       5.707 -12.191  13.116  1.00  0.00     0.066 C 
HETATM   10  C6  UNL     1       7.064 -12.571  13.668  1.00  0.00     0.241 C 
HETATM   11  N1  UNL     1       6.823 -13.475  14.777  1.00  0.00    -0.072 N 
HETATM   12  C7  UNL     1       6.143 -12.848  15.877  1.00  0.00     0.266 C 
ATOM     13  H12 UNL     1       6.322 -14.307  14.466  1.00  0.00     0.277 HD
ATOM     14  H11 UNL     1       7.692 -13.911  15.087  1.00  0.00     0.277 HD
HETATM   15  C8  UNL     1       4.884 -12.128  15.473  1.00  0.00     0.172 C 
HETATM   16  C9  UNL     1       5.014 -11.376  14.189  1.00  0.00     0.156 C 
BRANCH  15  17
HETATM   17  O4  UNL     1       4.615 -11.186  16.488  1.00  0.00    -0.391 OA
ATOM     18  H4  UNL     1       5.264 -11.325  17.168  1.00  0.00     0.210 HD
ENDBRANCH  15  17
BRANCH  16  19
HETATM   19  O5  UNL     1       3.736 -11.038  13.733  1.00  0.00    -0.392 OA
ATOM     20  H5  UNL     1       3.744 -10.128  13.461  1.00  0.00     0.210 HD
ENDBRANCH  16  19
ENDBRANCH   8   9
ENDBRANCH   7   8
ENDBRANCH   3   7
BRANCH   4  21
HETATM   21  O6  UNL     1       1.892 -10.878  11.127  1.00  0.00    -0.388 OA
ATOM     22  H6  UNL     1       1.483 -10.910  11.983  1.00  0.00     0.210 HD
ENDBRANCH   4  21
BRANCH   1  23
HETATM   23  C1  UNL     1       4.050 -12.668   6.974  1.00  0.00     0.198 C 
BRANCH  23  24
HETATM   24  O1  UNL     1       2.934 -12.184   6.298  1.00  0.00    -0.398 OA
ATOM     25  H1  UNL     1       2.282 -12.871   6.223  1.00  0.00     0.209 HD
ENDBRANCH  23  24
ENDBRANCH   1  23
BRANCH   5  26
HETATM   26  O7  UNL     1       1.032 -13.294  10.765  1.00  0.00    -0.390 OA
ATOM     27  H7  UNL     1       1.061 -13.519  11.688  1.00  0.00     0.210 HD
ENDBRANCH   5  26
BRANCH   6  28
HETATM   28  O8  UNL     1       1.952 -14.073   8.176  1.00  0.00    -0.390 OA
ATOM     29  H8  UNL     1       2.683 -14.552   7.802  1.00  0.00     0.210 HD
ENDBRANCH   6  28
TORSDOF 10
ENDMDL
