MODEL 4
REMARK VINA RESULT: -6.443271524      2.970      6.676
REMARK  10 active torsions:
REMARK  status: ('A' for Active; 'I' for Inactive)
REMARK    1  A    between atoms: O1_1  and  C1_3 
REMARK    2  A    between atoms: C1_3  and  C2_4 
REMARK    3  A    between atoms: C3_6  and  O3_7 
REMARK    4  A    between atoms: O3_7  and  C4_8 
REMARK    5  A    between atoms: C4_8  and  C5_9 
REMARK    6  A    between atoms: C8_15  and  O4_16 
REMARK    7  A    between atoms: C9_18  and  O5_19 
REMARK    8  A    between atoms: C10_21  and  O6_22 
REMARK    9  A    between atoms: C11_24  and  O7_25 
REMARK   10  A    between atoms: C12_27  and  O8_28 
ROOT
HETATM    1  C2  UNL     1       2.935 -12.025  10.273  1.00  0.00     0.179 C 
HETATM    2  O2  UNL     1       3.942 -12.632   9.537  1.00  0.00    -0.348 OA
HETATM    3  C3  UNL     1       3.533 -12.863   8.230  1.00  0.00     0.291 C 
HETATM    4  C10 UNL     1       2.301 -13.729   8.154  1.00  0.00     0.204 C 
HETATM    5  C11 UNL     1       1.256 -13.383   9.154  1.00  0.00     0.183 C 
HETATM    6  C12 UNL     1       1.871 -13.104  10.510  1.00  0.00     0.180 C 
ENDROOT
BRANCH   3   7
HETATM    7  O3  UNL     1       3.379 -11.667   7.537  1.00  0.00    -0.358 OA
BRANCH   7   8
HETATM    8  C4  UNL     1       4.340 -11.518   6.569  1.00  0.00     0.179 C 
BRANCH   8   9
HETATM    9  C5  UNL     1       4.342 -12.635   5.556  1.00  0.00     0.066 C 
HETATM   10  C6  UNL     1       3.638 -12.238   4.276  1.00  0.00     0.241 C 
HETATM   11  N1  UNL     1       3.580 -13.429   3.448  1.00  0.00    -0.072 N 
HETATM   12  C7  UNL     1       4.877 -13.885   3.027  1.00  0.00     0.266 C 
ATOM     13  H12 UNL     1       3.067 -14.175   3.918  1.00  0.00     0.277 HD
ATOM     14  H11 UNL     1       2.966 -13.286   2.646  1.00  0.00     0.277 HD
HETATM   15  C8  UNL     1       5.852 -14.052   4.161  1.00  0.00     0.172 C 
HETATM   16  C9  UNL     1       5.773 -12.963   5.181  1.00  0.00     0.156 C 
BRANCH  15  17
HETATM   17  O4  UNL     1       7.143 -14.005   3.593  1.00  0.00    -0.391 OA
ATOM     18  H4  UNL     1       7.131 -13.306   2.949  1.00  0.00     0.210 HD
ENDBRANCH  15  17
BRANCH  16  19
HETATM   19  O5  UNL     1       6.450 -13.375   6.334  1.00  0.00    -0.392 OA
ATOM     20  H5  UNL     1       6.230 -12.778   7.040  1.00  0.00     0.210 HD
ENDBRANCH  16  19
ENDBRANCH   8   9
ENDBRANCH   7   8
ENDBRANCH   3   7
BRANCH   4  21
HETATM   21  O6  UNL     1       2.611 -15.091   8.204  1.00  0.00    -0.388 OA
ATOM     22  H6  UNL     1       1.836 -15.637   8.144  1.00  0.00     0.210 HD
ENDBRANCH   4  21
BRANCH   1  23
HETATM   23  C1  UNL     1       3.436 -11.474  11.571  1.00  0.00     0.198 C 
BRANCH  23  24
HETATM   24  O1  UNL     1       3.371 -12.456  12.555  1.00  0.00    -0.398 OA
ATOM     25  H1  UNL     1       3.402 -12.052  13.414  1.00  0.00     0.209 HD
ENDBRANCH  23  24
ENDBRANCH   1  23
BRANCH   5  26
HETATM   26  O7  UNL     1       0.326 -14.419   9.221  1.00  0.00    -0.390 OA
ATOM     27  H7  UNL     1       0.493 -14.938   9.999  1.00  0.00     0.210 HD
ENDBRANCH   5  26
BRANCH   6  28
HETATM   28  O8  UNL     1       0.923 -12.691  11.415  1.00  0.00    -0.390 OA
ATOM     29  H8  UNL     1       1.314 -12.469  12.253  1.00  0.00     0.210 HD
ENDBRANCH   6  28
TORSDOF 10
ENDMDL
