MODEL 1
REMARK VINA RESULT: -4.363011318      0.000      0.000
REMARK  10 active torsions:
REMARK  status: ('A' for Active; 'I' for Inactive)
REMARK       I    between atoms: C2_2  and  N1_4 
REMARK    1  A    between atoms: N1_4  and  C3_6 
REMARK    2  A    between atoms: C4_7  and  O2_8 
REMARK    3  A    between atoms: C6_11  and  O3_12 
REMARK    4  A    between atoms: C6_11  and  C7_14 
REMARK    5  A    between atoms: C8_18  and  C9_19 
REMARK    6  A    between atoms: C9_19  and  O7_20 
REMARK    7  A    between atoms: C9_19  and  C10_22 
REMARK    8  A    between atoms: C10_22  and  O8_23 
REMARK    9  A    between atoms: C10_22  and  C11_25 
REMARK   10  A    between atoms: C11_25  and  O9_26 
ROOT
HETATM    1  C3  UNL     1      38.417  12.036  27.321  1.00  0.00     0.145 C 
HETATM    2  C4  UNL     1      39.244  11.229  26.321  1.00  0.00     0.149 C 
HETATM    3  C5  UNL     1      40.614  11.860  26.333  1.00  0.00     0.114 C 
HETATM    4  C6  UNL     1      41.168  11.742  27.727  1.00  0.00     0.256 C 
HETATM    5  O6  UNL     1      40.314  12.146  28.728  1.00  0.00    -0.336 OA
HETATM    6  C8  UNL     1      39.035  11.677  28.678  1.00  0.00     0.182 C 
ENDROOT
BRANCH   6   7
HETATM    7  C9  UNL     1      38.252  12.300  29.806  1.00  0.00     0.180 C 
BRANCH   7   8
HETATM    8  O7  UNL     1      38.234  13.695  29.711  1.00  0.00    -0.390 OA
ATOM      9  H7  UNL     1      38.537  14.104  30.513  1.00  0.00     0.210 HD
ENDBRANCH   7   8
BRANCH   7  10
HETATM   10  C10 UNL     1      38.964  11.942  31.093  1.00  0.00     0.173 C 
BRANCH  10  11
HETATM   11  O8  UNL     1      38.120  11.207  31.916  1.00  0.00    -0.391 OA
ATOM     12  H8  UNL     1      37.672  10.540  31.410  1.00  0.00     0.210 HD
ENDBRANCH  10  11
BRANCH  10  13
HETATM   13  C11 UNL     1      39.427  13.222  31.787  1.00  0.00     0.198 C 
BRANCH  13  14
HETATM   14  O9  UNL     1      40.686  13.535  31.269  1.00  0.00    -0.398 OA
ATOM     15  H9  UNL     1      40.758  14.483  31.268  1.00  0.00     0.209 HD
ENDBRANCH  13  14
ENDBRANCH  10  13
ENDBRANCH   7  10
ENDBRANCH   6   7
BRANCH   1  16
HETATM   16  N1  UNL     1      37.022  11.724  27.260  1.00  0.00    -0.352 N 
HETATM   17  C2  UNL     1      36.012  12.710  27.206  1.00  0.00     0.214 C 
HETATM   18  C1  UNL     1      34.566  12.397  27.142  1.00  0.00     0.117 C 
HETATM   19  O1  UNL     1      36.344  13.924  27.210  1.00  0.00    -0.274 OA
ATOM     20  H1  UNL     1      36.744  10.743  27.255  1.00  0.00     0.163 HD
ENDBRANCH   1  16
BRANCH   2  21
HETATM   21  O2  UNL     1      38.666  11.251  25.057  1.00  0.00    -0.393 OA
ATOM     22  H2  UNL     1      37.814  10.832  25.062  1.00  0.00     0.210 HD
ENDBRANCH   2  21
BRANCH   4  23
HETATM   23  O3  UNL     1      42.244  12.671  27.766  1.00  0.00    -0.357 OA
ATOM     24  H3  UNL     1      42.059  13.220  28.519  1.00  0.00     0.213 HD
ENDBRANCH   4  23
BRANCH   4  25
HETATM   25  C7  UNL     1      41.729  10.406  27.916  1.00  0.00     0.238 C 
HETATM   26  O4  UNL     1      42.183   9.773  26.928  1.00  0.00    -0.644 OA
HETATM   27  O5  UNL     1      41.808   9.751  29.135  1.00  0.00    -0.644 OA
ENDBRANCH   4  25
TORSDOF 10
ENDMDL
