MODEL 3
REMARK VINA RESULT: -4.128452471      1.123      1.533
REMARK  10 active torsions:
REMARK  status: ('A' for Active; 'I' for Inactive)
REMARK       I    between atoms: C2_2  and  N1_4 
REMARK    1  A    between atoms: N1_4  and  C3_6 
REMARK    2  A    between atoms: C4_7  and  O2_8 
REMARK    3  A    between atoms: C6_11  and  O3_12 
REMARK    4  A    between atoms: C6_11  and  C7_14 
REMARK    5  A    between atoms: C8_18  and  C9_19 
REMARK    6  A    between atoms: C9_19  and  O7_20 
REMARK    7  A    between atoms: C9_19  and  C10_22 
REMARK    8  A    between atoms: C10_22  and  O8_23 
REMARK    9  A    between atoms: C10_22  and  C11_25 
REMARK   10  A    between atoms: C11_25  and  O9_26 
ROOT
HETATM    1  C3  UNL     1      38.266  12.353  27.583  1.00  0.00     0.145 C 
HETATM    2  C4  UNL     1      39.034  11.334  26.741  1.00  0.00     0.149 C 
HETATM    3  C5  UNL     1      40.477  11.771  26.802  1.00  0.00     0.114 C 
HETATM    4  C6  UNL     1      40.912  11.734  28.242  1.00  0.00     0.256 C 
HETATM    5  O6  UNL     1      40.060  12.360  29.124  1.00  0.00    -0.336 OA
HETATM    6  C8  UNL     1      38.733  12.067  29.016  1.00  0.00     0.182 C 
ENDROOT
BRANCH   6   7
HETATM    7  C9  UNL     1      37.972  12.912  30.006  1.00  0.00     0.180 C 
BRANCH   7   8
HETATM    8  O7  UNL     1      38.752  13.970  30.484  1.00  0.00    -0.390 OA
ATOM      9  H7  UNL     1      38.263  14.784  30.502  1.00  0.00     0.210 HD
ENDBRANCH   7   8
BRANCH   7  10
HETATM   10  C10 UNL     1      37.641  12.024  31.187  1.00  0.00     0.173 C 
BRANCH  10  11
HETATM   11  O8  UNL     1      38.103  10.734  30.957  1.00  0.00    -0.391 OA
ATOM     12  H8  UNL     1      38.585  10.421  31.713  1.00  0.00     0.210 HD
ENDBRANCH  10  11
BRANCH  10  13
HETATM   13  C11 UNL     1      36.131  12.032  31.416  1.00  0.00     0.198 C 
BRANCH  13  14
HETATM   14  O9  UNL     1      35.633  13.194  30.821  1.00  0.00    -0.398 OA
ATOM     15  H9  UNL     1      36.318  13.533  30.257  1.00  0.00     0.209 HD
ENDBRANCH  13  14
ENDBRANCH  10  13
ENDBRANCH   7  10
ENDBRANCH   6   7
BRANCH   1  16
HETATM   16  N1  UNL     1      36.848  12.229  27.438  1.00  0.00    -0.352 N 
HETATM   17  C2  UNL     1      35.996  13.331  27.203  1.00  0.00     0.214 C 
HETATM   18  C1  UNL     1      34.528  13.212  27.052  1.00  0.00     0.117 C 
HETATM   19  O1  UNL     1      36.499  14.482  27.114  1.00  0.00    -0.274 OA
ATOM     20  H1  UNL     1      36.433  11.300  27.508  1.00  0.00     0.163 HD
ENDBRANCH   1  16
BRANCH   2  21
HETATM   21  O2  UNL     1      38.552  11.294  25.438  1.00  0.00    -0.393 OA
ATOM     22  H2  UNL     1      38.347  12.165  25.120  1.00  0.00     0.210 HD
ENDBRANCH   2  21
BRANCH   4  23
HETATM   23  O3  UNL     1      42.105  12.507  28.276  1.00  0.00    -0.357 OA
ATOM     24  H3  UNL     1      42.772  11.935  27.915  1.00  0.00     0.213 HD
ENDBRANCH   4  23
BRANCH   4  25
HETATM   25  C7  UNL     1      41.261  10.364  28.611  1.00  0.00     0.238 C 
HETATM   26  O4  UNL     1      41.973   9.672  27.839  1.00  0.00    -0.644 OA
HETATM   27  O5  UNL     1      40.859   9.737  29.781  1.00  0.00    -0.644 OA
ENDBRANCH   4  25
TORSDOF 10
ENDMDL
