MODEL 2
REMARK VINA RESULT: -4.210170083      8.161     10.786
REMARK  10 active torsions:
REMARK  status: ('A' for Active; 'I' for Inactive)
REMARK       I    between atoms: C2_2  and  N1_4 
REMARK    1  A    between atoms: N1_4  and  C3_6 
REMARK    2  A    between atoms: C4_7  and  O2_8 
REMARK    3  A    between atoms: C6_11  and  O3_12 
REMARK    4  A    between atoms: C6_11  and  C7_14 
REMARK    5  A    between atoms: C8_18  and  C9_19 
REMARK    6  A    between atoms: C9_19  and  O7_20 
REMARK    7  A    between atoms: C9_19  and  C10_22 
REMARK    8  A    between atoms: C10_22  and  O8_23 
REMARK    9  A    between atoms: C10_22  and  C11_25 
REMARK   10  A    between atoms: C11_25  and  O9_26 
ROOT
HETATM    1  C3  UNL     1      47.474  16.094  32.535  1.00  0.00     0.145 C 
HETATM    2  C4  UNL     1      48.477  17.221  32.781  1.00  0.00     0.149 C 
HETATM    3  C5  UNL     1      47.847  18.454  32.182  1.00  0.00     0.114 C 
HETATM    4  C6  UNL     1      46.548  18.707  32.899  1.00  0.00     0.256 C 
HETATM    5  O6  UNL     1      45.724  17.610  33.014  1.00  0.00    -0.336 OA
HETATM    6  C8  UNL     1      46.294  16.450  33.447  1.00  0.00     0.182 C 
ENDROOT
BRANCH   6   7
HETATM    7  C9  UNL     1      45.249  15.364  33.422  1.00  0.00     0.180 C 
BRANCH   7   8
HETATM    8  O7  UNL     1      44.849  15.065  32.116  1.00  0.00    -0.390 OA
ATOM      9  H7  UNL     1      44.782  14.128  31.976  1.00  0.00     0.210 HD
ENDBRANCH   7   8
BRANCH   7  10
HETATM   10  C10 UNL     1      44.037  15.895  34.157  1.00  0.00     0.173 C 
BRANCH  10  11
HETATM   11  O8  UNL     1      44.437  16.673  35.237  1.00  0.00    -0.391 OA
ATOM     12  H8  UNL     1      43.951  16.424  36.014  1.00  0.00     0.210 HD
ENDBRANCH  10  11
BRANCH  10  13
HETATM   13  C11 UNL     1      43.171  14.724  34.616  1.00  0.00     0.198 C 
BRANCH  13  14
HETATM   14  O9  UNL     1      42.382  14.346  33.527  1.00  0.00    -0.398 OA
ATOM     15  H9  UNL     1      41.478  14.369  33.817  1.00  0.00     0.209 HD
ENDBRANCH  13  14
ENDBRANCH  10  13
ENDBRANCH   7  10
ENDBRANCH   6   7
BRANCH   1  16
HETATM   16  N1  UNL     1      48.016  14.802  32.827  1.00  0.00    -0.352 N 
HETATM   17  C2  UNL     1      48.007  13.734  31.903  1.00  0.00     0.214 C 
HETATM   18  C1  UNL     1      48.566  12.394  32.196  1.00  0.00     0.117 C 
HETATM   19  O1  UNL     1      47.502  13.917  30.764  1.00  0.00    -0.274 OA
ATOM     20  H1  UNL     1      48.428  14.645  33.747  1.00  0.00     0.163 HD
ENDBRANCH   1  16
BRANCH   2  21
HETATM   21  O2  UNL     1      49.710  16.930  32.210  1.00  0.00    -0.393 OA
ATOM     22  H2  UNL     1      50.201  17.723  32.032  1.00  0.00     0.210 HD
ENDBRANCH   2  21
BRANCH   4  23
HETATM   23  O3  UNL     1      45.842  19.608  32.056  1.00  0.00    -0.357 OA
ATOM     24  H3  UNL     1      45.132  19.936  32.595  1.00  0.00     0.213 HD
ENDBRANCH   4  23
BRANCH   4  25
HETATM   25  C7  UNL     1      46.813  19.396  34.160  1.00  0.00     0.238 C 
HETATM   26  O4  UNL     1      47.721  20.265  34.217  1.00  0.00    -0.644 OA
HETATM   27  O5  UNL     1      46.127  19.166  35.342  1.00  0.00    -0.644 OA
ENDBRANCH   4  25
TORSDOF 10
ENDMDL
