MODEL 9
REMARK VINA RESULT: -7.518843759      0.982      1.577
REMARK  8 active torsions:
REMARK  status: ('A' for Active; 'I' for Inactive)
REMARK    1  A    between atoms: N5_13  and  C6_14 
REMARK    2  A    between atoms: C7_16  and  C8_17 
REMARK    3  A    between atoms: C8_17  and  O2_18 
REMARK    4  A    between atoms: O2_18  and  P1_19 
REMARK    5  A    between atoms: P1_19  and  O5_22 
REMARK    6  A    between atoms: O5_22  and  P2_23 
REMARK    7  A    between atoms: C9_27  and  O9_28 
REMARK    8  A    between atoms: C10_30  and  O10_31 
ROOT
HETATM    1  C6  UNL     1     -21.660 -26.658   0.072  1.00  0.00     0.262 C 
HETATM    2  O1  UNL     1     -20.489 -25.953   0.258  1.00  0.00    -0.353 OA
HETATM    3  C7  UNL     1     -20.328 -25.064  -0.763  1.00  0.00     0.180 C 
HETATM    4  C9  UNL     1     -21.661 -24.930  -1.458  1.00  0.00     0.182 C 
HETATM    5  C10 UNL     1     -22.120 -26.388  -1.326  1.00  0.00     0.198 C 
ENDROOT
BRANCH   1   6
HETATM    6  N5  UNL     1     -22.592 -26.292   1.088  1.00  0.00    -0.297 N 
HETATM    7  C3  UNL     1     -23.813 -26.799   1.327  1.00  0.00     0.142 A 
HETATM    8  N3  UNL     1     -24.518 -27.757   0.730  1.00  0.00    -0.336 N 
HETATM    9  C4  UNL     1     -24.363 -26.155   2.400  1.00  0.00     0.119 A 
HETATM   10  C2  UNL     1     -25.747 -28.095   1.161  1.00  0.00     0.183 A 
ATOM     11  H3  UNL     1     -24.118 -28.246  -0.071  1.00  0.00     0.168 HD
HETATM   12  N2  UNL     1     -26.300 -27.477   2.207  1.00  0.00    -0.339 N 
HETATM   13  C1  UNL     1     -25.624 -26.511   2.833  1.00  0.00     0.148 A 
ATOM     14  H2  UNL     1     -27.232 -27.741   2.526  1.00  0.00     0.167 HD
HETATM   15  N1  UNL     1     -26.149 -25.815   3.945  1.00  0.00    -0.080 NA
HETATM   16  N4  UNL     1     -23.474 -25.258   2.809  1.00  0.00    -0.346 N 
HETATM   17  C5  UNL     1     -22.411 -25.340   2.021  1.00  0.00     0.188 A 
ATOM     18  H4  UNL     1     -23.589 -24.617   3.593  1.00  0.00     0.167 HD
ENDBRANCH   1   6
BRANCH   5  19
HETATM   19  O10 UNL     1     -21.301 -27.127  -2.189  1.00  0.00    -0.388 OA
ATOM     20  H10 UNL     1     -21.828 -27.379  -2.937  1.00  0.00     0.210 HD
ENDBRANCH   5  19
BRANCH   3  21
HETATM   21  C8  UNL     1     -19.735 -23.746  -0.375  1.00  0.00     0.216 C 
BRANCH  21  22
HETATM   22  O2  UNL     1     -20.537 -22.982   0.432  1.00  0.00    -0.287 OA
BRANCH  22  23
HETATM   23  P1  UNL     1     -20.073 -21.352   0.199  1.00  0.00     0.418 P 
HETATM   24  O3  UNL     1     -19.911 -20.717   1.555  1.00  0.00    -0.624 OA
HETATM   25  O4  UNL     1     -21.262 -20.497  -0.628  1.00  0.00    -0.624 OA
BRANCH  23  26
HETATM   26  O5  UNL     1     -18.615 -21.321  -0.618  1.00  0.00    -0.173 OA
BRANCH  26  27
HETATM   27  P2  UNL     1     -18.205 -19.811  -1.207  1.00  0.00     0.431 P 
HETATM   28  O6  UNL     1     -18.722 -18.694  -0.320  1.00  0.00    -0.616 OA
HETATM   29  O7  UNL     1     -18.836 -19.530  -2.756  1.00  0.00    -0.616 OA
HETATM   30  O8  UNL     1     -16.504 -19.745  -1.319  1.00  0.00    -0.616 OA
ENDBRANCH  26  27
ENDBRANCH  23  26
ENDBRANCH  22  23
ENDBRANCH  21  22
ENDBRANCH   3  21
BRANCH   4  31
HETATM   31  O9  UNL     1     -21.560 -24.538  -2.772  1.00  0.00    -0.390 OA
ATOM     32  H9  UNL     1     -22.050 -25.088  -3.372  1.00  0.00     0.210 HD
ENDBRANCH   4  31
TORSDOF 8
ENDMDL
