MODEL 4
REMARK VINA RESULT: -7.636289102      7.100      8.555
REMARK  8 active torsions:
REMARK  status: ('A' for Active; 'I' for Inactive)
REMARK    1  A    between atoms: N5_13  and  C6_14 
REMARK    2  A    between atoms: C7_16  and  C8_17 
REMARK    3  A    between atoms: C8_17  and  O2_18 
REMARK    4  A    between atoms: O2_18  and  P1_19 
REMARK    5  A    between atoms: P1_19  and  O5_22 
REMARK    6  A    between atoms: O5_22  and  P2_23 
REMARK    7  A    between atoms: C9_27  and  O9_28 
REMARK    8  A    between atoms: C10_30  and  O10_31 
ROOT
HETATM    1  C6  UNL     1     -14.871 -19.751  -2.290  1.00  0.00     0.262 C 
HETATM    2  O1  UNL     1     -14.959 -19.404  -0.958  1.00  0.00    -0.353 OA
HETATM    3  C7  UNL     1     -16.124 -18.729  -0.741  1.00  0.00     0.180 C 
HETATM    4  C9  UNL     1     -17.016 -18.975  -1.934  1.00  0.00     0.182 C 
HETATM    5  C10 UNL     1     -15.929 -18.982  -3.018  1.00  0.00     0.198 C 
ENDROOT
BRANCH   1   6
HETATM    6  N5  UNL     1     -14.974 -21.169  -2.410  1.00  0.00    -0.297 N 
HETATM    7  C3  UNL     1     -14.809 -22.104  -1.459  1.00  0.00     0.142 A 
HETATM    8  N3  UNL     1     -14.513 -22.022  -0.163  1.00  0.00    -0.336 N 
HETATM    9  C4  UNL     1     -15.000 -23.340  -2.008  1.00  0.00     0.119 A 
HETATM   10  C2  UNL     1     -14.399 -23.124   0.600  1.00  0.00     0.183 A 
ATOM     11  H3  UNL     1     -14.370 -21.104   0.259  1.00  0.00     0.168 HD
HETATM   12  N2  UNL     1     -14.581 -24.340   0.080  1.00  0.00    -0.339 N 
HETATM   13  C1  UNL     1     -14.880 -24.463  -1.215  1.00  0.00     0.148 A 
ATOM     14  H2  UNL     1     -14.493 -25.168   0.668  1.00  0.00     0.167 HD
HETATM   15  N1  UNL     1     -15.086 -25.718  -1.831  1.00  0.00    -0.080 NA
HETATM   16  N4  UNL     1     -15.279 -23.152  -3.293  1.00  0.00    -0.346 N 
HETATM   17  C5  UNL     1     -15.264 -21.849  -3.534  1.00  0.00     0.188 A 
ATOM     18  H4  UNL     1     -15.472 -23.884  -3.976  1.00  0.00     0.167 HD
ENDBRANCH   1   6
BRANCH   5  19
HETATM   19  O10 UNL     1     -15.487 -17.658  -3.125  1.00  0.00    -0.388 OA
ATOM     20  H10 UNL     1     -15.663 -17.369  -4.012  1.00  0.00     0.210 HD
ENDBRANCH   5  19
BRANCH   3  21
HETATM   21  C8  UNL     1     -16.798 -19.020   0.562  1.00  0.00     0.216 C 
BRANCH  21  22
HETATM   22  O2  UNL     1     -17.746 -20.009   0.501  1.00  0.00    -0.287 OA
BRANCH  22  23
HETATM   23  P1  UNL     1     -19.196 -19.351   1.127  1.00  0.00     0.418 P 
HETATM   24  O3  UNL     1     -19.006 -17.864   1.273  1.00  0.00    -0.624 OA
HETATM   25  O4  UNL     1     -19.535 -19.977   2.651  1.00  0.00    -0.624 OA
BRANCH  23  26
HETATM   26  O5  UNL     1     -20.434 -19.660   0.047  1.00  0.00    -0.173 OA
BRANCH  26  27
HETATM   27  P2  UNL     1     -20.495 -21.248  -0.471  1.00  0.00     0.431 P 
HETATM   28  O6  UNL     1     -20.261 -22.227   0.663  1.00  0.00    -0.616 OA
HETATM   29  O7  UNL     1     -19.326 -21.586  -1.651  1.00  0.00    -0.616 OA
HETATM   30  O8  UNL     1     -22.030 -21.503  -1.172  1.00  0.00    -0.616 OA
ENDBRANCH  26  27
ENDBRANCH  23  26
ENDBRANCH  22  23
ENDBRANCH  21  22
ENDBRANCH   3  21
BRANCH   4  31
HETATM   31  O9  UNL     1     -17.945 -17.983  -2.142  1.00  0.00    -0.390 OA
ATOM     32  H9  UNL     1     -18.788 -18.307  -2.436  1.00  0.00     0.210 HD
ENDBRANCH   4  31
TORSDOF 8
ENDMDL
