MODEL 5
REMARK VINA RESULT: -7.615341657      6.992      9.347
REMARK  8 active torsions:
REMARK  status: ('A' for Active; 'I' for Inactive)
REMARK    1  A    between atoms: N5_13  and  C6_14 
REMARK    2  A    between atoms: C7_16  and  C8_17 
REMARK    3  A    between atoms: C8_17  and  O2_18 
REMARK    4  A    between atoms: O2_18  and  P1_19 
REMARK    5  A    between atoms: P1_19  and  O5_22 
REMARK    6  A    between atoms: O5_22  and  P2_23 
REMARK    7  A    between atoms: C9_27  and  O9_28 
REMARK    8  A    between atoms: C10_30  and  O10_31 
ROOT
HETATM    1  C6  UNL     1     -15.627 -18.740  -1.381  1.00  0.00     0.262 C 
HETATM    2  O1  UNL     1     -16.608 -19.327  -0.609  1.00  0.00    -0.353 OA
HETATM    3  C7  UNL     1     -16.951 -18.484   0.406  1.00  0.00     0.180 C 
HETATM    4  C9  UNL     1     -16.421 -17.116   0.054  1.00  0.00     0.182 C 
HETATM    5  C10 UNL     1     -15.114 -17.558  -0.620  1.00  0.00     0.198 C 
ENDROOT
BRANCH   1   6
HETATM    6  N5  UNL     1     -16.165 -18.435  -2.666  1.00  0.00    -0.297 N 
HETATM    7  C3  UNL     1     -17.264 -18.937  -3.255  1.00  0.00     0.142 A 
HETATM    8  N3  UNL     1     -18.164 -19.835  -2.856  1.00  0.00    -0.336 N 
HETATM    9  C4  UNL     1     -17.413 -18.367  -4.487  1.00  0.00     0.119 A 
HETATM   10  C2  UNL     1     -19.200 -20.183  -3.639  1.00  0.00     0.183 A 
ATOM     11  H3  UNL     1     -18.065 -20.267  -1.937  1.00  0.00     0.168 HD
HETATM   12  N2  UNL     1     -19.362 -19.637  -4.846  1.00  0.00    -0.339 N 
HETATM   13  C1  UNL     1     -18.481 -18.733  -5.281  1.00  0.00     0.148 A 
ATOM     14  H2  UNL     1     -20.151 -19.908  -5.431  1.00  0.00     0.167 HD
HETATM   15  N1  UNL     1     -18.590 -18.115  -6.547  1.00  0.00    -0.080 NA
HETATM   16  N4  UNL     1     -16.403 -17.520  -4.644  1.00  0.00    -0.346 N 
HETATM   17  C5  UNL     1     -15.654 -17.561  -3.552  1.00  0.00     0.188 A 
ATOM     18  H4  UNL     1     -16.233 -16.939  -5.465  1.00  0.00     0.167 HD
ENDBRANCH   1   6
BRANCH   5  19
HETATM   19  O10 UNL     1     -14.298 -18.043   0.410  1.00  0.00    -0.388 OA
ATOM     20  H10 UNL     1     -13.766 -17.318   0.717  1.00  0.00     0.210 HD
ENDBRANCH   5  19
BRANCH   3  21
HETATM   21  C8  UNL     1     -18.404 -18.474   0.764  1.00  0.00     0.216 C 
BRANCH  21  22
HETATM   22  O2  UNL     1     -19.235 -18.917  -0.233  1.00  0.00    -0.287 OA
BRANCH  22  23
HETATM   23  P1  UNL     1     -19.884 -20.412   0.285  1.00  0.00     0.418 P 
HETATM   24  O3  UNL     1     -21.328 -20.463  -0.141  1.00  0.00    -0.624 OA
HETATM   25  O4  UNL     1     -19.839 -20.544   1.961  1.00  0.00    -0.624 OA
BRANCH  23  26
HETATM   26  O5  UNL     1     -19.034 -21.649  -0.451  1.00  0.00    -0.173 OA
BRANCH  26  27
HETATM   27  P2  UNL     1     -19.937 -23.034  -0.697  1.00  0.00     0.431 P 
HETATM   28  O6  UNL     1     -20.925 -22.874  -1.836  1.00  0.00    -0.616 OA
HETATM   29  O7  UNL     1     -20.841 -23.466   0.671  1.00  0.00    -0.616 OA
HETATM   30  O8  UNL     1     -18.850 -24.308  -1.025  1.00  0.00    -0.616 OA
ENDBRANCH  26  27
ENDBRANCH  23  26
ENDBRANCH  22  23
ENDBRANCH  21  22
ENDBRANCH   3  21
BRANCH   4  31
HETATM   31  O9  UNL     1     -16.191 -16.316   1.148  1.00  0.00    -0.390 OA
ATOM     32  H9  UNL     1     -16.652 -15.486   1.118  1.00  0.00     0.210 HD
ENDBRANCH   4  31
TORSDOF 8
ENDMDL
