MODEL 2
REMARK VINA RESULT: -7.971382880      0.915      1.458
REMARK  8 active torsions:
REMARK  status: ('A' for Active; 'I' for Inactive)
REMARK    1  A    between atoms: N5_13  and  C6_14 
REMARK    2  A    between atoms: C7_16  and  C8_17 
REMARK    3  A    between atoms: C8_17  and  O2_18 
REMARK    4  A    between atoms: O2_18  and  P1_19 
REMARK    5  A    between atoms: P1_19  and  O5_22 
REMARK    6  A    between atoms: O5_22  and  P2_23 
REMARK    7  A    between atoms: C9_27  and  O9_28 
REMARK    8  A    between atoms: C10_30  and  O10_31 
ROOT
HETATM    1  C6  UNL     1     -21.646 -26.315   0.163  1.00  0.00     0.262 C 
HETATM    2  O1  UNL     1     -20.506 -25.603   0.477  1.00  0.00    -0.353 OA
HETATM    3  C7  UNL     1     -20.344 -24.588  -0.419  1.00  0.00     0.180 C 
HETATM    4  C9  UNL     1     -21.659 -24.408  -1.138  1.00  0.00     0.182 C 
HETATM    5  C10 UNL     1     -22.072 -25.885  -1.205  1.00  0.00     0.198 C 
ENDROOT
BRANCH   1   6
HETATM    6  N5  UNL     1     -22.620 -26.108   1.185  1.00  0.00    -0.297 N 
HETATM    7  C3  UNL     1     -23.814 -26.706   1.338  1.00  0.00     0.142 A 
HETATM    8  N3  UNL     1     -24.446 -27.639   0.628  1.00  0.00    -0.336 N 
HETATM    9  C4  UNL     1     -24.425 -26.208   2.453  1.00  0.00     0.119 A 
HETATM   10  C2  UNL     1     -25.661 -28.089   0.989  1.00  0.00     0.183 A 
ATOM     11  H3  UNL     1     -23.999 -28.020  -0.206  1.00  0.00     0.168 HD
HETATM   12  N2  UNL     1     -26.274 -27.614   2.075  1.00  0.00    -0.339 N 
HETATM   13  C1  UNL     1     -25.672 -26.678   2.813  1.00  0.00     0.148 A 
ATOM     14  H2  UNL     1     -27.195 -27.963   2.340  1.00  0.00     0.167 HD
HETATM   15  N1  UNL     1     -26.262 -26.130   3.974  1.00  0.00    -0.080 NA
HETATM   16  N4  UNL     1     -23.601 -25.307   2.974  1.00  0.00    -0.346 N 
HETATM   17  C5  UNL     1     -22.518 -25.246   2.213  1.00  0.00     0.188 A 
ATOM     18  H4  UNL     1     -23.772 -24.756   3.815  1.00  0.00     0.167 HD
ENDBRANCH   1   6
BRANCH   5  19
HETATM   19  O10 UNL     1     -21.201 -26.484  -2.124  1.00  0.00    -0.388 OA
ATOM     20  H10 UNL     1     -21.639 -27.251  -2.474  1.00  0.00     0.210 HD
ENDBRANCH   5  19
BRANCH   3  21
HETATM   21  C8  UNL     1     -19.810 -23.313   0.151  1.00  0.00     0.216 C 
BRANCH  21  22
HETATM   22  O2  UNL     1     -19.591 -22.327  -0.776  1.00  0.00    -0.287 OA
BRANCH  22  23
HETATM   23  P1  UNL     1     -20.159 -20.864  -0.094  1.00  0.00     0.418 P 
HETATM   24  O3  UNL     1     -19.965 -20.940   1.397  1.00  0.00    -0.624 OA
HETATM   25  O4  UNL     1     -21.804 -20.659  -0.387  1.00  0.00    -0.624 OA
BRANCH  23  26
HETATM   26  O5  UNL     1     -19.263 -19.598  -0.718  1.00  0.00    -0.173 OA
BRANCH  26  27
HETATM   27  P2  UNL     1     -17.785 -19.386   0.034  1.00  0.00     0.431 P 
HETATM   28  O6  UNL     1     -16.949 -20.651   0.013  1.00  0.00    -0.616 OA
HETATM   29  O7  UNL     1     -17.947 -18.939   1.661  1.00  0.00    -0.616 OA
HETATM   30  O8  UNL     1     -16.972 -18.121  -0.774  1.00  0.00    -0.616 OA
ENDBRANCH  26  27
ENDBRANCH  23  26
ENDBRANCH  22  23
ENDBRANCH  21  22
ENDBRANCH   3  21
BRANCH   4  31
HETATM   31  O9  UNL     1     -21.532 -23.852  -2.388  1.00  0.00    -0.390 OA
ATOM     32  H9  UNL     1     -21.571 -24.486  -3.094  1.00  0.00     0.210 HD
ENDBRANCH   4  31
TORSDOF 8
ENDMDL
