MODEL 6
REMARK VINA RESULT: -7.612656057      5.931      7.634
REMARK  8 active torsions:
REMARK  status: ('A' for Active; 'I' for Inactive)
REMARK    1  A    between atoms: N5_13  and  C6_14 
REMARK    2  A    between atoms: C7_16  and  C8_17 
REMARK    3  A    between atoms: C8_17  and  O2_18 
REMARK    4  A    between atoms: O2_18  and  P1_19 
REMARK    5  A    between atoms: P1_19  and  O5_22 
REMARK    6  A    between atoms: O5_22  and  P2_23 
REMARK    7  A    between atoms: C9_27  and  O9_28 
REMARK    8  A    between atoms: C10_30  and  O10_31 
ROOT
HETATM    1  C6  UNL     1     -16.652 -22.990  -3.375  1.00  0.00     0.262 C 
HETATM    2  O1  UNL     1     -17.979 -22.683  -3.592  1.00  0.00    -0.353 OA
HETATM    3  C7  UNL     1     -18.766 -23.573  -2.923  1.00  0.00     0.180 C 
HETATM    4  C9  UNL     1     -17.892 -24.278  -1.915  1.00  0.00     0.182 C 
HETATM    5  C10 UNL     1     -16.610 -24.351  -2.755  1.00  0.00     0.198 C 
ENDROOT
BRANCH   1   6
HETATM    6  N5  UNL     1     -16.057 -21.958  -2.590  1.00  0.00    -0.297 N 
HETATM    7  C3  UNL     1     -16.460 -20.685  -2.435  1.00  0.00     0.142 A 
HETATM    8  N3  UNL     1     -17.490 -20.005  -2.935  1.00  0.00    -0.336 N 
HETATM    9  C4  UNL     1     -15.598 -20.041  -1.594  1.00  0.00     0.119 A 
HETATM   10  C2  UNL     1     -17.689 -18.710  -2.627  1.00  0.00     0.183 A 
ATOM     11  H3  UNL     1     -18.142 -20.475  -3.563  1.00  0.00     0.168 HD
HETATM   12  N2  UNL     1     -16.857 -18.065  -1.807  1.00  0.00    -0.339 N 
HETATM   13  C1  UNL     1     -15.813 -18.713  -1.286  1.00  0.00     0.148 A 
ATOM     14  H2  UNL     1     -17.018 -17.084  -1.580  1.00  0.00     0.167 HD
HETATM   15  N1  UNL     1     -14.893 -18.092  -0.412  1.00  0.00    -0.080 NA
HETATM   16  N4  UNL     1     -14.673 -20.925  -1.240  1.00  0.00    -0.346 N 
HETATM   17  C5  UNL     1     -14.948 -22.075  -1.838  1.00  0.00     0.188 A 
ATOM     18  H4  UNL     1     -13.886 -20.748  -0.616  1.00  0.00     0.167 HD
ENDBRANCH   1   6
BRANCH   5  19
HETATM   19  O10 UNL     1     -16.869 -25.283  -3.769  1.00  0.00    -0.388 OA
ATOM     20  H10 UNL     1     -17.116 -26.099  -3.350  1.00  0.00     0.210 HD
ENDBRANCH   5  19
BRANCH   3  21
HETATM   21  C8  UNL     1     -20.009 -23.000  -2.320  1.00  0.00     0.216 C 
BRANCH  21  22
HETATM   22  O2  UNL     1     -19.970 -21.644  -2.126  1.00  0.00    -0.287 OA
BRANCH  22  23
HETATM   23  P1  UNL     1     -20.125 -21.375  -0.443  1.00  0.00     0.418 P 
HETATM   24  O3  UNL     1     -20.349 -22.707   0.221  1.00  0.00    -0.624 OA
HETATM   25  O4  UNL     1     -21.458 -20.404  -0.107  1.00  0.00    -0.624 OA
BRANCH  23  26
HETATM   26  O5  UNL     1     -18.710 -20.690   0.124  1.00  0.00    -0.173 OA
BRANCH  26  27
HETATM   27  P2  UNL     1     -18.953 -19.418   1.181  1.00  0.00     0.431 P 
HETATM   28  O6  UNL     1     -19.721 -18.280   0.536  1.00  0.00    -0.616 OA
HETATM   29  O7  UNL     1     -17.496 -18.760   1.744  1.00  0.00    -0.616 OA
HETATM   30  O8  UNL     1     -19.806 -20.024   2.529  1.00  0.00    -0.616 OA
ENDBRANCH  26  27
ENDBRANCH  23  26
ENDBRANCH  22  23
ENDBRANCH  21  22
ENDBRANCH   3  21
BRANCH   4  31
HETATM   31  O9  UNL     1     -18.350 -25.526  -1.565  1.00  0.00    -0.390 OA
ATOM     32  H9  UNL     1     -18.206 -25.743  -0.651  1.00  0.00     0.210 HD
ENDBRANCH   4  31
TORSDOF 8
ENDMDL
