MODEL 1
REMARK VINA RESULT: -8.695310847      0.000      0.000
REMARK  8 active torsions:
REMARK  status: ('A' for Active; 'I' for Inactive)
REMARK    1  A    between atoms: N5_13  and  C6_14 
REMARK    2  A    between atoms: C7_16  and  C8_17 
REMARK    3  A    between atoms: C8_17  and  O2_18 
REMARK    4  A    between atoms: O2_18  and  P1_19 
REMARK    5  A    between atoms: P1_19  and  O5_22 
REMARK    6  A    between atoms: O5_22  and  P2_23 
REMARK    7  A    between atoms: C9_27  and  O9_28 
REMARK    8  A    between atoms: C10_30  and  O10_31 
ROOT
HETATM    1  C6  UNL     1     -21.709 -26.607  -0.011  1.00  0.00     0.262 C 
HETATM    2  O1  UNL     1     -20.504 -25.978   0.227  1.00  0.00    -0.353 OA
HETATM    3  C7  UNL     1     -20.291 -25.029  -0.729  1.00  0.00     0.180 C 
HETATM    4  C9  UNL     1     -21.611 -24.778  -1.416  1.00  0.00     0.182 C 
HETATM    5  C10 UNL     1     -22.147 -26.216  -1.387  1.00  0.00     0.198 C 
ENDROOT
BRANCH   1   6
HETATM    6  N5  UNL     1     -22.626 -26.264   1.027  1.00  0.00    -0.297 N 
HETATM    7  C3  UNL     1     -23.841 -26.781   1.276  1.00  0.00     0.142 A 
HETATM    8  N3  UNL     1     -24.552 -27.731   0.671  1.00  0.00    -0.336 N 
HETATM    9  C4  UNL     1     -24.377 -26.161   2.369  1.00  0.00     0.119 A 
HETATM   10  C2  UNL     1     -25.772 -28.082   1.115  1.00  0.00     0.183 A 
ATOM     11  H3  UNL     1     -24.162 -28.203  -0.146  1.00  0.00     0.168 HD
HETATM   12  N2  UNL     1     -26.311 -27.488   2.181  1.00  0.00    -0.339 N 
HETATM   13  C1  UNL     1     -25.629 -26.531   2.815  1.00  0.00     0.148 A 
ATOM     14  H2  UNL     1     -27.237 -27.762   2.509  1.00  0.00     0.167 HD
HETATM   15  N1  UNL     1     -26.139 -25.859   3.948  1.00  0.00    -0.080 NA
HETATM   16  N4  UNL     1     -23.485 -25.268   2.781  1.00  0.00    -0.346 N 
HETATM   17  C5  UNL     1     -22.434 -25.329   1.976  1.00  0.00     0.188 A 
ATOM     18  H4  UNL     1     -23.591 -24.643   3.580  1.00  0.00     0.167 HD
ENDBRANCH   1   6
BRANCH   5  19
HETATM   19  O10 UNL     1     -21.362 -26.934  -2.298  1.00  0.00    -0.388 OA
ATOM     20  H10 UNL     1     -20.761 -26.320  -2.703  1.00  0.00     0.210 HD
ENDBRANCH   5  19
BRANCH   3  21
HETATM   21  C8  UNL     1     -19.633 -23.775  -0.248  1.00  0.00     0.216 C 
BRANCH  21  22
HETATM   22  O2  UNL     1     -20.491 -22.866   0.314  1.00  0.00    -0.287 OA
BRANCH  22  23
HETATM   23  P1  UNL     1     -20.227 -21.372  -0.476  1.00  0.00     0.418 P 
HETATM   24  O3  UNL     1     -21.369 -20.455  -0.129  1.00  0.00    -0.624 OA
HETATM   25  O4  UNL     1     -20.215 -21.566  -2.148  1.00  0.00    -0.624 OA
BRANCH  23  26
HETATM   26  O5  UNL     1     -18.789 -20.721   0.075  1.00  0.00    -0.173 OA
BRANCH  26  27
HETATM   27  P2  UNL     1     -18.992 -19.455   1.149  1.00  0.00     0.431 P 
HETATM   28  O6  UNL     1     -19.762 -18.303   0.532  1.00  0.00    -0.616 OA
HETATM   29  O7  UNL     1     -17.514 -18.819   1.682  1.00  0.00    -0.616 OA
HETATM   30  O8  UNL     1     -19.818 -20.063   2.512  1.00  0.00    -0.616 OA
ENDBRANCH  26  27
ENDBRANCH  23  26
ENDBRANCH  22  23
ENDBRANCH  21  22
ENDBRANCH   3  21
BRANCH   4  31
HETATM   31  O9  UNL     1     -21.483 -24.301  -2.699  1.00  0.00    -0.390 OA
ATOM     32  H9  UNL     1     -22.191 -24.562  -3.275  1.00  0.00     0.210 HD
ENDBRANCH   4  31
TORSDOF 8
ENDMDL
