MODEL 2
REMARK VINA RESULT: -5.861465018      0.852      1.138
REMARK  4 active torsions:
REMARK  status: ('A' for Active; 'I' for Inactive)
REMARK    1  A    between atoms: C2_2  and  C3_3 
REMARK    2  A    between atoms: C2_2  and  C5_7 
REMARK    3  A    between atoms: C3_3  and  C4_4 
REMARK    4  A    between atoms: C10_22  and  O4_23 
ROOT
HETATM    1  C5  UNL     1     -12.146  25.457   7.403  1.00  0.00     0.064 A 
HETATM    2  N1  UNL     1     -12.522  24.181   7.371  1.00  0.00    -0.300 N 
ATOM      3  H1  UNL     1     -12.075  23.539   8.027  1.00  0.00     0.186 HD
HETATM    4  N2  UNL     1     -13.422  23.688   6.562  1.00  0.00    -0.284 N 
ATOM      5  H2  UNL     1     -13.647  22.694   6.600  1.00  0.00     0.188 HD
HETATM    6  C6  UNL     1     -14.057  24.490   5.674  1.00  0.00     0.141 A 
HETATM    7  N3  UNL     1     -14.942  24.004   4.822  1.00  0.00    -0.315 N 
ATOM      8  H3  UNL     1     -15.171  23.011   4.870  1.00  0.00     0.170 HD
HETATM    9  C7  UNL     1     -15.545  24.751   3.909  1.00  0.00     0.196 A 
HETATM   10  N4  UNL     1     -16.486  24.214   2.970  1.00  0.00    -0.063 NA
HETATM   11  N5  UNL     1     -15.256  26.073   3.832  1.00  0.00    -0.297 N 
ATOM     12  H5  UNL     1     -15.712  26.658   3.132  1.00  0.00     0.171 HD
HETATM   13  C8  UNL     1     -14.353  26.614   4.694  1.00  0.00     0.264 A 
HETATM   14  O3  UNL     1     -14.106  27.847   4.602  1.00  0.00    -0.267 OA
HETATM   15  C9  UNL     1     -13.708  25.871   5.659  1.00  0.00     0.112 A 
HETATM   16  C10 UNL     1     -12.754  26.357   6.515  1.00  0.00     0.109 A 
ENDROOT
BRANCH   1  17
HETATM   17  C2  UNL     1     -11.195  25.979   8.391  1.00  0.00     0.046 C 
HETATM   18  C1  UNL     1      -9.926  25.070   8.220  1.00  0.00     0.017 C 
BRANCH  17  19
HETATM   19  C3  UNL     1     -11.585  25.613   9.809  1.00  0.00     0.123 C 
BRANCH  19  20
HETATM   20  C4  UNL     1     -13.013  25.569  10.111  1.00  0.00     0.173 C 
HETATM   21  O1  UNL     1     -13.644  24.506  10.462  1.00  0.00    -0.648 OA
HETATM   22  O2  UNL     1     -13.863  26.711  10.044  1.00  0.00    -0.648 OA
ENDBRANCH  19  20
ENDBRANCH  17  19
ENDBRANCH   1  17
BRANCH  16  23
HETATM   23  O4  UNL     1     -12.397  27.676   6.518  1.00  0.00    -0.357 OA
ATOM     24  H4  UNL     1     -12.995  28.335   6.186  1.00  0.00     0.217 HD
ENDBRANCH  16  23
TORSDOF 4
ENDMDL
