MODEL 4
REMARK VINA RESULT: -5.384517426      6.275      8.475
REMARK  4 active torsions:
REMARK  status: ('A' for Active; 'I' for Inactive)
REMARK    1  A    between atoms: C2_2  and  C3_3 
REMARK    2  A    between atoms: C2_2  and  C5_7 
REMARK    3  A    between atoms: C3_3  and  C4_4 
REMARK    4  A    between atoms: C10_22  and  O4_23 
ROOT
HETATM    1  C5  UNL     1     -12.351  30.235   9.332  1.00  0.00     0.064 A 
HETATM    2  N1  UNL     1     -12.914  31.210  10.043  1.00  0.00    -0.300 N 
ATOM      3  H1  UNL     1     -13.928  31.185  10.158  1.00  0.00     0.186 HD
HETATM    4  N2  UNL     1     -12.265  32.194  10.604  1.00  0.00    -0.284 N 
ATOM      5  H2  UNL     1     -12.776  32.904  11.129  1.00  0.00     0.188 HD
HETATM    6  C6  UNL     1     -10.917  32.278  10.494  1.00  0.00     0.141 A 
HETATM    7  N3  UNL     1     -10.248  33.287  11.023  1.00  0.00    -0.315 N 
ATOM      8  H3  UNL     1     -10.762  33.989  11.554  1.00  0.00     0.170 HD
HETATM    9  C7  UNL     1      -8.936  33.424  10.892  1.00  0.00     0.196 A 
HETATM   10  N4  UNL     1      -8.217  34.534  11.446  1.00  0.00    -0.063 NA
HETATM   11  N5  UNL     1      -8.235  32.500  10.192  1.00  0.00    -0.297 N 
ATOM     12  H5  UNL     1      -7.226  32.596  10.082  1.00  0.00     0.171 HD
HETATM   13  C8  UNL     1      -8.887  31.443   9.635  1.00  0.00     0.264 A 
HETATM   14  O3  UNL     1      -8.209  30.595   8.992  1.00  0.00    -0.267 OA
HETATM   15  C9  UNL     1     -10.248  31.263   9.752  1.00  0.00     0.112 A 
HETATM   16  C10 UNL     1     -10.957  30.246   9.168  1.00  0.00     0.109 A 
ENDROOT
BRANCH   1  17
HETATM   17  C2  UNL     1     -13.113  29.102   8.797  1.00  0.00     0.046 C 
HETATM   18  C1  UNL     1     -14.473  29.738   8.334  1.00  0.00     0.017 C 
BRANCH  17  19
HETATM   19  C3  UNL     1     -13.617  28.183   9.891  1.00  0.00     0.123 C 
BRANCH  19  20
HETATM   20  C4  UNL     1     -12.994  26.866   9.988  1.00  0.00     0.173 C 
HETATM   21  O1  UNL     1     -13.623  25.792  10.309  1.00  0.00    -0.648 OA
HETATM   22  O2  UNL     1     -11.611  26.635   9.738  1.00  0.00    -0.648 OA
ENDBRANCH  19  20
ENDBRANCH  17  19
ENDBRANCH   1  17
BRANCH  16  23
HETATM   23  O4  UNL     1     -10.341  29.263   8.446  1.00  0.00    -0.357 OA
ATOM     24  H4  UNL     1      -9.393  29.209   8.423  1.00  0.00     0.217 HD
ENDBRANCH  16  23
TORSDOF 4
ENDMDL
