MODEL 3
REMARK VINA RESULT: -5.444483169      9.460     11.237
REMARK  4 active torsions:
REMARK  status: ('A' for Active; 'I' for Inactive)
REMARK    1  A    between atoms: C2_2  and  C3_3 
REMARK    2  A    between atoms: C2_2  and  C5_7 
REMARK    3  A    between atoms: C3_3  and  C4_4 
REMARK    4  A    between atoms: C10_22  and  O4_23 
ROOT
HETATM    1  C5  UNL     1     -10.360  17.885  10.219  1.00  0.00     0.064 A 
HETATM    2  N1  UNL     1     -11.334  17.009   9.982  1.00  0.00    -0.300 N 
ATOM      3  H1  UNL     1     -11.439  16.666   9.027  1.00  0.00     0.186 HD
HETATM    4  N2  UNL     1     -12.166  16.556  10.882  1.00  0.00    -0.284 N 
ATOM      5  H2  UNL     1     -12.889  15.889  10.613  1.00  0.00     0.188 HD
HETATM    6  C6  UNL     1     -12.074  16.968  12.169  1.00  0.00     0.141 A 
HETATM    7  N3  UNL     1     -12.929  16.550  13.085  1.00  0.00    -0.315 N 
ATOM      8  H3  UNL     1     -13.645  15.876  12.814  1.00  0.00     0.170 HD
HETATM    9  C7  UNL     1     -12.897  16.970  14.341  1.00  0.00     0.196 A 
HETATM   10  N4  UNL     1     -13.844  16.534  15.326  1.00  0.00    -0.063 NA
HETATM   11  N5  UNL     1     -11.953  17.864  14.722  1.00  0.00    -0.297 N 
ATOM     12  H5  UNL     1     -11.919  18.197  15.686  1.00  0.00     0.171 HD
HETATM   13  C8  UNL     1     -11.050  18.316  13.810  1.00  0.00     0.264 A 
HETATM   14  O3  UNL     1     -10.179  19.145  14.192  1.00  0.00    -0.267 OA
HETATM   15  C9  UNL     1     -11.048  17.901  12.496  1.00  0.00     0.112 A 
HETATM   16  C10 UNL     1     -10.195  18.364  11.528  1.00  0.00     0.109 A 
ENDROOT
BRANCH   1  17
HETATM   17  C2  UNL     1      -9.395  18.295   9.194  1.00  0.00     0.046 C 
HETATM   18  C1  UNL     1     -10.157  18.070   7.839  1.00  0.00     0.017 C 
BRANCH  17  19
HETATM   19  C3  UNL     1      -8.273  17.290   9.029  1.00  0.00     0.123 C 
BRANCH  19  20
HETATM   20  C4  UNL     1      -6.936  17.721   9.430  1.00  0.00     0.173 C 
HETATM   21  O1  UNL     1      -5.856  17.092   9.130  1.00  0.00    -0.648 OA
HETATM   22  O2  UNL     1      -6.690  18.891  10.204  1.00  0.00    -0.648 OA
ENDBRANCH  19  20
ENDBRANCH  17  19
ENDBRANCH   1  17
BRANCH  16  23
HETATM   23  O4  UNL     1      -9.206  19.263  11.813  1.00  0.00    -0.357 OA
ATOM     24  H4  UNL     1      -9.231  19.762  12.621  1.00  0.00     0.217 HD
ENDBRANCH  16  23
TORSDOF 4
ENDMDL
