MODEL 1
REMARK VINA RESULT: -6.475026984      0.000      0.000
REMARK  4 active torsions:
REMARK  status: ('A' for Active; 'I' for Inactive)
REMARK    1  A    between atoms: C2_2  and  C3_3 
REMARK    2  A    between atoms: C2_2  and  C5_7 
REMARK    3  A    between atoms: C3_3  and  C4_4 
REMARK    4  A    between atoms: C10_22  and  O4_23 
ROOT
HETATM    1  C5  UNL     1     -12.555  25.330   7.084  1.00  0.00     0.064 A 
HETATM    2  N1  UNL     1     -12.948  24.059   7.032  1.00  0.00    -0.300 N 
ATOM      3  H1  UNL     1     -12.539  23.410   7.704  1.00  0.00     0.186 HD
HETATM    4  N2  UNL     1     -13.819  23.582   6.183  1.00  0.00    -0.284 N 
ATOM      5  H2  UNL     1     -14.060  22.592   6.208  1.00  0.00     0.188 HD
HETATM    6  C6  UNL     1     -14.403  24.395   5.270  1.00  0.00     0.141 A 
HETATM    7  N3  UNL     1     -15.258  23.924   4.380  1.00  0.00    -0.315 N 
ATOM      8  H3  UNL     1     -15.503  22.935   4.414  1.00  0.00     0.170 HD
HETATM    9  C7  UNL     1     -15.809  24.682   3.444  1.00  0.00     0.196 A 
HETATM   10  N4  UNL     1     -16.716  24.161   2.463  1.00  0.00    -0.063 NA
HETATM   11  N5  UNL     1     -15.498  25.999   3.382  1.00  0.00    -0.297 N 
ATOM     12  H5  UNL     1     -15.914  26.592   2.664  1.00  0.00     0.171 HD
HETATM   13  C8  UNL     1     -14.624  26.525   4.284  1.00  0.00     0.264 A 
HETATM   14  O3  UNL     1     -14.356  27.755   4.207  1.00  0.00    -0.267 OA
HETATM   15  C9  UNL     1     -14.033  25.771   5.274  1.00  0.00     0.112 A 
HETATM   16  C10 UNL     1     -13.111  26.241   6.172  1.00  0.00     0.109 A 
ENDROOT
BRANCH   1  17
HETATM   17  C2  UNL     1     -11.640  25.836   8.113  1.00  0.00     0.046 C 
HETATM   18  C1  UNL     1     -10.677  24.628   8.397  1.00  0.00     0.017 C 
BRANCH  17  19
HETATM   19  C3  UNL     1     -12.312  25.954   9.466  1.00  0.00     0.123 C 
BRANCH  19  20
HETATM   20  C4  UNL     1     -13.227  27.077   9.655  1.00  0.00     0.173 C 
HETATM   21  O1  UNL     1     -13.019  28.261   9.199  1.00  0.00    -0.648 OA
HETATM   22  O2  UNL     1     -14.453  26.975  10.373  1.00  0.00    -0.648 OA
ENDBRANCH  19  20
ENDBRANCH  17  19
ENDBRANCH   1  17
BRANCH  16  23
HETATM   23  O4  UNL     1     -12.734  27.555   6.194  1.00  0.00    -0.357 OA
ATOM     24  H4  UNL     1     -13.370  28.232   6.395  1.00  0.00     0.217 HD
ENDBRANCH  16  23
TORSDOF 4
ENDMDL
