MODEL 5
REMARK VINA RESULT: -5.171470186      7.623      9.252
REMARK  4 active torsions:
REMARK  status: ('A' for Active; 'I' for Inactive)
REMARK    1  A    between atoms: C2_2  and  C3_3 
REMARK    2  A    between atoms: C2_2  and  C5_7 
REMARK    3  A    between atoms: C3_3  and  C4_4 
REMARK    4  A    between atoms: C10_22  and  O4_23 
ROOT
HETATM    1  C5  UNL     1     -10.293  18.336  11.128  1.00  0.00     0.064 A 
HETATM    2  N1  UNL     1     -10.280  19.493  11.787  1.00  0.00    -0.300 N 
ATOM      3  H1  UNL     1     -10.182  19.458  12.802  1.00  0.00     0.186 HD
HETATM    4  N2  UNL     1     -10.383  20.670  11.230  1.00  0.00    -0.284 N 
ATOM      5  H2  UNL     1     -10.370  21.508  11.811  1.00  0.00     0.188 HD
HETATM    6  C6  UNL     1     -10.508  20.784   9.886  1.00  0.00     0.141 A 
HETATM    7  N3  UNL     1     -10.651  21.963   9.308  1.00  0.00    -0.315 N 
ATOM      8  H3  UNL     1     -10.628  22.799   9.892  1.00  0.00     0.170 HD
HETATM    9  C7  UNL     1     -10.824  22.105   8.002  1.00  0.00     0.196 A 
HETATM   10  N4  UNL     1     -11.005  23.386   7.382  1.00  0.00    -0.063 NA
HETATM   11  N5  UNL     1     -10.855  21.007   7.209  1.00  0.00    -0.297 N 
ATOM     12  H5  UNL     1     -10.989  21.104   6.203  1.00  0.00     0.171 HD
HETATM   13  C8  UNL     1     -10.707  19.774   7.765  1.00  0.00     0.264 A 
HETATM   14  O3  UNL     1     -10.735  18.769   7.003  1.00  0.00    -0.267 OA
HETATM   15  C9  UNL     1     -10.521  19.584   9.117  1.00  0.00     0.112 A 
HETATM   16  C10 UNL     1     -10.419  18.363   9.731  1.00  0.00     0.109 A 
ENDROOT
BRANCH   1  17
HETATM   17  C2  UNL     1     -10.084  17.044  11.790  1.00  0.00     0.046 C 
HETATM   18  C1  UNL     1     -10.990  17.118  13.071  1.00  0.00     0.017 C 
BRANCH  17  19
HETATM   19  C3  UNL     1      -8.720  16.950  12.445  1.00  0.00     0.123 C 
BRANCH  19  20
HETATM   20  C4  UNL     1      -7.563  16.885  11.555  1.00  0.00     0.173 C 
HETATM   21  O1  UNL     1      -7.623  16.537  10.319  1.00  0.00    -0.648 OA
HETATM   22  O2  UNL     1      -6.238  17.199  11.972  1.00  0.00    -0.648 OA
ENDBRANCH  19  20
ENDBRANCH  17  19
ENDBRANCH   1  17
BRANCH  16  23
HETATM   23  O4  UNL     1     -10.434  17.198   9.018  1.00  0.00    -0.357 OA
ATOM     24  H4  UNL     1      -9.772  16.534   9.171  1.00  0.00     0.217 HD
ENDBRANCH  16  23
TORSDOF 4
ENDMDL
