MODEL 6
REMARK VINA RESULT: -7.295891259      3.769      5.859
REMARK  4 active torsions:
REMARK  status: ('A' for Active; 'I' for Inactive)
REMARK    1  A    between atoms: O1_1  and  C1_3 
REMARK    2  A    between atoms: C1_3  and  C2_4 
REMARK    3  A    between atoms: C1_3  and  C6_10 
REMARK    4  A    between atoms: C1_3  and  C10_16 
ROOT
HETATM    1  C1  UNL     1     -11.580 -15.920   7.482  1.00  0.00     0.130 C 
ENDROOT
BRANCH   1   2
HETATM    2  O1  UNL     1     -12.075 -17.193   7.141  1.00  0.00    -0.379 OA
ATOM      3  H1  UNL     1     -12.652 -17.071   6.396  1.00  0.00     0.211 HD
ENDBRANCH   1   2
BRANCH   1   4
HETATM    4  C2  UNL     1     -10.928 -15.378   6.269  1.00  0.00     0.024 A 
HETATM    5  C3  UNL     1     -10.453 -15.966   5.129  1.00  0.00     0.020 A 
HETATM    6  C4  UNL     1      -9.903 -15.164   4.205  1.00  0.00     0.032 A 
HETATM    7  C5  UNL     1      -9.862 -13.823   4.474  1.00  0.00     0.075 A 
HETATM    8 CL1  UNL     1      -9.206 -12.525   3.459  1.00  0.00    -0.076 Cl
HETATM    9  S1  UNL     1     -10.596 -13.730   6.018  1.00  0.00    -0.079 SA
ENDBRANCH   1   4
BRANCH   1  10
HETATM   10  C6  UNL     1     -12.789 -15.088   7.845  1.00  0.00     0.024 A 
HETATM   11  C7  UNL     1     -14.030 -15.119   7.273  1.00  0.00     0.020 A 
HETATM   12  C8  UNL     1     -14.960 -14.269   7.768  1.00  0.00     0.032 A 
HETATM   13  C9  UNL     1     -14.565 -13.457   8.799  1.00  0.00     0.075 A 
HETATM   14 CL2  UNL     1     -15.547 -12.249   9.649  1.00  0.00    -0.076 Cl
HETATM   15  S2  UNL     1     -12.942 -13.892   9.045  1.00  0.00    -0.079 SA
ENDBRANCH   1  10
BRANCH   1  16
HETATM   16  C10 UNL     1     -10.729 -15.992   8.686  1.00  0.00     0.063 C 
HETATM   17  C11 UNL     1     -11.233 -17.115   9.571  1.00  0.00     0.281 C 
HETATM   18  N1  UNL     1     -10.150 -17.407  10.509  1.00  0.00     0.088 N 
HETATM   19  C12 UNL     1      -9.218 -18.293   9.833  1.00  0.00     0.272 C 
HETATM   20  C16 UNL     1      -9.398 -16.206  10.856  1.00  0.00     0.272 C 
HETATM   21  C13 UNL     1      -8.997 -17.792   8.434  1.00  0.00     0.035 C 
HETATM   22  C14 UNL     1      -9.276 -16.281   8.432  1.00  0.00    -0.002 C 
HETATM   23  C15 UNL     1      -8.533 -15.755   9.671  1.00  0.00     0.035 C 
ENDBRANCH   1  16
TORSDOF 4
ENDMDL
