MODEL 2
REMARK VINA RESULT: -7.627857137      2.887      5.601
REMARK  4 active torsions:
REMARK  status: ('A' for Active; 'I' for Inactive)
REMARK    1  A    between atoms: O1_1  and  C1_3 
REMARK    2  A    between atoms: C1_3  and  C2_4 
REMARK    3  A    between atoms: C1_3  and  C6_10 
REMARK    4  A    between atoms: C1_3  and  C10_16 
ROOT
HETATM    1  C1  UNL     1     -10.755 -13.817   6.869  1.00  0.00     0.130 C 
ENDROOT
BRANCH   1   2
HETATM    2  O1  UNL     1     -12.157 -13.759   6.754  1.00  0.00    -0.379 OA
ATOM      3  H1  UNL     1     -12.508 -13.887   7.627  1.00  0.00     0.211 HD
ENDBRANCH   1   2
BRANCH   1   4
HETATM    4  C2  UNL     1     -10.209 -13.675   5.501  1.00  0.00     0.024 A 
HETATM    5  C3  UNL     1      -8.933 -13.603   5.013  1.00  0.00     0.020 A 
HETATM    6  C4  UNL     1      -8.786 -13.469   3.686  1.00  0.00     0.032 A 
HETATM    7  C5  UNL     1      -9.923 -13.415   2.926  1.00  0.00     0.075 A 
HETATM    8 CL1  UNL     1     -10.052 -13.243   1.166  1.00  0.00    -0.076 Cl
HETATM    9  S1  UNL     1     -11.163 -13.555   4.098  1.00  0.00    -0.079 SA
ENDBRANCH   1   4
BRANCH   1  10
HETATM   10  C6  UNL     1     -10.358 -12.631   7.719  1.00  0.00     0.024 A 
HETATM   11  C7  UNL     1      -9.139 -12.373   8.280  1.00  0.00     0.020 A 
HETATM   12  C8  UNL     1      -9.023 -11.240   9.011  1.00  0.00     0.032 A 
HETATM   13  C9  UNL     1     -10.144 -10.459   9.119  1.00  0.00     0.075 A 
HETATM   14 CL2  UNL     1     -10.305  -8.930  10.004  1.00  0.00    -0.076 Cl
HETATM   15  S2  UNL     1     -11.305 -11.309   8.216  1.00  0.00    -0.079 SA
ENDBRANCH   1  10
BRANCH   1  16
HETATM   16  C10 UNL     1     -10.337 -15.030   7.598  1.00  0.00     0.063 C 
HETATM   17  C11 UNL     1     -11.226 -15.196   8.816  1.00  0.00     0.281 C 
HETATM   18  N1  UNL     1     -11.055 -16.579   9.256  1.00  0.00     0.088 N 
HETATM   19  C12 UNL     1     -11.930 -17.406   8.443  1.00  0.00     0.272 C 
HETATM   20  C16 UNL     1      -9.697 -17.057   9.016  1.00  0.00     0.272 C 
HETATM   21  C13 UNL     1     -11.821 -16.968   7.010  1.00  0.00     0.035 C 
HETATM   22  C14 UNL     1     -10.442 -16.316   6.827  1.00  0.00    -0.002 C 
HETATM   23  C15 UNL     1      -9.467 -17.285   7.515  1.00  0.00     0.035 C 
ENDBRANCH   1  16
TORSDOF 4
ENDMDL
