MODEL 11
REMARK VINA RESULT: -7.101566542      2.610      4.216
REMARK  4 active torsions:
REMARK  status: ('A' for Active; 'I' for Inactive)
REMARK    1  A    between atoms: O1_1  and  C1_3 
REMARK    2  A    between atoms: C1_3  and  C2_4 
REMARK    3  A    between atoms: C1_3  and  C6_10 
REMARK    4  A    between atoms: C1_3  and  C10_16 
ROOT
HETATM    1  C1  UNL     1     -11.019 -13.904   7.220  1.00  0.00     0.130 C 
ENDROOT
BRANCH   1   2
HETATM    2  O1  UNL     1     -10.668 -12.614   7.663  1.00  0.00    -0.379 OA
ATOM      3  H1  UNL     1     -11.390 -12.302   8.196  1.00  0.00     0.211 HD
ENDBRANCH   1   2
BRANCH   1   4
HETATM    4  C2  UNL     1     -10.234 -14.861   8.031  1.00  0.00     0.024 A 
HETATM    5  C3  UNL     1      -9.081 -14.736   8.756  1.00  0.00     0.020 A 
HETATM    6  C4  UNL     1      -8.626 -15.830   9.386  1.00  0.00     0.032 A 
HETATM    7  C5  UNL     1      -9.352 -16.984   9.254  1.00  0.00     0.075 A 
HETATM    8 CL1  UNL     1      -9.010 -18.575   9.958  1.00  0.00    -0.076 Cl
HETATM    9  S1  UNL     1     -10.649 -16.495   8.249  1.00  0.00    -0.079 SA
ENDBRANCH   1   4
BRANCH   1  10
HETATM   10  C6  UNL     1     -12.495 -14.055   7.513  1.00  0.00     0.024 A 
HETATM   11  C7  UNL     1     -13.443 -14.666   6.742  1.00  0.00     0.020 A 
HETATM   12  C8  UNL     1     -14.712 -14.673   7.212  1.00  0.00     0.032 A 
HETATM   13  C9  UNL     1     -14.924 -14.063   8.421  1.00  0.00     0.075 A 
HETATM   14 CL2  UNL     1     -16.463 -13.908   9.290  1.00  0.00    -0.076 Cl
HETATM   15  S2  UNL     1     -13.379 -13.509   8.860  1.00  0.00    -0.079 SA
ENDBRANCH   1  10
BRANCH   1  16
HETATM   16  C10 UNL     1     -10.855 -14.021   5.759  1.00  0.00     0.063 C 
HETATM   17  C11 UNL     1     -11.139 -12.672   5.128  1.00  0.00     0.281 C 
HETATM   18  N1  UNL     1     -10.578 -12.731   3.779  1.00  0.00     0.088 N 
HETATM   19  C12 UNL     1      -9.159 -12.437   3.885  1.00  0.00     0.272 C 
HETATM   20  C16 UNL     1     -10.679 -14.070   3.211  1.00  0.00     0.272 C 
HETATM   21  C13 UNL     1      -8.593 -13.188   5.057  1.00  0.00     0.035 C 
HETATM   22  C14 UNL     1      -9.482 -14.418   5.294  1.00  0.00    -0.002 C 
HETATM   23  C15 UNL     1      -9.683 -15.018   3.893  1.00  0.00     0.035 C 
ENDBRANCH   1  16
TORSDOF 4
ENDMDL
