MODEL 7
REMARK VINA RESULT: -7.277650685      2.996      5.202
REMARK  4 active torsions:
REMARK  status: ('A' for Active; 'I' for Inactive)
REMARK    1  A    between atoms: O1_1  and  C1_3 
REMARK    2  A    between atoms: C1_3  and  C2_4 
REMARK    3  A    between atoms: C1_3  and  C6_10 
REMARK    4  A    between atoms: C1_3  and  C10_16 
ROOT
HETATM    1  C1  UNL     1     -10.258 -13.824   7.757  1.00  0.00     0.130 C 
ENDROOT
BRANCH   1   2
HETATM    2  O1  UNL     1     -11.621 -13.490   7.865  1.00  0.00    -0.379 OA
ATOM      3  H1  UNL     1     -11.947 -13.924   8.645  1.00  0.00     0.211 HD
ENDBRANCH   1   2
BRANCH   1   4
HETATM    4  C2  UNL     1      -9.817 -13.383   6.414  1.00  0.00     0.024 A 
HETATM    5  C3  UNL     1      -8.622 -12.921   5.935  1.00  0.00     0.020 A 
HETATM    6  C4  UNL     1      -8.563 -12.599   4.634  1.00  0.00     0.032 A 
HETATM    7  C5  UNL     1      -9.700 -12.758   3.889  1.00  0.00     0.075 A 
HETATM    8 CL1  UNL     1      -9.932 -12.422   2.164  1.00  0.00    -0.076 Cl
HETATM    9  S1  UNL     1     -10.818 -13.356   5.040  1.00  0.00    -0.079 SA
ENDBRANCH   1   4
BRANCH   1  10
HETATM   10  C6  UNL     1      -9.548 -13.028   8.830  1.00  0.00     0.024 A 
HETATM   11  C7  UNL     1      -9.930 -11.837   9.379  1.00  0.00     0.020 A 
HETATM   12  C8  UNL     1      -9.124 -11.309  10.329  1.00  0.00     0.032 A 
HETATM   13  C9  UNL     1      -8.000 -12.023  10.650  1.00  0.00     0.075 A 
HETATM   14 CL2  UNL     1      -6.760 -11.594  11.844  1.00  0.00    -0.076 Cl
HETATM   15  S2  UNL     1      -8.095 -13.384   9.638  1.00  0.00    -0.079 SA
ENDBRANCH   1  10
BRANCH   1  16
HETATM   16  C10 UNL     1     -10.039 -15.251   8.062  1.00  0.00     0.063 C 
HETATM   17  C11 UNL     1     -11.026 -15.675   9.133  1.00  0.00     0.281 C 
HETATM   18  N1  UNL     1     -11.051 -17.136   9.103  1.00  0.00     0.088 N 
HETATM   19  C12 UNL     1     -11.958 -17.534   8.040  1.00  0.00     0.272 C 
HETATM   20  C16 UNL     1      -9.746 -17.691   8.759  1.00  0.00     0.272 C 
HETATM   21  C13 UNL     1     -11.697 -16.679   6.832  1.00  0.00     0.035 C 
HETATM   22  C14 UNL     1     -10.241 -16.196   6.911  1.00  0.00    -0.002 C 
HETATM   23  C15 UNL     1      -9.440 -17.456   7.273  1.00  0.00     0.035 C 
ENDBRANCH   1  16
TORSDOF 4
ENDMDL
