MODEL 4
REMARK VINA RESULT: -5.593564007      1.978      5.462
REMARK  3 active torsions:
REMARK  status: ('A' for Active; 'I' for Inactive)
REMARK    1  A    between atoms: C2_2  and  C3_3 
REMARK    2  A    between atoms: C2_2  and  C4_6 
REMARK    3  A    between atoms: C9_21  and  O4_22 
ROOT
HETATM    1  C4  UNL     1     -13.685  25.195   5.568  1.00  0.00     0.095 A 
HETATM    2  N1  UNL     1     -13.679  23.888   5.913  1.00  0.00    -0.296 N 
ATOM      3  H1  UNL     1     -14.255  23.247   5.367  1.00  0.00     0.187 HD
HETATM    4  N2  UNL     1     -12.972  23.389   6.916  1.00  0.00    -0.284 N 
ATOM      5  H2  UNL     1     -13.005  22.393   7.131  1.00  0.00     0.188 HD
HETATM    6  C5  UNL     1     -12.215  24.220   7.643  1.00  0.00     0.141 A 
HETATM    7  N3  UNL     1     -11.515  23.705   8.686  1.00  0.00    -0.315 N 
ATOM      8  H3  UNL     1     -11.554  22.705   8.885  1.00  0.00     0.170 HD
HETATM    9  C6  UNL     1     -10.768  24.518   9.457  1.00  0.00     0.196 A 
HETATM   10  N4  UNL     1     -10.034  23.993  10.556  1.00  0.00    -0.063 NA
HETATM   11  N5  UNL     1     -10.736  25.834   9.173  1.00  0.00    -0.297 N 
ATOM     12  H5  UNL     1     -10.172  26.443   9.766  1.00  0.00     0.171 HD
HETATM   13  C7  UNL     1     -11.417  26.391   8.137  1.00  0.00     0.264 A 
HETATM   14  O3  UNL     1     -11.353  27.601   7.923  1.00  0.00    -0.267 OA
HETATM   15  C8  UNL     1     -12.171  25.557   7.354  1.00  0.00     0.113 A 
HETATM   16  C9  UNL     1     -12.911  26.062   6.308  1.00  0.00     0.114 A 
ENDROOT
BRANCH   1  17
HETATM   17  C2  UNL     1     -14.437  25.510   4.348  1.00  0.00     0.045 C 
HETATM   18  C1  UNL     1     -15.373  24.392   4.064  1.00  0.00     0.058 C 
BRANCH  17  19
HETATM   19  C3  UNL     1     -14.820  26.854   4.044  1.00  0.00     0.207 C 
HETATM   20  O1  UNL     1     -15.746  27.399   4.743  1.00  0.00    -0.644 OA
HETATM   21  O2  UNL     1     -14.311  27.684   3.071  1.00  0.00    -0.644 OA
ENDBRANCH  17  19
ENDBRANCH   1  17
BRANCH  16  22
HETATM   22  O4  UNL     1     -12.942  27.371   5.947  1.00  0.00    -0.357 OA
ATOM     23  H4  UNL     1     -12.556  27.991   6.554  1.00  0.00     0.217 HD
ENDBRANCH  16  22
TORSDOF 3
ENDMDL
