MODEL 2
REMARK VINA RESULT: -5.640431110      6.877      8.820
REMARK  3 active torsions:
REMARK  status: ('A' for Active; 'I' for Inactive)
REMARK    1  A    between atoms: C2_2  and  C3_3 
REMARK    2  A    between atoms: C2_2  and  C4_6 
REMARK    3  A    between atoms: C9_21  and  O4_22 
ROOT
HETATM    1  C4  UNL     1     -12.158  29.921   9.838  1.00  0.00     0.095 A 
HETATM    2  N1  UNL     1     -12.703  30.846  10.658  1.00  0.00    -0.296 N 
ATOM      3  H1  UNL     1     -13.682  30.735  10.922  1.00  0.00     0.187 HD
HETATM    4  N2  UNL     1     -12.043  31.889  11.141  1.00  0.00    -0.284 N 
ATOM      5  H2  UNL     1     -12.505  32.557  11.758  1.00  0.00     0.188 HD
HETATM    6  C5  UNL     1     -10.758  32.049  10.801  1.00  0.00     0.141 A 
HETATM    7  N3  UNL     1     -10.097  33.135  11.278  1.00  0.00    -0.315 N 
ATOM      8  H3  UNL     1     -10.572  33.791  11.898  1.00  0.00     0.170 HD
HETATM    9  C6  UNL     1      -8.813  33.343  10.930  1.00  0.00     0.196 A 
HETATM   10  N4  UNL     1      -8.110  34.479  11.418  1.00  0.00    -0.063 NA
HETATM   11  N5  UNL     1      -8.212  32.462  10.108  1.00  0.00    -0.297 N 
ATOM     12  H5  UNL     1      -7.241  32.631   9.845  1.00  0.00     0.171 HD
HETATM   13  C7  UNL     1      -8.834  31.360   9.612  1.00  0.00     0.264 A 
HETATM   14  O3  UNL     1      -8.236  30.588   8.862  1.00  0.00    -0.267 OA
HETATM   15  C8  UNL     1     -10.138  31.152   9.973  1.00  0.00     0.113 A 
HETATM   16  C9  UNL     1     -10.837  30.073   9.479  1.00  0.00     0.114 A 
ENDROOT
BRANCH   1  17
HETATM   17  C2  UNL     1     -13.028  28.782   9.525  1.00  0.00     0.045 C 
HETATM   18  C1  UNL     1     -13.397  28.103  10.795  1.00  0.00     0.058 C 
BRANCH  17  19
HETATM   19  C3  UNL     1     -13.971  28.845   8.451  1.00  0.00     0.207 C 
HETATM   20  O1  UNL     1     -13.767  28.116   7.417  1.00  0.00    -0.644 OA
HETATM   21  O2  UNL     1     -15.116  29.604   8.368  1.00  0.00    -0.644 OA
ENDBRANCH  17  19
ENDBRANCH   1  17
BRANCH  16  22
HETATM   22  O4  UNL     1     -10.316  29.135   8.646  1.00  0.00    -0.357 OA
ATOM     23  H4  UNL     1     -10.935  28.609   8.154  1.00  0.00     0.217 HD
ENDBRANCH  16  22
TORSDOF 3
ENDMDL
