MODEL 3
REMARK VINA RESULT: -5.618318910      6.915      8.675
REMARK  3 active torsions:
REMARK  status: ('A' for Active; 'I' for Inactive)
REMARK    1  A    between atoms: C2_2  and  C3_3 
REMARK    2  A    between atoms: C2_2  and  C4_6 
REMARK    3  A    between atoms: C9_21  and  O4_22 
ROOT
HETATM    1  C4  UNL     1     -12.668  30.120  10.041  1.00  0.00     0.095 A 
HETATM    2  N1  UNL     1     -13.059  31.087  10.900  1.00  0.00    -0.296 N 
ATOM      3  H1  UNL     1     -14.025  31.073  11.228  1.00  0.00     0.187 HD
HETATM    4  N2  UNL     1     -12.266  32.053  11.339  1.00  0.00    -0.284 N 
ATOM      5  H2  UNL     1     -12.615  32.758  11.989  1.00  0.00     0.188 HD
HETATM    6  C5  UNL     1     -10.997  32.084  10.914  1.00  0.00     0.141 A 
HETATM    7  N3  UNL     1     -10.199  33.093  11.349  1.00  0.00    -0.315 N 
ATOM      8  H3  UNL     1     -10.561  33.788  12.002  1.00  0.00     0.170 HD
HETATM    9  C6  UNL     1      -8.926  33.173  10.915  1.00  0.00     0.196 A 
HETATM   10  N4  UNL     1      -8.080  34.227  11.358  1.00  0.00    -0.063 NA
HETATM   11  N5  UNL     1      -8.474  32.244  10.051  1.00  0.00    -0.297 N 
ATOM     12  H5  UNL     1      -7.511  32.316   9.724  1.00  0.00     0.171 HD
HETATM   13  C7  UNL     1      -9.237  31.216   9.595  1.00  0.00     0.264 A 
HETATM   14  O3  UNL     1      -8.773  30.394   8.804  1.00  0.00    -0.267 OA
HETATM   15  C8  UNL     1     -10.529  31.138  10.043  1.00  0.00     0.113 A 
HETATM   16  C9  UNL     1     -11.365  30.141   9.594  1.00  0.00     0.114 A 
ENDROOT
BRANCH   1  17
HETATM   17  C2  UNL     1     -13.669  29.078   9.785  1.00  0.00     0.045 C 
HETATM   18  C1  UNL     1     -14.351  29.380   8.499  1.00  0.00     0.058 C 
BRANCH  17  19
HETATM   19  C3  UNL     1     -13.435  27.719  10.165  1.00  0.00     0.207 C 
HETATM   20  O1  UNL     1     -14.443  26.936  10.282  1.00  0.00    -0.644 OA
HETATM   21  O2  UNL     1     -12.232  27.104  10.428  1.00  0.00    -0.644 OA
ENDBRANCH  17  19
ENDBRANCH   1  17
BRANCH  16  22
HETATM   22  O4  UNL     1     -11.000  29.163   8.725  1.00  0.00    -0.357 OA
ATOM     23  H4  UNL     1     -10.916  29.411   7.812  1.00  0.00     0.217 HD
ENDBRANCH  16  22
TORSDOF 3
ENDMDL
