MODEL 5
REMARK VINA RESULT: -5.501653235      1.564      1.994
REMARK  3 active torsions:
REMARK  status: ('A' for Active; 'I' for Inactive)
REMARK    1  A    between atoms: C2_2  and  C3_3 
REMARK    2  A    between atoms: C2_2  and  C4_6 
REMARK    3  A    between atoms: C9_21  and  O4_22 
ROOT
HETATM    1  C4  UNL     1     -12.562  25.274   7.543  1.00  0.00     0.095 A 
HETATM    2  N1  UNL     1     -12.734  23.940   7.416  1.00  0.00    -0.296 N 
ATOM      3  H1  UNL     1     -12.321  23.335   8.126  1.00  0.00     0.187 HD
HETATM    4  N2  UNL     1     -13.404  23.370   6.426  1.00  0.00    -0.284 N 
ATOM      5  H2  UNL     1     -13.503  22.356   6.381  1.00  0.00     0.188 HD
HETATM    6  C5  UNL     1     -13.949  24.152   5.486  1.00  0.00     0.141 A 
HETATM    7  N3  UNL     1     -14.611  23.558   4.460  1.00  0.00    -0.315 N 
ATOM      8  H3  UNL     1     -14.705  22.543   4.431  1.00  0.00     0.170 HD
HETATM    9  C6  UNL     1     -15.143  24.314   3.481  1.00  0.00     0.196 A 
HETATM   10  N4  UNL     1     -15.835  23.705   2.397  1.00  0.00    -0.063 NA
HETATM   11  N5  UNL     1     -15.002  25.652   3.542  1.00  0.00    -0.297 N 
ATOM     12  H5  UNL     1     -15.403  26.216   2.793  1.00  0.00     0.171 HD
HETATM   13  C7  UNL     1     -14.351  26.287   4.552  1.00  0.00     0.264 A 
HETATM   14  O3  UNL     1     -14.250  27.514   4.558  1.00  0.00    -0.267 OA
HETATM   15  C8  UNL     1     -13.816  25.513   5.548  1.00  0.00     0.113 A 
HETATM   16  C9  UNL     1     -13.116  26.091   6.582  1.00  0.00     0.114 A 
ENDROOT
BRANCH   1  17
HETATM   17  C2  UNL     1     -11.897  25.698   8.781  1.00  0.00     0.045 C 
HETATM   18  C1  UNL     1     -10.498  26.081   8.461  1.00  0.00     0.058 C 
BRANCH  17  19
HETATM   19  C3  UNL     1     -12.613  26.400   9.801  1.00  0.00     0.207 C 
HETATM   20  O1  UNL     1     -12.033  26.601  10.926  1.00  0.00    -0.644 OA
HETATM   21  O2  UNL     1     -13.887  26.919   9.744  1.00  0.00    -0.644 OA
ENDBRANCH  17  19
ENDBRANCH   1  17
BRANCH  16  22
HETATM   22  O4  UNL     1     -12.921  27.428   6.729  1.00  0.00    -0.357 OA
ATOM     23  H4  UNL     1     -13.527  27.889   7.297  1.00  0.00     0.217 HD
ENDBRANCH  16  22
TORSDOF 3
ENDMDL
