MODEL 2
REMARK VINA RESULT: -5.856380961      1.528      2.059
REMARK  4 active torsions:
REMARK  status: ('A' for Active; 'I' for Inactive)
REMARK    1  A    between atoms: C3_10  and  C4_11 
REMARK    2  A    between atoms: C4_11  and  C5_12 
REMARK    3  A    between atoms: C5_12  and  C6_13 
REMARK    4  A    between atoms: C7_16  and  O3_17 
ROOT
HETATM    1  N1  UNL     1     -16.535  24.394   2.305  1.00  0.00    -0.063 NA
HETATM    2  C1  UNL     1     -15.719  24.962   3.321  1.00  0.00     0.196 A 
HETATM    3  N2  UNL     1     -15.224  24.193   4.307  1.00  0.00    -0.315 N 
ATOM      4  H2  UNL     1     -15.434  23.195   4.329  1.00  0.00     0.170 HD
HETATM    5  C2  UNL     1     -14.442  24.747   5.279  1.00  0.00     0.141 A 
HETATM    6  N3  UNL     1     -13.943  23.982   6.269  1.00  0.00    -0.284 N 
ATOM      7  H3  UNL     1     -14.162  22.985   6.276  1.00  0.00     0.188 HD
HETATM    8  N4  UNL     1     -13.184  24.469   7.228  1.00  0.00    -0.300 N 
ATOM      9  H4  UNL     1     -12.841  23.831   7.946  1.00  0.00     0.186 HD
HETATM   10  C3  UNL     1     -12.841  25.759   7.307  1.00  0.00     0.060 A 
HETATM   11  C7  UNL     1     -13.335  26.608   6.299  1.00  0.00     0.109 A 
HETATM   12  C8  UNL     1     -14.130  26.092   5.296  1.00  0.00     0.112 A 
HETATM   13  C9  UNL     1     -14.658  26.840   4.269  1.00  0.00     0.264 A 
HETATM   14  O4  UNL     1     -14.437  28.061   4.190  1.00  0.00    -0.267 OA
HETATM   15  N5  UNL     1     -15.429  26.276   3.317  1.00  0.00    -0.297 N 
ATOM     16  H5  UNL     1     -15.803  26.864   2.572  1.00  0.00     0.171 HD
ENDROOT
BRANCH  10  17
HETATM   17  C4  UNL     1     -12.001  26.357   8.348  1.00  0.00     0.072 C 
BRANCH  17  18
HETATM   18  C5  UNL     1     -10.534  26.156   8.150  1.00  0.00     0.119 C 
BRANCH  18  19
HETATM   19  C6  UNL     1      -9.775  27.402   8.035  1.00  0.00     0.172 C 
HETATM   20  O1  UNL     1     -10.354  28.459   7.686  1.00  0.00    -0.648 OA
HETATM   21  O2  UNL     1      -8.417  27.436   8.308  1.00  0.00    -0.648 OA
ENDBRANCH  18  19
ENDBRANCH  17  18
ENDBRANCH  10  17
BRANCH  11  22
HETATM   22  O3  UNL     1     -13.001  27.903   6.361  1.00  0.00    -0.358 OA
ATOM     23  H3  UNL     1     -13.440  28.498   5.765  1.00  0.00     0.217 HD
ENDBRANCH  11  22
TORSDOF 4
ENDMDL
