MODEL 1
REMARK VINA RESULT: -6.484428612      0.000      0.000
REMARK  4 active torsions:
REMARK  status: ('A' for Active; 'I' for Inactive)
REMARK    1  A    between atoms: C3_10  and  C4_11 
REMARK    2  A    between atoms: C4_11  and  C5_12 
REMARK    3  A    between atoms: C5_12  and  C6_13 
REMARK    4  A    between atoms: C7_16  and  O3_17 
ROOT
HETATM    1  N1  UNL     1     -16.707  24.392   2.378  1.00  0.00    -0.063 NA
HETATM    2  C1  UNL     1     -15.851  24.958   3.362  1.00  0.00     0.196 A 
HETATM    3  N2  UNL     1     -15.323  24.188   4.331  1.00  0.00    -0.315 N 
ATOM      4  H2  UNL     1     -15.537  23.191   4.362  1.00  0.00     0.170 HD
HETATM    5  C2  UNL     1     -14.503  24.740   5.271  1.00  0.00     0.141 A 
HETATM    6  N3  UNL     1     -13.971  23.974   6.243  1.00  0.00    -0.284 N 
ATOM      7  H3  UNL     1     -14.194  22.979   6.260  1.00  0.00     0.188 HD
HETATM    8  N4  UNL     1     -13.174  24.460   7.172  1.00  0.00    -0.300 N 
ATOM      9  H4  UNL     1     -12.807  23.821   7.878  1.00  0.00     0.186 HD
HETATM   10  C3  UNL     1     -12.822  25.748   7.236  1.00  0.00     0.060 A 
HETATM   11  C7  UNL     1     -13.348  26.597   6.245  1.00  0.00     0.109 A 
HETATM   12  C8  UNL     1     -14.183  26.084   5.273  1.00  0.00     0.112 A 
HETATM   13  C9  UNL     1     -14.745  26.832   4.266  1.00  0.00     0.264 A 
HETATM   14  O4  UNL     1     -14.521  28.052   4.176  1.00  0.00    -0.267 OA
HETATM   15  N5  UNL     1     -15.554  26.271   3.344  1.00  0.00    -0.297 N 
ATOM     16  H5  UNL     1     -15.953  26.858   2.613  1.00  0.00     0.171 HD
ENDROOT
BRANCH  10  17
HETATM   17  C4  UNL     1     -11.940  26.344   8.243  1.00  0.00     0.072 C 
BRANCH  17  18
HETATM   18  C5  UNL     1     -12.536  26.438   9.609  1.00  0.00     0.119 C 
BRANCH  18  19
HETATM   19  C6  UNL     1     -13.429  27.583   9.788  1.00  0.00     0.172 C 
HETATM   20  O1  UNL     1     -13.126  28.697   9.295  1.00  0.00    -0.648 OA
HETATM   21  O2  UNL     1     -14.613  27.460  10.497  1.00  0.00    -0.648 OA
ENDBRANCH  18  19
ENDBRANCH  17  18
ENDBRANCH  10  17
BRANCH  11  22
HETATM   22  O3  UNL     1     -13.006  27.890   6.292  1.00  0.00    -0.358 OA
ATOM     23  H3  UNL     1     -13.215  28.428   5.537  1.00  0.00     0.217 HD
ENDBRANCH  11  22
TORSDOF 4
ENDMDL
