MODEL 5
REMARK VINA RESULT: -5.323892853      2.338      5.682
REMARK  4 active torsions:
REMARK  status: ('A' for Active; 'I' for Inactive)
REMARK    1  A    between atoms: C3_10  and  C4_11 
REMARK    2  A    between atoms: C4_11  and  C5_12 
REMARK    3  A    between atoms: C5_12  and  C6_13 
REMARK    4  A    between atoms: C7_16  and  O3_17 
ROOT
HETATM    1  N1  UNL     1     -11.472  25.581  12.588  1.00  0.00    -0.063 NA
HETATM    2  C1  UNL     1     -11.788  25.828  11.224  1.00  0.00     0.196 A 
HETATM    3  N2  UNL     1     -12.108  24.812  10.403  1.00  0.00    -0.315 N 
ATOM      4  H2  UNL     1     -12.126  23.856  10.759  1.00  0.00     0.170 HD
HETATM    5  C2  UNL     1     -12.410  25.058   9.096  1.00  0.00     0.141 A 
HETATM    6  N3  UNL     1     -12.732  24.045   8.269  1.00  0.00    -0.284 N 
ATOM      7  H3  UNL     1     -12.746  23.095   8.641  1.00  0.00     0.188 HD
HETATM    8  N4  UNL     1     -13.031  24.232   7.001  1.00  0.00    -0.300 N 
ATOM      9  H4  UNL     1     -13.266  23.418   6.433  1.00  0.00     0.186 HD
HETATM   10  C3  UNL     1     -13.042  25.436   6.420  1.00  0.00     0.060 A 
HETATM   11  C7  UNL     1     -12.713  26.534   7.236  1.00  0.00     0.109 A 
HETATM   12  C8  UNL     1     -12.400  26.334   8.564  1.00  0.00     0.112 A 
HETATM   13  C9  UNL     1     -12.066  27.341   9.439  1.00  0.00     0.264 A 
HETATM   14  O4  UNL     1     -12.029  28.526   9.064  1.00  0.00    -0.267 OA
HETATM   15  N5  UNL     1     -11.771  27.080  10.729  1.00  0.00    -0.297 N 
ATOM     16  H5  UNL     1     -11.527  27.853  11.347  1.00  0.00     0.171 HD
ENDROOT
BRANCH  10  17
HETATM   17  C4  UNL     1     -13.367  25.705   5.016  1.00  0.00     0.072 C 
BRANCH  17  18
HETATM   18  C5  UNL     1     -14.814  25.967   4.756  1.00  0.00     0.119 C 
BRANCH  18  19
HETATM   19  C6  UNL     1     -15.104  27.344   4.353  1.00  0.00     0.172 C 
HETATM   20  O1  UNL     1     -15.255  27.623   3.139  1.00  0.00    -0.648 OA
HETATM   21  O2  UNL     1     -15.216  28.354   5.295  1.00  0.00    -0.648 OA
ENDBRANCH  18  19
ENDBRANCH  17  18
ENDBRANCH  10  17
BRANCH  11  22
HETATM   22  O3  UNL     1     -12.719  27.748   6.672  1.00  0.00    -0.358 OA
ATOM     23  H3  UNL     1     -12.677  27.792   5.723  1.00  0.00     0.217 HD
ENDBRANCH  11  22
TORSDOF 4
ENDMDL
