MODEL 7
REMARK VINA RESULT: -5.174561106      3.336      6.308
REMARK  4 active torsions:
REMARK  status: ('A' for Active; 'I' for Inactive)
REMARK    1  A    between atoms: C3_10  and  C4_11 
REMARK    2  A    between atoms: C4_11  and  C5_12 
REMARK    3  A    between atoms: C5_12  and  C6_13 
REMARK    4  A    between atoms: C7_16  and  O3_17 
ROOT
HETATM    1  N1  UNL     1     -11.961  27.119  12.779  1.00  0.00    -0.063 NA
HETATM    2  C1  UNL     1     -12.160  26.622  11.462  1.00  0.00     0.196 A 
HETATM    3  N2  UNL     1     -12.367  27.468  10.438  1.00  0.00    -0.315 N 
ATOM      4  H2  UNL     1     -12.382  28.474  10.603  1.00  0.00     0.170 HD
HETATM    5  C2  UNL     1     -12.557  26.982   9.177  1.00  0.00     0.141 A 
HETATM    6  N3  UNL     1     -12.765  27.824   8.147  1.00  0.00    -0.284 N 
ATOM      7  H3  UNL     1     -12.777  28.828   8.330  1.00  0.00     0.188 HD
HETATM    8  N4  UNL     1     -12.953  27.403   6.914  1.00  0.00    -0.300 N 
ATOM      9  H4  UNL     1     -13.104  28.098   6.182  1.00  0.00     0.186 HD
HETATM   10  C3  UNL     1     -12.955  26.110   6.572  1.00  0.00     0.060 A 
HETATM   11  C7  UNL     1     -12.743  25.183   7.609  1.00  0.00     0.109 A 
HETATM   12  C8  UNL     1     -12.546  25.628   8.900  1.00  0.00     0.112 A 
HETATM   13  C9  UNL     1     -12.332  24.801   9.977  1.00  0.00     0.264 A 
HETATM   14  O4  UNL     1     -12.302  23.566   9.837  1.00  0.00    -0.267 OA
HETATM   15  N5  UNL     1     -12.146  25.298  11.217  1.00  0.00    -0.297 N 
ATOM     16  H5  UNL     1     -11.990  24.653  11.990  1.00  0.00     0.171 HD
ENDROOT
BRANCH  10  17
HETATM   17  C4  UNL     1     -13.157  25.584   5.220  1.00  0.00     0.072 C 
BRANCH  17  18
HETATM   18  C5  UNL     1     -14.526  25.809   4.667  1.00  0.00     0.119 C 
BRANCH  18  19
HETATM   19  C6  UNL     1     -15.372  24.615   4.676  1.00  0.00     0.172 C 
HETATM   20  O1  UNL     1     -16.075  24.337   3.674  1.00  0.00    -0.648 OA
HETATM   21  O2  UNL     1     -15.413  23.778   5.780  1.00  0.00    -0.648 OA
ENDBRANCH  18  19
ENDBRANCH  17  18
ENDBRANCH  10  17
BRANCH  11  22
HETATM   22  O3  UNL     1     -12.742  23.883   7.286  1.00  0.00    -0.358 OA
ATOM     23  H3  UNL     1     -13.109  23.274   7.916  1.00  0.00     0.217 HD
ENDBRANCH  11  22
TORSDOF 4
ENDMDL
