MODEL 6
REMARK VINA RESULT: -5.194532366      2.563      5.878
REMARK  4 active torsions:
REMARK  status: ('A' for Active; 'I' for Inactive)
REMARK    1  A    between atoms: C3_10  and  C4_11 
REMARK    2  A    between atoms: C4_11  and  C5_12 
REMARK    3  A    between atoms: C5_12  and  C6_13 
REMARK    4  A    between atoms: C7_16  and  O3_17 
ROOT
HETATM    1  N1  UNL     1     -11.843  26.013  12.661  1.00  0.00    -0.063 NA
HETATM    2  C1  UNL     1     -12.081  26.170  11.268  1.00  0.00     0.196 A 
HETATM    3  N2  UNL     1     -12.327  25.098  10.494  1.00  0.00    -0.315 N 
ATOM      4  H2  UNL     1     -12.343  24.164  10.906  1.00  0.00     0.170 HD
HETATM    5  C2  UNL     1     -12.554  25.257   9.158  1.00  0.00     0.141 A 
HETATM    6  N3  UNL     1     -12.801  24.187   8.378  1.00  0.00    -0.284 N 
ATOM      7  H3  UNL     1     -12.814  23.261   8.805  1.00  0.00     0.188 HD
HETATM    8  N4  UNL     1     -13.027  24.290   7.084  1.00  0.00    -0.300 N 
ATOM      9  H4  UNL     1     -13.207  23.437   6.555  1.00  0.00     0.186 HD
HETATM   10  C3  UNL     1     -13.031  25.457   6.431  1.00  0.00     0.060 A 
HETATM   11  C7  UNL     1     -12.777  26.610   7.196  1.00  0.00     0.109 A 
HETATM   12  C8  UNL     1     -12.542  26.498   8.551  1.00  0.00     0.112 A 
HETATM   13  C9  UNL     1     -12.286  27.565   9.381  1.00  0.00     0.264 A 
HETATM   14  O4  UNL     1     -12.253  28.725   8.936  1.00  0.00    -0.267 OA
HETATM   15  N5  UNL     1     -12.063  27.389  10.699  1.00  0.00    -0.297 N 
ATOM     16  H5  UNL     1     -11.876  28.205  11.282  1.00  0.00     0.171 HD
ENDROOT
BRANCH  10  17
HETATM   17  C4  UNL     1     -13.276  25.632   4.997  1.00  0.00     0.072 C 
BRANCH  17  18
HETATM   18  C5  UNL     1     -14.696  25.930   4.644  1.00  0.00     0.119 C 
BRANCH  18  19
HETATM   19  C6  UNL     1     -15.503  24.739   4.379  1.00  0.00     0.172 C 
HETATM   20  O1  UNL     1     -15.596  23.839   5.248  1.00  0.00    -0.648 OA
HETATM   21  O2  UNL     1     -16.174  24.586   3.176  1.00  0.00    -0.648 OA
ENDBRANCH  18  19
ENDBRANCH  17  18
ENDBRANCH  10  17
BRANCH  11  22
HETATM   22  O3  UNL     1     -12.778  27.788   6.559  1.00  0.00    -0.358 OA
ATOM     23  H3  UNL     1     -13.135  28.537   7.023  1.00  0.00     0.217 HD
ENDBRANCH  11  22
TORSDOF 4
ENDMDL
