MODEL 1
REMARK VINA RESULT: -8.475332481      0.000      0.000
REMARK  4 active torsions:
REMARK  status: ('A' for Active; 'I' for Inactive)
REMARK    1  A    between atoms: C4_6  and  O2_7 
REMARK    2  A    between atoms: O2_7  and  C5_8 
REMARK    3  A    between atoms: C5_8  and  C6_9 
REMARK    4  A    between atoms: N2_11  and  C8_12 
ROOT
HETATM    1  C6  UNL     1     -22.681  26.317  -8.560  1.00  0.00     0.065 A 
HETATM    2  C7  UNL     1     -23.089  25.113  -9.098  1.00  0.00     0.136 A 
HETATM    3  N2  UNL     1     -22.593  24.975 -10.346  1.00  0.00    -0.280 N 
HETATM    4  N4  UNL     1     -21.893  26.077 -10.569  1.00  0.00    -0.020 NA
HETATM    5  N5  UNL     1     -21.932  26.886  -9.523  1.00  0.00    -0.285 N 
ATOM      6  H5  UNL     1     -21.470  27.793  -9.456  1.00  0.00     0.184 HD
ENDROOT
BRANCH   1   7
HETATM    7  C5  UNL     1     -22.969  26.880  -7.241  1.00  0.00     0.235 C 
BRANCH   7   8
HETATM    8  O2  UNL     1     -23.249  25.892  -6.283  1.00  0.00    -0.344 OA
BRANCH   8   9
HETATM    9  C4  UNL     1     -24.506  25.359  -6.073  1.00  0.00     0.087 A 
HETATM   10  C3  UNL     1     -25.645  26.129  -6.071  1.00  0.00     0.112 A 
HETATM   11  C2  UNL     1     -26.867  25.513  -5.852  1.00  0.00     0.250 A 
HETATM   12  N1  UNL     1     -26.988  24.193  -5.641  1.00  0.00    -0.318 N 
HETATM   13  O1  UNL     1     -27.908  26.226  -5.851  1.00  0.00    -0.268 OA
HETATM   14  C1  UNL     1     -28.286  23.605  -5.419  1.00  0.00     0.159 C 
HETATM   15  C22 UNL     1     -25.886  23.420  -5.640  1.00  0.00     0.050 A 
HETATM   16  C17 UNL     1     -24.655  24.006  -5.855  1.00  0.00     0.024 A 
HETATM   17  C21 UNL     1     -26.056  22.069  -5.419  1.00  0.00     0.031 A 
HETATM   18  C18 UNL     1     -23.540  23.212  -5.851  1.00  0.00     0.016 A 
HETATM   19  C19 UNL     1     -23.663  21.854  -5.634  1.00  0.00     0.001 A 
HETATM   20  C20 UNL     1     -24.911  21.285  -5.419  1.00  0.00     0.002 A 
ENDBRANCH   8   9
ENDBRANCH   7   8
ENDBRANCH   1   7
BRANCH   3  21
HETATM   21  C8  UNL     1     -22.765  23.875 -11.278  1.00  0.00     0.110 C 
HETATM   22  C9  UNL     1     -24.116  23.911 -11.931  1.00  0.00     0.064 C 
HETATM   23  C10 UNL     1     -24.565  22.574 -12.444  1.00  0.00     0.215 C 
HETATM   24  C11 UNL     1     -23.467  22.005 -13.307  1.00  0.00     0.004 C 
HETATM   25  N3  UNL     1     -24.585  21.627 -11.360  1.00  0.00    -0.060 N 
HETATM   26  C12 UNL     1     -22.681  21.248 -12.544  1.00  0.00     0.004 C 
HETATM   27  C13 UNL     1     -23.178  21.403 -11.135  1.00  0.00     0.215 C 
HETATM   28  C14 UNL     1     -22.481  22.596 -10.547  1.00  0.00     0.064 C 
HETATM   29  C15 UNL     1     -25.160  20.361 -11.794  1.00  0.00     0.273 C 
HETATM   30  C16 UNL     1     -25.296  22.073 -10.205  1.00  0.00     0.273 C 
ENDBRANCH   3  21
TORSDOF 4
ENDMDL
