MODEL 2
REMARK VINA RESULT: -8.307575701      2.467      4.173
REMARK  4 active torsions:
REMARK  status: ('A' for Active; 'I' for Inactive)
REMARK    1  A    between atoms: C4_6  and  O2_7 
REMARK    2  A    between atoms: O2_7  and  C5_8 
REMARK    3  A    between atoms: C5_8  and  C6_9 
REMARK    4  A    between atoms: N2_11  and  C8_12 
ROOT
HETATM    1  C6  UNL     1     -27.589  24.515  -5.966  1.00  0.00     0.065 A 
HETATM    2  C7  UNL     1     -26.440  24.337  -6.708  1.00  0.00     0.136 A 
HETATM    3  N2  UNL     1     -26.676  24.633  -8.004  1.00  0.00    -0.280 N 
HETATM    4  N4  UNL     1     -27.951  24.987  -8.055  1.00  0.00    -0.020 NA
HETATM    5  N5  UNL     1     -28.511  24.924  -6.858  1.00  0.00    -0.285 N 
ATOM      6  H5  UNL     1     -29.484  25.148  -6.645  1.00  0.00     0.184 HD
ENDROOT
BRANCH   1   7
HETATM    7  C5  UNL     1     -27.798  24.323  -4.531  1.00  0.00     0.235 C 
BRANCH   7   8
HETATM    8  O2  UNL     1     -26.881  23.420  -3.970  1.00  0.00    -0.344 OA
BRANCH   8   9
HETATM    9  C4  UNL     1     -25.623  23.777  -3.526  1.00  0.00     0.087 A 
HETATM   10  C3  UNL     1     -25.418  24.806  -2.638  1.00  0.00     0.112 A 
HETATM   11  C2  UNL     1     -24.122  25.099  -2.244  1.00  0.00     0.250 A 
HETATM   12  N1  UNL     1     -23.055  24.419  -2.692  1.00  0.00    -0.318 N 
HETATM   13  O1  UNL     1     -23.940  26.045  -1.428  1.00  0.00    -0.268 OA
HETATM   14  C1  UNL     1     -21.727  24.768  -2.247  1.00  0.00     0.159 C 
HETATM   15  C22 UNL     1     -23.233  23.408  -3.562  1.00  0.00     0.050 A 
HETATM   16  C17 UNL     1     -24.512  23.094  -3.972  1.00  0.00     0.024 A 
HETATM   17  C21 UNL     1     -22.109  22.736  -3.997  1.00  0.00     0.031 A 
HETATM   18  C18 UNL     1     -24.683  22.064  -4.857  1.00  0.00     0.016 A 
HETATM   19  C19 UNL     1     -23.587  21.364  -5.320  1.00  0.00     0.001 A 
HETATM   20  C20 UNL     1     -22.308  21.697  -4.894  1.00  0.00     0.002 A 
ENDBRANCH   8   9
ENDBRANCH   7   8
ENDBRANCH   1   7
BRANCH   3  21
HETATM   21  C8  UNL     1     -25.763  24.586  -9.131  1.00  0.00     0.110 C 
HETATM   22  C9  UNL     1     -26.412  23.984 -10.342  1.00  0.00     0.064 C 
HETATM   23  C10 UNL     1     -25.429  23.406 -11.319  1.00  0.00     0.215 C 
HETATM   24  C11 UNL     1     -24.390  24.456 -11.622  1.00  0.00     0.004 C 
HETATM   25  N3  UNL     1     -24.630  22.406 -10.661  1.00  0.00    -0.060 N 
HETATM   26  C12 UNL     1     -23.372  24.296 -10.778  1.00  0.00     0.004 C 
HETATM   27  C13 UNL     1     -23.778  23.212  -9.821  1.00  0.00     0.215 C 
HETATM   28  C14 UNL     1     -24.519  23.870  -8.693  1.00  0.00     0.064 C 
HETATM   29  C15 UNL     1     -23.772  21.722 -11.618  1.00  0.00     0.273 C 
HETATM   30  C16 UNL     1     -25.387  21.425  -9.952  1.00  0.00     0.273 C 
ENDBRANCH   3  21
TORSDOF 4
ENDMDL
