MODEL 5
REMARK VINA RESULT: -8.263685968      2.802      7.468
REMARK  4 active torsions:
REMARK  status: ('A' for Active; 'I' for Inactive)
REMARK    1  A    between atoms: C4_6  and  O2_7 
REMARK    2  A    between atoms: O2_7  and  C5_8 
REMARK    3  A    between atoms: C5_8  and  C6_9 
REMARK    4  A    between atoms: N2_11  and  C8_12 
ROOT
HETATM    1  C6  UNL     1     -25.513  21.008  -9.841  1.00  0.00     0.065 A 
HETATM    2  C7  UNL     1     -25.143  22.074  -9.046  1.00  0.00     0.136 A 
HETATM    3  N2  UNL     1     -25.266  21.741  -7.743  1.00  0.00    -0.280 N 
HETATM    4  N4  UNL     1     -25.705  20.492  -7.741  1.00  0.00    -0.020 NA
HETATM    5  N5  UNL     1     -25.858  20.038  -8.974  1.00  0.00    -0.285 N 
ATOM      6  H5  UNL     1     -26.186  19.106  -9.227  1.00  0.00     0.184 HD
ENDROOT
BRANCH   1   7
HETATM    7  C5  UNL     1     -25.532  20.912 -11.301  1.00  0.00     0.235 C 
BRANCH   7   8
HETATM    8  O2  UNL     1     -24.250  21.016 -11.863  1.00  0.00    -0.344 OA
BRANCH   8   9
HETATM    9  C4  UNL     1     -23.626  22.218 -12.139  1.00  0.00     0.087 A 
HETATM   10  C3  UNL     1     -24.311  23.318 -12.596  1.00  0.00     0.112 A 
HETATM   11  C2  UNL     1     -23.607  24.485 -12.848  1.00  0.00     0.250 A 
HETATM   12  N1  UNL     1     -22.282  24.588 -12.665  1.00  0.00    -0.318 N 
HETATM   13  O1  UNL     1     -24.242  25.492 -13.267  1.00  0.00    -0.268 OA
HETATM   14  C1  UNL     1     -21.600  25.829 -12.943  1.00  0.00     0.159 C 
HETATM   15  C22 UNL     1     -21.592  23.523 -12.218  1.00  0.00     0.050 A 
HETATM   16  C17 UNL     1     -22.266  22.347 -11.959  1.00  0.00     0.024 A 
HETATM   17  C21 UNL     1     -20.231  23.673 -12.043  1.00  0.00     0.031 A 
HETATM   18  C18 UNL     1     -21.555  21.269 -11.504  1.00  0.00     0.016 A 
HETATM   19  C19 UNL     1     -20.192  21.373 -11.315  1.00  0.00     0.001 A 
HETATM   20  C20 UNL     1     -19.533  22.566 -11.583  1.00  0.00     0.002 A 
ENDBRANCH   8   9
ENDBRANCH   7   8
ENDBRANCH   1   7
BRANCH   3  21
HETATM   21  C8  UNL     1     -24.990  22.546  -6.567  1.00  0.00     0.110 C 
HETATM   22  C9  UNL     1     -25.629  21.967  -5.340  1.00  0.00     0.064 C 
HETATM   23  C10 UNL     1     -25.861  22.979  -4.255  1.00  0.00     0.215 C 
HETATM   24  C11 UNL     1     -24.565  23.707  -4.002  1.00  0.00     0.004 C 
HETATM   25  N3  UNL     1     -26.685  24.044  -4.762  1.00  0.00    -0.060 N 
HETATM   26  C12 UNL     1     -24.539  24.798  -4.767  1.00  0.00     0.004 C 
HETATM   27  C13 UNL     1     -25.768  24.742  -5.630  1.00  0.00     0.215 C 
HETATM   28  C14 UNL     1     -25.411  23.956  -6.859  1.00  0.00     0.064 C 
HETATM   29  C15 UNL     1     -27.052  24.963  -3.694  1.00  0.00     0.273 C 
HETATM   30  C16 UNL     1     -27.879  23.605  -5.410  1.00  0.00     0.273 C 
ENDBRANCH   3  21
TORSDOF 4
ENDMDL
