MODEL 3
REMARK VINA RESULT: -8.300567813      4.107      8.915
REMARK  4 active torsions:
REMARK  status: ('A' for Active; 'I' for Inactive)
REMARK    1  A    between atoms: C4_6  and  O2_7 
REMARK    2  A    between atoms: O2_7  and  C5_8 
REMARK    3  A    between atoms: C5_8  and  C6_9 
REMARK    4  A    between atoms: N2_11  and  C8_12 
ROOT
HETATM    1  C6  UNL     1     -26.255  24.445  -5.115  1.00  0.00     0.065 A 
HETATM    2  C7  UNL     1     -27.011  24.409  -3.961  1.00  0.00     0.136 A 
HETATM    3  N2  UNL     1     -26.330  24.982  -2.946  1.00  0.00    -0.280 N 
HETATM    4  N4  UNL     1     -25.175  25.363  -3.470  1.00  0.00    -0.020 NA
HETATM    5  N5  UNL     1     -25.110  25.054  -4.755  1.00  0.00    -0.285 N 
ATOM      6  H5  UNL     1     -24.320  25.245  -5.372  1.00  0.00     0.184 HD
ENDROOT
BRANCH   1   7
HETATM    7  C5  UNL     1     -26.590  23.951  -6.451  1.00  0.00     0.235 C 
BRANCH   7   8
HETATM    8  O2  UNL     1     -25.653  23.023  -6.931  1.00  0.00    -0.344 OA
BRANCH   8   9
HETATM    9  C4  UNL     1     -25.078  23.090  -8.186  1.00  0.00     0.087 A 
HETATM   10  C3  UNL     1     -24.480  24.231  -8.665  1.00  0.00     0.112 A 
HETATM   11  C2  UNL     1     -23.928  24.212  -9.936  1.00  0.00     0.250 A 
HETATM   12  N1  UNL     1     -23.949  23.124 -10.722  1.00  0.00    -0.318 N 
HETATM   13  O1  UNL     1     -23.381  25.263 -10.370  1.00  0.00    -0.268 OA
HETATM   14  C1  UNL     1     -23.357  23.161 -12.037  1.00  0.00     0.159 C 
HETATM   15  C22 UNL     1     -24.528  21.996 -10.272  1.00  0.00     0.050 A 
HETATM   16  C17 UNL     1     -25.088  21.985  -9.011  1.00  0.00     0.024 A 
HETATM   17  C21 UNL     1     -24.528  20.901 -11.112  1.00  0.00     0.031 A 
HETATM   18  C18 UNL     1     -25.675  20.833  -8.562  1.00  0.00     0.016 A 
HETATM   19  C19 UNL     1     -25.698  19.713  -9.369  1.00  0.00     0.001 A 
HETATM   20  C20 UNL     1     -25.130  19.745 -10.636  1.00  0.00     0.002 A 
ENDBRANCH   8   9
ENDBRANCH   7   8
ENDBRANCH   1   7
BRANCH   3  21
HETATM   21  C8  UNL     1     -26.735  25.163  -1.564  1.00  0.00     0.110 C 
HETATM   22  C9  UNL     1     -26.919  26.613  -1.228  1.00  0.00     0.064 C 
HETATM   23  C10 UNL     1     -26.786  26.906   0.239  1.00  0.00     0.215 C 
HETATM   24  C11 UNL     1     -27.695  25.968   0.993  1.00  0.00     0.004 C 
HETATM   25  N3  UNL     1     -25.493  26.471   0.700  1.00  0.00    -0.060 N 
HETATM   26  C12 UNL     1     -26.997  24.885   1.329  1.00  0.00     0.004 C 
HETATM   27  C13 UNL     1     -25.644  25.036   0.694  1.00  0.00     0.215 C 
HETATM   28  C14 UNL     1     -25.737  24.462  -0.691  1.00  0.00     0.064 C 
HETATM   29  C15 UNL     1     -25.276  26.877   2.081  1.00  0.00     0.273 C 
HETATM   30  C16 UNL     1     -24.401  26.945  -0.087  1.00  0.00     0.273 C 
ENDBRANCH   3  21
TORSDOF 4
ENDMDL
