MODEL 18
REMARK VINA RESULT: -6.742099716      5.297      8.995
REMARK  8 active torsions:
REMARK  status: ('A' for Active; 'I' for Inactive)
REMARK    1  A    between atoms: N4_10  and  C5_11 
REMARK    2  A    between atoms: C6_13  and  C7_14 
REMARK    3  A    between atoms: C7_14  and  O2_15 
REMARK    4  A    between atoms: O2_15  and  P1_16 
REMARK    5  A    between atoms: P1_16  and  O5_19 
REMARK    6  A    between atoms: O5_19  and  P2_20 
REMARK    7  A    between atoms: C8_24  and  O9_25 
REMARK    8  A    between atoms: C9_27  and  O10_28 
ROOT
HETATM    1  C5  UNL     1     -18.360  -9.739 -32.614  1.00  0.00     0.262 C 
HETATM    2  O1  UNL     1     -19.213 -10.315 -33.553  1.00  0.00    -0.353 OA
HETATM    3  C6  UNL     1     -18.539 -10.425 -34.734  1.00  0.00     0.180 C 
HETATM    4  C8  UNL     1     -17.075 -10.610 -34.438  1.00  0.00     0.182 C 
HETATM    5  C9  UNL     1     -17.012 -10.284 -32.959  1.00  0.00     0.198 C 
ENDROOT
BRANCH   1   6
HETATM    6  N4  UNL     1     -18.834 -10.203 -31.312  1.00  0.00    -0.297 N 
HETATM    7  C2  UNL     1     -18.548  -9.595 -30.134  1.00  0.00     0.146 A 
HETATM    8  N2  UNL     1     -17.820  -8.500 -29.839  1.00  0.00    -0.314 N 
HETATM    9  C3  UNL     1     -19.183 -10.345 -29.158  1.00  0.00     0.146 A 
HETATM   10  C1  UNL     1     -17.715  -8.139 -28.564  1.00  0.00     0.196 A 
ATOM     11  H2  UNL     1     -17.360  -7.963 -30.574  1.00  0.00     0.170 HD
HETATM   12  N1  UNL     1     -16.954  -6.989 -28.232  1.00  0.00    -0.063 NA
HETATM   13  N5  UNL     1     -18.316  -8.837 -27.578  1.00  0.00    -0.295 N 
HETATM   14  C10 UNL     1     -19.051  -9.935 -27.843  1.00  0.00     0.278 A 
ATOM     15  H5  UNL     1     -18.213  -8.527 -26.612  1.00  0.00     0.171 HD
HETATM   16  O11 UNL     1     -19.618 -10.596 -26.908  1.00  0.00    -0.265 OA
HETATM   17  N3  UNL     1     -19.841 -11.385 -29.732  1.00  0.00    -0.345 N 
HETATM   18  C4  UNL     1     -19.615 -11.282 -31.055  1.00  0.00     0.188 A 
ATOM     19  H3  UNL     1     -20.394 -12.099 -29.258  1.00  0.00     0.167 HD
ENDBRANCH   1   6
BRANCH   5  20
HETATM   20  O10 UNL     1     -15.995  -9.315 -32.822  1.00  0.00    -0.388 OA
ATOM     21  H10 UNL     1     -15.991  -8.697 -33.542  1.00  0.00     0.210 HD
ENDBRANCH   5  20
BRANCH   3  22
HETATM   22  C7  UNL     1     -18.992 -11.589 -35.571  1.00  0.00     0.216 C 
BRANCH  22  23
HETATM   23  O2  UNL     1     -17.863 -12.327 -35.920  1.00  0.00    -0.287 OA
BRANCH  23  24
HETATM   24  P1  UNL     1     -17.966 -13.462 -36.963  1.00  0.00     0.418 P 
HETATM   25  O3  UNL     1     -18.714 -12.419 -38.001  1.00  0.00    -0.624 OA
HETATM   26  O4  UNL     1     -16.282 -13.488 -36.961  1.00  0.00    -0.624 OA
BRANCH  24  27
HETATM   27  O5  UNL     1     -17.893 -14.516 -38.081  1.00  0.00    -0.173 OA
BRANCH  27  28
HETATM   28  P2  UNL     1     -17.456 -15.990 -38.098  1.00  0.00     0.431 P 
HETATM   29  O6  UNL     1     -16.975 -17.432 -38.402  1.00  0.00    -0.616 OA
HETATM   30  O7  UNL     1     -18.552 -16.165 -39.346  1.00  0.00    -0.616 OA
HETATM   31  O8  UNL     1     -18.000 -16.308 -36.595  1.00  0.00    -0.616 OA
ENDBRANCH  27  28
ENDBRANCH  24  27
ENDBRANCH  23  24
ENDBRANCH  22  23
ENDBRANCH   3  22
BRANCH   4  32
HETATM   32  O9  UNL     1     -16.379  -9.675 -35.209  1.00  0.00    -0.390 OA
ATOM     33  H9  UNL     1     -15.540 -10.064 -35.430  1.00  0.00     0.210 HD
ENDBRANCH   4  32
TORSDOF 8
ENDMDL
