MODEL 12
REMARK VINA RESULT: -6.872870057      1.508      2.073
REMARK  8 active torsions:
REMARK  status: ('A' for Active; 'I' for Inactive)
REMARK    1  A    between atoms: N4_10  and  C5_11 
REMARK    2  A    between atoms: C6_13  and  C7_14 
REMARK    3  A    between atoms: C7_14  and  O2_15 
REMARK    4  A    between atoms: O2_15  and  P1_16 
REMARK    5  A    between atoms: P1_16  and  O5_19 
REMARK    6  A    between atoms: O5_19  and  P2_20 
REMARK    7  A    between atoms: C8_24  and  O9_25 
REMARK    8  A    between atoms: C9_27  and  O10_28 
ROOT
HETATM    1  C5  UNL     1     -19.473 -11.461 -38.556  1.00  0.00     0.262 C 
HETATM    2  O1  UNL     1     -18.755 -10.352 -38.113  1.00  0.00    -0.353 OA
HETATM    3  C6  UNL     1     -19.622  -9.307 -37.974  1.00  0.00     0.180 C 
HETATM    4  C8  UNL     1     -20.979  -9.852 -37.617  1.00  0.00     0.182 C 
HETATM    5  C9  UNL     1     -20.799 -11.334 -37.878  1.00  0.00     0.198 C 
ENDROOT
BRANCH   1   6
HETATM    6  N4  UNL     1     -18.721 -12.627 -38.098  1.00  0.00    -0.297 N 
HETATM    7  C2  UNL     1     -18.709 -13.826 -38.733  1.00  0.00     0.146 A 
HETATM    8  N2  UNL     1     -19.320 -14.257 -39.854  1.00  0.00    -0.314 N 
HETATM    9  C3  UNL     1     -17.884 -14.644 -37.979  1.00  0.00     0.146 A 
HETATM   10  C1  UNL     1     -19.115 -15.513 -40.239  1.00  0.00     0.196 A 
ATOM     11  H2  UNL     1     -19.924 -13.637 -40.393  1.00  0.00     0.170 HD
HETATM   12  N1  UNL     1     -19.748 -15.987 -41.417  1.00  0.00    -0.063 NA
HETATM   13  N5  UNL     1     -18.319 -16.348 -39.538  1.00  0.00    -0.295 N 
HETATM   14  C10 UNL     1     -17.695 -15.944 -38.414  1.00  0.00     0.278 A 
ATOM     15  H5  UNL     1     -18.186 -17.304 -39.867  1.00  0.00     0.171 HD
HETATM   16  O11 UNL     1     -16.943 -16.736 -37.751  1.00  0.00    -0.265 OA
HETATM   17  N3  UNL     1     -17.405 -13.956 -36.911  1.00  0.00    -0.345 N 
HETATM   18  C4  UNL     1     -17.930 -12.720 -37.000  1.00  0.00     0.188 A 
ATOM     19  H3  UNL     1     -16.776 -14.305 -36.188  1.00  0.00     0.167 HD
ENDBRANCH   1   6
BRANCH   5  20
HETATM   20  O10 UNL     1     -21.867 -11.708 -38.722  1.00  0.00    -0.388 OA
ATOM     21  H10 UNL     1     -22.598 -11.104 -38.663  1.00  0.00     0.210 HD
ENDBRANCH   5  20
BRANCH   3  22
HETATM   22  C7  UNL     1     -19.216  -8.337 -36.901  1.00  0.00     0.216 C 
BRANCH  22  23
HETATM   23  O2  UNL     1     -19.602  -8.874 -35.674  1.00  0.00    -0.287 OA
BRANCH  23  24
HETATM   24  P1  UNL     1     -18.538  -9.369 -34.670  1.00  0.00     0.418 P 
HETATM   25  O3  UNL     1     -18.875  -8.076 -33.700  1.00  0.00    -0.624 OA
HETATM   26  O4  UNL     1     -19.487 -10.748 -34.489  1.00  0.00    -0.624 OA
BRANCH  24  27
HETATM   27  O5  UNL     1     -17.635  -9.953 -33.570  1.00  0.00    -0.173 OA
BRANCH  27  28
HETATM   28  P2  UNL     1     -16.165  -9.711 -33.190  1.00  0.00     0.431 P 
HETATM   29  O6  UNL     1     -14.625  -9.671 -33.012  1.00  0.00    -0.616 OA
HETATM   30  O7  UNL     1     -16.072 -11.370 -33.023  1.00  0.00    -0.616 OA
HETATM   31  O8  UNL     1     -16.512  -8.858 -31.846  1.00  0.00    -0.616 OA
ENDBRANCH  27  28
ENDBRANCH  24  27
ENDBRANCH  23  24
ENDBRANCH  22  23
ENDBRANCH   3  22
BRANCH   4  32
HETATM   32  O9  UNL     1     -21.898  -9.274 -38.498  1.00  0.00    -0.390 OA
ATOM     33  H9  UNL     1     -21.496  -8.484 -38.841  1.00  0.00     0.210 HD
ENDBRANCH   4  32
TORSDOF 8
ENDMDL
