MODEL 6
REMARK VINA RESULT: -7.508261961      1.280      1.749
REMARK  8 active torsions:
REMARK  status: ('A' for Active; 'I' for Inactive)
REMARK    1  A    between atoms: N4_10  and  C5_11 
REMARK    2  A    between atoms: C6_13  and  C7_14 
REMARK    3  A    between atoms: C7_14  and  O2_15 
REMARK    4  A    between atoms: O2_15  and  P1_16 
REMARK    5  A    between atoms: P1_16  and  O5_19 
REMARK    6  A    between atoms: O5_19  and  P2_20 
REMARK    7  A    between atoms: C8_24  and  O9_25 
REMARK    8  A    between atoms: C9_27  and  O10_28 
ROOT
HETATM    1  C5  UNL     1     -20.442 -13.057 -36.820  1.00  0.00     0.262 C 
HETATM    2  O1  UNL     1     -19.724 -11.890 -37.080  1.00  0.00    -0.353 OA
HETATM    3  C6  UNL     1     -20.337 -10.857 -36.433  1.00  0.00     0.180 C 
HETATM    4  C8  UNL     1     -21.000 -11.391 -35.192  1.00  0.00     0.182 C 
HETATM    5  C9  UNL     1     -20.920 -12.888 -35.414  1.00  0.00     0.198 C 
ENDROOT
BRANCH   1   6
HETATM    6  N4  UNL     1     -19.483 -14.150 -36.957  1.00  0.00    -0.297 N 
HETATM    7  C2  UNL     1     -19.260 -14.830 -38.110  1.00  0.00     0.146 A 
HETATM    8  N2  UNL     1     -19.796 -14.718 -39.340  1.00  0.00    -0.314 N 
HETATM    9  C3  UNL     1     -18.288 -15.771 -37.809  1.00  0.00     0.146 A 
HETATM   10  C1  UNL     1     -19.369 -15.544 -40.291  1.00  0.00     0.196 A 
ATOM     11  H2  UNL     1     -20.511 -14.018 -39.537  1.00  0.00     0.170 HD
HETATM   12  N1  UNL     1     -19.920 -15.441 -41.593  1.00  0.00    -0.063 NA
HETATM   13  N5  UNL     1     -18.424 -16.475 -40.047  1.00  0.00    -0.295 N 
HETATM   14  C10 UNL     1     -17.870 -16.611 -38.827  1.00  0.00     0.278 A 
ATOM     15  H5  UNL     1     -18.122 -17.089 -40.804  1.00  0.00     0.171 HD
HETATM   16  O11 UNL     1     -16.975 -17.494 -38.598  1.00  0.00    -0.265 OA
HETATM   17  N3  UNL     1     -17.929 -15.662 -36.504  1.00  0.00    -0.345 N 
HETATM   18  C4  UNL     1     -18.673 -14.663 -35.997  1.00  0.00     0.188 A 
ATOM     19  H3  UNL     1     -17.236 -16.224 -36.009  1.00  0.00     0.167 HD
ENDBRANCH   1   6
BRANCH   5  20
HETATM   20  O10 UNL     1     -22.233 -13.373 -35.237  1.00  0.00    -0.388 OA
ATOM     21  H10 UNL     1     -22.245 -14.285 -34.970  1.00  0.00     0.210 HD
ENDBRANCH   5  20
BRANCH   3  22
HETATM   22  C7  UNL     1     -19.386  -9.769 -36.018  1.00  0.00     0.216 C 
BRANCH  22  23
HETATM   23  O2  UNL     1     -18.652 -10.238 -34.931  1.00  0.00    -0.287 OA
BRANCH  23  24
HETATM   24  P1  UNL     1     -17.252  -9.657 -34.627  1.00  0.00     0.418 P 
HETATM   25  O3  UNL     1     -16.673 -10.381 -35.992  1.00  0.00    -0.624 OA
HETATM   26  O4  UNL     1     -17.954  -8.135 -34.789  1.00  0.00    -0.624 OA
BRANCH  24  27
HETATM   27  O5  UNL     1     -15.912  -8.925 -34.452  1.00  0.00    -0.173 OA
BRANCH  27  28
HETATM   28  P2  UNL     1     -14.804  -9.017 -33.389  1.00  0.00     0.431 P 
HETATM   29  O6  UNL     1     -13.583  -8.866 -32.446  1.00  0.00    -0.616 OA
HETATM   30  O7  UNL     1     -13.743  -8.879 -34.672  1.00  0.00    -0.616 OA
HETATM   31  O8  UNL     1     -15.194 -10.527 -32.920  1.00  0.00    -0.616 OA
ENDBRANCH  27  28
ENDBRANCH  24  27
ENDBRANCH  23  24
ENDBRANCH  22  23
ENDBRANCH   3  22
BRANCH   4  32
HETATM   32  O9  UNL     1     -22.320 -10.931 -35.201  1.00  0.00    -0.390 OA
ATOM     33  H9  UNL     1     -22.302 -10.026 -34.910  1.00  0.00     0.210 HD
ENDBRANCH   4  32
TORSDOF 8
ENDMDL
