MODEL 15
REMARK VINA RESULT: -6.796552869      4.506      5.829
REMARK  8 active torsions:
REMARK  status: ('A' for Active; 'I' for Inactive)
REMARK    1  A    between atoms: N4_10  and  C5_11 
REMARK    2  A    between atoms: C6_13  and  C7_14 
REMARK    3  A    between atoms: C7_14  and  O2_15 
REMARK    4  A    between atoms: O2_15  and  P1_16 
REMARK    5  A    between atoms: P1_16  and  O5_19 
REMARK    6  A    between atoms: O5_19  and  P2_20 
REMARK    7  A    between atoms: C8_24  and  O9_25 
REMARK    8  A    between atoms: C9_27  and  O10_28 
ROOT
HETATM    1  C5  UNL     1     -21.177 -11.884 -32.737  1.00  0.00     0.262 C 
HETATM    2  O1  UNL     1     -19.967 -11.986 -33.421  1.00  0.00    -0.353 OA
HETATM    3  C6  UNL     1     -19.901 -10.969 -34.328  1.00  0.00     0.180 C 
HETATM    4  C8  UNL     1     -20.673  -9.794 -33.792  1.00  0.00     0.182 C 
HETATM    5  C9  UNL     1     -21.411 -10.412 -32.621  1.00  0.00     0.198 C 
ENDROOT
BRANCH   1   6
HETATM    6  N4  UNL     1     -20.952 -12.517 -31.439  1.00  0.00    -0.297 N 
HETATM    7  C2  UNL     1     -20.564 -13.807 -31.276  1.00  0.00     0.146 A 
HETATM    8  N2  UNL     1     -20.299 -14.786 -32.162  1.00  0.00    -0.314 N 
HETATM    9  C3  UNL     1     -20.467 -14.001 -29.908  1.00  0.00     0.146 A 
HETATM   10  C1  UNL     1     -19.932 -15.976 -31.694  1.00  0.00     0.196 A 
ATOM     11  H2  UNL     1     -20.377 -14.621 -33.165  1.00  0.00     0.170 HD
HETATM   12  N1  UNL     1     -19.648 -17.021 -32.610  1.00  0.00    -0.063 NA
HETATM   13  N5  UNL     1     -19.823 -16.213 -30.370  1.00  0.00    -0.295 N 
HETATM   14  C10 UNL     1     -20.082 -15.253 -29.461  1.00  0.00     0.278 A 
ATOM     15  H5  UNL     1     -19.538 -17.139 -30.051  1.00  0.00     0.171 HD
HETATM   16  O11 UNL     1     -19.979 -15.480 -28.208  1.00  0.00    -0.265 OA
HETATM   17  N3  UNL     1     -20.789 -12.854 -29.256  1.00  0.00    -0.345 N 
HETATM   18  C4  UNL     1     -21.084 -11.954 -30.212  1.00  0.00     0.188 A 
ATOM     19  H3  UNL     1     -20.804 -12.705 -28.247  1.00  0.00     0.167 HD
ENDBRANCH   1   6
BRANCH   5  20
HETATM   20  O10 UNL     1     -22.770 -10.074 -32.802  1.00  0.00    -0.388 OA
ATOM     21  H10 UNL     1     -23.199  -9.869 -31.980  1.00  0.00     0.210 HD
ENDBRANCH   5  20
BRANCH   3  22
HETATM   22  C7  UNL     1     -18.497 -10.511 -34.606  1.00  0.00     0.216 C 
BRANCH  22  23
HETATM   23  O2  UNL     1     -17.831 -10.417 -33.386  1.00  0.00    -0.287 OA
BRANCH  23  24
HETATM   24  P1  UNL     1     -16.349  -9.980 -33.338  1.00  0.00     0.418 P 
HETATM   25  O3  UNL     1     -15.922 -11.529 -32.957  1.00  0.00    -0.624 OA
HETATM   26  O4  UNL     1     -16.509  -9.594 -34.969  1.00  0.00    -0.624 OA
BRANCH  24  27
HETATM   27  O5  UNL     1     -14.864  -9.612 -33.486  1.00  0.00    -0.173 OA
BRANCH  27  28
HETATM   28  P2  UNL     1     -14.114  -8.270 -33.451  1.00  0.00     0.431 P 
HETATM   29  O6  UNL     1     -13.433  -6.899 -33.700  1.00  0.00    -0.616 OA
HETATM   30  O7  UNL     1     -13.295  -8.842 -34.790  1.00  0.00    -0.616 OA
HETATM   31  O8  UNL     1     -13.424  -8.539 -32.000  1.00  0.00    -0.616 OA
ENDBRANCH  27  28
ENDBRANCH  24  27
ENDBRANCH  23  24
ENDBRANCH  22  23
ENDBRANCH   3  22
BRANCH   4  32
HETATM   32  O9  UNL     1     -21.548  -9.381 -34.802  1.00  0.00    -0.390 OA
ATOM     33  H9  UNL     1     -21.038  -8.868 -35.419  1.00  0.00     0.210 HD
ENDBRANCH   4  32
TORSDOF 8
ENDMDL
