MODEL 1
REMARK VINA RESULT: -8.622506096      0.000      0.000
REMARK  8 active torsions:
REMARK  status: ('A' for Active; 'I' for Inactive)
REMARK    1  A    between atoms: N4_10  and  C5_11 
REMARK    2  A    between atoms: C6_13  and  C7_14 
REMARK    3  A    between atoms: C7_14  and  O2_15 
REMARK    4  A    between atoms: O2_15  and  P1_16 
REMARK    5  A    between atoms: P1_16  and  O5_19 
REMARK    6  A    between atoms: O5_19  and  P2_20 
REMARK    7  A    between atoms: C8_24  and  O9_25 
REMARK    8  A    between atoms: C9_27  and  O10_28 
ROOT
HETATM    1  C5  UNL     1     -18.972 -12.087 -37.450  1.00  0.00     0.262 C 
HETATM    2  O1  UNL     1     -18.217 -11.284 -36.596  1.00  0.00    -0.353 OA
HETATM    3  C6  UNL     1     -19.026 -10.300 -36.106  1.00  0.00     0.180 C 
HETATM    4  C8  UNL     1     -20.434 -10.827 -36.031  1.00  0.00     0.182 C 
HETATM    5  C9  UNL     1     -20.329 -12.115 -36.823  1.00  0.00     0.198 C 
ENDROOT
BRANCH   1   6
HETATM    6  N4  UNL     1     -18.324 -13.396 -37.437  1.00  0.00    -0.297 N 
HETATM    7  C2  UNL     1     -18.494 -14.341 -38.396  1.00  0.00     0.146 A 
HETATM    8  N2  UNL     1     -19.229 -14.358 -39.524  1.00  0.00    -0.314 N 
HETATM    9  C3  UNL     1     -17.712 -15.417 -38.006  1.00  0.00     0.146 A 
HETATM   10  C1  UNL     1     -19.195 -15.450 -40.282  1.00  0.00     0.196 A 
ATOM     11  H2  UNL     1     -19.797 -13.554 -39.790  1.00  0.00     0.170 HD
HETATM   12  N1  UNL     1     -19.962 -15.488 -41.474  1.00  0.00    -0.063 NA
HETATM   13  N5  UNL     1     -18.448 -16.522 -39.945  1.00  0.00    -0.295 N 
HETATM   14  C10 UNL     1     -17.703 -16.534 -38.823  1.00  0.00     0.278 A 
ATOM     15  H5  UNL     1     -18.448 -17.341 -40.553  1.00  0.00     0.171 HD
HETATM   16  O11 UNL     1     -16.997 -17.551 -38.505  1.00  0.00    -0.265 OA
HETATM   17  N3  UNL     1     -17.082 -15.129 -36.838  1.00  0.00    -0.345 N 
HETATM   18  C4  UNL     1     -17.470 -13.886 -36.504  1.00  0.00     0.188 A 
ATOM     19  H3  UNL     1     -16.444 -15.734 -36.320  1.00  0.00     0.167 HD
ENDBRANCH   1   6
BRANCH   5  20
HETATM   20  O10 UNL     1     -21.360 -12.059 -37.786  1.00  0.00    -0.388 OA
ATOM     21  H10 UNL     1     -21.903 -11.286 -37.684  1.00  0.00     0.210 HD
ENDBRANCH   5  20
BRANCH   3  22
HETATM   22  C7  UNL     1     -18.632  -9.837 -34.731  1.00  0.00     0.216 C 
BRANCH  22  23
HETATM   23  O2  UNL     1     -17.633 -10.690 -34.265  1.00  0.00    -0.287 OA
BRANCH  23  24
HETATM   24  P1  UNL     1     -16.245 -10.130 -33.884  1.00  0.00     0.418 P 
HETATM   25  O3  UNL     1     -16.982  -8.840 -33.162  1.00  0.00    -0.624 OA
HETATM   26  O4  UNL     1     -16.039 -11.525 -32.964  1.00  0.00    -0.624 OA
BRANCH  24  27
HETATM   27  O5  UNL     1     -14.891  -9.665 -33.321  1.00  0.00    -0.173 OA
BRANCH  27  28
HETATM   28  P2  UNL     1     -14.155  -8.315 -33.358  1.00  0.00     0.431 P 
HETATM   29  O6  UNL     1     -13.509  -6.941 -33.672  1.00  0.00    -0.616 OA
HETATM   30  O7  UNL     1     -13.435  -8.895 -34.749  1.00  0.00    -0.616 OA
HETATM   31  O8  UNL     1     -13.353  -8.562 -31.961  1.00  0.00    -0.616 OA
ENDBRANCH  27  28
ENDBRANCH  24  27
ENDBRANCH  23  24
ENDBRANCH  22  23
ENDBRANCH   3  22
BRANCH   4  32
HETATM   32  O9  UNL     1     -21.257  -9.890 -36.663  1.00  0.00    -0.390 OA
ATOM     33  H9  UNL     1     -21.721 -10.348 -37.354  1.00  0.00     0.210 HD
ENDBRANCH   4  32
TORSDOF 8
ENDMDL
