MODEL 13
REMARK VINA RESULT: -6.862840748      5.592      8.587
REMARK  8 active torsions:
REMARK  status: ('A' for Active; 'I' for Inactive)
REMARK    1  A    between atoms: N4_10  and  C5_11 
REMARK    2  A    between atoms: C6_13  and  C7_14 
REMARK    3  A    between atoms: C7_14  and  O2_15 
REMARK    4  A    between atoms: O2_15  and  P1_16 
REMARK    5  A    between atoms: P1_16  and  O5_19 
REMARK    6  A    between atoms: O5_19  and  P2_20 
REMARK    7  A    between atoms: C8_24  and  O9_25 
REMARK    8  A    between atoms: C9_27  and  O10_28 
ROOT
HETATM    1  C5  UNL     1     -18.532  -9.601 -32.366  1.00  0.00     0.262 C 
HETATM    2  O1  UNL     1     -17.149  -9.443 -32.283  1.00  0.00    -0.353 OA
HETATM    3  C6  UNL     1     -16.574 -10.146 -33.301  1.00  0.00     0.180 C 
HETATM    4  C8  UNL     1     -17.529 -10.175 -34.465  1.00  0.00     0.182 C 
HETATM    5  C9  UNL     1     -18.806  -9.657 -33.835  1.00  0.00     0.198 C 
ENDROOT
BRANCH   1   6
HETATM    6  N4  UNL     1     -19.105  -8.415 -31.736  1.00  0.00    -0.297 N 
HETATM    7  C2  UNL     1     -18.694  -7.909 -30.545  1.00  0.00     0.146 A 
HETATM    8  N2  UNL     1     -17.740  -8.304 -29.680  1.00  0.00    -0.314 N 
HETATM    9  C3  UNL     1     -19.487  -6.797 -30.315  1.00  0.00     0.146 A 
HETATM   10  C1  UNL     1     -17.563  -7.593 -28.571  1.00  0.00     0.196 A 
ATOM     11  H2  UNL     1     -17.168  -9.127 -29.871  1.00  0.00     0.170 HD
HETATM   12  N1  UNL     1     -16.563  -7.992 -27.647  1.00  0.00    -0.063 NA
HETATM   13  N5  UNL     1     -18.310  -6.502 -28.302  1.00  0.00    -0.295 N 
HETATM   14  C10 UNL     1     -19.271  -6.083 -29.149  1.00  0.00     0.278 A 
ATOM     15  H5  UNL     1     -18.143  -5.983 -27.440  1.00  0.00     0.171 HD
HETATM   16  O11 UNL     1     -19.978  -5.050 -28.892  1.00  0.00    -0.265 OA
HETATM   17  N3  UNL     1     -20.358  -6.632 -31.343  1.00  0.00    -0.345 N 
HETATM   18  C4  UNL     1     -20.110  -7.634 -32.205  1.00  0.00     0.188 A 
ATOM     19  H3  UNL     1     -21.060  -5.897 -31.441  1.00  0.00     0.167 HD
ENDBRANCH   1   6
BRANCH   5  20
HETATM   20  O10 UNL     1     -19.803 -10.604 -34.154  1.00  0.00    -0.388 OA
ATOM     21  H10 UNL     1     -20.507 -10.224 -34.666  1.00  0.00     0.210 HD
ENDBRANCH   5  20
BRANCH   3  22
HETATM   22  C7  UNL     1     -15.280  -9.548 -33.779  1.00  0.00     0.216 C 
BRANCH  22  23
HETATM   23  O2  UNL     1     -14.683  -8.907 -32.696  1.00  0.00    -0.287 OA
BRANCH  23  24
HETATM   24  P1  UNL     1     -13.915  -7.582 -32.901  1.00  0.00     0.418 P 
HETATM   25  O3  UNL     1     -13.043  -7.895 -31.535  1.00  0.00    -0.624 OA
HETATM   26  O4  UNL     1     -13.358  -8.240 -34.348  1.00  0.00    -0.624 OA
BRANCH  24  27
HETATM   27  O5  UNL     1     -13.005  -6.379 -33.200  1.00  0.00    -0.173 OA
BRANCH  27  28
HETATM   28  P2  UNL     1     -13.021  -4.917 -32.724  1.00  0.00     0.431 P 
HETATM   29  O6  UNL     1     -13.326  -3.483 -32.220  1.00  0.00    -0.616 OA
HETATM   30  O7  UNL     1     -14.209  -4.691 -33.876  1.00  0.00    -0.616 OA
HETATM   31  O8  UNL     1     -11.488  -4.610 -33.183  1.00  0.00    -0.616 OA
ENDBRANCH  27  28
ENDBRANCH  24  27
ENDBRANCH  23  24
ENDBRANCH  22  23
ENDBRANCH   3  22
BRANCH   4  32
HETATM   32  O9  UNL     1     -17.647 -11.509 -34.866  1.00  0.00    -0.390 OA
ATOM     33  H9  UNL     1     -16.787 -11.904 -34.776  1.00  0.00     0.210 HD
ENDBRANCH   4  32
TORSDOF 8
ENDMDL
