MODEL 4
REMARK VINA RESULT: -6.750670514      1.073      1.110
REMARK  3 active torsions:
REMARK  status: ('A' for Active; 'I' for Inactive)
REMARK    1  A    between atoms: O1_2  and  C2_3 
REMARK    2  A    between atoms: C6_7  and  C7_8 
REMARK    3  A    between atoms: C7_8  and  C8_9 
ROOT
HETATM    1  C2  UNL     1      14.377  10.134  -2.380  1.00  0.00     0.070 A 
HETATM    2  C3  UNL     1      15.757  10.029  -2.343  1.00  0.00     0.038 A 
HETATM    3  C4  UNL     1      16.429  10.153  -1.150  1.00  0.00     0.017 A 
HETATM    4  C5  UNL     1      15.749  10.384   0.020  1.00  0.00     0.006 A 
HETATM    5  C6  UNL     1      16.114  10.564   1.350  1.00  0.00    -0.013 A 
HETATM    6  C9  UNL     1      14.968  10.768   2.080  1.00  0.00     0.151 A 
HETATM    7  O4  UNL     1      13.972  10.713   1.219  1.00  0.00    -0.321 OA
HETATM    8  C10 UNL     1      14.381  10.491   0.005  1.00  0.00     0.088 A 
HETATM    9  C11 UNL     1      13.705  10.362  -1.204  1.00  0.00     0.074 A 
ENDROOT
BRANCH   5  10
HETATM   10  C7  UNL     1      17.490  10.508   1.839  1.00  0.00     0.154 C 
BRANCH  10  11
HETATM   11  C8  UNL     1      18.256  11.759   1.708  1.00  0.00     0.177 C 
HETATM   12  O2  UNL     1      17.741  12.902   1.484  1.00  0.00    -0.648 OA
HETATM   13  O3  UNL     1      19.654  11.736   1.830  1.00  0.00    -0.648 OA
ENDBRANCH  10  11
ENDBRANCH   5  10
BRANCH   1  14
HETATM   14  O1  UNL     1      13.653  10.020  -3.553  1.00  0.00    -0.356 OA
HETATM   15  C1  UNL     1      14.233   9.736  -4.804  1.00  0.00     0.210 C 
ENDBRANCH   1  14
TORSDOF 3
ENDMDL
