MODEL 12
REMARK VINA RESULT: -6.566762601      2.614      4.827
REMARK  3 active torsions:
REMARK  status: ('A' for Active; 'I' for Inactive)
REMARK    1  A    between atoms: O1_2  and  C2_3 
REMARK    2  A    between atoms: C6_7  and  C7_8 
REMARK    3  A    between atoms: C7_8  and  C8_9 
ROOT
HETATM    1  C2  UNL     1      14.657   9.279   3.927  1.00  0.00     0.070 A 
HETATM    2  C3  UNL     1      15.565  10.247   4.323  1.00  0.00     0.038 A 
HETATM    3  C4  UNL     1      16.318  10.916   3.387  1.00  0.00     0.017 A 
HETATM    4  C5  UNL     1      16.187  10.636   2.049  1.00  0.00     0.006 A 
HETATM    5  C6  UNL     1      16.784  11.106   0.884  1.00  0.00    -0.013 A 
HETATM    6  C9  UNL     1      16.234  10.427  -0.177  1.00  0.00     0.151 A 
HETATM    7  O4  UNL     1      15.354   9.593   0.339  1.00  0.00    -0.321 OA
HETATM    8  C10 UNL     1      15.293   9.681   1.636  1.00  0.00     0.088 A 
HETATM    9  C11 UNL     1      14.532   9.008   2.586  1.00  0.00     0.074 A 
ENDROOT
BRANCH   5  10
HETATM   10  C7  UNL     1      17.795  12.160   0.846  1.00  0.00     0.154 C 
BRANCH  10  11
HETATM   11  C8  UNL     1      19.184  11.707   1.035  1.00  0.00     0.177 C 
HETATM   12  O2  UNL     1      20.011  11.500   0.089  1.00  0.00    -0.648 OA
HETATM   13  O3  UNL     1      19.671  11.475   2.330  1.00  0.00    -0.648 OA
ENDBRANCH  10  11
ENDBRANCH   5  10
BRANCH   1  14
HETATM   14  O1  UNL     1      13.879   8.576   4.827  1.00  0.00    -0.356 OA
HETATM   15  C1  UNL     1      13.877   8.818   6.214  1.00  0.00     0.210 C 
ENDBRANCH   1  14
TORSDOF 3
ENDMDL
