MODEL 11
REMARK VINA RESULT: -6.567654428      4.173      5.094
REMARK  3 active torsions:
REMARK  status: ('A' for Active; 'I' for Inactive)
REMARK    1  A    between atoms: O1_2  and  C2_3 
REMARK    2  A    between atoms: C6_7  and  C7_8 
REMARK    3  A    between atoms: C7_8  and  C8_9 
ROOT
HETATM    1  C2  UNL     1      14.496   9.373   4.226  1.00  0.00     0.070 A 
HETATM    2  C3  UNL     1      15.071   8.907   3.054  1.00  0.00     0.038 A 
HETATM    3  C4  UNL     1      15.921   9.712   2.333  1.00  0.00     0.017 A 
HETATM    4  C5  UNL     1      16.213  10.985   2.755  1.00  0.00     0.006 A 
HETATM    5  C6  UNL     1      16.997  12.025   2.269  1.00  0.00    -0.013 A 
HETATM    6  C9  UNL     1      16.887  13.082   3.141  1.00  0.00     0.151 A 
HETATM    7  O4  UNL     1      16.072  12.683   4.097  1.00  0.00    -0.321 OA
HETATM    8  C10 UNL     1      15.654  11.465   3.912  1.00  0.00     0.088 A 
HETATM    9  C11 UNL     1      14.796  10.648   4.641  1.00  0.00     0.074 A 
ENDROOT
BRANCH   5  10
HETATM   10  C7  UNL     1      17.803  11.949   1.052  1.00  0.00     0.154 C 
BRANCH  10  11
HETATM   11  C8  UNL     1      19.203  11.537   1.250  1.00  0.00     0.177 C 
HETATM   12  O2  UNL     1      19.687  11.129   2.354  1.00  0.00    -0.648 OA
HETATM   13  O3  UNL     1      20.101  11.582   0.172  1.00  0.00    -0.648 OA
ENDBRANCH  10  11
ENDBRANCH   5  10
BRANCH   1  14
HETATM   14  O1  UNL     1      13.633   8.607   4.987  1.00  0.00    -0.356 OA
HETATM   15  C1  UNL     1      13.601   8.632   6.394  1.00  0.00     0.210 C 
ENDBRANCH   1  14
TORSDOF 3
ENDMDL
