MODEL 2
REMARK VINA RESULT: -7.141814098      1.029      1.152
REMARK  3 active torsions:
REMARK  status: ('A' for Active; 'I' for Inactive)
REMARK    1  A    between atoms: O1_2  and  C2_3 
REMARK    2  A    between atoms: C6_7  and  C7_8 
REMARK    3  A    between atoms: C7_8  and  C8_9 
ROOT
HETATM    1  C2  UNL     1      13.796   9.989  -2.296  1.00  0.00     0.070 A 
HETATM    2  C3  UNL     1      15.055   9.940  -2.872  1.00  0.00     0.038 A 
HETATM    3  C4  UNL     1      16.171  10.221  -2.122  1.00  0.00     0.017 A 
HETATM    4  C5  UNL     1      16.061  10.557  -0.795  1.00  0.00     0.006 A 
HETATM    5  C6  UNL     1      16.960  10.899   0.210  1.00  0.00    -0.013 A 
HETATM    6  C9  UNL     1      16.241  11.140   1.356  1.00  0.00     0.151 A 
HETATM    7  O4  UNL     1      14.975  10.953   1.041  1.00  0.00    -0.321 OA
HETATM    8  C10 UNL     1      14.823  10.611  -0.205  1.00  0.00     0.088 A 
HETATM    9  C11 UNL     1      13.696  10.323  -0.968  1.00  0.00     0.074 A 
ENDROOT
BRANCH   5  10
HETATM   10  C7  UNL     1      18.409  10.949   0.034  1.00  0.00     0.154 C 
BRANCH  10  11
HETATM   11  C8  UNL     1      19.198  10.785   1.266  1.00  0.00     0.177 C 
HETATM   12  O2  UNL     1      19.689  11.744   1.945  1.00  0.00    -0.648 OA
HETATM   13  O3  UNL     1      19.452   9.497   1.765  1.00  0.00    -0.648 OA
ENDBRANCH  10  11
ENDBRANCH   5  10
BRANCH   1  14
HETATM   14  O1  UNL     1      12.641   9.717  -3.006  1.00  0.00    -0.356 OA
HETATM   15  C1  UNL     1      12.631   9.296  -4.350  1.00  0.00     0.210 C 
ENDBRANCH   1  14
TORSDOF 3
ENDMDL
