MODEL 1
REMARK VINA RESULT: -7.410473523      0.000      0.000
REMARK  3 active torsions:
REMARK  status: ('A' for Active; 'I' for Inactive)
REMARK    1  A    between atoms: O1_2  and  C2_3 
REMARK    2  A    between atoms: C6_7  and  C7_8 
REMARK    3  A    between atoms: C7_8  and  C8_9 
ROOT
HETATM    1  C2  UNL     1      13.552  10.040  -2.308  1.00  0.00     0.070 A 
HETATM    2  C3  UNL     1      14.861   9.845  -2.719  1.00  0.00     0.038 A 
HETATM    3  C4  UNL     1      15.895   9.978  -1.822  1.00  0.00     0.017 A 
HETATM    4  C5  UNL     1      15.652  10.308  -0.511  1.00  0.00     0.006 A 
HETATM    5  C6  UNL     1      16.445  10.524   0.610  1.00  0.00    -0.013 A 
HETATM    6  C9  UNL     1      15.616  10.837   1.661  1.00  0.00     0.151 A 
HETATM    7  O4  UNL     1      14.390  10.810   1.179  1.00  0.00    -0.321 OA
HETATM    8  C10 UNL     1      14.363  10.505  -0.085  1.00  0.00     0.088 A 
HETATM    9  C11 UNL     1      13.320  10.367  -0.995  1.00  0.00     0.074 A 
ENDROOT
BRANCH   5  10
HETATM   10  C7  UNL     1      17.901  10.399   0.624  1.00  0.00     0.154 C 
BRANCH  10  11
HETATM   11  C8  UNL     1      18.641  11.624   0.279  1.00  0.00     0.177 C 
HETATM   12  O2  UNL     1      18.104  12.760   0.073  1.00  0.00    -0.648 OA
HETATM   13  O3  UNL     1      20.039  11.583   0.159  1.00  0.00    -0.648 OA
ENDBRANCH  10  11
ENDBRANCH   5  10
BRANCH   1  14
HETATM   14  O1  UNL     1      12.477   9.922  -3.169  1.00  0.00    -0.356 OA
HETATM   15  C1  UNL     1      12.498   9.144  -4.343  1.00  0.00     0.210 C 
ENDBRANCH   1  14
TORSDOF 3
ENDMDL
