MODEL 3
REMARK VINA RESULT: -7.039657248      1.270      1.638
REMARK  3 active torsions:
REMARK  status: ('A' for Active; 'I' for Inactive)
REMARK    1  A    between atoms: O1_2  and  C2_3 
REMARK    2  A    between atoms: C6_7  and  C7_8 
REMARK    3  A    between atoms: C7_8  and  C8_9 
ROOT
HETATM    1  C2  UNL     1      13.515   9.794  -3.895  1.00  0.00     0.070 A 
HETATM    2  C3  UNL     1      14.900   9.808  -3.920  1.00  0.00     0.038 A 
HETATM    3  C4  UNL     1      15.612   9.984  -2.757  1.00  0.00     0.017 A 
HETATM    4  C5  UNL     1      14.968  10.152  -1.556  1.00  0.00     0.006 A 
HETATM    5  C6  UNL     1      15.377  10.357  -0.243  1.00  0.00    -0.013 A 
HETATM    6  C9  UNL     1      14.252  10.459   0.539  1.00  0.00     0.151 A 
HETATM    7  O4  UNL     1      13.226  10.322  -0.276  1.00  0.00    -0.321 OA
HETATM    8  C10 UNL     1      13.597  10.140  -1.510  1.00  0.00     0.088 A 
HETATM    9  C11 UNL     1      12.880   9.959  -2.688  1.00  0.00     0.074 A 
ENDROOT
BRANCH   5  10
HETATM   10  C7  UNL     1      16.773  10.418   0.184  1.00  0.00     0.154 C 
BRANCH  10  11
HETATM   11  C8  UNL     1      17.224  11.731   0.675  1.00  0.00     0.177 C 
HETATM   12  O2  UNL     1      16.894  12.236   1.796  1.00  0.00    -0.648 OA
HETATM   13  O3  UNL     1      18.080  12.514  -0.115  1.00  0.00    -0.648 OA
ENDBRANCH  10  11
ENDBRANCH   5  10
BRANCH   1  14
HETATM   14  O1  UNL     1      12.752   9.623  -5.034  1.00  0.00    -0.356 OA
HETATM   15  C1  UNL     1      11.344   9.609  -5.038  1.00  0.00     0.210 C 
ENDBRANCH   1  14
TORSDOF 3
ENDMDL
