MODEL 8
REMARK VINA RESULT: -6.584427691      3.372      5.479
REMARK  3 active torsions:
REMARK  status: ('A' for Active; 'I' for Inactive)
REMARK    1  A    between atoms: O1_2  and  C2_3 
REMARK    2  A    between atoms: C6_7  and  C7_8 
REMARK    3  A    between atoms: C7_8  and  C8_9 
ROOT
HETATM    1  C2  UNL     1      13.729   8.352   1.783  1.00  0.00     0.070 A 
HETATM    2  C3  UNL     1      14.349   7.515   0.871  1.00  0.00     0.038 A 
HETATM    3  C4  UNL     1      14.463   7.890  -0.447  1.00  0.00     0.017 A 
HETATM    4  C5  UNL     1      13.965   9.093  -0.882  1.00  0.00     0.006 A 
HETATM    5  C6  UNL     1      13.908   9.747  -2.108  1.00  0.00    -0.013 A 
HETATM    6  C9  UNL     1      13.268  10.948  -1.917  1.00  0.00     0.151 A 
HETATM    7  O4  UNL     1      12.959  10.999  -0.637  1.00  0.00    -0.321 OA
HETATM    8  C10 UNL     1      13.347   9.937   0.006  1.00  0.00     0.088 A 
HETATM    9  C11 UNL     1      13.236   9.555   1.339  1.00  0.00     0.074 A 
ENDROOT
BRANCH   5  10
HETATM   10  C7  UNL     1      14.472   9.219  -3.348  1.00  0.00     0.154 C 
BRANCH  10  11
HETATM   11  C8  UNL     1      13.491   8.683  -4.307  1.00  0.00     0.177 C 
HETATM   12  O2  UNL     1      12.741   9.396  -5.049  1.00  0.00    -0.648 OA
HETATM   13  O3  UNL     1      13.338   7.294  -4.444  1.00  0.00    -0.648 OA
ENDBRANCH  10  11
ENDBRANCH   5  10
BRANCH   1  14
HETATM   14  O1  UNL     1      13.585   8.022   3.118  1.00  0.00    -0.356 OA
HETATM   15  C1  UNL     1      13.557   8.970   4.159  1.00  0.00     0.210 C 
ENDBRANCH   1  14
TORSDOF 3
ENDMDL
