MODEL 6
REMARK VINA RESULT: -6.146630428      2.807      4.808
REMARK  1 active torsions:
REMARK  status: ('A' for Active; 'I' for Inactive)
REMARK    1  A    between atoms: C1_2  and  C2_4 
ROOT
HETATM    1  C2  UNL     1     -18.464  -0.766   0.243  1.00  0.00     0.043 A 
HETATM    2  C3  UNL     1     -17.817  -0.307  -0.888  1.00  0.00     0.021 A 
HETATM    3  C4  UNL     1     -16.465  -0.068  -0.830  1.00  0.00     0.041 A 
HETATM    4  C5  UNL     1     -15.723  -0.273   0.332  1.00  0.00     0.105 A 
HETATM    5  C6  UNL     1     -16.364  -0.731   1.465  1.00  0.00     0.106 A 
HETATM    6  C7  UNL     1     -17.720  -0.964   1.381  1.00  0.00     0.058 A 
HETATM    7  O3  UNL     1     -15.397  -0.844   2.458  1.00  0.00    -0.323 OA
HETATM    8  C8  UNL     1     -14.172  -0.298   2.029  1.00  0.00     0.352 C 
HETATM    9  O4  UNL     1     -14.375  -0.112   0.649  1.00  0.00    -0.323 OA
ENDROOT
BRANCH   1  10
HETATM   10  C1  UNL     1     -19.912  -1.033   0.217  1.00  0.00     0.209 C 
HETATM   11  O1  UNL     1     -20.691  -0.360  -0.467  1.00  0.00    -0.644 OA
HETATM   12  O2  UNL     1     -20.411  -2.069   0.986  1.00  0.00    -0.644 OA
ENDBRANCH   1  10
TORSDOF 1
ENDMDL
