MODEL 4
REMARK VINA RESULT: -6.458552732      0.936      1.932
REMARK  1 active torsions:
REMARK  status: ('A' for Active; 'I' for Inactive)
REMARK    1  A    between atoms: C1_2  and  C2_4 
ROOT
HETATM    1  C2  UNL     1     -15.158  -0.643   1.894  1.00  0.00     0.043 A 
HETATM    2  C3  UNL     1     -14.105  -0.736   1.005  1.00  0.00     0.021 A 
HETATM    3  C4  UNL     1     -12.847  -1.007   1.489  1.00  0.00     0.041 A 
HETATM    4  C5  UNL     1     -12.598  -1.192   2.848  1.00  0.00     0.105 A 
HETATM    5  C6  UNL     1     -13.646  -1.100   3.742  1.00  0.00     0.106 A 
HETATM    6  C7  UNL     1     -14.897  -0.828   3.231  1.00  0.00     0.058 A 
HETATM    7  O3  UNL     1     -13.117  -1.325   5.008  1.00  0.00    -0.323 OA
HETATM    8  C8  UNL     1     -11.711  -1.388   4.960  1.00  0.00     0.352 C 
HETATM    9  O4  UNL     1     -11.445  -1.471   3.581  1.00  0.00    -0.323 OA
ENDROOT
BRANCH   1  10
HETATM   10  C1  UNL     1     -16.518  -0.354   1.411  1.00  0.00     0.209 C 
HETATM   11  O1  UNL     1     -17.489  -1.051   1.727  1.00  0.00    -0.644 OA
HETATM   12  O2  UNL     1     -16.711   0.732   0.576  1.00  0.00    -0.644 OA
ENDBRANCH   1  10
TORSDOF 1
ENDMDL
