MODEL 1
REMARK VINA RESULT: -6.749294921      0.000      0.000
REMARK  1 active torsions:
REMARK  status: ('A' for Active; 'I' for Inactive)
REMARK    1  A    between atoms: C1_2  and  C2_4 
ROOT
HETATM    1  C2  UNL     1     -15.009  -0.779   2.703  1.00  0.00     0.043 A 
HETATM    2  C3  UNL     1     -15.322  -0.774   4.048  1.00  0.00     0.021 A 
HETATM    3  C4  UNL     1     -14.320  -0.980   4.966  1.00  0.00     0.041 A 
HETATM    4  C5  UNL     1     -12.996  -1.193   4.585  1.00  0.00     0.105 A 
HETATM    5  C6  UNL     1     -12.677  -1.200   3.243  1.00  0.00     0.106 A 
HETATM    6  C7  UNL     1     -13.700  -0.991   2.342  1.00  0.00     0.058 A 
HETATM    7  O3  UNL     1     -11.309  -1.431   3.155  1.00  0.00    -0.323 OA
HETATM    8  C8  UNL     1     -10.771  -1.748   4.417  1.00  0.00     0.352 C 
HETATM    9  O4  UNL     1     -11.820  -1.421   5.297  1.00  0.00    -0.323 OA
ENDROOT
BRANCH   1  10
HETATM   10  C1  UNL     1     -16.057  -0.562   1.693  1.00  0.00     0.209 C 
HETATM   11  O1  UNL     1     -17.094  -1.236   1.667  1.00  0.00    -0.644 OA
HETATM   12  O2  UNL     1     -15.871   0.426   0.743  1.00  0.00    -0.644 OA
ENDBRANCH   1  10
TORSDOF 1
ENDMDL
