MODEL 3
REMARK VINA RESULT: -6.574785979      0.901      1.037
REMARK  1 active torsions:
REMARK  status: ('A' for Active; 'I' for Inactive)
REMARK    1  A    between atoms: C1_2  and  C2_4 
ROOT
HETATM    1  C2  UNL     1     -14.747  -0.681   1.854  1.00  0.00     0.043 A 
HETATM    2  C3  UNL     1     -15.412  -0.679   3.064  1.00  0.00     0.021 A 
HETATM    3  C4  UNL     1     -14.697  -0.898   4.217  1.00  0.00     0.041 A 
HETATM    4  C5  UNL     1     -13.321  -1.122   4.207  1.00  0.00     0.105 A 
HETATM    5  C6  UNL     1     -12.650  -1.125   3.000  1.00  0.00     0.106 A 
HETATM    6  C7  UNL     1     -13.391  -0.902   1.858  1.00  0.00     0.058 A 
HETATM    7  O3  UNL     1     -11.311  -1.368   3.283  1.00  0.00    -0.323 OA
HETATM    8  C8  UNL     1     -11.137  -1.695   4.642  1.00  0.00     0.352 C 
HETATM    9  O4  UNL     1     -12.382  -1.364   5.208  1.00  0.00    -0.323 OA
ENDROOT
BRANCH   1  10
HETATM   10  C1  UNL     1     -15.482  -0.450   0.599  1.00  0.00     0.209 C 
HETATM   11  O1  UNL     1     -15.331  -1.172  -0.392  1.00  0.00    -0.644 OA
HETATM   12  O2  UNL     1     -16.367   0.612   0.533  1.00  0.00    -0.644 OA
ENDBRANCH   1  10
TORSDOF 1
ENDMDL
