MODEL 2
REMARK VINA RESULT: -6.641883447      1.452      4.769
REMARK  1 active torsions:
REMARK  status: ('A' for Active; 'I' for Inactive)
REMARK    1  A    between atoms: C1_2  and  C2_4 
ROOT
HETATM    1  C2  UNL     1     -13.978  -0.821   3.387  1.00  0.00     0.043 A 
HETATM    2  C3  UNL     1     -12.944  -0.657   2.486  1.00  0.00     0.021 A 
HETATM    3  C4  UNL     1     -13.243  -0.444   1.162  1.00  0.00     0.041 A 
HETATM    4  C5  UNL     1     -14.555  -0.386   0.696  1.00  0.00     0.105 A 
HETATM    5  C6  UNL     1     -15.593  -0.549   1.591  1.00  0.00     0.106 A 
HETATM    6  C7  UNL     1     -15.267  -0.762   2.914  1.00  0.00     0.058 A 
HETATM    7  O3  UNL     1     -16.773  -0.446   0.863  1.00  0.00    -0.323 OA
HETATM    8  C8  UNL     1     -16.507  -0.393  -0.519  1.00  0.00     0.352 C 
HETATM    9  O4  UNL     1     -15.116  -0.187  -0.565  1.00  0.00    -0.323 OA
ENDROOT
BRANCH   1  10
HETATM   10  C1  UNL     1     -13.695  -1.052   4.813  1.00  0.00     0.209 C 
HETATM   11  O1  UNL     1     -14.592  -1.080   5.664  1.00  0.00    -0.644 OA
HETATM   12  O2  UNL     1     -12.383  -1.241   5.209  1.00  0.00    -0.644 OA
ENDBRANCH   1  10
TORSDOF 1
ENDMDL
