MODEL 9
REMARK VINA RESULT: -5.935589643      3.610      5.699
REMARK  1 active torsions:
REMARK  status: ('A' for Active; 'I' for Inactive)
REMARK    1  A    between atoms: C1_2  and  C2_4 
ROOT
HETATM    1  C2  UNL     1     -19.585  -0.004  -0.389  1.00  0.00     0.043 A 
HETATM    2  C3  UNL     1     -19.692  -1.209   0.278  1.00  0.00     0.021 A 
HETATM    3  C4  UNL     1     -18.603  -1.687   0.969  1.00  0.00     0.041 A 
HETATM    4  C5  UNL     1     -17.394  -0.995   1.019  1.00  0.00     0.105 A 
HETATM    5  C6  UNL     1     -17.281   0.209   0.355  1.00  0.00     0.106 A 
HETATM    6  C7  UNL     1     -18.387   0.666  -0.330  1.00  0.00     0.058 A 
HETATM    7  O3  UNL     1     -15.988   0.671   0.572  1.00  0.00    -0.323 OA
HETATM    8  C8  UNL     1     -15.210  -0.306   1.225  1.00  0.00     0.352 C 
HETATM    9  O4  UNL     1     -16.169  -1.252   1.632  1.00  0.00    -0.323 OA
ENDROOT
BRANCH   1  10
HETATM   10  C1  UNL     1     -20.731   0.537  -1.139  1.00  0.00     0.209 C 
HETATM   11  O1  UNL     1     -21.615   1.206  -0.593  1.00  0.00    -0.644 OA
HETATM   12  O2  UNL     1     -20.817   0.284  -2.496  1.00  0.00    -0.644 OA
ENDBRANCH   1  10
TORSDOF 1
ENDMDL
