MODEL 2
REMARK VINA RESULT: -5.920824655      1.813      2.264
REMARK  1 active torsions:
REMARK  status: ('A' for Active; 'I' for Inactive)
REMARK    1  A    between atoms: C1_2  and  C2_4 
ROOT
HETATM    1  C2  UNL     1      17.259  10.997  -0.412  1.00  0.00     0.043 A 
HETATM    2  C3  UNL     1      16.275  10.792   0.518  1.00  0.00     0.021 A 
HETATM    3  C4  UNL     1      15.043  10.363   0.125  1.00  0.00     0.033 A 
HETATM    4  C5  UNL     1      14.731  10.115  -1.231  1.00  0.00     0.067 A 
HETATM    5  N1  UNL     1      13.549   9.693  -1.688  1.00  0.00    -0.310 N 
ATOM      6  H1  UNL     1      12.706   9.488  -1.151  1.00  0.00     0.176 HD
HETATM    7  S1  UNL     1      13.770   9.578  -3.345  1.00  0.00     0.068 SA
HETATM    8  N2  UNL     1      15.368  10.069  -3.426  1.00  0.00    -0.310 N 
ATOM      9  H2  UNL     1      15.955  10.161  -4.256  1.00  0.00     0.176 HD
HETATM   10  C6  UNL     1      15.698  10.313  -2.157  1.00  0.00     0.068 A 
HETATM   11  C7  UNL     1      16.964  10.758  -1.731  1.00  0.00     0.050 A 
ENDROOT
BRANCH   1  12
HETATM   12  C1  UNL     1      18.600  11.458  -0.036  1.00  0.00     0.209 C 
HETATM   13  O1  UNL     1      19.588  10.720  -0.263  1.00  0.00    -0.644 OA
HETATM   14  O2  UNL     1      18.828  12.684   0.563  1.00  0.00    -0.644 OA
ENDBRANCH   1  12
TORSDOF 1
ENDMDL
