MODEL 3
REMARK VINA RESULT: -5.899275118      2.702      3.290
REMARK  1 active torsions:
REMARK  status: ('A' for Active; 'I' for Inactive)
REMARK    1  A    between atoms: C1_2  and  C2_4 
ROOT
HETATM    1  C2  UNL     1      16.236  10.907  -0.855  1.00  0.00     0.043 A 
HETATM    2  C3  UNL     1      15.131  10.966  -0.048  1.00  0.00     0.021 A 
HETATM    3  C4  UNL     1      13.903  10.651  -0.548  1.00  0.00     0.033 A 
HETATM    4  C5  UNL     1      13.718  10.258  -1.893  1.00  0.00     0.067 A 
HETATM    5  N1  UNL     1      12.548   9.935  -2.450  1.00  0.00    -0.310 N 
ATOM      6  H1  UNL     1      11.627   9.920  -2.011  1.00  0.00     0.176 HD
HETATM    7  S1  UNL     1      12.940   9.560  -4.035  1.00  0.00     0.068 SA
HETATM    8  N2  UNL     1      14.593   9.822  -3.960  1.00  0.00    -0.310 N 
ATOM      9  H2  UNL     1      15.279   9.719  -4.707  1.00  0.00     0.176 HD
HETATM   10  C6  UNL     1      14.805  10.196  -2.696  1.00  0.00     0.068 A 
HETATM   11  C7  UNL     1      16.064  10.526  -2.162  1.00  0.00     0.050 A 
ENDROOT
BRANCH   1  12
HETATM   12  C1  UNL     1      17.578  11.236  -0.360  1.00  0.00     0.209 C 
HETATM   13  O1  UNL     1      18.338  10.312   0.011  1.00  0.00    -0.644 OA
HETATM   14  O2  UNL     1      18.048  12.536  -0.285  1.00  0.00    -0.644 OA
ENDBRANCH   1  12
TORSDOF 1
ENDMDL
