MODEL 7
REMARK VINA RESULT: -5.642000778      6.451      7.305
REMARK  1 active torsions:
REMARK  status: ('A' for Active; 'I' for Inactive)
REMARK    1  A    between atoms: C1_2  and  C2_4 
ROOT
HETATM    1  C2  UNL     1      15.298  10.729   4.676  1.00  0.00     0.043 A 
HETATM    2  C3  UNL     1      16.458  10.002   4.645  1.00  0.00     0.021 A 
HETATM    3  C4  UNL     1      16.717   9.088   5.622  1.00  0.00     0.033 A 
HETATM    4  C5  UNL     1      15.820   8.854   6.688  1.00  0.00     0.067 A 
HETATM    5  N1  UNL     1      16.006   7.976   7.677  1.00  0.00    -0.310 N 
ATOM      6  H1  UNL     1      16.801   7.352   7.821  1.00  0.00     0.176 HD
HETATM    7  S1  UNL     1      14.636   8.135   8.628  1.00  0.00     0.068 SA
HETATM    8  N2  UNL     1      13.847   9.320   7.746  1.00  0.00    -0.310 N 
ATOM      9  H2  UNL     1      12.945   9.753   7.944  1.00  0.00     0.176 HD
HETATM   10  C6  UNL     1      14.670   9.566   6.726  1.00  0.00     0.068 A 
HETATM   11  C7  UNL     1      14.421  10.507   5.708  1.00  0.00     0.050 A 
ENDROOT
BRANCH   1  12
HETATM   12  C1  UNL     1      14.976  11.723   3.646  1.00  0.00     0.209 C 
HETATM   13  O1  UNL     1      14.071  11.475   2.816  1.00  0.00    -0.644 OA
HETATM   14  O2  UNL     1      15.634  12.937   3.549  1.00  0.00    -0.644 OA
ENDBRANCH   1  12
TORSDOF 1
ENDMDL
