MODEL 1
REMARK VINA RESULT: -6.021632508      0.000      0.000
REMARK  1 active torsions:
REMARK  status: ('A' for Active; 'I' for Inactive)
REMARK    1  A    between atoms: C1_2  and  C2_4 
ROOT
HETATM    1  C2  UNL     1      18.952  11.331   0.885  1.00  0.00     0.043 A 
HETATM    2  C3  UNL     1      18.000  11.197   1.860  1.00  0.00     0.021 A 
HETATM    3  C4  UNL     1      16.713  10.905   1.522  1.00  0.00     0.033 A 
HETATM    4  C5  UNL     1      16.309  10.732   0.178  1.00  0.00     0.067 A 
HETATM    5  N1  UNL     1      15.070  10.446  -0.226  1.00  0.00    -0.310 N 
ATOM      6  H1  UNL     1      14.238  10.309   0.349  1.00  0.00     0.176 HD
HETATM    7  S1  UNL     1      15.194  10.361  -1.895  1.00  0.00     0.068 SA
HETATM    8  N2  UNL     1      16.828  10.693  -2.048  1.00  0.00    -0.310 N 
ATOM      9  H2  UNL     1      17.379  10.752  -2.905  1.00  0.00     0.176 HD
HETATM   10  C6  UNL     1      17.244  10.862  -0.792  1.00  0.00     0.068 A 
HETATM   11  C7  UNL     1      18.569  11.164  -0.422  1.00  0.00     0.050 A 
ENDROOT
BRANCH   1  12
HETATM   12  C1  UNL     1      20.350  11.643   1.201  1.00  0.00     0.209 C 
HETATM   13  O1  UNL     1      20.822  11.291   2.308  1.00  0.00    -0.644 OA
HETATM   14  O2  UNL     1      21.182  12.317   0.324  1.00  0.00    -0.644 OA
ENDBRANCH   1  12
TORSDOF 1
ENDMDL
