MODEL 1
REMARK VINA RESULT: -8.182990216      0.000      0.000
REMARK  3 active torsions:
REMARK  status: ('A' for Active; 'I' for Inactive)
REMARK       I    between atoms: C1_2  and  N1_3 
REMARK    1  A    between atoms: C1_2  and  C9_20 
REMARK    2  A    between atoms: N1_3  and  C2_5 
REMARK    3  A    between atoms: C6_9  and  C7_10 
ROOT
HETATM    1  C2  UNL     1      -6.885  54.134  11.417  1.00  0.00     0.035 A 
HETATM    2  C3  UNL     1      -7.541  54.801  12.413  1.00  0.00     0.029 A 
HETATM    3  C4  UNL     1      -8.445  55.809  12.106  1.00  0.00     0.003 A 
HETATM    4  C5  UNL     1      -8.698  56.155  10.821  1.00  0.00     0.015 A 
HETATM    5  C6  UNL     1      -8.054  55.499   9.759  1.00  0.00     0.013 A 
HETATM    6  C8  UNL     1      -7.171  54.514  10.104  1.00  0.00     0.044 A 
ENDROOT
BRANCH   1   7
HETATM    7  N1  UNL     1      -5.938  53.116  11.658  1.00  0.00    -0.323 N 
HETATM    8  C1  UNL     1      -4.614  53.274  12.118  1.00  0.00     0.258 C 
HETATM    9  O1  UNL     1      -4.165  54.441  12.376  1.00  0.00    -0.267 OA
ATOM     10  H1  UNL     1      -6.245  52.160  11.479  1.00  0.00     0.169 HD
BRANCH   8  11
HETATM   11  C9  UNL     1      -3.684  52.161  12.340  1.00  0.00     0.061 A 
HETATM   12  C10 UNL     1      -4.097  51.111  13.122  1.00  0.00     0.019 A 
HETATM   13  C11 UNL     1      -3.266  50.016  13.310  1.00  0.00     0.003 A 
HETATM   14  C12 UNL     1      -2.026  49.966  12.725  1.00  0.00     0.032 A 
HETATM   15  C13 UNL     1      -1.607  51.025  11.939  1.00  0.00     0.061 A 
HETATM   16  N6  UNL     1      -0.450  51.228  11.276  1.00  0.00    -0.350 N 
HETATM   17  C15 UNL     1      -2.442  52.107  11.758  1.00  0.00     0.075 A 
HETATM   18  C14 UNL     1      -0.553  52.430  10.682  1.00  0.00     0.181 A 
ATOM     19  H6  UNL     1       0.347  50.593  11.233  1.00  0.00     0.166 HD
HETATM   20  N7  UNL     1      -1.765  52.991  10.959  1.00  0.00    -0.350 N 
ATOM     21  H7  UNL     1      -2.103  53.897  10.634  1.00  0.00     0.166 HD
ENDBRANCH   8  11
ENDBRANCH   1   7
BRANCH   5  22
HETATM   22  C7  UNL     1      -8.319  55.881   8.385  1.00  0.00     0.147 A 
HETATM   23  N2  UNL     1      -7.464  55.572   7.360  1.00  0.00    -0.268 N 
HETATM   24  N3  UNL     1      -7.957  56.070   6.238  1.00  0.00    -0.227 N 
ATOM     25  H2  UNL     1      -6.595  55.047   7.447  1.00  0.00     0.190 HD
HETATM   26  N4  UNL     1      -9.094  56.684   6.501  1.00  0.00    -0.227 N 
ATOM     27  H3  UNL     1      -7.527  55.992   5.317  1.00  0.00     0.210 HD
HETATM   28  N5  UNL     1      -9.314  56.567   7.807  1.00  0.00    -0.268 N 
ATOM     29  H4  UNL     1      -9.693  57.161   5.828  1.00  0.00     0.210 HD
ATOM     30  H5  UNL     1     -10.124  56.944   8.298  1.00  0.00     0.190 HD
ENDBRANCH   5  22
TORSDOF 3
ENDMDL
