MODEL 3
REMARK VINA RESULT: -8.104982290      2.313      7.947
REMARK  3 active torsions:
REMARK  status: ('A' for Active; 'I' for Inactive)
REMARK       I    between atoms: C1_2  and  N1_3 
REMARK    1  A    between atoms: C1_2  and  C9_20 
REMARK    2  A    between atoms: N1_3  and  C2_5 
REMARK    3  A    between atoms: C6_9  and  C7_10 
ROOT
HETATM    1  C2  UNL     1      -6.796  54.013  12.875  1.00  0.00     0.035 A 
HETATM    2  C3  UNL     1      -7.230  53.276  13.941  1.00  0.00     0.029 A 
HETATM    3  C4  UNL     1      -6.333  52.513  14.677  1.00  0.00     0.003 A 
HETATM    4  C5  UNL     1      -5.017  52.479  14.360  1.00  0.00     0.015 A 
HETATM    5  C6  UNL     1      -4.518  53.220  13.277  1.00  0.00     0.013 A 
HETATM    6  C8  UNL     1      -5.433  53.958  12.577  1.00  0.00     0.044 A 
ENDROOT
BRANCH   1   7
HETATM    7  N1  UNL     1      -7.654  54.793  12.070  1.00  0.00    -0.323 N 
HETATM    8  C1  UNL     1      -8.756  55.562  12.496  1.00  0.00     0.258 C 
HETATM    9  O1  UNL     1      -9.058  55.611  13.736  1.00  0.00    -0.267 OA
ATOM     10  H1  UNL     1      -7.455  54.801  11.070  1.00  0.00     0.169 HD
BRANCH   8  11
HETATM   11  C9  UNL     1      -9.609  56.346  11.594  1.00  0.00     0.061 A 
HETATM   12  C10 UNL     1     -10.568  57.159  12.144  1.00  0.00     0.019 A 
HETATM   13  C11 UNL     1     -11.357  57.955  11.326  1.00  0.00     0.003 A 
HETATM   14  C12 UNL     1     -11.194  57.941   9.964  1.00  0.00     0.032 A 
HETATM   15  C13 UNL     1     -10.230  57.119   9.408  1.00  0.00     0.061 A 
HETATM   16  N6  UNL     1      -9.885  56.910   8.120  1.00  0.00    -0.350 N 
HETATM   17  C15 UNL     1      -9.451  56.333  10.230  1.00  0.00     0.075 A 
HETATM   18  C14 UNL     1      -8.896  55.999   8.131  1.00  0.00     0.181 A 
ATOM     19  H6  UNL     1     -10.294  57.358   7.299  1.00  0.00     0.166 HD
HETATM   20  N7  UNL     1      -8.609  55.628   9.412  1.00  0.00    -0.350 N 
ATOM     21  H7  UNL     1      -7.902  54.954   9.704  1.00  0.00     0.166 HD
ENDBRANCH   8  11
ENDBRANCH   1   7
BRANCH   5  22
HETATM   22  C7  UNL     1      -3.109  53.171  12.933  1.00  0.00     0.147 A 
HETATM   23  N2  UNL     1      -2.674  52.973  11.650  1.00  0.00    -0.268 N 
HETATM   24  N3  UNL     1      -1.351  52.952  11.655  1.00  0.00    -0.227 N 
ATOM     25  H2  UNL     1      -3.269  52.861  10.830  1.00  0.00     0.190 HD
HETATM   26  N4  UNL     1      -0.921  53.131  12.888  1.00  0.00    -0.227 N 
ATOM     27  H3  UNL     1      -0.760  52.818  10.835  1.00  0.00     0.210 HD
HETATM   28  N5  UNL     1      -1.991  53.266  13.664  1.00  0.00    -0.268 N 
ATOM     29  H4  UNL     1       0.053  53.159  13.190  1.00  0.00     0.210 HD
ATOM     30  H5  UNL     1      -1.965  53.421  14.672  1.00  0.00     0.190 HD
ENDBRANCH   5  22
TORSDOF 3
ENDMDL
