MODEL 2
REMARK VINA RESULT: -8.116832821      3.730      7.459
REMARK  3 active torsions:
REMARK  status: ('A' for Active; 'I' for Inactive)
REMARK       I    between atoms: C1_2  and  N1_3 
REMARK    1  A    between atoms: C1_2  and  C9_20 
REMARK    2  A    between atoms: N1_3  and  C2_5 
REMARK    3  A    between atoms: C6_9  and  C7_10 
ROOT
HETATM    1  C2  UNL     1      -2.183  51.172  10.646  1.00  0.00     0.035 A 
HETATM    2  C3  UNL     1      -1.672  49.914  10.802  1.00  0.00     0.029 A 
HETATM    3  C4  UNL     1      -0.333  49.663  10.532  1.00  0.00     0.003 A 
HETATM    4  C5  UNL     1       0.494  50.650  10.110  1.00  0.00     0.015 A 
HETATM    5  C6  UNL     1       0.020  51.960   9.936  1.00  0.00     0.013 A 
HETATM    6  C8  UNL     1      -1.304  52.166  10.211  1.00  0.00     0.044 A 
ENDROOT
BRANCH   1   7
HETATM    7  N1  UNL     1      -3.537  51.494  10.880  1.00  0.00    -0.323 N 
HETATM    8  C1  UNL     1      -4.122  51.880  12.104  1.00  0.00     0.258 C 
HETATM    9  O1  UNL     1      -3.399  51.980  13.151  1.00  0.00    -0.267 OA
ATOM     10  H1  UNL     1      -4.162  51.441  10.075  1.00  0.00     0.169 HD
BRANCH   8  11
HETATM   11  C9  UNL     1      -5.546  52.194  12.270  1.00  0.00     0.061 A 
HETATM   12  C10 UNL     1      -6.471  51.271  11.848  1.00  0.00     0.019 A 
HETATM   13  C11 UNL     1      -7.825  51.509  12.037  1.00  0.00     0.003 A 
HETATM   14  C12 UNL     1      -8.259  52.661  12.642  1.00  0.00     0.032 A 
HETATM   15  C13 UNL     1      -7.328  53.593  13.065  1.00  0.00     0.061 A 
HETATM   16  N6  UNL     1      -7.488  54.792  13.662  1.00  0.00    -0.350 N 
HETATM   17  C15 UNL     1      -5.985  53.346  12.873  1.00  0.00     0.075 A 
HETATM   18  C14 UNL     1      -6.256  55.298  13.845  1.00  0.00     0.181 A 
ATOM     19  H6  UNL     1      -8.372  55.229  13.925  1.00  0.00     0.166 HD
HETATM   20  N7  UNL     1      -5.315  54.432  13.371  1.00  0.00    -0.350 N 
ATOM     21  H7  UNL     1      -4.304  54.567  13.385  1.00  0.00     0.166 HD
ENDBRANCH   8  11
ENDBRANCH   1   7
BRANCH   5  22
HETATM   22  C7  UNL     1       0.906  53.011   9.471  1.00  0.00     0.147 A 
HETATM   23  N2  UNL     1       0.447  54.249   9.109  1.00  0.00    -0.268 N 
HETATM   24  N3  UNL     1       1.477  54.977   8.708  1.00  0.00    -0.227 N 
ATOM     25  H2  UNL     1      -0.523  54.559   9.143  1.00  0.00     0.190 HD
HETATM   26  N4  UNL     1       2.577  54.256   8.801  1.00  0.00    -0.227 N 
ATOM     27  H3  UNL     1       1.428  55.941   8.380  1.00  0.00     0.210 HD
HETATM   28  N5  UNL     1       2.228  53.061   9.267  1.00  0.00    -0.268 N 
ATOM     29  H4  UNL     1       3.521  54.559   8.559  1.00  0.00     0.210 HD
ATOM     30  H5  UNL     1       2.876  52.292   9.444  1.00  0.00     0.190 HD
ENDBRANCH   5  22
TORSDOF 3
ENDMDL
