MODEL 6
REMARK VINA RESULT: -7.794712558      1.416      1.451
REMARK  3 active torsions:
REMARK  status: ('A' for Active; 'I' for Inactive)
REMARK       I    between atoms: C1_2  and  N1_3 
REMARK    1  A    between atoms: C1_2  and  C9_20 
REMARK    2  A    between atoms: N1_3  and  C2_5 
REMARK    3  A    between atoms: C6_9  and  C7_10 
ROOT
HETATM    1  C2  UNL     1      -6.951  54.515  11.356  1.00  0.00     0.035 A 
HETATM    2  C3  UNL     1      -7.817  55.023  12.283  1.00  0.00     0.029 A 
HETATM    3  C4  UNL     1      -8.876  55.830  11.887  1.00  0.00     0.003 A 
HETATM    4  C5  UNL     1      -9.076  56.132  10.582  1.00  0.00     0.015 A 
HETATM    5  C6  UNL     1      -8.218  55.634   9.588  1.00  0.00     0.013 A 
HETATM    6  C8  UNL     1      -7.188  54.845  10.019  1.00  0.00     0.044 A 
ENDROOT
BRANCH   1   7
HETATM    7  N1  UNL     1      -5.842  53.709  11.689  1.00  0.00    -0.323 N 
HETATM    8  C1  UNL     1      -5.838  52.316  11.909  1.00  0.00     0.258 C 
HETATM    9  O1  UNL     1      -6.921  51.650  11.799  1.00  0.00    -0.267 OA
ATOM     10  H1  UNL     1      -4.945  54.186  11.781  1.00  0.00     0.169 HD
BRANCH   8  11
HETATM   11  C9  UNL     1      -4.639  51.544  12.260  1.00  0.00     0.061 A 
HETATM   12  C10 UNL     1      -4.689  50.176  12.156  1.00  0.00     0.019 A 
HETATM   13  C11 UNL     1      -3.560  49.417  12.427  1.00  0.00     0.003 A 
HETATM   14  C12 UNL     1      -2.385  50.015  12.803  1.00  0.00     0.032 A 
HETATM   15  C13 UNL     1      -2.333  51.394  12.912  1.00  0.00     0.061 A 
HETATM   16  N6  UNL     1      -1.324  52.213  13.272  1.00  0.00    -0.350 N 
HETATM   17  C15 UNL     1      -3.461  52.138  12.639  1.00  0.00     0.075 A 
HETATM   18  C14 UNL     1      -1.812  53.466  13.227  1.00  0.00     0.181 A 
ATOM     19  H6  UNL     1      -0.376  51.936  13.527  1.00  0.00     0.166 HD
HETATM   20  N7  UNL     1      -3.120  53.449  12.841  1.00  0.00    -0.350 N 
ATOM     21  H7  UNL     1      -3.728  54.260  12.725  1.00  0.00     0.166 HD
ENDBRANCH   8  11
ENDBRANCH   1   7
BRANCH   5  22
HETATM   22  C7  UNL     1      -8.429  55.971   8.193  1.00  0.00     0.147 A 
HETATM   23  N2  UNL     1      -7.536  55.628   7.213  1.00  0.00    -0.268 N 
HETATM   24  N3  UNL     1      -7.984  56.090   6.057  1.00  0.00    -0.227 N 
ATOM     25  H2  UNL     1      -6.671  55.106   7.351  1.00  0.00     0.190 HD
HETATM   26  N4  UNL     1      -9.129  56.712   6.256  1.00  0.00    -0.227 N 
ATOM     27  H3  UNL     1      -7.518  55.981   5.157  1.00  0.00     0.210 HD
HETATM   28  N5  UNL     1      -9.400  56.637   7.555  1.00  0.00    -0.268 N 
ATOM     29  H4  UNL     1      -9.702  57.166   5.544  1.00  0.00     0.210 HD
ATOM     30  H5  UNL     1     -10.228  57.030   8.002  1.00  0.00     0.190 HD
ENDBRANCH   5  22
TORSDOF 3
ENDMDL
