MODEL 1
REMARK VINA RESULT: -8.978953518      0.000      0.000
REMARK  3 active torsions:
REMARK  status: ('A' for Active; 'I' for Inactive)
REMARK       I    between atoms: C1_2  and  N1_3 
REMARK    1  A    between atoms: C1_2  and  C9_20 
REMARK    2  A    between atoms: N1_3  and  C2_5 
REMARK    3  A    between atoms: C6_9  and  C7_10 
ROOT
HETATM    1  C2  UNL     1      -7.028  53.603  11.860  1.00  0.00     0.035 A 
HETATM    2  C3  UNL     1      -7.600  52.340  12.013  1.00  0.00     0.029 A 
HETATM    3  C4  UNL     1      -6.918  51.243  12.459  1.00  0.00     0.003 A 
HETATM    4  C5  UNL     1      -5.592  51.366  12.783  1.00  0.00     0.015 A 
HETATM    5  C6  UNL     1      -4.978  52.590  12.651  1.00  0.00     0.013 A 
HETATM    6  C8  UNL     1      -5.723  53.686  12.188  1.00  0.00     0.044 A 
ENDROOT
BRANCH   1   7
HETATM    7  N1  UNL     1      -7.848  54.650  11.389  1.00  0.00    -0.323 N 
HETATM    8  C1  UNL     1      -8.692  55.445  12.194  1.00  0.00     0.256 C 
HETATM    9  O1  UNL     1      -8.773  55.268  13.434  1.00  0.00    -0.267 OA
ATOM     10  H1  UNL     1      -7.829  54.848  10.388  1.00  0.00     0.169 HD
BRANCH   8  11
HETATM   11  C9  UNL     1      -9.510  56.516  11.600  1.00  0.00     0.033 A 
HETATM   12  C10 UNL     1      -9.185  57.143  10.421  1.00  0.00     0.019 A 
HETATM   13  C11 UNL     1      -9.978  58.156   9.886  1.00  0.00     0.033 A 
HETATM   14  C12 UNL     1     -11.119  58.568  10.523  1.00  0.00     0.059 A 
HETATM   15  N6  UNL     1     -12.051  59.497  10.246  1.00  0.00    -0.300 N 
HETATM   16  C14 UNL     1     -11.453  57.950  11.701  1.00  0.00     0.010 A 
HETATM   17  N7  UNL     1     -12.945  59.484  11.194  1.00  0.00    -0.311 N 
ATOM     18  H6  UNL     1     -12.057  60.111   9.431  1.00  0.00     0.187 HD
HETATM   19  C13 UNL     1     -12.635  58.559  12.114  1.00  0.00     0.120 A 
ATOM     20  H7  UNL     1     -13.764  60.091  11.232  1.00  0.00     0.186 HD
HETATM   21  C15 UNL     1     -10.669  56.946  12.230  1.00  0.00     0.032 A 
ENDBRANCH   8  11
ENDBRANCH   1   7
BRANCH   5  22
HETATM   22  C7  UNL     1      -3.569  52.751  12.988  1.00  0.00     0.147 A 
HETATM   23  N2  UNL     1      -2.630  51.806  12.832  1.00  0.00    -0.268 N 
HETATM   24  N3  UNL     1      -1.464  52.280  13.234  1.00  0.00    -0.227 N 
ATOM     25  H2  UNL     1      -2.791  50.869  12.462  1.00  0.00     0.190 HD
HETATM   26  N4  UNL     1      -1.646  53.516  13.644  1.00  0.00    -0.227 N 
ATOM     27  H3  UNL     1      -0.578  51.775  13.227  1.00  0.00     0.210 HD
HETATM   28  N5  UNL     1      -2.919  53.806  13.497  1.00  0.00    -0.268 N 
ATOM     29  H4  UNL     1      -0.927  54.140  14.010  1.00  0.00     0.210 HD
ATOM     30  H5  UNL     1      -3.348  54.700  13.734  1.00  0.00     0.190 HD
ENDBRANCH   5  22
TORSDOF 3
ENDMDL
