MODEL 2
REMARK VINA RESULT: -8.728962436      0.976      1.114
REMARK  3 active torsions:
REMARK  status: ('A' for Active; 'I' for Inactive)
REMARK       I    between atoms: C1_2  and  N1_3 
REMARK    1  A    between atoms: C1_2  and  C9_20 
REMARK    2  A    between atoms: N1_3  and  C2_5 
REMARK    3  A    between atoms: C6_9  and  C7_10 
ROOT
HETATM    1  C2  UNL     1      -6.974  54.230  12.591  1.00  0.00     0.035 A 
HETATM    2  C3  UNL     1      -7.485  53.343  13.539  1.00  0.00     0.029 A 
HETATM    3  C4  UNL     1      -6.720  52.459  14.247  1.00  0.00     0.003 A 
HETATM    4  C5  UNL     1      -5.367  52.423  14.031  1.00  0.00     0.015 A 
HETATM    5  C6  UNL     1      -4.810  53.277  13.106  1.00  0.00     0.013 A 
HETATM    6  C8  UNL     1      -5.640  54.166  12.406  1.00  0.00     0.044 A 
ENDROOT
BRANCH   1   7
HETATM    7  N1  UNL     1      -7.877  55.090  11.932  1.00  0.00    -0.323 N 
HETATM    8  C1  UNL     1      -8.917  55.809  12.558  1.00  0.00     0.256 C 
HETATM    9  O1  UNL     1      -9.117  55.731  13.795  1.00  0.00    -0.267 OA
ATOM     10  H1  UNL     1      -7.770  55.200  10.923  1.00  0.00     0.169 HD
BRANCH   8  11
HETATM   11  C9  UNL     1      -9.808  56.682  11.775  1.00  0.00     0.033 A 
HETATM   12  C10 UNL     1      -9.489  57.152  10.524  1.00  0.00     0.019 A 
HETATM   13  C11 UNL     1     -10.352  57.980   9.808  1.00  0.00     0.033 A 
HETATM   14  C12 UNL     1     -11.559  58.359  10.332  1.00  0.00     0.059 A 
HETATM   15  N6  UNL     1     -12.565  59.130   9.881  1.00  0.00    -0.300 N 
HETATM   16  C14 UNL     1     -11.889  57.897  11.581  1.00  0.00     0.010 A 
HETATM   17  N7  UNL     1     -13.500  59.166  10.788  1.00  0.00    -0.311 N 
ATOM     18  H6  UNL     1     -12.592  59.606   8.979  1.00  0.00     0.187 HD
HETATM   19  C13 UNL     1     -13.146  58.432  11.852  1.00  0.00     0.120 A 
ATOM     20  H7  UNL     1     -14.377  59.680  10.701  1.00  0.00     0.186 HD
HETATM   21  C15 UNL     1     -11.035  57.077  12.289  1.00  0.00     0.032 A 
ENDBRANCH   8  11
ENDBRANCH   1   7
BRANCH   5  22
HETATM   22  C7  UNL     1      -3.374  53.261  12.856  1.00  0.00     0.147 A 
HETATM   23  N2  UNL     1      -2.430  53.440  13.791  1.00  0.00    -0.268 N 
HETATM   24  N3  UNL     1      -1.239  53.366  13.227  1.00  0.00    -0.227 N 
ATOM     25  H2  UNL     1      -2.605  53.607  14.782  1.00  0.00     0.190 HD
HETATM   26  N4  UNL     1      -1.409  53.141  11.942  1.00  0.00    -0.227 N 
ATOM     27  H3  UNL     1      -0.342  53.465  13.703  1.00  0.00     0.210 HD
HETATM   28  N5  UNL     1      -2.701  53.077  11.713  1.00  0.00    -0.268 N 
ATOM     29  H4  UNL     1      -0.670  53.035  11.247  1.00  0.00     0.210 HD
ATOM     30  H5  UNL     1      -3.127  52.912  10.801  1.00  0.00     0.190 HD
ENDBRANCH   5  22
TORSDOF 3
ENDMDL
