MODEL 10
REMARK VINA RESULT: -8.039142903      1.599      1.767
REMARK  3 active torsions:
REMARK  status: ('A' for Active; 'I' for Inactive)
REMARK       I    between atoms: C1_2  and  N1_3 
REMARK    1  A    between atoms: C1_2  and  C9_20 
REMARK    2  A    between atoms: N1_3  and  C2_5 
REMARK    3  A    between atoms: C6_9  and  C7_10 
ROOT
HETATM    1  C2  UNL     1      -6.988  54.241  12.869  1.00  0.00     0.035 A 
HETATM    2  C3  UNL     1      -7.371  53.431  13.938  1.00  0.00     0.029 A 
HETATM    3  C4  UNL     1      -6.520  52.600  14.609  1.00  0.00     0.003 A 
HETATM    4  C5  UNL     1      -5.204  52.541  14.228  1.00  0.00     0.015 A 
HETATM    5  C6  UNL     1      -4.772  53.320  13.179  1.00  0.00     0.013 A 
HETATM    6  C8  UNL     1      -5.688  54.157  12.523  1.00  0.00     0.044 A 
ENDROOT
BRANCH   1   7
HETATM    7  N1  UNL     1      -7.971  55.053  12.264  1.00  0.00    -0.323 N 
HETATM    8  C1  UNL     1      -8.855  54.635  11.247  1.00  0.00     0.256 C 
HETATM    9  O1  UNL     1      -8.827  53.465  10.793  1.00  0.00    -0.267 OA
ATOM     10  H1  UNL     1      -8.048  56.017  12.588  1.00  0.00     0.169 HD
BRANCH   8  11
HETATM   11  C9  UNL     1      -9.847  55.566  10.681  1.00  0.00     0.033 A 
HETATM   12  C10 UNL     1     -10.667  55.241   9.628  1.00  0.00     0.019 A 
HETATM   13  C11 UNL     1     -11.593  56.145   9.113  1.00  0.00     0.033 A 
HETATM   14  C12 UNL     1     -11.719  57.402   9.641  1.00  0.00     0.059 A 
HETATM   15  N6  UNL     1     -12.505  58.455   9.353  1.00  0.00    -0.300 N 
HETATM   16  C14 UNL     1     -10.904  57.740  10.692  1.00  0.00     0.010 A 
HETATM   17  N7  UNL     1     -12.217  59.426  10.174  1.00  0.00    -0.311 N 
ATOM     18  H6  UNL     1     -13.209  58.489   8.615  1.00  0.00     0.187 HD
HETATM   19  C13 UNL     1     -11.245  59.051  11.017  1.00  0.00     0.120 A 
ATOM     20  H7  UNL     1     -12.667  60.341  10.175  1.00  0.00     0.186 HD
HETATM   21  C15 UNL     1      -9.988  56.844  11.203  1.00  0.00     0.032 A 
ENDBRANCH   8  11
ENDBRANCH   1   7
BRANCH   5  22
HETATM   22  C7  UNL     1      -3.379  53.278  12.753  1.00  0.00     0.147 A 
HETATM   23  N2  UNL     1      -2.322  53.358  13.574  1.00  0.00    -0.268 N 
HETATM   24  N3  UNL     1      -1.211  53.289  12.863  1.00  0.00    -0.227 N 
ATOM     25  H2  UNL     1      -2.369  53.457  14.588  1.00  0.00     0.190 HD
HETATM   26  N4  UNL     1      -1.545  53.165  11.596  1.00  0.00    -0.227 N 
ATOM     27  H3  UNL     1      -0.261  53.325  13.231  1.00  0.00     0.210 HD
HETATM   28  N5  UNL     1      -2.857  53.158  11.525  1.00  0.00    -0.268 N 
ATOM     29  H4  UNL     1      -0.900  53.087  10.810  1.00  0.00     0.210 HD
ATOM     30  H5  UNL     1      -3.397  53.073  10.664  1.00  0.00     0.190 HD
ENDBRANCH   5  22
TORSDOF 3
ENDMDL
