MODEL 8
REMARK VINA RESULT: -8.127513065      1.033      1.116
REMARK  3 active torsions:
REMARK  status: ('A' for Active; 'I' for Inactive)
REMARK       I    between atoms: C1_2  and  N1_3 
REMARK    1  A    between atoms: C1_2  and  C9_20 
REMARK    2  A    between atoms: N1_3  and  C2_5 
REMARK    3  A    between atoms: C6_9  and  C7_10 
ROOT
HETATM    1  C2  UNL     1      -6.854  52.918  11.458  1.00  0.00     0.035 A 
HETATM    2  C3  UNL     1      -7.246  51.583  11.552  1.00  0.00     0.029 A 
HETATM    3  C4  UNL     1      -6.455  50.589  12.055  1.00  0.00     0.003 A 
HETATM    4  C5  UNL     1      -5.196  50.898  12.501  1.00  0.00     0.015 A 
HETATM    5  C6  UNL     1      -4.758  52.201  12.432  1.00  0.00     0.013 A 
HETATM    6  C8  UNL     1      -5.611  53.184  11.907  1.00  0.00     0.044 A 
ENDROOT
BRANCH   1   7
HETATM    7  N1  UNL     1      -7.772  53.843  10.918  1.00  0.00    -0.323 N 
HETATM    8  C1  UNL     1      -8.718  54.578  11.664  1.00  0.00     0.256 C 
HETATM    9  O1  UNL     1      -8.810  54.455  12.910  1.00  0.00    -0.267 OA
ATOM     10  H1  UNL     1      -7.750  53.992   9.909  1.00  0.00     0.169 HD
BRANCH   8  11
HETATM   11  C9  UNL     1      -9.634  55.521  10.999  1.00  0.00     0.033 A 
HETATM   12  C10 UNL     1     -10.230  55.262   9.789  1.00  0.00     0.019 A 
HETATM   13  C11 UNL     1     -11.089  56.176   9.183  1.00  0.00     0.033 A 
HETATM   14  C12 UNL     1     -11.372  57.377   9.777  1.00  0.00     0.059 A 
HETATM   15  N6  UNL     1     -12.143  58.424   9.432  1.00  0.00    -0.300 N 
HETATM   16  C14 UNL     1     -10.781  57.649  10.986  1.00  0.00     0.010 A 
HETATM   17  N7  UNL     1     -12.059  59.328  10.368  1.00  0.00    -0.311 N 
ATOM     18  H6  UNL     1     -12.700  58.498   8.581  1.00  0.00     0.187 HD
HETATM   19  C13 UNL     1     -11.241  58.913  11.345  1.00  0.00     0.120 A 
ATOM     20  H7  UNL     1     -12.547  60.224  10.358  1.00  0.00     0.186 HD
HETATM   21  C15 UNL     1      -9.931  56.743  11.585  1.00  0.00     0.032 A 
ENDBRANCH   8  11
ENDBRANCH   1   7
BRANCH   5  22
HETATM   22  C7  UNL     1      -3.425  52.559  12.899  1.00  0.00     0.147 A 
HETATM   23  N2  UNL     1      -2.342  51.773  12.805  1.00  0.00    -0.268 N 
HETATM   24  N3  UNL     1      -1.302  52.401  13.322  1.00  0.00    -0.227 N 
ATOM     25  H2  UNL     1      -2.325  50.838  12.397  1.00  0.00     0.190 HD
HETATM   26  N4  UNL     1      -1.706  53.579  13.746  1.00  0.00    -0.227 N 
ATOM     27  H3  UNL     1      -0.351  52.037  13.382  1.00  0.00     0.210 HD
HETATM   28  N5  UNL     1      -2.991  53.678  13.492  1.00  0.00    -0.268 N 
ATOM     29  H4  UNL     1      -1.125  54.289  14.192  1.00  0.00     0.210 HD
ATOM     30  H5  UNL     1      -3.571  54.488  13.712  1.00  0.00     0.190 HD
ENDBRANCH   5  22
TORSDOF 3
ENDMDL
