MODEL 5
REMARK VINA RESULT: -8.362464264      1.611      2.025
REMARK  3 active torsions:
REMARK  status: ('A' for Active; 'I' for Inactive)
REMARK       I    between atoms: C1_2  and  N1_3 
REMARK    1  A    between atoms: C1_2  and  C9_20 
REMARK    2  A    between atoms: N1_3  and  C2_5 
REMARK    3  A    between atoms: C6_9  and  C7_10 
ROOT
HETATM    1  C2  UNL     1      -7.043  54.055  12.595  1.00  0.00     0.035 A 
HETATM    2  C3  UNL     1      -7.463  53.322  13.704  1.00  0.00     0.029 A 
HETATM    3  C4  UNL     1      -6.625  52.595  14.501  1.00  0.00     0.003 A 
HETATM    4  C5  UNL     1      -5.284  52.570  14.213  1.00  0.00     0.015 A 
HETATM    5  C6  UNL     1      -4.815  53.277  13.130  1.00  0.00     0.013 A 
HETATM    6  C8  UNL     1      -5.720  54.008  12.343  1.00  0.00     0.044 A 
ENDROOT
BRANCH   1   7
HETATM    7  N1  UNL     1      -8.017  54.762  11.858  1.00  0.00    -0.323 N 
HETATM    8  C1  UNL     1      -9.009  55.597  12.416  1.00  0.00     0.256 C 
HETATM    9  O1  UNL     1      -9.095  55.776  13.656  1.00  0.00    -0.267 OA
ATOM     10  H1  UNL     1      -8.003  54.662  10.843  1.00  0.00     0.169 HD
BRANCH   8  11
HETATM   11  C9  UNL     1      -9.982  56.291  11.554  1.00  0.00     0.033 A 
HETATM   12  C10 UNL     1     -10.551  57.496  11.885  1.00  0.00     0.019 A 
HETATM   13  C11 UNL     1     -11.472  58.127  11.050  1.00  0.00     0.033 A 
HETATM   14  C12 UNL     1     -11.846  57.560   9.860  1.00  0.00     0.059 A 
HETATM   15  N6  UNL     1     -12.691  57.932   8.881  1.00  0.00    -0.300 N 
HETATM   16  C14 UNL     1     -11.285  56.356   9.520  1.00  0.00     0.010 A 
HETATM   17  N7  UNL     1     -12.679  57.017   7.953  1.00  0.00    -0.311 N 
ATOM     18  H6  UNL     1     -13.248  58.786   8.868  1.00  0.00     0.187 HD
HETATM   19  C13 UNL     1     -11.839  56.027   8.285  1.00  0.00     0.120 A 
ATOM     20  H7  UNL     1     -13.231  57.050   7.096  1.00  0.00     0.186 HD
HETATM   21  C15 UNL     1     -10.373  55.733  10.346  1.00  0.00     0.032 A 
ENDBRANCH   8  11
ENDBRANCH   1   7
BRANCH   5  22
HETATM   22  C7  UNL     1      -3.396  53.269  12.800  1.00  0.00     0.147 A 
HETATM   23  N2  UNL     1      -2.402  53.460  13.680  1.00  0.00    -0.268 N 
HETATM   24  N3  UNL     1      -1.243  53.390  13.051  1.00  0.00    -0.227 N 
ATOM     25  H2  UNL     1      -2.523  53.633  14.679  1.00  0.00     0.190 HD
HETATM   26  N4  UNL     1      -1.483  53.155  11.779  1.00  0.00    -0.227 N 
ATOM     27  H3  UNL     1      -0.323  53.498  13.477  1.00  0.00     0.210 HD
HETATM   28  N5  UNL     1      -2.785  53.081  11.623  1.00  0.00    -0.268 N 
ATOM     29  H4  UNL     1      -0.783  53.049  11.045  1.00  0.00     0.210 HD
ATOM     30  H5  UNL     1      -3.260  52.907  10.737  1.00  0.00     0.190 HD
ENDBRANCH   5  22
TORSDOF 3
ENDMDL
