MODEL 7
REMARK VINA RESULT: -8.138908787      1.517      8.523
REMARK  3 active torsions:
REMARK  status: ('A' for Active; 'I' for Inactive)
REMARK       I    between atoms: C1_2  and  N1_3 
REMARK    1  A    between atoms: C1_2  and  C9_20 
REMARK    2  A    between atoms: N1_3  and  C2_5 
REMARK    3  A    between atoms: C6_9  and  C7_10 
ROOT
HETATM    1  C2  UNL     1      -9.235  54.576  10.914  1.00  0.00     0.035 A 
HETATM    2  C3  UNL     1     -10.244  53.751  10.418  1.00  0.00     0.029 A 
HETATM    3  C4  UNL     1     -11.496  54.187  10.092  1.00  0.00     0.003 A 
HETATM    4  C5  UNL     1     -11.805  55.514  10.253  1.00  0.00     0.015 A 
HETATM    5  C6  UNL     1     -10.846  56.373  10.738  1.00  0.00     0.013 A 
HETATM    6  C8  UNL     1      -9.574  55.873  11.058  1.00  0.00     0.044 A 
ENDROOT
BRANCH   1   7
HETATM    7  N1  UNL     1      -7.985  53.994  11.211  1.00  0.00    -0.323 N 
HETATM    8  C1  UNL     1      -7.602  53.495  12.474  1.00  0.00     0.256 C 
HETATM    9  O1  UNL     1      -8.378  53.536  13.460  1.00  0.00    -0.267 OA
ATOM     10  H1  UNL     1      -7.305  53.928  10.453  1.00  0.00     0.169 HD
BRANCH   8  11
HETATM   11  C9  UNL     1      -6.267  52.905  12.679  1.00  0.00     0.033 A 
HETATM   12  C10 UNL     1      -6.055  51.553  12.805  1.00  0.00     0.019 A 
HETATM   13  C11 UNL     1      -4.781  51.026  13.000  1.00  0.00     0.033 A 
HETATM   14  C12 UNL     1      -3.684  51.843  13.077  1.00  0.00     0.059 A 
HETATM   15  N6  UNL     1      -2.370  51.618  13.256  1.00  0.00    -0.300 N 
HETATM   16  C14 UNL     1      -3.883  53.195  12.954  1.00  0.00     0.010 A 
HETATM   17  N7  UNL     1      -1.748  52.763  13.249  1.00  0.00    -0.311 N 
ATOM     18  H6  UNL     1      -1.934  50.704  13.378  1.00  0.00     0.187 HD
HETATM   19  C13 UNL     1      -2.618  53.766  13.069  1.00  0.00     0.120 A 
ATOM     20  H7  UNL     1      -0.741  52.880  13.365  1.00  0.00     0.186 HD
HETATM   21  C15 UNL     1      -5.145  53.717  12.759  1.00  0.00     0.032 A 
ENDBRANCH   8  11
ENDBRANCH   1   7
BRANCH   5  22
HETATM   22  C7  UNL     1     -11.145  57.788  10.918  1.00  0.00     0.147 A 
HETATM   23  N2  UNL     1     -11.159  58.702   9.936  1.00  0.00    -0.268 N 
HETATM   24  N3  UNL     1     -11.467  59.881  10.442  1.00  0.00    -0.227 N 
ATOM     25  H2  UNL     1     -10.963  58.513   8.953  1.00  0.00     0.190 HD
HETATM   26  N4  UNL     1     -11.650  59.735  11.737  1.00  0.00    -0.227 N 
ATOM     27  H3  UNL     1     -11.548  60.754   9.921  1.00  0.00     0.210 HD
HETATM   28  N5  UNL     1     -11.456  58.469  12.029  1.00  0.00    -0.268 N 
ATOM     29  H4  UNL     1     -11.898  60.472  12.396  1.00  0.00     0.210 HD
ATOM     30  H5  UNL     1     -11.531  58.065  12.963  1.00  0.00     0.190 HD
ENDBRANCH   5  22
TORSDOF 3
ENDMDL
