MODEL 3
REMARK VINA RESULT: -8.416466996      4.386      8.608
REMARK  3 active torsions:
REMARK  status: ('A' for Active; 'I' for Inactive)
REMARK       I    between atoms: C1_2  and  N1_3 
REMARK    1  A    between atoms: C1_2  and  C9_20 
REMARK    2  A    between atoms: N1_3  and  C2_5 
REMARK    3  A    between atoms: C6_9  and  C7_10 
ROOT
HETATM    1  C2  UNL     1      -7.266  55.219   7.338  1.00  0.00     0.035 A 
HETATM    2  C3  UNL     1      -6.392  54.584   6.456  1.00  0.00     0.029 A 
HETATM    3  C4  UNL     1      -6.551  54.572   5.099  1.00  0.00     0.003 A 
HETATM    4  C5  UNL     1      -7.627  55.217   4.547  1.00  0.00     0.015 A 
HETATM    5  C6  UNL     1      -8.521  55.861   5.371  1.00  0.00     0.013 A 
HETATM    6  C8  UNL     1      -8.312  55.843   6.759  1.00  0.00     0.044 A 
ENDROOT
BRANCH   1   7
HETATM    7  N1  UNL     1      -6.983  55.153   8.718  1.00  0.00    -0.323 N 
HETATM    8  C1  UNL     1      -7.468  54.163   9.600  1.00  0.00     0.256 C 
HETATM    9  O1  UNL     1      -8.214  53.236   9.199  1.00  0.00    -0.267 OA
ATOM     10  H1  UNL     1      -6.380  55.877   9.109  1.00  0.00     0.169 HD
BRANCH   8  11
HETATM   11  C9  UNL     1      -7.112  54.187  11.029  1.00  0.00     0.033 A 
HETATM   12  C10 UNL     1      -7.600  55.122  11.909  1.00  0.00     0.019 A 
HETATM   13  C11 UNL     1      -7.241  55.120  13.255  1.00  0.00     0.033 A 
HETATM   14  C12 UNL     1      -6.379  54.178  13.753  1.00  0.00     0.059 A 
HETATM   15  N6  UNL     1      -5.870  53.941  14.975  1.00  0.00    -0.300 N 
HETATM   16  C14 UNL     1      -5.884  53.240  12.883  1.00  0.00     0.010 A 
HETATM   17  N7  UNL     1      -5.086  52.902  14.904  1.00  0.00    -0.311 N 
ATOM     18  H6  UNL     1      -6.065  54.483  15.817  1.00  0.00     0.187 HD
HETATM   19  C13 UNL     1      -5.052  52.428  13.651  1.00  0.00     0.120 A 
ATOM     20  H7  UNL     1      -4.571  52.506  15.691  1.00  0.00     0.186 HD
HETATM   21  C15 UNL     1      -6.241  53.241  11.551  1.00  0.00     0.032 A 
ENDBRANCH   8  11
ENDBRANCH   1   7
BRANCH   5  22
HETATM   22  C7  UNL     1      -9.674  56.555   4.811  1.00  0.00     0.147 A 
HETATM   23  N2  UNL     1      -9.623  57.722   4.153  1.00  0.00    -0.268 N 
HETATM   24  N3  UNL     1     -10.842  58.068   3.783  1.00  0.00    -0.227 N 
ATOM     25  H2  UNL     1      -8.774  58.258   3.967  1.00  0.00     0.190 HD
HETATM   26  N4  UNL     1     -11.674  57.136   4.196  1.00  0.00    -0.227 N 
ATOM     27  H3  UNL     1     -11.095  58.910   3.266  1.00  0.00     0.210 HD
HETATM   28  N5  UNL     1     -10.971  56.218   4.819  1.00  0.00    -0.268 N 
ATOM     29  H4  UNL     1     -12.684  57.128   4.057  1.00  0.00     0.210 HD
ATOM     30  H5  UNL     1     -11.355  55.375   5.246  1.00  0.00     0.190 HD
ENDBRANCH   5  22
TORSDOF 3
ENDMDL
