MODEL 4
REMARK VINA RESULT: -8.374314032      4.613      8.232
REMARK  3 active torsions:
REMARK  status: ('A' for Active; 'I' for Inactive)
REMARK       I    between atoms: C1_2  and  N1_3 
REMARK    1  A    between atoms: C1_2  and  C9_20 
REMARK    2  A    between atoms: N1_3  and  C2_5 
REMARK    3  A    between atoms: C6_9  and  C7_10 
ROOT
HETATM    1  C2  UNL     1      -6.978  54.167   7.460  1.00  0.00     0.035 A 
HETATM    2  C3  UNL     1      -6.743  53.036   6.679  1.00  0.00     0.029 A 
HETATM    3  C4  UNL     1      -7.000  52.967   5.339  1.00  0.00     0.003 A 
HETATM    4  C5  UNL     1      -7.520  54.064   4.700  1.00  0.00     0.015 A 
HETATM    5  C6  UNL     1      -7.770  55.208   5.424  1.00  0.00     0.013 A 
HETATM    6  C8  UNL     1      -7.488  55.226   6.799  1.00  0.00     0.044 A 
ENDROOT
BRANCH   1   7
HETATM    7  N1  UNL     1      -6.667  54.102   8.834  1.00  0.00    -0.323 N 
HETATM    8  C1  UNL     1      -7.611  54.139   9.883  1.00  0.00     0.256 C 
HETATM    9  O1  UNL     1      -8.841  54.235   9.655  1.00  0.00    -0.267 OA
ATOM     10  H1  UNL     1      -5.682  54.022   9.090  1.00  0.00     0.169 HD
BRANCH   8  11
HETATM   11  C9  UNL     1      -7.178  54.065  11.289  1.00  0.00     0.033 A 
HETATM   12  C10 UNL     1      -7.481  55.029  12.220  1.00  0.00     0.019 A 
HETATM   13  C11 UNL     1      -7.055  54.932  13.542  1.00  0.00     0.033 A 
HETATM   14  C12 UNL     1      -6.310  53.864  13.966  1.00  0.00     0.059 A 
HETATM   15  N6  UNL     1      -5.775  53.517  15.150  1.00  0.00    -0.300 N 
HETATM   16  C14 UNL     1      -6.000  52.894  13.046  1.00  0.00     0.010 A 
HETATM   17  N7  UNL     1      -5.151  52.382  15.008  1.00  0.00    -0.311 N 
ATOM     18  H6  UNL     1      -5.846  54.053  16.016  1.00  0.00     0.187 HD
HETATM   19  C13 UNL     1      -5.252  51.949  13.743  1.00  0.00     0.120 A 
ATOM     20  H7  UNL     1      -4.656  51.891  15.753  1.00  0.00     0.186 HD
HETATM   21  C15 UNL     1      -6.424  52.990  11.736  1.00  0.00     0.032 A 
ENDBRANCH   8  11
ENDBRANCH   1   7
BRANCH   5  22
HETATM   22  C7  UNL     1      -8.321  56.389   4.772  1.00  0.00     0.147 A 
HETATM   23  N2  UNL     1      -7.597  57.331   4.151  1.00  0.00    -0.268 N 
HETATM   24  N3  UNL     1      -8.407  58.258   3.672  1.00  0.00    -0.227 N 
ATOM     25  H2  UNL     1      -6.581  57.332   4.062  1.00  0.00     0.190 HD
HETATM   26  N4  UNL     1      -9.641  57.920   3.979  1.00  0.00    -0.227 N 
ATOM     27  H3  UNL     1      -8.126  59.090   3.154  1.00  0.00     0.210 HD
HETATM   28  N5  UNL     1      -9.593  56.789   4.645  1.00  0.00    -0.268 N 
ATOM     29  H4  UNL     1     -10.484  58.442   3.742  1.00  0.00     0.210 HD
ATOM     30  H5  UNL     1     -10.404  56.289   5.011  1.00  0.00     0.190 HD
ENDBRANCH   5  22
TORSDOF 3
ENDMDL
