MODEL 2
REMARK VINA RESULT: -7.745805695      1.201      1.319
REMARK  5 active torsions:
REMARK  status: ('A' for Active; 'I' for Inactive)
REMARK    1  A    between atoms: N1_2  and  C3_4 
REMARK    2  A    between atoms: C3_4  and  C4_5 
REMARK    3  A    between atoms: C8_9  and  C9_10 
REMARK       I    between atoms: C9_10  and  N2_12 
REMARK    4  A    between atoms: N2_12  and  C10_14 
REMARK    5  A    between atoms: C14_18  and  C15_19 
ROOT
HETATM    1  C10 UNL     1      -6.389  54.916  12.954  1.00  0.00     0.035 A 
HETATM    2  C11 UNL     1      -6.888  54.199  14.062  1.00  0.00     0.029 A 
HETATM    3  C12 UNL     1      -6.163  53.213  14.680  1.00  0.00     0.003 A 
HETATM    4  C13 UNL     1      -4.921  52.937  14.184  1.00  0.00     0.015 A 
HETATM    5  C14 UNL     1      -4.363  53.585  13.114  1.00  0.00     0.013 A 
HETATM    6  C16 UNL     1      -5.136  54.589  12.507  1.00  0.00     0.044 A 
ENDROOT
BRANCH   1   7
HETATM    7  N2  UNL     1      -7.228  55.908  12.426  1.00  0.00    -0.323 N 
HETATM    8  C9  UNL     1      -8.580  55.692  12.092  1.00  0.00     0.256 C 
HETATM    9  O1  UNL     1      -9.132  54.579  12.254  1.00  0.00    -0.267 OA
ATOM     10  H2  UNL     1      -6.838  56.838  12.276  1.00  0.00     0.169 HD
BRANCH   8  11
HETATM   11  C8  UNL     1      -9.424  56.757  11.533  1.00  0.00     0.032 A 
HETATM   12  C7  UNL     1      -8.980  57.417  10.384  1.00  0.00     0.017 A 
HETATM   13  C6  UNL     1      -9.745  58.423   9.837  1.00  0.00     0.002 A 
HETATM   14  C5  UNL     1     -10.949  58.788  10.410  1.00  0.00     0.009 A 
HETATM   15  C4  UNL     1     -11.387  58.140  11.537  1.00  0.00    -0.029 A 
HETATM   16  C17 UNL     1     -10.621  57.118  12.104  1.00  0.00     0.026 A 
BRANCH  15  17
HETATM   17  C3  UNL     1     -12.664  58.488  12.192  1.00  0.00     0.309 C 
BRANCH  17  18
HETATM   18  N1  UNL     1     -13.348  59.560  11.532  1.00  0.00     0.084 N 
HETATM   19  C1  UNL     1     -13.719  60.553  12.542  1.00  0.00     0.309 C 
HETATM   20  C2  UNL     1     -14.567  59.036  10.945  1.00  0.00     0.309 C 
ENDBRANCH  17  18
ENDBRANCH  15  17
ENDBRANCH   8  11
ENDBRANCH   1   7
BRANCH   5  21
HETATM   21  C15 UNL     1      -3.041  53.283  12.592  1.00  0.00     0.147 A 
HETATM   22  N3  UNL     1      -2.385  53.884  11.590  1.00  0.00    -0.268 N 
HETATM   23  N4  UNL     1      -1.189  53.299  11.424  1.00  0.00    -0.227 N 
ATOM     24  H3  UNL     1      -2.740  54.665  11.037  1.00  0.00     0.190 HD
HETATM   25  N5  UNL     1      -1.093  52.337  12.319  1.00  0.00    -0.227 N 
ATOM     26  H4  UNL     1      -0.483  53.553  10.732  1.00  0.00     0.210 HD
HETATM   27  N6  UNL     1      -2.212  52.323  13.029  1.00  0.00    -0.268 N 
ATOM     28  H5  UNL     1      -0.296  51.713  12.443  1.00  0.00     0.210 HD
ATOM     29  H6  UNL     1      -2.413  51.678  13.793  1.00  0.00     0.190 HD
ENDBRANCH   5  21
TORSDOF 5
ENDMDL
