MODEL 13
REMARK VINA RESULT: -7.292646088      1.194      1.408
REMARK  5 active torsions:
REMARK  status: ('A' for Active; 'I' for Inactive)
REMARK    1  A    between atoms: N1_2  and  C3_4 
REMARK    2  A    between atoms: C3_4  and  C4_5 
REMARK    3  A    between atoms: C8_9  and  C9_10 
REMARK       I    between atoms: C9_10  and  N2_12 
REMARK    4  A    between atoms: N2_12  and  C10_14 
REMARK    5  A    between atoms: C14_18  and  C15_19 
ROOT
HETATM    1  C10 UNL     1      -6.906  53.689  11.554  1.00  0.00     0.035 A 
HETATM    2  C11 UNL     1      -7.470  52.401  11.681  1.00  0.00     0.029 A 
HETATM    3  C12 UNL     1      -6.762  51.340  12.181  1.00  0.00     0.003 A 
HETATM    4  C13 UNL     1      -5.468  51.565  12.559  1.00  0.00     0.015 A 
HETATM    5  C14 UNL     1      -4.846  52.782  12.468  1.00  0.00     0.013 A 
HETATM    6  C16 UNL     1      -5.604  53.846  11.951  1.00  0.00     0.044 A 
ENDROOT
BRANCH   1   7
HETATM    7  N2  UNL     1      -7.745  54.688  11.041  1.00  0.00    -0.323 N 
HETATM    8  C9  UNL     1      -8.701  55.379  11.813  1.00  0.00     0.256 C 
HETATM    9  O1  UNL     1      -8.861  55.144  13.034  1.00  0.00    -0.267 OA
ATOM     10  H2  UNL     1      -7.660  54.928  10.054  1.00  0.00     0.169 HD
BRANCH   8  11
HETATM   11  C8  UNL     1      -9.569  56.414  11.235  1.00  0.00     0.032 A 
HETATM   12  C7  UNL     1      -8.967  57.475  10.554  1.00  0.00     0.017 A 
HETATM   13  C6  UNL     1      -9.751  58.464  10.005  1.00  0.00     0.002 A 
HETATM   14  C5  UNL     1     -11.128  58.422  10.117  1.00  0.00     0.009 A 
HETATM   15  C4  UNL     1     -11.721  57.380  10.786  1.00  0.00    -0.029 A 
HETATM   16  C17 UNL     1     -10.938  56.369  11.350  1.00  0.00     0.026 A 
BRANCH  15  17
HETATM   17  C3  UNL     1     -13.187  57.283  10.938  1.00  0.00     0.309 C 
BRANCH  17  18
HETATM   18  N1  UNL     1     -13.607  57.380  12.304  1.00  0.00     0.084 N 
HETATM   19  C1  UNL     1     -14.757  56.494  12.491  1.00  0.00     0.309 C 
HETATM   20  C2  UNL     1     -14.042  58.742  12.555  1.00  0.00     0.309 C 
ENDBRANCH  17  18
ENDBRANCH  15  17
ENDBRANCH   8  11
ENDBRANCH   1   7
BRANCH   5  21
HETATM   21  C15 UNL     1      -3.469  53.012  12.871  1.00  0.00     0.147 A 
HETATM   22  N3  UNL     1      -2.906  54.151  13.297  1.00  0.00    -0.268 N 
HETATM   23  N4  UNL     1      -1.609  53.934  13.567  1.00  0.00    -0.227 N 
ATOM     24  H3  UNL     1      -3.387  55.044  13.400  1.00  0.00     0.190 HD
HETATM   25  N5  UNL     1      -1.359  52.667  13.314  1.00  0.00    -0.227 N 
ATOM     26  H4  UNL     1      -0.940  54.626  13.906  1.00  0.00     0.210 HD
HETATM   27  N6  UNL     1      -2.482  52.102  12.892  1.00  0.00    -0.268 N 
ATOM     28  H5  UNL     1      -0.459  52.200  13.424  1.00  0.00     0.210 HD
ATOM     29  H6  UNL     1      -2.581  51.124  12.622  1.00  0.00     0.190 HD
ENDBRANCH   5  21
TORSDOF 5
ENDMDL
