MODEL 5
REMARK VINA RESULT: -7.618278234      3.406      6.068
REMARK  5 active torsions:
REMARK  status: ('A' for Active; 'I' for Inactive)
REMARK    1  A    between atoms: N1_2  and  C3_4 
REMARK    2  A    between atoms: C3_4  and  C4_5 
REMARK    3  A    between atoms: C8_9  and  C9_10 
REMARK       I    between atoms: C9_10  and  N2_12 
REMARK    4  A    between atoms: N2_12  and  C10_14 
REMARK    5  A    between atoms: C14_18  and  C15_19 
ROOT
HETATM    1  C10 UNL     1      -2.364  51.961  10.373  1.00  0.00     0.035 A 
HETATM    2  C11 UNL     1      -1.875  50.670  10.666  1.00  0.00     0.029 A 
HETATM    3  C12 UNL     1      -0.554  50.337  10.512  1.00  0.00     0.003 A 
HETATM    4  C13 UNL     1       0.294  51.307  10.058  1.00  0.00     0.015 A 
HETATM    5  C14 UNL     1      -0.099  52.583   9.751  1.00  0.00     0.013 A 
HETATM    6  C16 UNL     1      -1.460  52.887   9.921  1.00  0.00     0.044 A 
ENDROOT
BRANCH   1   7
HETATM    7  N2  UNL     1      -3.733  52.171  10.588  1.00  0.00    -0.323 N 
HETATM    8  C9  UNL     1      -4.269  52.665  11.794  1.00  0.00     0.256 C 
HETATM    9  O1  UNL     1      -3.540  52.960  12.770  1.00  0.00    -0.267 OA
ATOM     10  H2  UNL     1      -4.378  51.954   9.828  1.00  0.00     0.169 HD
BRANCH   8  11
HETATM   11  C8  UNL     1      -5.713  52.862  11.982  1.00  0.00     0.032 A 
HETATM   12  C7  UNL     1      -6.549  51.746  11.895  1.00  0.00     0.017 A 
HETATM   13  C6  UNL     1      -7.907  51.897  12.062  1.00  0.00     0.002 A 
HETATM   14  C5  UNL     1      -8.455  53.141  12.316  1.00  0.00     0.009 A 
HETATM   15  C4  UNL     1      -7.635  54.238  12.403  1.00  0.00    -0.029 A 
HETATM   16  C17 UNL     1      -6.255  54.100  12.235  1.00  0.00     0.026 A 
BRANCH  15  17
HETATM   17  C3  UNL     1      -8.166  55.590  12.671  1.00  0.00     0.309 C 
BRANCH  17  18
HETATM   18  N1  UNL     1      -9.134  56.006  11.701  1.00  0.00     0.084 N 
HETATM   19  C1  UNL     1      -8.424  56.670  10.606  1.00  0.00     0.309 C 
HETATM   20  C2  UNL     1     -10.018  56.976  12.320  1.00  0.00     0.309 C 
ENDBRANCH  17  18
ENDBRANCH  15  17
ENDBRANCH   8  11
ENDBRANCH   1   7
BRANCH   5  21
HETATM   21  C15 UNL     1       0.810  53.608   9.267  1.00  0.00     0.147 A 
HETATM   22  N3  UNL     1       2.148  53.569   9.198  1.00  0.00    -0.268 N 
HETATM   23  N4  UNL     1       2.603  54.724   8.690  1.00  0.00    -0.227 N 
ATOM     24  H3  UNL     1       2.730  52.783   9.488  1.00  0.00     0.190 HD
HETATM   25  N5  UNL     1       1.558  55.485   8.439  1.00  0.00    -0.227 N 
ATOM     26  H4  UNL     1       3.580  54.969   8.529  1.00  0.00     0.210 HD
HETATM   27  N6  UNL     1       0.468  54.814   8.787  1.00  0.00    -0.268 N 
ATOM     28  H5  UNL     1       1.582  56.425   8.046  1.00  0.00     0.210 HD
ATOM     29  H6  UNL     1      -0.486  55.162   8.702  1.00  0.00     0.190 HD
ENDBRANCH   5  21
TORSDOF 5
ENDMDL
