MODEL 6
REMARK VINA RESULT: -7.548309597      3.724      8.682
REMARK  5 active torsions:
REMARK  status: ('A' for Active; 'I' for Inactive)
REMARK    1  A    between atoms: N1_2  and  C3_4 
REMARK    2  A    between atoms: C3_4  and  C4_5 
REMARK    3  A    between atoms: C8_9  and  C9_10 
REMARK       I    between atoms: C9_10  and  N2_12 
REMARK    4  A    between atoms: N2_12  and  C10_14 
REMARK    5  A    between atoms: C14_18  and  C15_19 
ROOT
HETATM    1  C10 UNL     1      -8.524  54.885   9.047  1.00  0.00     0.035 A 
HETATM    2  C11 UNL     1      -9.926  54.771   9.171  1.00  0.00     0.029 A 
HETATM    3  C12 UNL     1     -10.786  55.277   8.232  1.00  0.00     0.003 A 
HETATM    4  C13 UNL     1     -10.240  55.910   7.151  1.00  0.00     0.015 A 
HETATM    5  C14 UNL     1      -8.893  56.065   6.956  1.00  0.00     0.013 A 
HETATM    6  C16 UNL     1      -8.043  55.532   7.939  1.00  0.00     0.044 A 
ENDROOT
BRANCH   1   7
HETATM    7  N2  UNL     1      -7.761  54.309  10.072  1.00  0.00    -0.323 N 
HETATM    8  C9  UNL     1      -7.407  54.984  11.257  1.00  0.00     0.256 C 
HETATM    9  O1  UNL     1      -7.765  56.164  11.479  1.00  0.00    -0.267 OA
ATOM     10  H2  UNL     1      -7.443  53.347   9.953  1.00  0.00     0.169 HD
BRANCH   8  11
HETATM   11  C8  UNL     1      -6.597  54.347  12.305  1.00  0.00     0.032 A 
HETATM   12  C7  UNL     1      -7.258  53.779  13.397  1.00  0.00     0.017 A 
HETATM   13  C6  UNL     1      -6.529  53.178  14.398  1.00  0.00     0.002 A 
HETATM   14  C5  UNL     1      -5.148  53.129  14.337  1.00  0.00     0.009 A 
HETATM   15  C4  UNL     1      -4.497  53.687  13.265  1.00  0.00    -0.029 A 
HETATM   16  C17 UNL     1      -5.224  54.300  12.242  1.00  0.00     0.026 A 
BRANCH  15  17
HETATM   17  C3  UNL     1      -3.025  53.664  13.147  1.00  0.00     0.309 C 
BRANCH  17  18
HETATM   18  N1  UNL     1      -2.571  52.848  12.062  1.00  0.00     0.084 N 
HETATM   19  C1  UNL     1      -2.090  51.581  12.616  1.00  0.00     0.309 C 
HETATM   20  C2  UNL     1      -1.452  53.514  11.422  1.00  0.00     0.309 C 
ENDBRANCH  17  18
ENDBRANCH  15  17
ENDBRANCH   8  11
ENDBRANCH   1   7
BRANCH   5  21
HETATM   21  C15 UNL     1      -8.321  56.741   5.804  1.00  0.00     0.147 A 
HETATM   22  N3  UNL     1      -8.853  57.729   5.070  1.00  0.00    -0.268 N 
HETATM   23  N4  UNL     1      -7.999  58.070   4.094  1.00  0.00    -0.227 N 
ATOM     24  H3  UNL     1      -9.766  58.155   5.229  1.00  0.00     0.190 HD
HETATM   25  N5  UNL     1      -6.935  57.303   4.213  1.00  0.00    -0.227 N 
ATOM     26  H4  UNL     1      -8.146  58.792   3.387  1.00  0.00     0.210 HD
HETATM   27  N6  UNL     1      -7.125  56.495   5.247  1.00  0.00    -0.268 N 
ATOM     28  H5  UNL     1      -6.109  57.326   3.615  1.00  0.00     0.210 HD
ATOM     29  H6  UNL     1      -6.462  55.792   5.571  1.00  0.00     0.190 HD
ENDBRANCH   5  21
TORSDOF 5
ENDMDL
