MODEL 1
REMARK VINA RESULT: -8.342190260      0.000      0.000
REMARK  5 active torsions:
REMARK  status: ('A' for Active; 'I' for Inactive)
REMARK    1  A    between atoms: N1_2  and  C3_4 
REMARK    2  A    between atoms: C3_4  and  C4_5 
REMARK    3  A    between atoms: C8_9  and  C9_10 
REMARK       I    between atoms: C9_10  and  N2_12 
REMARK    4  A    between atoms: N2_12  and  C10_14 
REMARK    5  A    between atoms: C14_18  and  C15_19 
ROOT
HETATM    1  C10 UNL     1      -7.131  54.301  11.755  1.00  0.00     0.035 A 
HETATM    2  C11 UNL     1      -7.735  53.073  12.103  1.00  0.00     0.029 A 
HETATM    3  C12 UNL     1      -7.011  52.013  12.583  1.00  0.00     0.003 A 
HETATM    4  C13 UNL     1      -5.662  52.178  12.717  1.00  0.00     0.015 A 
HETATM    5  C14 UNL     1      -4.998  53.334  12.403  1.00  0.00     0.013 A 
HETATM    6  C16 UNL     1      -5.773  54.399  11.914  1.00  0.00     0.044 A 
ENDROOT
BRANCH   1   7
HETATM    7  N2  UNL     1      -7.989  55.307  11.291  1.00  0.00    -0.323 N 
HETATM    8  C9  UNL     1      -8.859  56.039  12.124  1.00  0.00     0.256 C 
HETATM    9  O1  UNL     1      -8.917  55.838  13.359  1.00  0.00    -0.267 OA
ATOM     10  H2  UNL     1      -7.984  55.521  10.294  1.00  0.00     0.169 HD
BRANCH   8  11
HETATM   11  C8  UNL     1      -9.750  57.081  11.596  1.00  0.00     0.032 A 
HETATM   12  C7  UNL     1      -9.364  57.754  10.434  1.00  0.00     0.017 A 
HETATM   13  C6  UNL     1     -10.174  58.739   9.916  1.00  0.00     0.002 A 
HETATM   14  C5  UNL     1     -11.367  59.071  10.530  1.00  0.00     0.009 A 
HETATM   15  C4  UNL     1     -11.748  58.411  11.671  1.00  0.00    -0.029 A 
HETATM   16  C17 UNL     1     -10.936  57.409  12.210  1.00  0.00     0.026 A 
BRANCH  15  17
HETATM   17  C3  UNL     1     -13.011  58.724  12.370  1.00  0.00     0.309 C 
BRANCH  17  18
HETATM   18  N1  UNL     1     -13.817  59.668  11.656  1.00  0.00     0.084 N 
HETATM   19  C1  UNL     1     -14.179  60.747  12.577  1.00  0.00     0.309 C 
HETATM   20  C2  UNL     1     -15.038  59.005  11.235  1.00  0.00     0.309 C 
ENDBRANCH  17  18
ENDBRANCH  15  17
ENDBRANCH   8  11
ENDBRANCH   1   7
BRANCH   5  21
HETATM   21  C15 UNL     1      -3.562  53.499  12.547  1.00  0.00     0.147 A 
HETATM   22  N3  UNL     1      -2.866  53.798  13.653  1.00  0.00    -0.268 N 
HETATM   23  N4  UNL     1      -1.559  53.860  13.355  1.00  0.00    -0.227 N 
ATOM     24  H3  UNL     1      -3.267  53.954  14.578  1.00  0.00     0.190 HD
HETATM   25  N5  UNL     1      -1.433  53.601  12.070  1.00  0.00    -0.227 N 
ATOM     26  H4  UNL     1      -0.801  54.070  14.005  1.00  0.00     0.210 HD
HETATM   27  N6  UNL     1      -2.644  53.382  11.575  1.00  0.00    -0.268 N 
ATOM     28  H5  UNL     1      -0.558  53.573  11.547  1.00  0.00     0.210 HD
ATOM     29  H6  UNL     1      -2.847  53.158  10.601  1.00  0.00     0.190 HD
ENDBRANCH   5  21
TORSDOF 5
ENDMDL
