MODEL 4
REMARK VINA RESULT: -7.640185215      3.490      6.318
REMARK  5 active torsions:
REMARK  status: ('A' for Active; 'I' for Inactive)
REMARK    1  A    between atoms: N1_2  and  C3_4 
REMARK    2  A    between atoms: C3_4  and  C4_5 
REMARK    3  A    between atoms: C8_9  and  C9_10 
REMARK       I    between atoms: C9_10  and  N2_12 
REMARK    4  A    between atoms: N2_12  and  C10_14 
REMARK    5  A    between atoms: C14_18  and  C15_19 
ROOT
HETATM    1  C10 UNL     1      -2.045  51.894  10.847  1.00  0.00     0.035 A 
HETATM    2  C11 UNL     1      -1.540  50.576  10.884  1.00  0.00     0.029 A 
HETATM    3  C12 UNL     1      -0.293  50.259  10.413  1.00  0.00     0.003 A 
HETATM    4  C13 UNL     1       0.463  51.272   9.895  1.00  0.00     0.015 A 
HETATM    5  C14 UNL     1       0.049  52.575   9.822  1.00  0.00     0.013 A 
HETATM    6  C16 UNL     1      -1.235  52.862  10.315  1.00  0.00     0.044 A 
ENDROOT
BRANCH   1   7
HETATM    7  N2  UNL     1      -3.330  52.083  11.375  1.00  0.00    -0.323 N 
HETATM    8  C9  UNL     1      -3.735  53.251  12.050  1.00  0.00     0.256 C 
HETATM    9  O1  UNL     1      -2.959  54.220  12.220  1.00  0.00    -0.267 OA
ATOM     10  H2  UNL     1      -4.011  51.331  11.264  1.00  0.00     0.169 HD
BRANCH   8  11
HETATM   11  C8  UNL     1      -5.090  53.406  12.597  1.00  0.00     0.032 A 
HETATM   12  C7  UNL     1      -5.322  52.996  13.913  1.00  0.00     0.017 A 
HETATM   13  C6  UNL     1      -6.581  53.123  14.454  1.00  0.00     0.002 A 
HETATM   14  C5  UNL     1      -7.621  53.652  13.713  1.00  0.00     0.009 A 
HETATM   15  C4  UNL     1      -7.395  54.055  12.421  1.00  0.00    -0.029 A 
HETATM   16  C17 UNL     1      -6.123  53.932  11.857  1.00  0.00     0.026 A 
BRANCH  15  17
HETATM   17  C3  UNL     1      -8.468  54.627  11.582  1.00  0.00     0.309 C 
BRANCH  17  18
HETATM   18  N1  UNL     1      -8.330  56.040  11.396  1.00  0.00     0.084 N 
HETATM   19  C1  UNL     1      -9.506  56.693  11.974  1.00  0.00     0.309 C 
HETATM   20  C2  UNL     1      -8.313  56.317   9.972  1.00  0.00     0.309 C 
ENDBRANCH  17  18
ENDBRANCH  15  17
ENDBRANCH   8  11
ENDBRANCH   1   7
BRANCH   5  21
HETATM   21  C15 UNL     1       0.860  53.646   9.268  1.00  0.00     0.147 A 
HETATM   22  N3  UNL     1       0.457  54.824   8.772  1.00  0.00    -0.268 N 
HETATM   23  N4  UNL     1       1.525  55.524   8.361  1.00  0.00    -0.227 N 
ATOM     24  H3  UNL     1      -0.511  55.139   8.715  1.00  0.00     0.190 HD
HETATM   25  N5  UNL     1       2.594  54.792   8.598  1.00  0.00    -0.227 N 
ATOM     26  H4  UNL     1       1.512  56.454   7.940  1.00  0.00     0.210 HD
HETATM   27  N6  UNL     1       2.197  53.653   9.148  1.00  0.00    -0.268 N 
ATOM     28  H5  UNL     1       3.558  55.056   8.396  1.00  0.00     0.210 HD
ATOM     29  H6  UNL     1       2.815  52.894   9.436  1.00  0.00     0.190 HD
ENDBRANCH   5  21
TORSDOF 5
ENDMDL
