MODEL 3
REMARK VINA RESULT: -7.731438540      0.996      1.079
REMARK  5 active torsions:
REMARK  status: ('A' for Active; 'I' for Inactive)
REMARK    1  A    between atoms: N1_2  and  C3_4 
REMARK    2  A    between atoms: C3_4  and  C4_5 
REMARK    3  A    between atoms: C8_9  and  C9_10 
REMARK       I    between atoms: C9_10  and  N2_12 
REMARK    4  A    between atoms: N2_12  and  C10_14 
REMARK    5  A    between atoms: C14_18  and  C15_19 
ROOT
HETATM    1  C10 UNL     1      -7.052  54.566  12.379  1.00  0.00     0.035 A 
HETATM    2  C11 UNL     1      -7.615  53.772  13.402  1.00  0.00     0.029 A 
HETATM    3  C12 UNL     1      -6.849  52.978  14.215  1.00  0.00     0.003 A 
HETATM    4  C13 UNL     1      -5.500  52.974  14.005  1.00  0.00     0.015 A 
HETATM    5  C14 UNL     1      -4.875  53.713  13.036  1.00  0.00     0.013 A 
HETATM    6  C16 UNL     1      -5.692  54.515  12.222  1.00  0.00     0.044 A 
ENDROOT
BRANCH   1   7
HETATM    7  N2  UNL     1      -7.948  55.342  11.631  1.00  0.00    -0.323 N 
HETATM    8  C9  UNL     1      -8.966  56.131  12.202  1.00  0.00     0.256 C 
HETATM    9  O1  UNL     1      -9.136  56.196  13.442  1.00  0.00    -0.267 OA
ATOM     10  H2  UNL     1      -7.857  55.336  10.615  1.00  0.00     0.169 HD
BRANCH   8  11
HETATM   11  C8  UNL     1      -9.891  56.925  11.381  1.00  0.00     0.032 A 
HETATM   12  C7  UNL     1     -10.057  56.567  10.041  1.00  0.00     0.017 A 
HETATM   13  C6  UNL     1     -10.913  57.292   9.243  1.00  0.00     0.002 A 
HETATM   14  C5  UNL     1     -11.611  58.371   9.750  1.00  0.00     0.009 A 
HETATM   15  C4  UNL     1     -11.450  58.724  11.067  1.00  0.00    -0.029 A 
HETATM   16  C17 UNL     1     -10.584  57.998  11.889  1.00  0.00     0.026 A 
BRANCH  15  17
HETATM   17  C3  UNL     1     -12.169  59.868  11.663  1.00  0.00     0.309 C 
BRANCH  17  18
HETATM   18  N1  UNL     1     -13.587  59.667  11.704  1.00  0.00     0.084 N 
HETATM   19  C1  UNL     1     -14.222  60.747  10.946  1.00  0.00     0.309 C 
HETATM   20  C2  UNL     1     -14.026  59.765  13.084  1.00  0.00     0.309 C 
ENDBRANCH  17  18
ENDBRANCH  15  17
ENDBRANCH   8  11
ENDBRANCH   1   7
BRANCH   5  21
HETATM   21  C15 UNL     1      -3.438  53.701  12.819  1.00  0.00     0.147 A 
HETATM   22  N3  UNL     1      -2.459  53.883  13.716  1.00  0.00    -0.268 N 
HETATM   23  N4  UNL     1      -1.269  53.796  13.103  1.00  0.00    -0.227 N 
ATOM     24  H3  UNL     1      -2.597  54.061  14.711  1.00  0.00     0.190 HD
HETATM   25  N5  UNL     1      -1.498  53.558  11.828  1.00  0.00    -0.227 N 
ATOM     26  H4  UNL     1      -0.354  53.895  13.543  1.00  0.00     0.210 HD
HETATM   27  N6  UNL     1      -2.810  53.500  11.650  1.00  0.00    -0.268 N 
ATOM     28  H5  UNL     1      -0.789  53.440  11.104  1.00  0.00     0.210 HD
ATOM     29  H6  UNL     1      -3.274  53.329  10.758  1.00  0.00     0.190 HD
ENDBRANCH   5  21
TORSDOF 5
ENDMDL
