MODEL 10
REMARK VINA RESULT: -5.866542987      4.810      6.517
REMARK  1 active torsions:
REMARK  status: ('A' for Active; 'I' for Inactive)
REMARK    1  A    between atoms: C1_2  and  C2_4 
ROOT
HETATM    1  C2  UNL     1      15.809  10.879   4.107  1.00  0.00     0.253 C 
HETATM    2  C3  UNL     1      15.542   9.490   3.605  1.00  0.00     0.219 C 
HETATM    3  O3  UNL     1      15.110   8.600   4.594  1.00  0.00    -0.345 OA
HETATM    4  C4  UNL     1      14.451   8.989   5.754  1.00  0.00     0.102 A 
HETATM    5  C5  UNL     1      13.554   8.190   6.423  1.00  0.00     0.039 A 
HETATM    6  C6  UNL     1      12.944   8.638   7.558  1.00  0.00     0.003 A 
HETATM    7  C7  UNL     1      13.241   9.916   8.029  1.00  0.00     0.003 A 
HETATM    8  C8  UNL     1      14.133  10.735   7.380  1.00  0.00     0.040 A 
HETATM    9  C9  UNL     1      14.739  10.256   6.229  1.00  0.00     0.103 A 
HETATM   10  O4  UNL     1      15.649  11.004   5.507  1.00  0.00    -0.330 OA
ENDROOT
BRANCH   1  11
HETATM   11  C1  UNL     1      14.878  11.841   3.471  1.00  0.00     0.205 C 
HETATM   12  O1  UNL     1      15.186  13.053   3.480  1.00  0.00    -0.646 OA
HETATM   13  O2  UNL     1      13.697  11.439   2.878  1.00  0.00    -0.646 OA
ENDBRANCH   1  11
TORSDOF 1
ENDMDL
