MODEL 12
REMARK VINA RESULT: -5.823910320      5.482      7.304
REMARK  1 active torsions:
REMARK  status: ('A' for Active; 'I' for Inactive)
REMARK    1  A    between atoms: C1_2  and  C2_4 
ROOT
HETATM    1  C2  UNL     1      15.267  10.521   4.528  1.00  0.00     0.253 C 
HETATM    2  C3  UNL     1      16.313   9.457   4.695  1.00  0.00     0.219 C 
HETATM    3  O3  UNL     1      16.455   9.000   6.009  1.00  0.00    -0.345 OA
HETATM    4  C4  UNL     1      15.443   9.044   6.960  1.00  0.00     0.102 A 
HETATM    5  C5  UNL     1      15.337   8.151   8.000  1.00  0.00     0.039 A 
HETATM    6  C6  UNL     1      14.316   8.254   8.899  1.00  0.00     0.003 A 
HETATM    7  C7  UNL     1      13.381   9.277   8.748  1.00  0.00     0.003 A 
HETATM    8  C8  UNL     1      13.462  10.183   7.718  1.00  0.00     0.040 A 
HETATM    9  C9  UNL     1      14.510  10.056   6.819  1.00  0.00     0.103 A 
HETATM   10  O4  UNL     1      14.677  10.917   5.752  1.00  0.00    -0.330 OA
ENDROOT
BRANCH   1  11
HETATM   11  C1  UNL     1      14.176  10.033   3.652  1.00  0.00     0.205 C 
HETATM   12  O1  UNL     1      13.557  10.870   2.959  1.00  0.00    -0.646 OA
HETATM   13  O2  UNL     1      13.830   8.697   3.584  1.00  0.00    -0.646 OA
ENDBRANCH   1  11
TORSDOF 1
ENDMDL
