MODEL 3
REMARK VINA RESULT: -6.074251245      1.843      3.558
REMARK  1 active torsions:
REMARK  status: ('A' for Active; 'I' for Inactive)
REMARK    1  A    between atoms: C1_2  and  C2_4 
ROOT
HETATM    1  C2  UNL     1      17.379  10.795  -0.010  1.00  0.00     0.253 C 
HETATM    2  C3  UNL     1      15.964  11.170  -0.344  1.00  0.00     0.219 C 
HETATM    3  O3  UNL     1      15.049  10.915   0.682  1.00  0.00    -0.345 OA
HETATM    4  C4  UNL     1      15.388  10.867   2.029  1.00  0.00     0.102 A 
HETATM    5  C5  UNL     1      14.515  11.182   3.044  1.00  0.00     0.039 A 
HETATM    6  C6  UNL     1      14.915  11.113   4.346  1.00  0.00     0.003 A 
HETATM    7  C7  UNL     1      16.222  10.720   4.634  1.00  0.00     0.003 A 
HETATM    8  C8  UNL     1      17.115  10.400   3.639  1.00  0.00     0.040 A 
HETATM    9  C9  UNL     1      16.682  10.479   2.324  1.00  0.00     0.103 A 
HETATM   10  O4  UNL     1      17.505  10.178   1.256  1.00  0.00    -0.330 OA
ENDROOT
BRANCH   1  11
HETATM   11  C1  UNL     1      18.239  12.002   0.002  1.00  0.00     0.205 C 
HETATM   12  O1  UNL     1      19.468  11.852  -0.174  1.00  0.00    -0.646 OA
HETATM   13  O2  UNL     1      17.725  13.269   0.200  1.00  0.00    -0.646 OA
ENDBRANCH   1  11
TORSDOF 1
ENDMDL
