MODEL 19
REMARK VINA RESULT: -5.650132028      5.037      6.781
REMARK  1 active torsions:
REMARK  status: ('A' for Active; 'I' for Inactive)
REMARK    1  A    between atoms: C1_2  and  C2_4 
ROOT
HETATM    1  C2  UNL     1      15.042   9.773   3.665  1.00  0.00     0.253 C 
HETATM    2  C3  UNL     1      13.643   9.231   3.616  1.00  0.00     0.219 C 
HETATM    3  O3  UNL     1      13.280   8.488   4.744  1.00  0.00    -0.345 OA
HETATM    4  C4  UNL     1      13.846   8.661   6.002  1.00  0.00     0.102 A 
HETATM    5  C5  UNL     1      13.182   8.401   7.177  1.00  0.00     0.039 A 
HETATM    6  C6  UNL     1      13.800   8.593   8.377  1.00  0.00     0.003 A 
HETATM    7  C7  UNL     1      15.115   9.056   8.396  1.00  0.00     0.003 A 
HETATM    8  C8  UNL     1      15.803   9.324   7.237  1.00  0.00     0.040 A 
HETATM    9  C9  UNL     1      15.151   9.120   6.030  1.00  0.00     0.103 A 
HETATM   10  O4  UNL     1      15.758   9.360   4.813  1.00  0.00    -0.330 OA
ENDROOT
BRANCH   1  11
HETATM   11  C1  UNL     1      15.016  11.255   3.672  1.00  0.00     0.205 C 
HETATM   12  O1  UNL     1      14.066  11.831   3.099  1.00  0.00    -0.646 OA
HETATM   13  O2  UNL     1      16.002  12.004   4.285  1.00  0.00    -0.646 OA
ENDBRANCH   1  11
TORSDOF 1
ENDMDL
