MODEL 1
REMARK VINA RESULT: -6.594960332      0.000      0.000
REMARK  1 active torsions:
REMARK  status: ('A' for Active; 'I' for Inactive)
REMARK    1  A    between atoms: C1_2  and  C2_4 
ROOT
HETATM    1  C2  UNL     1      17.588  12.166   0.730  1.00  0.00     0.253 C 
HETATM    2  C3  UNL     1      16.827  11.740   1.952  1.00  0.00     0.219 C 
HETATM    3  O3  UNL     1      15.570  11.192   1.678  1.00  0.00    -0.345 OA
HETATM    4  C4  UNL     1      15.239  10.570   0.480  1.00  0.00     0.102 A 
HETATM    5  C5  UNL     1      14.296   9.576   0.375  1.00  0.00     0.039 A 
HETATM    6  C6  UNL     1      14.021   9.009  -0.835  1.00  0.00     0.003 A 
HETATM    7  C7  UNL     1      14.710   9.452  -1.964  1.00  0.00     0.003 A 
HETATM    8  C8  UNL     1      15.658  10.444  -1.887  1.00  0.00     0.040 A 
HETATM    9  C9  UNL     1      15.918  11.003  -0.645  1.00  0.00     0.103 A 
HETATM   10  O4  UNL     1      16.852  12.005  -0.467  1.00  0.00    -0.330 OA
ENDROOT
BRANCH   1  11
HETATM   11  C1  UNL     1      18.828  11.366   0.594  1.00  0.00     0.205 C 
HETATM   12  O1  UNL     1      19.783  11.863  -0.042  1.00  0.00    -0.646 OA
HETATM   13  O2  UNL     1      18.953  10.105   1.143  1.00  0.00    -0.646 OA
ENDBRANCH   1  11
TORSDOF 1
ENDMDL
