MODEL 17
REMARK VINA RESULT: -5.784167123      2.758      4.650
REMARK  4 active torsions:
REMARK  status: ('A' for Active; 'I' for Inactive)
REMARK    1  A    between atoms: C1_2  and  C2_3 
REMARK       I    between atoms: C1_2  and  N1_9 
REMARK    2  A    between atoms: C2_3  and  O2_4 
REMARK    3  A    between atoms: O2_4  and  P1_5 
REMARK    4  A    between atoms: N1_9  and  O6_11 
ROOT
HETATM    1  O1  UNL     1       7.792  42.052  17.984  1.00  0.00    -0.269 OA
HETATM    2  C1  UNL     1       7.974  42.106  19.249  1.00  0.00     0.265 C 
HETATM    3  N1  UNL     1       7.110  41.333  20.051  1.00  0.00    -0.236 N 
ATOM      4  H1  UNL     1       7.214  41.341  21.067  1.00  0.00     0.197 HD
ENDROOT
BRANCH   2   5
HETATM    5  C2  UNL     1       9.050  42.956  19.728  1.00  0.00     0.287 C 
BRANCH   5   6
HETATM    6  O2  UNL     1       8.800  43.430  21.017  1.00  0.00    -0.273 OA
BRANCH   6   7
HETATM    7  P1  UNL     1      10.019  43.516  21.949  1.00  0.00     0.422 P 
HETATM    8  O3  UNL     1      11.289  43.610  22.809  1.00  0.00    -0.617 OA
HETATM    9  O4  UNL     1       9.515  45.006  22.431  1.00  0.00    -0.617 OA
HETATM   10  O5  UNL     1       9.484  42.216  22.812  1.00  0.00    -0.617 OA
ENDBRANCH   6   7
ENDBRANCH   5   6
ENDBRANCH   2   5
BRANCH   3  11
HETATM   11  O6  UNL     1       6.151  40.585  19.482  1.00  0.00    -0.287 OA
ATOM     12  H6  UNL     1       6.229  40.324  18.572  1.00  0.00     0.244 HD
ENDBRANCH   3  11
TORSDOF 4
ENDMDL
