MODEL 8
REMARK VINA RESULT: -6.371162079      1.424      2.073
REMARK  4 active torsions:
REMARK  status: ('A' for Active; 'I' for Inactive)
REMARK    1  A    between atoms: C1_2  and  C2_3 
REMARK       I    between atoms: C1_2  and  N1_9 
REMARK    2  A    between atoms: C2_3  and  O2_4 
REMARK    3  A    between atoms: O2_4  and  P1_5 
REMARK    4  A    between atoms: N1_9  and  O6_11 
ROOT
HETATM    1  O1  UNL     1      10.532  43.191  22.513  1.00  0.00    -0.269 OA
HETATM    2  C1  UNL     1       9.314  42.812  22.416  1.00  0.00     0.265 C 
HETATM    3  N1  UNL     1       8.802  42.033  23.474  1.00  0.00    -0.236 N 
ATOM      4  H1  UNL     1       7.836  41.705  23.445  1.00  0.00     0.197 HD
ENDROOT
BRANCH   2   5
HETATM    5  C2  UNL     1       8.585  43.221  21.229  1.00  0.00     0.287 C 
BRANCH   5   6
HETATM    6  O2  UNL     1       8.778  42.331  20.171  1.00  0.00    -0.273 OA
BRANCH   6   7
HETATM    7  P1  UNL     1       7.536  41.546  19.719  1.00  0.00     0.422 P 
HETATM    8  O3  UNL     1       6.252  40.840  19.257  1.00  0.00    -0.617 OA
HETATM    9  O4  UNL     1       8.310  41.178  18.314  1.00  0.00    -0.617 OA
HETATM   10  O5  UNL     1       7.706  40.496  20.979  1.00  0.00    -0.617 OA
ENDBRANCH   6   7
ENDBRANCH   5   6
ENDBRANCH   2   5
BRANCH   3  11
HETATM   11  O6  UNL     1       9.584  41.723  24.521  1.00  0.00    -0.287 OA
ATOM     12  H6  UNL     1      10.499  41.507  24.385  1.00  0.00     0.244 HD
ENDBRANCH   3  11
TORSDOF 4
ENDMDL
