MODEL 2
REMARK VINA RESULT: -7.083228255      1.570      1.663
REMARK  4 active torsions:
REMARK  status: ('A' for Active; 'I' for Inactive)
REMARK    1  A    between atoms: C1_2  and  C2_3 
REMARK       I    between atoms: C1_2  and  N1_9 
REMARK    2  A    between atoms: C2_3  and  O2_4 
REMARK    3  A    between atoms: O2_4  and  P1_5 
REMARK    4  A    between atoms: N1_9  and  O6_11 
ROOT
HETATM    1  O1  UNL     1       9.588  42.126  23.257  1.00  0.00    -0.269 OA
HETATM    2  C1  UNL     1       8.811  42.476  22.301  1.00  0.00     0.265 C 
HETATM    3  N1  UNL     1       8.719  43.856  22.027  1.00  0.00    -0.236 N 
ATOM      4  H1  UNL     1       8.113  44.187  21.276  1.00  0.00     0.197 HD
ENDROOT
BRANCH   2   5
HETATM    5  C2  UNL     1       8.106  41.418  21.599  1.00  0.00     0.287 C 
BRANCH   5   6
HETATM    6  O2  UNL     1       7.299  41.924  20.579  1.00  0.00    -0.273 OA
BRANCH   6   7
HETATM    7  P1  UNL     1       7.575  41.375  19.170  1.00  0.00     0.422 P 
HETATM    8  O3  UNL     1       7.908  40.769  17.798  1.00  0.00    -0.617 OA
HETATM    9  O4  UNL     1       6.071  40.707  19.162  1.00  0.00    -0.617 OA
HETATM   10  O5  UNL     1       7.731  42.905  18.575  1.00  0.00    -0.617 OA
ENDBRANCH   6   7
ENDBRANCH   5   6
ENDBRANCH   2   5
BRANCH   3  11
HETATM   11  O6  UNL     1       9.427  44.736  22.754  1.00  0.00    -0.287 OA
ATOM     12  H6  UNL     1      10.181  45.171  22.373  1.00  0.00     0.244 HD
ENDBRANCH   3  11
TORSDOF 4
ENDMDL
