MODEL 5
REMARK VINA RESULT: -6.531272203      1.615      2.158
REMARK  4 active torsions:
REMARK  status: ('A' for Active; 'I' for Inactive)
REMARK    1  A    between atoms: C1_2  and  C2_3 
REMARK       I    between atoms: C1_2  and  N1_9 
REMARK    2  A    between atoms: C2_3  and  O2_4 
REMARK    3  A    between atoms: O2_4  and  P1_5 
REMARK    4  A    between atoms: N1_9  and  O6_11 
ROOT
HETATM    1  O1  UNL     1       9.544  41.931  23.197  1.00  0.00    -0.269 OA
HETATM    2  C1  UNL     1       8.734  42.612  22.476  1.00  0.00     0.265 C 
HETATM    3  N1  UNL     1       9.029  43.980  22.304  1.00  0.00    -0.236 N 
ATOM      4  H1  UNL     1       8.415  44.566  21.739  1.00  0.00     0.197 HD
ENDROOT
BRANCH   2   5
HETATM    5  C2  UNL     1       7.597  41.907  21.911  1.00  0.00     0.287 C 
BRANCH   5   6
HETATM    6  O2  UNL     1       7.963  41.138  20.805  1.00  0.00    -0.273 OA
BRANCH   6   7
HETATM    7  P1  UNL     1       7.453  41.636  19.443  1.00  0.00     0.422 P 
HETATM    8  O3  UNL     1       6.952  42.216  18.111  1.00  0.00    -0.617 OA
HETATM    9  O4  UNL     1       8.865  41.139  18.759  1.00  0.00    -0.617 OA
HETATM   10  O5  UNL     1       6.207  40.556  19.484  1.00  0.00    -0.617 OA
ENDBRANCH   6   7
ENDBRANCH   5   6
ENDBRANCH   2   5
BRANCH   3  11
HETATM   11  O6  UNL     1      10.118  44.512  22.883  1.00  0.00    -0.287 OA
ATOM     12  H6  UNL     1      10.693  45.080  22.384  1.00  0.00     0.244 HD
ENDBRANCH   3  11
TORSDOF 4
ENDMDL
