MODEL 14
REMARK VINA RESULT: -6.079337623      2.659      4.703
REMARK  4 active torsions:
REMARK  status: ('A' for Active; 'I' for Inactive)
REMARK    1  A    between atoms: C1_2  and  C2_3 
REMARK       I    between atoms: C1_2  and  N1_9 
REMARK    2  A    between atoms: C2_3  and  O2_4 
REMARK    3  A    between atoms: O2_4  and  P1_5 
REMARK    4  A    between atoms: N1_9  and  O6_11 
ROOT
HETATM    1  O1  UNL     1       6.240  40.802  19.321  1.00  0.00    -0.269 OA
HETATM    2  C1  UNL     1       7.377  41.345  19.104  1.00  0.00     0.265 C 
HETATM    3  N1  UNL     1       7.993  41.062  17.867  1.00  0.00    -0.236 N 
ATOM      4  H1  UNL     1       8.902  41.470  17.646  1.00  0.00     0.197 HD
ENDROOT
BRANCH   2   5
HETATM    5  C2  UNL     1       7.917  42.195  20.150  1.00  0.00     0.287 C 
BRANCH   5   6
HETATM    6  O2  UNL     1       7.404  41.860  21.404  1.00  0.00    -0.273 OA
BRANCH   6   7
HETATM    7  P1  UNL     1       8.396  41.933  22.577  1.00  0.00     0.422 P 
HETATM    8  O3  UNL     1       9.318  41.997  23.804  1.00  0.00    -0.617 OA
HETATM    9  O4  UNL     1       8.970  40.451  22.153  1.00  0.00    -0.617 OA
HETATM   10  O5  UNL     1       9.128  43.252  21.910  1.00  0.00    -0.617 OA
ENDBRANCH   6   7
ENDBRANCH   5   6
ENDBRANCH   2   5
BRANCH   3  11
HETATM   11  O6  UNL     1       7.386  40.256  16.981  1.00  0.00    -0.287 OA
ATOM     12  H6  UNL     1       7.893  39.618  16.493  1.00  0.00     0.244 HD
ENDBRANCH   3  11
TORSDOF 4
ENDMDL
