MODEL 7
REMARK VINA RESULT: -6.469823265      0.732      1.441
REMARK  4 active torsions:
REMARK  status: ('A' for Active; 'I' for Inactive)
REMARK    1  A    between atoms: C1_2  and  C2_3 
REMARK       I    between atoms: C1_2  and  N1_9 
REMARK    2  A    between atoms: C2_3  and  O2_4 
REMARK    3  A    between atoms: O2_4  and  P1_5 
REMARK    4  A    between atoms: N1_9  and  O6_11 
ROOT
HETATM    1  O1  UNL     1       9.109  40.316  22.240  1.00  0.00    -0.269 OA
HETATM    2  C1  UNL     1       8.392  41.370  22.347  1.00  0.00     0.265 C 
HETATM    3  N1  UNL     1       8.617  42.184  23.476  1.00  0.00    -0.236 N 
ATOM      4  H1  UNL     1       8.071  43.035  23.607  1.00  0.00     0.197 HD
ENDROOT
BRANCH   2   5
HETATM    5  C2  UNL     1       7.420  41.619  21.297  1.00  0.00     0.287 C 
BRANCH   5   6
HETATM    6  O2  UNL     1       7.989  42.290  20.214  1.00  0.00    -0.273 OA
BRANCH   6   7
HETATM    7  P1  UNL     1       7.638  41.740  18.822  1.00  0.00     0.422 P 
HETATM    8  O3  UNL     1       7.295  41.272  17.399  1.00  0.00    -0.617 OA
HETATM    9  O4  UNL     1       9.100  40.987  18.777  1.00  0.00    -0.617 OA
HETATM   10  O5  UNL     1       6.366  40.896  19.447  1.00  0.00    -0.617 OA
ENDBRANCH   6   7
ENDBRANCH   5   6
ENDBRANCH   2   5
BRANCH   3  11
HETATM   11  O6  UNL     1       9.551  41.840  24.378  1.00  0.00    -0.287 OA
ATOM     12  H6  UNL     1      10.103  41.082  24.227  1.00  0.00     0.244 HD
ENDBRANCH   3  11
TORSDOF 4
ENDMDL
