MODEL 1
REMARK VINA RESULT: -8.162504781      0.000      0.000
REMARK  4 active torsions:
REMARK  status: ('A' for Active; 'I' for Inactive)
REMARK    1  A    between atoms: C3_4  and  C4_5 
REMARK    2  A    between atoms: C7_8  and  O2_9 
REMARK    3  A    between atoms: C12_16  and  O4_17 
REMARK    4  A    between atoms: C14_20  and  O5_21 
ROOT
HETATM    1  O1  UNL     1      24.455  43.047  40.305  1.00  0.00    -0.287 OA
HETATM    2  C1  UNL     1      23.665  43.099  39.333  1.00  0.00     0.190 A 
HETATM    3  C2  UNL     1      24.119  43.445  38.056  1.00  0.00     0.094 A 
HETATM    4  C3  UNL     1      23.297  43.517  36.957  1.00  0.00     0.090 A 
HETATM    5  O3  UNL     1      22.037  43.239  37.159  1.00  0.00    -0.309 OA
HETATM    6  C10 UNL     1      21.509  42.906  38.302  1.00  0.00     0.095 A 
HETATM    7  C11 UNL     1      20.161  42.635  38.386  1.00  0.00     0.075 A 
HETATM    8  C12 UNL     1      19.637  42.287  39.601  1.00  0.00     0.071 A 
HETATM    9  C13 UNL     1      20.406  42.204  40.710  1.00  0.00     0.074 A 
HETATM   10  C14 UNL     1      21.796  42.472  40.677  1.00  0.00     0.085 A 
HETATM   11  C15 UNL     1      22.318  42.823  39.442  1.00  0.00     0.081 A 
ENDROOT
BRANCH   4  12
HETATM   12  C4  UNL     1      23.797  43.886  35.620  1.00  0.00    -0.002 A 
HETATM   13  C5  UNL     1      25.137  43.631  35.366  1.00  0.00     0.017 A 
HETATM   14  C6  UNL     1      25.722  43.930  34.155  1.00  0.00     0.037 A 
HETATM   15  C7  UNL     1      24.947  44.504  33.165  1.00  0.00     0.065 A 
HETATM   16  C8  UNL     1      23.622  44.749  33.433  1.00  0.00     0.037 A 
HETATM   17  C9  UNL     1      23.031  44.445  34.658  1.00  0.00     0.017 A 
BRANCH  15  18
HETATM   18  O2  UNL     1      25.478  44.828  31.926  1.00  0.00    -0.361 OA
ATOM     19  H2  UNL     1      25.003  44.653  31.122  1.00  0.00     0.217 HD
ENDBRANCH  15  18
ENDBRANCH   4  12
BRANCH  10  20
HETATM   20  O5  UNL     1      22.513  42.369  41.832  1.00  0.00    -0.360 OA
ATOM     21  H5  UNL     1      22.571  41.525  42.262  1.00  0.00     0.217 HD
ENDBRANCH  10  20
BRANCH   8  22
HETATM   22  O4  UNL     1      18.281  42.014  39.695  1.00  0.00    -0.361 OA
ATOM     23  H4  UNL     1      17.879  41.968  40.555  1.00  0.00     0.217 HD
ENDBRANCH   8  22
TORSDOF 4
ENDMDL
