MODEL 2
REMARK VINA RESULT: -8.149266648      3.230      5.191
REMARK  4 active torsions:
REMARK  status: ('A' for Active; 'I' for Inactive)
REMARK    1  A    between atoms: C3_4  and  C4_5 
REMARK    2  A    between atoms: C7_8  and  O2_9 
REMARK    3  A    between atoms: C12_16  and  O4_17 
REMARK    4  A    between atoms: C14_20  and  O5_21 
ROOT
HETATM    1  O1  UNL     1      18.719  42.037  40.322  1.00  0.00    -0.287 OA
HETATM    2  C1  UNL     1      19.505  41.997  39.346  1.00  0.00     0.190 A 
HETATM    3  C2  UNL     1      19.047  41.656  38.069  1.00  0.00     0.094 A 
HETATM    4  C3  UNL     1      19.865  41.597  36.965  1.00  0.00     0.090 A 
HETATM    5  O3  UNL     1      21.123  41.883  37.164  1.00  0.00    -0.309 OA
HETATM    6  C10 UNL     1      21.654  42.213  38.306  1.00  0.00     0.095 A 
HETATM    7  C11 UNL     1      23.001  42.493  38.386  1.00  0.00     0.075 A 
HETATM    8  C12 UNL     1      23.528  42.836  39.600  1.00  0.00     0.071 A 
HETATM    9  C13 UNL     1      22.764  42.906  40.713  1.00  0.00     0.074 A 
HETATM   10  C14 UNL     1      21.375  42.629  40.685  1.00  0.00     0.085 A 
HETATM   11  C15 UNL     1      20.850  42.282  39.450  1.00  0.00     0.081 A 
ENDROOT
BRANCH   4  12
HETATM   12  C4  UNL     1      19.360  41.234  35.628  1.00  0.00    -0.002 A 
HETATM   13  C5  UNL     1      18.027  41.513  35.370  1.00  0.00     0.017 A 
HETATM   14  C6  UNL     1      17.439  41.222  34.158  1.00  0.00     0.037 A 
HETATM   15  C7  UNL     1      18.206  40.630  33.172  1.00  0.00     0.065 A 
HETATM   16  C8  UNL     1      19.524  40.360  33.444  1.00  0.00     0.037 A 
HETATM   17  C9  UNL     1      20.118  40.656  34.670  1.00  0.00     0.017 A 
BRANCH  15  18
HETATM   18  O2  UNL     1      17.671  40.312  31.933  1.00  0.00    -0.361 OA
ATOM     19  H2  UNL     1      17.900  40.804  31.153  1.00  0.00     0.217 HD
ENDBRANCH  15  18
ENDBRANCH   4  12
BRANCH  10  20
HETATM   20  O5  UNL     1      20.663  42.718  41.844  1.00  0.00    -0.360 OA
ATOM     21  H5  UNL     1      19.739  42.497  41.832  1.00  0.00     0.217 HD
ENDBRANCH  10  20
BRANCH   8  22
HETATM   22  O4  UNL     1      24.882  43.119  39.690  1.00  0.00    -0.361 OA
ATOM     23  H4  UNL     1      25.237  43.417  40.520  1.00  0.00     0.217 HD
ENDBRANCH   8  22
TORSDOF 4
ENDMDL
