MODEL 3
REMARK VINA RESULT: -8.065340433      3.455      5.206
REMARK  4 active torsions:
REMARK  status: ('A' for Active; 'I' for Inactive)
REMARK    1  A    between atoms: C3_4  and  C4_5 
REMARK    2  A    between atoms: C7_8  and  O2_9 
REMARK    3  A    between atoms: C12_16  and  O4_17 
REMARK    4  A    between atoms: C14_20  and  O5_21 
ROOT
HETATM    1  O1  UNL     1      18.717  42.018  40.024  1.00  0.00    -0.287 OA
HETATM    2  C1  UNL     1      19.428  42.030  38.991  1.00  0.00     0.190 A 
HETATM    3  C2  UNL     1      18.902  41.649  37.752  1.00  0.00     0.094 A 
HETATM    4  C3  UNL     1      19.637  41.644  36.590  1.00  0.00     0.090 A 
HETATM    5  O3  UNL     1      20.882  42.022  36.694  1.00  0.00    -0.309 OA
HETATM    6  C10 UNL     1      21.472  42.396  37.793  1.00  0.00     0.095 A 
HETATM    7  C11 UNL     1      22.797  42.774  37.771  1.00  0.00     0.075 A 
HETATM    8  C12 UNL     1      23.387  43.161  38.943  1.00  0.00     0.071 A 
HETATM    9  C13 UNL     1      22.705  43.182  40.110  1.00  0.00     0.074 A 
HETATM   10  C14 UNL     1      21.342  42.803  40.186  1.00  0.00     0.085 A 
HETATM   11  C15 UNL     1      20.753  42.412  38.994  1.00  0.00     0.081 A 
ENDROOT
BRANCH   4  12
HETATM   12  C4  UNL     1      19.062  41.237  35.294  1.00  0.00    -0.002 A 
HETATM   13  C5  UNL     1      19.936  40.672  34.378  1.00  0.00     0.017 A 
HETATM   14  C6  UNL     1      19.519  40.251  33.133  1.00  0.00     0.037 A 
HETATM   15  C7  UNL     1      18.188  40.401  32.791  1.00  0.00     0.065 A 
HETATM   16  C8  UNL     1      17.337  40.963  33.711  1.00  0.00     0.037 A 
HETATM   17  C9  UNL     1      17.760  41.387  34.970  1.00  0.00     0.017 A 
BRANCH  15  18
HETATM   18  O2  UNL     1      17.709  39.998  31.554  1.00  0.00    -0.361 OA
ATOM     19  H2  UNL     1      16.916  40.368  31.185  1.00  0.00     0.217 HD
ENDBRANCH  15  18
ENDBRANCH   4  12
BRANCH  10  20
HETATM   20  O5  UNL     1      20.714  42.847  41.395  1.00  0.00    -0.360 OA
ATOM     21  H5  UNL     1      19.798  43.097  41.427  1.00  0.00     0.217 HD
ENDBRANCH  10  20
BRANCH   8  22
HETATM   22  O4  UNL     1      24.720  43.542  38.931  1.00  0.00    -0.361 OA
ATOM     23  H4  UNL     1      25.295  43.232  39.621  1.00  0.00     0.217 HD
ENDBRANCH   8  22
TORSDOF 4
ENDMDL
