MODEL 2
REMARK VINA RESULT: -8.086242858      1.272      2.921
REMARK  3 active torsions:
REMARK  status: ('A' for Active; 'I' for Inactive)
REMARK    1  A    between atoms: C3_4  and  C4_5 
REMARK    2  A    between atoms: C12_14  and  O3_15 
REMARK    3  A    between atoms: C14_18  and  O4_19 
ROOT
HETATM    1  O1  UNL     1      20.518   2.444  -8.573  1.00  0.00    -0.287 OA
HETATM    2  C1  UNL     1      20.715   1.422  -7.880  1.00  0.00     0.190 A 
HETATM    3  C2  UNL     1      20.668   1.491  -6.488  1.00  0.00     0.094 A 
HETATM    4  C3  UNL     1      20.880   0.392  -5.687  1.00  0.00     0.090 A 
HETATM    5  O2  UNL     1      21.130  -0.731  -6.328  1.00  0.00    -0.309 OA
HETATM    6  C10 UNL     1      21.186  -0.854  -7.632  1.00  0.00     0.095 A 
HETATM    7  C11 UNL     1      21.460  -2.095  -8.216  1.00  0.00     0.075 A 
HETATM    8  C12 UNL     1      21.525  -2.258  -9.578  1.00  0.00     0.071 A 
HETATM    9  C13 UNL     1      21.322  -1.194 -10.422  1.00  0.00     0.074 A 
HETATM   10  C14 UNL     1      21.045   0.067  -9.854  1.00  0.00     0.085 A 
HETATM   11  C15 UNL     1      20.981   0.217  -8.489  1.00  0.00     0.081 A 
ENDROOT
BRANCH   4  12
HETATM   12  C4  UNL     1      20.834   0.444  -4.235  1.00  0.00    -0.002 A 
HETATM   13  C5  UNL     1      19.986   1.335  -3.619  1.00  0.00     0.014 A 
HETATM   14  C6  UNL     1      19.912   1.416  -2.225  1.00  0.00     0.001 A 
HETATM   15  C7  UNL     1      20.692   0.598  -1.477  1.00  0.00     0.000 A 
HETATM   16  C8  UNL     1      21.545  -0.300  -2.049  1.00  0.00     0.001 A 
HETATM   17  C9  UNL     1      21.598  -0.357  -3.433  1.00  0.00     0.014 A 
ENDBRANCH   4  12
BRANCH  10  18
HETATM   18  O4  UNL     1      20.856   1.068 -10.755  1.00  0.00    -0.360 OA
ATOM     19  H4  UNL     1      20.929   1.944 -10.396  1.00  0.00     0.217 HD
ENDBRANCH  10  18
BRANCH   8  20
HETATM   20  O3  UNL     1      21.802  -3.511 -10.158  1.00  0.00    -0.361 OA
ATOM     21  H3  UNL     1      22.336  -4.157  -9.713  1.00  0.00     0.217 HD
ENDBRANCH   8  20
TORSDOF 3
ENDMDL
