MODEL 1
REMARK VINA RESULT: -8.096811845      0.000      0.000
REMARK  3 active torsions:
REMARK  status: ('A' for Active; 'I' for Inactive)
REMARK    1  A    between atoms: C3_4  and  C4_5 
REMARK    2  A    between atoms: C12_14  and  O3_15 
REMARK    3  A    between atoms: C14_18  and  O4_19 
ROOT
HETATM    1  O1  UNL     1      21.797  -2.413  -8.622  1.00  0.00    -0.287 OA
HETATM    2  C1  UNL     1      21.639  -1.385  -7.928  1.00  0.00     0.190 A 
HETATM    3  C2  UNL     1      21.695  -1.454  -6.537  1.00  0.00     0.094 A 
HETATM    4  C3  UNL     1      21.525  -0.349  -5.735  1.00  0.00     0.090 A 
HETATM    5  O2  UNL     1      21.307   0.782  -6.375  1.00  0.00    -0.309 OA
HETATM    6  C10 UNL     1      21.244   0.905  -7.679  1.00  0.00     0.095 A 
HETATM    7  C11 UNL     1      21.006   2.154  -8.262  1.00  0.00     0.075 A 
HETATM    8  C12 UNL     1      20.935   2.318  -9.623  1.00  0.00     0.071 A 
HETATM    9  C13 UNL     1      21.096   1.247 -10.468  1.00  0.00     0.074 A 
HETATM   10  C14 UNL     1      21.337  -0.022  -9.901  1.00  0.00     0.085 A 
HETATM   11  C15 UNL     1      21.407  -0.172  -8.536  1.00  0.00     0.081 A 
ENDROOT
BRANCH   4  12
HETATM   12  C4  UNL     1      21.581  -0.401  -4.283  1.00  0.00    -0.002 A 
HETATM   13  C5  UNL     1      20.740   0.403  -3.547  1.00  0.00     0.014 A 
HETATM   14  C6  UNL     1      20.762   0.383  -2.150  1.00  0.00     0.001 A 
HETATM   15  C7  UNL     1      21.629  -0.446  -1.518  1.00  0.00     0.000 A 
HETATM   16  C8  UNL     1      22.478  -1.258  -2.210  1.00  0.00     0.001 A 
HETATM   17  C9  UNL     1      22.434  -1.217  -3.595  1.00  0.00     0.014 A 
ENDBRANCH   4  12
BRANCH  10  18
HETATM   18  O4  UNL     1      21.486  -1.029 -10.802  1.00  0.00    -0.360 OA
ATOM     19  H4  UNL     1      21.006  -0.911 -11.613  1.00  0.00     0.217 HD
ENDBRANCH  10  18
BRANCH   8  20
HETATM   20  O3  UNL     1      20.695   3.578 -10.202  1.00  0.00    -0.361 OA
ATOM     21  H3  UNL     1      19.969   4.123  -9.924  1.00  0.00     0.217 HD
ENDBRANCH   8  20
TORSDOF 3
ENDMDL
