MODEL 3
REMARK VINA RESULT: -8.066057431      1.254      3.092
REMARK  3 active torsions:
REMARK  status: ('A' for Active; 'I' for Inactive)
REMARK    1  A    between atoms: C3_4  and  C4_5 
REMARK    2  A    between atoms: C12_14  and  O3_15 
REMARK    3  A    between atoms: C14_18  and  O4_19 
ROOT
HETATM    1  O1  UNL     1      21.309   2.401  -8.536  1.00  0.00    -0.287 OA
HETATM    2  C1  UNL     1      21.256   1.360  -7.845  1.00  0.00     0.190 A 
HETATM    3  C2  UNL     1      21.163   1.436  -6.456  1.00  0.00     0.094 A 
HETATM    4  C3  UNL     1      21.103   0.317  -5.658  1.00  0.00     0.090 A 
HETATM    5  O2  UNL     1      21.139  -0.833  -6.298  1.00  0.00    -0.309 OA
HETATM    6  C10 UNL     1      21.226  -0.964  -7.600  1.00  0.00     0.095 A 
HETATM    7  C11 UNL     1      21.258  -2.235  -8.184  1.00  0.00     0.075 A 
HETATM    8  C12 UNL     1      21.348  -2.406  -9.543  1.00  0.00     0.071 A 
HETATM    9  C13 UNL     1      21.411  -1.323 -10.385  1.00  0.00     0.074 A 
HETATM   10  C14 UNL     1      21.381  -0.033  -9.817  1.00  0.00     0.085 A 
HETATM   11  C15 UNL     1      21.289   0.126  -8.454  1.00  0.00     0.081 A 
ENDROOT
BRANCH   4  12
HETATM   12  C4  UNL     1      21.005   0.376  -4.208  1.00  0.00    -0.002 A 
HETATM   13  C5  UNL     1      21.811  -0.437  -3.444  1.00  0.00     0.014 A 
HETATM   14  C6  UNL     1      21.748  -0.411  -2.049  1.00  0.00     0.001 A 
HETATM   15  C7  UNL     1      20.876   0.435  -1.446  1.00  0.00     0.000 A 
HETATM   16  C8  UNL     1      20.061   1.257  -2.166  1.00  0.00     0.001 A 
HETATM   17  C9  UNL     1      20.145   1.209  -3.549  1.00  0.00     0.014 A 
ENDBRANCH   4  12
BRANCH  10  18
HETATM   18  O4  UNL     1      21.447   0.987 -10.714  1.00  0.00    -0.360 OA
ATOM     19  H4  UNL     1      21.972   1.727 -10.437  1.00  0.00     0.217 HD
ENDBRANCH  10  18
BRANCH   8  20
HETATM   20  O3  UNL     1      21.379  -3.689 -10.123  1.00  0.00    -0.361 OA
ATOM     21  H3  UNL     1      21.009  -3.855 -10.981  1.00  0.00     0.217 HD
ENDBRANCH   8  20
TORSDOF 3
ENDMDL
