MODEL 17
REMARK VINA RESULT: -6.255998293      1.355      6.405
REMARK  5 active torsions:
REMARK  status: ('A' for Active; 'I' for Inactive)
REMARK    1  A    between atoms: C2_3  and  O2_4 
REMARK    2  A    between atoms: C3_6  and  C4_7 
REMARK    3  A    between atoms: C7_10  and  O3_11 
REMARK    4  A    between atoms: C12_18  and  O5_19 
REMARK    5  A    between atoms: C14_22  and  O6_23 
ROOT
HETATM    1  O1  UNL     1      22.968  -1.102  -3.613  1.00  0.00    -0.284 OA
HETATM    2  C1  UNL     1      22.181  -0.485  -4.374  1.00  0.00     0.223 A 
HETATM    3  C2  UNL     1      22.297  -0.612  -5.752  1.00  0.00     0.152 A 
HETATM    4  C3  UNL     1      21.481   0.024  -6.652  1.00  0.00     0.123 A 
HETATM    5  O4  UNL     1      20.557   0.783  -6.072  1.00  0.00    -0.306 OA
HETATM    6  C10 UNL     1      20.384   0.955  -4.808  1.00  0.00     0.096 A 
HETATM    7  C11 UNL     1      19.364   1.790  -4.322  1.00  0.00     0.075 A 
HETATM    8  C12 UNL     1      19.148   1.997  -2.984  1.00  0.00     0.071 A 
HETATM    9  C13 UNL     1      19.970   1.355  -2.091  1.00  0.00     0.074 A 
HETATM   10  C14 UNL     1      21.008   0.507  -2.520  1.00  0.00     0.085 A 
HETATM   11  C15 UNL     1      21.187   0.329  -3.879  1.00  0.00     0.084 A 
ENDROOT
BRANCH   4  12
HETATM   12  C4  UNL     1      21.519  -0.041  -8.072  1.00  0.00     0.001 A 
HETATM   13  C5  UNL     1      21.359  -1.147  -8.855  1.00  0.00     0.017 A 
HETATM   14  C6  UNL     1      21.411  -1.126 -10.241  1.00  0.00     0.037 A 
HETATM   15  C7  UNL     1      21.632   0.059 -10.903  1.00  0.00     0.065 A 
HETATM   16  C8  UNL     1      21.802   1.207 -10.158  1.00  0.00     0.037 A 
HETATM   17  C9  UNL     1      21.744   1.147  -8.785  1.00  0.00     0.017 A 
BRANCH  15  18
HETATM   18  O3  UNL     1      21.691   0.118 -12.300  1.00  0.00    -0.361 OA
ATOM     19  H3  UNL     1      21.684   0.947 -12.764  1.00  0.00     0.217 HD
ENDBRANCH  15  18
ENDBRANCH   4  12
BRANCH   3  20
HETATM   20  O2  UNL     1      23.281  -1.418  -6.214  1.00  0.00    -0.355 OA
ATOM     21  H2  UNL     1      23.024  -2.280  -6.521  1.00  0.00     0.218 HD
ENDBRANCH   3  20
BRANCH  10  22
HETATM   22  O6  UNL     1      21.773  -0.088  -1.581  1.00  0.00    -0.360 OA
ATOM     23  H6  UNL     1      22.066  -0.978  -1.741  1.00  0.00     0.217 HD
ENDBRANCH  10  22
BRANCH   8  24
HETATM   24  O5  UNL     1      18.111   2.845  -2.537  1.00  0.00    -0.361 OA
ATOM     25  H5  UNL     1      17.532   2.580  -1.833  1.00  0.00     0.217 HD
ENDBRANCH   8  24
TORSDOF 5
ENDMDL
