MODEL 2
REMARK VINA RESULT: -7.326637041      2.560      4.332
REMARK  5 active torsions:
REMARK  status: ('A' for Active; 'I' for Inactive)
REMARK    1  A    between atoms: C2_3  and  O2_4 
REMARK    2  A    between atoms: C3_6  and  C4_7 
REMARK    3  A    between atoms: C7_10  and  O3_11 
REMARK    4  A    between atoms: C12_18  and  O5_19 
REMARK    5  A    between atoms: C14_22  and  O6_23 
ROOT
HETATM    1  O1  UNL     1      20.076   1.549  -6.582  1.00  0.00    -0.284 OA
HETATM    2  C1  UNL     1      20.917   0.618  -6.513  1.00  0.00     0.223 A 
HETATM    3  C2  UNL     1      21.496   0.288  -5.295  1.00  0.00     0.152 A 
HETATM    4  C3  UNL     1      22.420  -0.712  -5.131  1.00  0.00     0.123 A 
HETATM    5  O4  UNL     1      22.712  -1.343  -6.264  1.00  0.00    -0.306 OA
HETATM    6  C10 UNL     1      22.223  -1.099  -7.429  1.00  0.00     0.096 A 
HETATM    7  C11 UNL     1      22.618  -1.845  -8.552  1.00  0.00     0.075 A 
HETATM    8  C12 UNL     1      22.118  -1.616  -9.808  1.00  0.00     0.071 A 
HETATM    9  C13 UNL     1      21.193  -0.613  -9.962  1.00  0.00     0.074 A 
HETATM   10  C14 UNL     1      20.761   0.166  -8.873  1.00  0.00     0.085 A 
HETATM   11  C15 UNL     1      21.292  -0.102  -7.626  1.00  0.00     0.084 A 
ENDROOT
BRANCH   4  12
HETATM   12  C4  UNL     1      23.068  -1.123  -3.933  1.00  0.00     0.001 A 
HETATM   13  C5  UNL     1      22.627  -0.953  -2.653  1.00  0.00     0.017 A 
HETATM   14  C6  UNL     1      23.322  -1.385  -1.533  1.00  0.00     0.037 A 
HETATM   15  C7  UNL     1      24.529  -2.029  -1.679  1.00  0.00     0.065 A 
HETATM   16  C8  UNL     1      25.020  -2.225  -2.952  1.00  0.00     0.037 A 
HETATM   17  C9  UNL     1      24.303  -1.782  -4.039  1.00  0.00     0.017 A 
BRANCH  15  18
HETATM   18  O3  UNL     1      25.257  -2.478  -0.572  1.00  0.00    -0.361 OA
ATOM     19  H3  UNL     1      25.268  -3.396  -0.323  1.00  0.00     0.217 HD
ENDBRANCH  15  18
ENDBRANCH   4  12
BRANCH   3  20
HETATM   20  O2  UNL     1      21.112   1.010  -4.217  1.00  0.00    -0.355 OA
ATOM     21  H2  UNL     1      21.466   0.748  -3.375  1.00  0.00     0.218 HD
ENDBRANCH   3  20
BRANCH  10  22
HETATM   22  O6  UNL     1      19.848   1.133  -9.105  1.00  0.00    -0.360 OA
ATOM     23  H6  UNL     1      19.313   1.428  -8.376  1.00  0.00     0.217 HD
ENDBRANCH  10  22
BRANCH   8  24
HETATM   24  O5  UNL     1      22.542  -2.388 -10.911  1.00  0.00    -0.361 OA
ATOM     25  H5  UNL     1      23.058  -2.002 -11.609  1.00  0.00     0.217 HD
ENDBRANCH   8  24
TORSDOF 5
ENDMDL
