MODEL 1
REMARK VINA RESULT: -7.378860191      0.000      0.000
REMARK  5 active torsions:
REMARK  status: ('A' for Active; 'I' for Inactive)
REMARK    1  A    between atoms: C2_3  and  O2_4 
REMARK    2  A    between atoms: C3_6  and  C4_7 
REMARK    3  A    between atoms: C7_10  and  O3_11 
REMARK    4  A    between atoms: C12_18  and  O5_19 
REMARK    5  A    between atoms: C14_22  and  O6_23 
ROOT
HETATM    1  O1  UNL     1      23.196  -1.595  -6.827  1.00  0.00    -0.284 OA
HETATM    2  C1  UNL     1      22.382  -0.644  -6.727  1.00  0.00     0.223 A 
HETATM    3  C2  UNL     1      21.831  -0.320  -5.493  1.00  0.00     0.152 A 
HETATM    4  C3  UNL     1      20.937   0.700  -5.296  1.00  0.00     0.123 A 
HETATM    5  O4  UNL     1      20.643   1.359  -6.413  1.00  0.00    -0.306 OA
HETATM    6  C10 UNL     1      21.106   1.122  -7.590  1.00  0.00     0.096 A 
HETATM    7  C11 UNL     1      20.712   1.897  -8.694  1.00  0.00     0.075 A 
HETATM    8  C12 UNL     1      21.184   1.677  -9.962  1.00  0.00     0.071 A 
HETATM    9  C13 UNL     1      22.079   0.653 -10.149  1.00  0.00     0.074 A 
HETATM   10  C14 UNL     1      22.509  -0.155  -9.081  1.00  0.00     0.085 A 
HETATM   11  C15 UNL     1      22.006   0.104  -7.820  1.00  0.00     0.084 A 
ENDROOT
BRANCH   4  12
HETATM   12  C4  UNL     1      20.322   1.107  -4.080  1.00  0.00     0.001 A 
HETATM   13  C5  UNL     1      20.763   0.875  -2.811  1.00  0.00     0.017 A 
HETATM   14  C6  UNL     1      20.100   1.308  -1.671  1.00  0.00     0.037 A 
HETATM   15  C7  UNL     1      18.928   2.018  -1.786  1.00  0.00     0.065 A 
HETATM   16  C8  UNL     1      18.437   2.280  -3.048  1.00  0.00     0.037 A 
HETATM   17  C9  UNL     1      19.122   1.834  -4.154  1.00  0.00     0.017 A 
BRANCH  15  18
HETATM   18  O3  UNL     1      18.232   2.471  -0.659  1.00  0.00    -0.361 OA
ATOM     19  H3  UNL     1      17.385   2.895  -0.734  1.00  0.00     0.217 HD
ENDBRANCH  15  18
ENDBRANCH   4  12
BRANCH   3  20
HETATM   20  O2  UNL     1      22.215  -1.071  -4.434  1.00  0.00    -0.355 OA
ATOM     21  H2  UNL     1      22.172  -2.014  -4.537  1.00  0.00     0.218 HD
ENDBRANCH   3  20
BRANCH  10  22
HETATM   22  O6  UNL     1      23.391  -1.142  -9.345  1.00  0.00    -0.360 OA
ATOM     23  H6  UNL     1      23.404  -1.898  -8.769  1.00  0.00     0.217 HD
ENDBRANCH  10  22
BRANCH   8  24
HETATM   24  O5  UNL     1      20.761   2.480 -11.044  1.00  0.00    -0.361 OA
ATOM     25  H5  UNL     1      21.196   2.432 -11.888  1.00  0.00     0.217 HD
ENDBRANCH   8  24
TORSDOF 5
ENDMDL
