MODEL 3
REMARK VINA RESULT: -7.095279905      2.614      4.305
REMARK  5 active torsions:
REMARK  status: ('A' for Active; 'I' for Inactive)
REMARK    1  A    between atoms: C2_3  and  O2_4 
REMARK    2  A    between atoms: C3_6  and  C4_7 
REMARK    3  A    between atoms: C7_10  and  O3_11 
REMARK    4  A    between atoms: C12_18  and  O5_19 
REMARK    5  A    between atoms: C14_22  and  O6_23 
ROOT
HETATM    1  O1  UNL     1      20.135   1.464  -6.330  1.00  0.00    -0.284 OA
HETATM    2  C1  UNL     1      21.000   0.553  -6.337  1.00  0.00     0.223 A 
HETATM    3  C2  UNL     1      21.640   0.187  -5.160  1.00  0.00     0.152 A 
HETATM    4  C3  UNL     1      22.595  -0.794  -5.080  1.00  0.00     0.123 A 
HETATM    5  O4  UNL     1      22.852  -1.368  -6.251  1.00  0.00    -0.306 OA
HETATM    6  C10 UNL     1      22.307  -1.088  -7.382  1.00  0.00     0.096 A 
HETATM    7  C11 UNL     1      22.670  -1.774  -8.553  1.00  0.00     0.075 A 
HETATM    8  C12 UNL     1      22.111  -1.505  -9.775  1.00  0.00     0.071 A 
HETATM    9  C13 UNL     1      21.156  -0.521  -9.845  1.00  0.00     0.074 A 
HETATM   10  C14 UNL     1      20.753   0.198  -8.706  1.00  0.00     0.085 A 
HETATM   11  C15 UNL     1      21.344  -0.108  -7.495  1.00  0.00     0.084 A 
ENDROOT
BRANCH   4  12
HETATM   12  C4  UNL     1      23.303  -1.238  -3.930  1.00  0.00     0.001 A 
HETATM   13  C5  UNL     1      24.543  -1.807  -3.889  1.00  0.00     0.017 A 
HETATM   14  C6  UNL     1      25.168  -2.215  -2.720  1.00  0.00     0.037 A 
HETATM   15  C7  UNL     1      24.535  -2.054  -1.510  1.00  0.00     0.065 A 
HETATM   16  C8  UNL     1      23.278  -1.484  -1.495  1.00  0.00     0.037 A 
HETATM   17  C9  UNL     1      22.691  -1.092  -2.675  1.00  0.00     0.017 A 
BRANCH  15  18
HETATM   18  O3  UNL     1      25.134  -2.454  -0.310  1.00  0.00    -0.361 OA
ATOM     19  H3  UNL     1      25.930  -2.044   0.010  1.00  0.00     0.217 HD
ENDBRANCH  15  18
ENDBRANCH   4  12
BRANCH   3  20
HETATM   20  O2  UNL     1      21.285   0.852  -4.037  1.00  0.00    -0.355 OA
ATOM     21  H2  UNL     1      21.254   1.800  -4.089  1.00  0.00     0.218 HD
ENDBRANCH   3  20
BRANCH  10  22
HETATM   22  O6  UNL     1      19.808   1.150  -8.856  1.00  0.00    -0.360 OA
ATOM     23  H6  UNL     1      19.291   1.393  -8.096  1.00  0.00     0.217 HD
ENDBRANCH  10  22
BRANCH   8  24
HETATM   24  O5  UNL     1      22.506  -2.218 -10.928  1.00  0.00    -0.361 OA
ATOM     25  H5  UNL     1      23.411  -2.475 -11.059  1.00  0.00     0.217 HD
ENDBRANCH   8  24
TORSDOF 5
ENDMDL
