MODEL 13
REMARK VINA RESULT: -6.294559232      1.365      6.438
REMARK  5 active torsions:
REMARK  status: ('A' for Active; 'I' for Inactive)
REMARK    1  A    between atoms: C2_3  and  O2_4 
REMARK    2  A    between atoms: C3_6  and  C4_7 
REMARK    3  A    between atoms: C7_10  and  O3_11 
REMARK    4  A    between atoms: C12_18  and  O5_19 
REMARK    5  A    between atoms: C14_22  and  O6_23 
ROOT
HETATM    1  O1  UNL     1      22.829  -0.867  -3.424  1.00  0.00    -0.284 OA
HETATM    2  C1  UNL     1      22.050  -0.243  -4.187  1.00  0.00     0.223 A 
HETATM    3  C2  UNL     1      22.214  -0.312  -5.564  1.00  0.00     0.152 A 
HETATM    4  C3  UNL     1      21.410   0.337  -6.466  1.00  0.00     0.123 A 
HETATM    5  O4  UNL     1      20.446   1.047  -5.889  1.00  0.00    -0.306 OA
HETATM    6  C10 UNL     1      20.226   1.163  -4.626  1.00  0.00     0.096 A 
HETATM    7  C11 UNL     1      19.167   1.949  -4.143  1.00  0.00     0.075 A 
HETATM    8  C12 UNL     1      18.901   2.096  -2.806  1.00  0.00     0.071 A 
HETATM    9  C13 UNL     1      19.712   1.442  -1.911  1.00  0.00     0.074 A 
HETATM   10  C14 UNL     1      20.787   0.642  -2.337  1.00  0.00     0.085 A 
HETATM   11  C15 UNL     1      21.016   0.523  -3.695  1.00  0.00     0.084 A 
ENDROOT
BRANCH   4  12
HETATM   12  C4  UNL     1      21.497   0.330  -7.885  1.00  0.00     0.001 A 
HETATM   13  C5  UNL     1      21.856   1.365  -8.699  1.00  0.00     0.017 A 
HETATM   14  C6  UNL     1      21.916   1.276 -10.082  1.00  0.00     0.037 A 
HETATM   15  C7  UNL     1      21.605   0.091 -10.709  1.00  0.00     0.065 A 
HETATM   16  C8  UNL     1      21.235  -0.987  -9.932  1.00  0.00     0.037 A 
HETATM   17  C9  UNL     1      21.186  -0.860  -8.563  1.00  0.00     0.017 A 
BRANCH  15  18
HETATM   18  O3  UNL     1      21.655  -0.035 -12.101  1.00  0.00    -0.361 OA
ATOM     19  H3  UNL     1      20.969   0.316 -12.658  1.00  0.00     0.217 HD
ENDBRANCH  15  18
ENDBRANCH   4  12
BRANCH   3  20
HETATM   20  O2  UNL     1      23.236  -1.070  -6.023  1.00  0.00    -0.355 OA
ATOM     21  H2  UNL     1      23.129  -2.013  -5.973  1.00  0.00     0.218 HD
ENDBRANCH   3  20
BRANCH  10  22
HETATM   22  O6  UNL     1      21.538   0.031  -1.397  1.00  0.00    -0.360 OA
ATOM     23  H6  UNL     1      22.148  -0.641  -1.677  1.00  0.00     0.217 HD
ENDBRANCH  10  22
BRANCH   8  24
HETATM   24  O5  UNL     1      17.826   2.896  -2.362  1.00  0.00    -0.361 OA
ATOM     25  H5  UNL     1      16.970   2.518  -2.196  1.00  0.00     0.217 HD
ENDBRANCH   8  24
TORSDOF 5
ENDMDL
