MODEL 1
REMARK VINA RESULT: -7.507416720      0.000      0.000
REMARK  4 active torsions:
REMARK  status: ('A' for Active; 'I' for Inactive)
REMARK    1  A    between atoms: C3_4  and  C4_5 
REMARK    2  A    between atoms: C7_8  and  O2_9 
REMARK    3  A    between atoms: C12_16  and  O4_17 
REMARK    4  A    between atoms: C14_20  and  O5_21 
ROOT
HETATM    1  O1  UNL     1      20.986  40.181  42.407  1.00  0.00    -0.292 OA
HETATM    2  C1  UNL     1      20.826  41.133  41.599  1.00  0.00     0.167 C 
HETATM    3  C2  UNL     1      20.294  40.873  40.236  1.00  0.00     0.121 C 
HETATM    4  C3  UNL     1      20.979  41.800  39.290  1.00  0.00     0.169 C 
HETATM    5  O3  UNL     1      20.774  43.135  39.773  1.00  0.00    -0.340 OA
HETATM    6  C10 UNL     1      21.132  43.500  41.051  1.00  0.00     0.089 A 
HETATM    7  C11 UNL     1      21.453  44.786  41.432  1.00  0.00     0.074 A 
HETATM    8  C12 UNL     1      21.808  45.125  42.714  1.00  0.00     0.071 A 
HETATM    9  C13 UNL     1      21.835  44.099  43.654  1.00  0.00     0.074 A 
HETATM   10  C14 UNL     1      21.522  42.796  43.323  1.00  0.00     0.085 A 
HETATM   11  C15 UNL     1      21.168  42.491  42.012  1.00  0.00     0.076 A 
ENDROOT
BRANCH   4  12
HETATM   12  C4  UNL     1      20.464  41.717  37.902  1.00  0.00    -0.028 A 
HETATM   13  C5  UNL     1      20.734  42.678  36.950  1.00  0.00     0.012 A 
HETATM   14  C6  UNL     1      20.244  42.583  35.665  1.00  0.00     0.037 A 
HETATM   15  C7  UNL     1      19.459  41.526  35.255  1.00  0.00     0.065 A 
HETATM   16  C8  UNL     1      19.186  40.563  36.202  1.00  0.00     0.037 A 
HETATM   17  C9  UNL     1      19.679  40.663  37.487  1.00  0.00     0.012 A 
BRANCH  15  18
HETATM   18  O2  UNL     1      18.968  41.439  33.948  1.00  0.00    -0.361 OA
ATOM     19  H2  UNL     1      18.835  40.602  33.519  1.00  0.00     0.217 HD
ENDBRANCH  15  18
ENDBRANCH   4  12
BRANCH  10  20
HETATM   20  O5  UNL     1      21.555  41.785  44.275  1.00  0.00    -0.360 OA
ATOM     21  H5  UNL     1      20.759  41.474  44.690  1.00  0.00     0.217 HD
ENDBRANCH  10  20
BRANCH   8  22
HETATM   22  O4  UNL     1      22.133  46.421  43.105  1.00  0.00    -0.361 OA
ATOM     23  H4  UNL     1      22.698  46.620  43.842  1.00  0.00     0.217 HD
ENDBRANCH   8  22
TORSDOF 4
ENDMDL
