MODEL 7
REMARK VINA RESULT: -7.149416627      2.167      7.074
REMARK  4 active torsions:
REMARK  status: ('A' for Active; 'I' for Inactive)
REMARK    1  A    between atoms: C3_4  and  C4_5 
REMARK    2  A    between atoms: C7_8  and  O2_9 
REMARK    3  A    between atoms: C12_16  and  O4_17 
REMARK    4  A    between atoms: C14_20  and  O5_21 
ROOT
HETATM    1  O1  UNL     1      24.568  44.474  38.822  1.00  0.00    -0.292 OA
HETATM    2  C1  UNL     1      23.559  43.899  39.307  1.00  0.00     0.167 C 
HETATM    3  C2  UNL     1      23.317  43.926  40.774  1.00  0.00     0.121 C 
HETATM    4  C3  UNL     1      22.732  42.612  41.168  1.00  0.00     0.169 C 
HETATM    5  O3  UNL     1      21.559  42.406  40.367  1.00  0.00    -0.340 OA
HETATM    6  C10 UNL     1      21.612  42.446  38.993  1.00  0.00     0.089 A 
HETATM    7  C11 UNL     1      20.730  41.788  38.161  1.00  0.00     0.074 A 
HETATM    8  C12 UNL     1      20.803  41.844  36.791  1.00  0.00     0.071 A 
HETATM    9  C13 UNL     1      21.828  42.609  36.243  1.00  0.00     0.074 A 
HETATM   10  C14 UNL     1      22.736  43.286  37.033  1.00  0.00     0.085 A 
HETATM   11  C15 UNL     1      22.630  43.206  38.419  1.00  0.00     0.076 A 
ENDROOT
BRANCH   4  12
HETATM   12  C4  UNL     1      22.345  42.542  42.597  1.00  0.00    -0.028 A 
HETATM   13  C5  UNL     1      21.860  41.389  43.180  1.00  0.00     0.012 A 
HETATM   14  C6  UNL     1      21.504  41.345  44.511  1.00  0.00     0.037 A 
HETATM   15  C7  UNL     1      21.611  42.444  45.337  1.00  0.00     0.065 A 
HETATM   16  C8  UNL     1      22.095  43.598  44.760  1.00  0.00     0.037 A 
HETATM   17  C9  UNL     1      22.450  43.638  43.427  1.00  0.00     0.012 A 
BRANCH  15  18
HETATM   18  O2  UNL     1      21.248  42.388  46.687  1.00  0.00    -0.361 OA
ATOM     19  H2  UNL     1      20.845  43.127  47.127  1.00  0.00     0.217 HD
ENDBRANCH  15  18
ENDBRANCH   4  12
BRANCH  10  20
HETATM   20  O5  UNL     1      23.753  44.046  36.469  1.00  0.00    -0.360 OA
ATOM     21  H5  UNL     1      24.296  44.614  37.002  1.00  0.00     0.217 HD
ENDBRANCH  10  20
BRANCH   8  22
HETATM   22  O4  UNL     1      19.916  41.182  35.947  1.00  0.00    -0.361 OA
ATOM     23  H4  UNL     1      20.188  40.546  35.296  1.00  0.00     0.217 HD
ENDBRANCH   8  22
TORSDOF 4
ENDMDL
