MODEL 9
REMARK VINA RESULT: -7.128364201      2.167      7.002
REMARK  4 active torsions:
REMARK  status: ('A' for Active; 'I' for Inactive)
REMARK    1  A    between atoms: C3_4  and  C4_5 
REMARK    2  A    between atoms: C7_8  and  O2_9 
REMARK    3  A    between atoms: C12_16  and  O4_17 
REMARK    4  A    between atoms: C14_20  and  O5_21 
ROOT
HETATM    1  O1  UNL     1      24.567  44.483  38.805  1.00  0.00    -0.292 OA
HETATM    2  C1  UNL     1      23.558  43.913  39.296  1.00  0.00     0.167 C 
HETATM    3  C2  UNL     1      23.320  43.949  40.762  1.00  0.00     0.121 C 
HETATM    4  C3  UNL     1      22.733  42.639  41.166  1.00  0.00     0.169 C 
HETATM    5  O3  UNL     1      21.558  42.431  40.369  1.00  0.00    -0.340 OA
HETATM    6  C10 UNL     1      21.608  42.462  38.994  1.00  0.00     0.089 A 
HETATM    7  C11 UNL     1      20.722  41.801  38.168  1.00  0.00     0.074 A 
HETATM    8  C12 UNL     1      20.793  41.848  36.797  1.00  0.00     0.071 A 
HETATM    9  C13 UNL     1      21.818  42.609  36.243  1.00  0.00     0.074 A 
HETATM   10  C14 UNL     1      22.729  43.289  37.026  1.00  0.00     0.085 A 
HETATM   11  C15 UNL     1      22.626  43.217  38.413  1.00  0.00     0.076 A 
ENDROOT
BRANCH   4  12
HETATM   12  C4  UNL     1      22.348  42.578  42.596  1.00  0.00    -0.028 A 
HETATM   13  C5  UNL     1      22.455  43.664  43.441  1.00  0.00     0.012 A 
HETATM   14  C6  UNL     1      22.094  43.586  44.770  1.00  0.00     0.037 A 
HETATM   15  C7  UNL     1      21.606  42.424  45.331  1.00  0.00     0.065 A 
HETATM   16  C8  UNL     1      21.497  41.337  44.491  1.00  0.00     0.037 A 
HETATM   17  C9  UNL     1      21.860  41.420  43.163  1.00  0.00     0.012 A 
BRANCH  15  18
HETATM   18  O2  UNL     1      21.242  42.357  46.680  1.00  0.00    -0.361 OA
ATOM     19  H2  UNL     1      20.373  42.602  46.976  1.00  0.00     0.217 HD
ENDBRANCH  15  18
ENDBRANCH   4  12
BRANCH  10  20
HETATM   20  O5  UNL     1      23.747  44.043  36.456  1.00  0.00    -0.360 OA
ATOM     21  H5  UNL     1      24.268  44.641  36.979  1.00  0.00     0.217 HD
ENDBRANCH  10  20
BRANCH   8  22
HETATM   22  O4  UNL     1      19.903  41.184  35.959  1.00  0.00    -0.361 OA
ATOM     23  H4  UNL     1      19.699  41.472  35.077  1.00  0.00     0.217 HD
ENDBRANCH   8  22
TORSDOF 4
ENDMDL
