MODEL 2
REMARK VINA RESULT: -7.495361968      2.802      4.305
REMARK  4 active torsions:
REMARK  status: ('A' for Active; 'I' for Inactive)
REMARK    1  A    between atoms: C3_4  and  C4_5 
REMARK    2  A    between atoms: C7_8  and  O2_9 
REMARK    3  A    between atoms: C12_16  and  O4_17 
REMARK    4  A    between atoms: C14_20  and  O5_21 
ROOT
HETATM    1  O1  UNL     1      22.678  45.040  42.322  1.00  0.00    -0.292 OA
HETATM    2  C1  UNL     1      22.865  44.083  41.527  1.00  0.00     0.167 C 
HETATM    3  C2  UNL     1      23.409  44.337  40.167  1.00  0.00     0.121 C 
HETATM    4  C3  UNL     1      22.753  43.387  39.224  1.00  0.00     0.169 C 
HETATM    5  O3  UNL     1      22.976  42.061  39.725  1.00  0.00    -0.340 OA
HETATM    6  C10 UNL     1      22.609  41.704  41.002  1.00  0.00     0.089 A 
HETATM    7  C11 UNL     1      22.307  40.416  41.394  1.00  0.00     0.074 A 
HETATM    8  C12 UNL     1      21.944  40.085  42.676  1.00  0.00     0.071 A 
HETATM    9  C13 UNL     1      21.886  41.121  43.604  1.00  0.00     0.074 A 
HETATM   10  C14 UNL     1      22.179  42.426  43.262  1.00  0.00     0.085 A 
HETATM   11  C15 UNL     1      22.544  42.723  41.951  1.00  0.00     0.076 A 
ENDROOT
BRANCH   4  12
HETATM   12  C4  UNL     1      23.283  43.464  37.842  1.00  0.00    -0.028 A 
HETATM   13  C5  UNL     1      23.042  42.487  36.898  1.00  0.00     0.012 A 
HETATM   14  C6  UNL     1      23.546  42.577  35.618  1.00  0.00     0.037 A 
HETATM   15  C7  UNL     1      24.316  43.644  35.204  1.00  0.00     0.065 A 
HETATM   16  C8  UNL     1      24.560  44.622  36.144  1.00  0.00     0.037 A 
HETATM   17  C9  UNL     1      24.054  44.528  37.424  1.00  0.00     0.012 A 
BRANCH  15  18
HETATM   18  O2  UNL     1      24.822  43.725  33.903  1.00  0.00    -0.361 OA
ATOM     19  H2  UNL     1      24.638  43.057  33.253  1.00  0.00     0.217 HD
ENDBRANCH  15  18
ENDBRANCH   4  12
BRANCH  10  20
HETATM   20  O5  UNL     1      22.116  43.447  44.201  1.00  0.00    -0.360 OA
ATOM     21  H5  UNL     1      21.634  44.247  44.026  1.00  0.00     0.217 HD
ENDBRANCH  10  20
BRANCH   8  22
HETATM   22  O4  UNL     1      21.637  38.788  43.077  1.00  0.00    -0.361 OA
ATOM     23  H4  UNL     1      21.029  38.586  43.778  1.00  0.00     0.217 HD
ENDBRANCH   8  22
TORSDOF 4
ENDMDL
