MODEL 3
REMARK VINA RESULT: -7.243150048      1.893      3.494
REMARK  4 active torsions:
REMARK  status: ('A' for Active; 'I' for Inactive)
REMARK    1  A    between atoms: C3_4  and  C4_5 
REMARK    2  A    between atoms: C7_8  and  O2_9 
REMARK    3  A    between atoms: C12_16  and  O4_17 
REMARK    4  A    between atoms: C14_20  and  O5_21 
ROOT
HETATM    1  O1  UNL     1      22.971  45.325  42.418  1.00  0.00    -0.292 OA
HETATM    2  C1  UNL     1      22.708  44.272  41.780  1.00  0.00     0.167 C 
HETATM    3  C2  UNL     1      22.929  44.215  40.311  1.00  0.00     0.121 C 
HETATM    4  C3  UNL     1      21.841  43.388  39.714  1.00  0.00     0.169 C 
HETATM    5  O3  UNL     1      21.855  42.116  40.376  1.00  0.00    -0.340 OA
HETATM    6  C10 UNL     1      21.754  42.017  41.745  1.00  0.00     0.089 A 
HETATM    7  C11 UNL     1      21.258  40.915  42.410  1.00  0.00     0.074 A 
HETATM    8  C12 UNL     1      21.166  40.841  43.779  1.00  0.00     0.071 A 
HETATM    9  C13 UNL     1      21.603  41.946  44.502  1.00  0.00     0.074 A 
HETATM   10  C14 UNL     1      22.108  43.072  43.883  1.00  0.00     0.085 A 
HETATM   11  C15 UNL     1      22.185  43.111  42.493  1.00  0.00     0.076 A 
ENDROOT
BRANCH   4  12
HETATM   12  C4  UNL     1      22.000  43.164  38.257  1.00  0.00    -0.028 A 
HETATM   13  C5  UNL     1      20.979  42.682  37.463  1.00  0.00     0.012 A 
HETATM   14  C6  UNL     1      21.148  42.478  36.111  1.00  0.00     0.037 A 
HETATM   15  C7  UNL     1      22.342  42.743  35.471  1.00  0.00     0.065 A 
HETATM   16  C8  UNL     1      23.364  43.224  36.260  1.00  0.00     0.037 A 
HETATM   17  C9  UNL     1      23.191  43.426  37.613  1.00  0.00     0.012 A 
BRANCH  15  18
HETATM   18  O2  UNL     1      22.502  42.533  34.098  1.00  0.00    -0.361 OA
ATOM     19  H2  UNL     1      21.861  42.839  33.467  1.00  0.00     0.217 HD
ENDBRANCH  15  18
ENDBRANCH   4  12
BRANCH  10  20
HETATM   20  O5  UNL     1      22.539  44.167  44.622  1.00  0.00    -0.360 OA
ATOM     21  H5  UNL     1      22.439  45.052  44.293  1.00  0.00     0.217 HD
ENDBRANCH  10  20
BRANCH   8  22
HETATM   22  O4  UNL     1      20.667  39.732  44.456  1.00  0.00    -0.361 OA
ATOM     23  H4  UNL     1      20.577  38.873  44.061  1.00  0.00     0.217 HD
ENDBRANCH   8  22
TORSDOF 4
ENDMDL
