MODEL 2
REMARK VINA RESULT: -6.713404705      3.030      4.949
REMARK  5 active torsions:
REMARK  status: ('A' for Active; 'I' for Inactive)
REMARK    1  A    between atoms: C3_4  and  C4_5 
REMARK    2  A    between atoms: C7_8  and  O2_9 
REMARK    3  A    between atoms: C8_11  and  O3_12 
REMARK    4  A    between atoms: C12_18  and  O5_19 
REMARK    5  A    between atoms: C14_22  and  O6_23 
ROOT
HETATM    1  O1  UNL     1      23.029  43.678  37.899  1.00  0.00    -0.287 OA
HETATM    2  C1  UNL     1      22.098  42.847  38.048  1.00  0.00     0.190 A 
HETATM    3  C2  UNL     1      21.395  42.390  36.938  1.00  0.00     0.094 A 
HETATM    4  C3  UNL     1      20.379  41.481  37.131  1.00  0.00     0.090 A 
HETATM    5  O4  UNL     1      20.110  41.076  38.354  1.00  0.00    -0.309 OA
HETATM    6  C10 UNL     1      20.737  41.472  39.431  1.00  0.00     0.095 A 
HETATM    7  C11 UNL     1      20.351  40.963  40.679  1.00  0.00     0.075 A 
HETATM    8  C12 UNL     1      20.989  41.358  41.825  1.00  0.00     0.071 A 
HETATM    9  C13 UNL     1      22.004  42.261  41.691  1.00  0.00     0.074 A 
HETATM   10  C14 UNL     1      22.411  42.787  40.446  1.00  0.00     0.085 A 
HETATM   11  C15 UNL     1      21.765  42.384  39.294  1.00  0.00     0.081 A 
ENDROOT
BRANCH   4  12
HETATM   12  C4  UNL     1      19.602  40.963  35.994  1.00  0.00     0.001 A 
HETATM   13  C5  UNL     1      18.273  40.633  36.075  1.00  0.00     0.017 A 
HETATM   14  C6  UNL     1      17.607  40.148  34.949  1.00  0.00     0.040 A 
HETATM   15  C7  UNL     1      18.303  40.005  33.760  1.00  0.00     0.098 A 
HETATM   16  C8  UNL     1      19.633  40.330  33.658  1.00  0.00     0.099 A 
HETATM   17  C9  UNL     1      20.275  40.807  34.776  1.00  0.00     0.053 A 
BRANCH  15  18
HETATM   18  O2  UNL     1      17.643  39.526  32.652  1.00  0.00    -0.358 OA
ATOM     19  H2  UNL     1      17.839  39.900  31.800  1.00  0.00     0.217 HD
ENDBRANCH  15  18
BRANCH  16  20
HETATM   20  O3  UNL     1      20.327  40.182  32.449  1.00  0.00    -0.358 OA
ATOM     21  H3  UNL     1      20.519  40.931  31.897  1.00  0.00     0.217 HD
ENDBRANCH  16  20
ENDBRANCH   4  12
BRANCH  10  22
HETATM   22  O6  UNL     1      23.429  43.674  40.430  1.00  0.00    -0.360 OA
ATOM     23  H6  UNL     1      24.281  43.376  40.135  1.00  0.00     0.217 HD
ENDBRANCH  10  22
BRANCH   8  24
HETATM   24  O5  UNL     1      20.618  40.861  43.083  1.00  0.00    -0.361 OA
ATOM     25  H5  UNL     1      21.182  40.951  43.841  1.00  0.00     0.217 HD
ENDBRANCH   8  24
TORSDOF 5
ENDMDL
