MODEL 3
REMARK VINA RESULT: -6.337553015      0.830      1.452
REMARK  5 active torsions:
REMARK  status: ('A' for Active; 'I' for Inactive)
REMARK    1  A    between atoms: C3_4  and  C4_5 
REMARK    2  A    between atoms: C7_8  and  O2_9 
REMARK    3  A    between atoms: C8_11  and  O3_12 
REMARK    4  A    between atoms: C12_18  and  O5_19 
REMARK    5  A    between atoms: C14_22  and  O6_23 
ROOT
HETATM    1  O1  UNL     1      20.208  41.116  38.194  1.00  0.00    -0.287 OA
HETATM    2  C1  UNL     1      21.118  41.973  38.329  1.00  0.00     0.190 A 
HETATM    3  C2  UNL     1      21.804  42.434  37.210  1.00  0.00     0.094 A 
HETATM    4  C3  UNL     1      22.796  43.371  37.387  1.00  0.00     0.090 A 
HETATM    5  O4  UNL     1      23.061  43.797  38.603  1.00  0.00    -0.309 OA
HETATM    6  C10 UNL     1      22.449  43.399  39.687  1.00  0.00     0.095 A 
HETATM    7  C11 UNL     1      22.828  43.934  40.927  1.00  0.00     0.075 A 
HETATM    8  C12 UNL     1      22.206  43.537  42.082  1.00  0.00     0.071 A 
HETATM    9  C13 UNL     1      21.213  42.607  41.963  1.00  0.00     0.074 A 
HETATM   10  C14 UNL     1      20.814  42.055  40.727  1.00  0.00     0.085 A 
HETATM   11  C15 UNL     1      21.444  42.459  39.567  1.00  0.00     0.081 A 
ENDROOT
BRANCH   4  12
HETATM   12  C4  UNL     1      23.554  43.895  36.239  1.00  0.00     0.001 A 
HETATM   13  C5  UNL     1      23.087  44.886  35.413  1.00  0.00     0.017 A 
HETATM   14  C6  UNL     1      23.868  45.328  34.345  1.00  0.00     0.040 A 
HETATM   15  C7  UNL     1      25.111  44.754  34.133  1.00  0.00     0.098 A 
HETATM   16  C8  UNL     1      25.596  43.761  34.947  1.00  0.00     0.099 A 
HETATM   17  C9  UNL     1      24.815  43.337  35.996  1.00  0.00     0.053 A 
BRANCH  15  18
HETATM   18  O2  UNL     1      25.879  45.192  33.078  1.00  0.00    -0.358 OA
ATOM     19  H2  UNL     1      26.668  44.713  32.851  1.00  0.00     0.217 HD
ENDBRANCH  15  18
BRANCH  16  20
HETATM   20  O3  UNL     1      26.856  43.188  34.723  1.00  0.00    -0.358 OA
ATOM     21  H3  UNL     1      27.634  43.528  35.150  1.00  0.00     0.217 HD
ENDBRANCH  16  20
ENDBRANCH   4  12
BRANCH  10  22
HETATM   22  O6  UNL     1      19.820  41.141  40.727  1.00  0.00    -0.360 OA
ATOM     23  H6  UNL     1      19.051  41.313  40.195  1.00  0.00     0.217 HD
ENDBRANCH  10  22
BRANCH   8  24
HETATM   24  O5  UNL     1      22.570  44.059  43.331  1.00  0.00    -0.361 OA
ATOM     25  H5  UNL     1      22.551  44.992  43.506  1.00  0.00     0.217 HD
ENDBRANCH   8  24
TORSDOF 5
ENDMDL
