MODEL 1
REMARK VINA RESULT: -6.723308468      0.000      0.000
REMARK  5 active torsions:
REMARK  status: ('A' for Active; 'I' for Inactive)
REMARK    1  A    between atoms: C3_4  and  C4_5 
REMARK    2  A    between atoms: C7_8  and  O2_9 
REMARK    3  A    between atoms: C8_11  and  O3_12 
REMARK    4  A    between atoms: C12_18  and  O5_19 
REMARK    5  A    between atoms: C14_22  and  O6_23 
ROOT
HETATM    1  O1  UNL     1      20.233  41.101  37.944  1.00  0.00    -0.287 OA
HETATM    2  C1  UNL     1      21.168  41.930  38.092  1.00  0.00     0.190 A 
HETATM    3  C2  UNL     1      21.872  42.382  36.981  1.00  0.00     0.094 A 
HETATM    4  C3  UNL     1      22.891  43.288  37.173  1.00  0.00     0.090 A 
HETATM    5  O4  UNL     1      23.162  43.693  38.395  1.00  0.00    -0.309 OA
HETATM    6  C10 UNL     1      22.534  43.300  39.472  1.00  0.00     0.095 A 
HETATM    7  C11 UNL     1      22.923  43.810  40.719  1.00  0.00     0.075 A 
HETATM    8  C12 UNL     1      22.283  43.419  41.867  1.00  0.00     0.071 A 
HETATM    9  C13 UNL     1      21.265  42.520  41.733  1.00  0.00     0.074 A 
HETATM   10  C14 UNL     1      20.855  41.994  40.490  1.00  0.00     0.085 A 
HETATM   11  C15 UNL     1      21.502  42.392  39.337  1.00  0.00     0.081 A 
ENDROOT
BRANCH   4  12
HETATM   12  C4  UNL     1      23.669  43.801  36.034  1.00  0.00     0.001 A 
HETATM   13  C5  UNL     1      25.015  44.062  36.095  1.00  0.00     0.017 A 
HETATM   14  C6  UNL     1      25.682  44.547  34.970  1.00  0.00     0.040 A 
HETATM   15  C7  UNL     1      24.969  44.761  33.801  1.00  0.00     0.098 A 
HETATM   16  C8  UNL     1      23.622  44.507  33.720  1.00  0.00     0.099 A 
HETATM   17  C9  UNL     1      22.980  44.028  34.837  1.00  0.00     0.053 A 
BRANCH  15  18
HETATM   18  O2  UNL     1      25.629  45.240  32.693  1.00  0.00    -0.358 OA
ATOM     19  H2  UNL     1      25.395  46.095  32.350  1.00  0.00     0.217 HD
ENDBRANCH  15  18
BRANCH  16  20
HETATM   20  O3  UNL     1      22.912  44.727  32.531  1.00  0.00    -0.358 OA
ATOM     21  H3  UNL     1      22.574  44.002  32.019  1.00  0.00     0.217 HD
ENDBRANCH  16  20
ENDBRANCH   4  12
BRANCH  10  22
HETATM   22  O6  UNL     1      19.834  41.111  40.475  1.00  0.00    -0.360 OA
ATOM     23  H6  UNL     1      19.185  41.184  39.785  1.00  0.00     0.217 HD
ENDBRANCH  10  22
BRANCH   8  24
HETATM   24  O5  UNL     1      22.657  43.917  43.123  1.00  0.00    -0.361 OA
ATOM     25  H5  UNL     1      22.751  43.347  43.877  1.00  0.00     0.217 HD
ENDBRANCH   8  24
TORSDOF 5
ENDMDL
