MODEL 1
REMARK VINA RESULT: -7.432410298      0.000      0.000
REMARK  3 active torsions:
REMARK  status: ('A' for Active; 'I' for Inactive)
REMARK    1  A    between atoms: O1_2  and  C2_3 
REMARK    2  A    between atoms: C7_8  and  O2_9 
REMARK    3  A    between atoms: C10_12  and  C11_13 
ROOT
HETATM    1  C2  UNL     1       7.521  37.405  61.024  1.00  0.00     0.102 A 
HETATM    2  C3  UNL     1       6.848  37.251  59.819  1.00  0.00     0.047 A 
HETATM    3  C4  UNL     1       7.330  37.895  58.713  1.00  0.00    -0.041 A 
HETATM    4  C5  UNL     1       8.454  38.681  58.771  1.00  0.00     0.002 A 
HETATM    5  C6  UNL     1       9.145  38.849  59.962  1.00  0.00     0.054 A 
HETATM    6  C7  UNL     1       8.645  38.188  61.094  1.00  0.00     0.102 A 
HETATM    7  C9  UNL     1       9.071  39.215  57.537  1.00  0.00     0.074 A 
HETATM    8  C10 UNL     1      10.101  40.065  57.327  1.00  0.00     0.080 A 
HETATM    9  N2  UNL     1      10.142  40.219  55.947  1.00  0.00    -0.349 N 
ATOM     10  H2  UNL     1      10.814  40.800  55.444  1.00  0.00     0.166 HD
HETATM   11  C14 UNL     1       9.190  39.508  55.379  1.00  0.00     0.183 A 
HETATM   12  N3  UNL     1       8.490  38.858  56.374  1.00  0.00    -0.340 N 
HETATM   13  C15 UNL     1       7.413  37.925  56.240  1.00  0.00     0.134 C 
HETATM   14  C16 UNL     1       6.582  37.802  57.452  1.00  0.00     0.060 C 
ENDROOT
BRANCH   8  15
HETATM   15  C11 UNL     1      10.908  40.896  58.209  1.00  0.00     0.050 A 
HETATM   16  C12 UNL     1      12.325  40.824  58.247  1.00  0.00     0.109 A 
HETATM   17  N1  UNL     1      12.930  41.593  59.068  1.00  0.00    -0.368 N 
HETATM   18  C13 UNL     1      12.264  42.420  59.849  1.00  0.00     0.138 A 
ATOM     19  H1  UNL     1      13.948  41.568  59.121  1.00  0.00     0.165 HD
HETATM   20  S1  UNL     1      10.666  42.088  59.390  1.00  0.00    -0.081 SA
ENDBRANCH   8  15
BRANCH   6  21
HETATM   21  O2  UNL     1       9.316  38.342  62.301  1.00  0.00    -0.353 OA
HETATM   22  C8  UNL     1      10.340  39.265  62.510  1.00  0.00     0.210 C 
ENDBRANCH   6  21
BRANCH   1  23
HETATM   23  O1  UNL     1       7.014  36.744  62.132  1.00  0.00    -0.353 OA
HETATM   24  C1  UNL     1       6.021  37.333  62.942  1.00  0.00     0.210 C 
ENDBRANCH   1  23
TORSDOF 3
ENDMDL
