MODEL 4
REMARK VINA RESULT: -6.991299708      2.452      4.612
REMARK  3 active torsions:
REMARK  status: ('A' for Active; 'I' for Inactive)
REMARK    1  A    between atoms: O1_2  and  C2_3 
REMARK    2  A    between atoms: C7_8  and  O2_9 
REMARK    3  A    between atoms: C10_12  and  C11_13 
ROOT
HETATM    1  C2  UNL     1       7.629  37.952  59.198  1.00  0.00     0.102 A 
HETATM    2  C3  UNL     1       8.520  38.721  59.935  1.00  0.00     0.047 A 
HETATM    3  C4  UNL     1       9.291  39.639  59.279  1.00  0.00    -0.041 A 
HETATM    4  C5  UNL     1       9.201  39.815  57.921  1.00  0.00     0.002 A 
HETATM    5  C6  UNL     1       8.318  39.061  57.162  1.00  0.00     0.054 A 
HETATM    6  C7  UNL     1       7.530  38.118  57.840  1.00  0.00     0.102 A 
HETATM    7  C9  UNL     1       9.897  40.936  57.252  1.00  0.00     0.074 A 
HETATM    8  C10 UNL     1      10.042  41.274  55.951  1.00  0.00     0.080 A 
HETATM    9  N2  UNL     1      10.862  42.395  55.978  1.00  0.00    -0.349 N 
ATOM     10  H2  UNL     1      11.169  42.912  55.154  1.00  0.00     0.166 HD
HETATM   11  C14 UNL     1      11.185  42.696  57.218  1.00  0.00     0.183 A 
HETATM   12  N3  UNL     1      10.582  41.778  58.052  1.00  0.00    -0.340 N 
HETATM   13  C15 UNL     1      10.591  41.735  59.483  1.00  0.00     0.134 C 
HETATM   14  C16 UNL     1      10.292  40.402  60.038  1.00  0.00     0.060 C 
ENDROOT
BRANCH   8  15
HETATM   15  C11 UNL     1       9.706  40.607  54.701  1.00  0.00     0.050 A 
HETATM   16  C12 UNL     1       9.004  41.254  53.651  1.00  0.00     0.109 A 
HETATM   17  N1  UNL     1       8.754  40.568  52.603  1.00  0.00    -0.368 N 
HETATM   18  C13 UNL     1       9.131  39.309  52.502  1.00  0.00     0.138 A 
ATOM     19  H1  UNL     1       8.252  41.002  51.829  1.00  0.00     0.165 HD
HETATM   20  S1  UNL     1       9.897  39.077  53.997  1.00  0.00    -0.081 SA
ENDBRANCH   8  15
BRANCH   6  21
HETATM   21  O2  UNL     1       6.639  37.347  57.103  1.00  0.00    -0.353 OA
HETATM   22  C8  UNL     1       5.273  37.609  57.012  1.00  0.00     0.210 C 
ENDBRANCH   6  21
BRANCH   1  23
HETATM   23  O1  UNL     1       6.858  37.026  59.885  1.00  0.00    -0.353 OA
HETATM   24  C1  UNL     1       6.872  36.966  61.293  1.00  0.00     0.210 C 
ENDBRANCH   1  23
TORSDOF 3
ENDMDL
