MODEL 2
REMARK VINA RESULT: -7.286000288      2.491      3.562
REMARK  3 active torsions:
REMARK  status: ('A' for Active; 'I' for Inactive)
REMARK    1  A    between atoms: O1_2  and  C2_3 
REMARK    2  A    between atoms: C7_8  and  O2_9 
REMARK    3  A    between atoms: C10_12  and  C11_13 
ROOT
HETATM    1  C2  UNL     1      10.003  40.270  60.058  1.00  0.00     0.102 A 
HETATM    2  C3  UNL     1       9.204  39.579  59.157  1.00  0.00     0.047 A 
HETATM    3  C4  UNL     1       9.430  39.745  57.820  1.00  0.00    -0.041 A 
HETATM    4  C5  UNL     1      10.422  40.573  57.355  1.00  0.00     0.002 A 
HETATM    5  C6  UNL     1      11.234  41.274  58.234  1.00  0.00     0.054 A 
HETATM    6  C7  UNL     1      10.997  41.100  59.606  1.00  0.00     0.102 A 
HETATM    7  C9  UNL     1      10.780  40.599  55.919  1.00  0.00     0.074 A 
HETATM    8  C10 UNL     1      11.634  41.367  55.207  1.00  0.00     0.080 A 
HETATM    9  N2  UNL     1      11.464  40.940  53.895  1.00  0.00    -0.349 N 
ATOM     10  H2  UNL     1      11.967  41.314  53.091  1.00  0.00     0.166 HD
HETATM   11  C14 UNL     1      10.560  39.983  53.839  1.00  0.00     0.183 A 
HETATM   12  N3  UNL     1      10.107  39.747  55.120  1.00  0.00    -0.340 N 
HETATM   13  C15 UNL     1       9.173  38.758  55.565  1.00  0.00     0.134 C 
HETATM   14  C16 UNL     1       8.541  39.080  56.858  1.00  0.00     0.060 C 
ENDROOT
BRANCH   8  15
HETATM   15  C11 UNL     1      12.419  42.551  55.526  1.00  0.00     0.050 A 
HETATM   16  C12 UNL     1      13.822  42.506  55.734  1.00  0.00     0.109 A 
HETATM   17  N1  UNL     1      14.407  43.606  56.020  1.00  0.00    -0.368 N 
HETATM   18  C13 UNL     1      13.734  44.735  56.117  1.00  0.00     0.138 A 
ATOM     19  H1  UNL     1      15.415  43.611  56.175  1.00  0.00     0.165 HD
HETATM   20  S1  UNL     1      12.159  44.206  55.780  1.00  0.00    -0.081 SA
ENDBRANCH   8  15
BRANCH   6  21
HETATM   21  O2  UNL     1      11.795  41.794  60.509  1.00  0.00    -0.353 OA
HETATM   22  C8  UNL     1      12.321  43.062  60.269  1.00  0.00     0.210 C 
ENDBRANCH   6  21
BRANCH   1  23
HETATM   23  O1  UNL     1       9.755  40.087  61.410  1.00  0.00    -0.353 OA
HETATM   24  C1  UNL     1       9.971  38.838  62.028  1.00  0.00     0.210 C 
ENDBRANCH   1  23
TORSDOF 3
ENDMDL
