MODEL 3
REMARK VINA RESULT: -7.240384904      2.560      3.529
REMARK  3 active torsions:
REMARK  status: ('A' for Active; 'I' for Inactive)
REMARK    1  A    between atoms: O1_2  and  C2_3 
REMARK    2  A    between atoms: C7_8  and  O2_9 
REMARK    3  A    between atoms: C10_12  and  C11_13 
ROOT
HETATM    1  C2  UNL     1      10.004  40.170  60.258  1.00  0.00     0.102 A 
HETATM    2  C3  UNL     1       9.181  39.440  59.411  1.00  0.00     0.047 A 
HETATM    3  C4  UNL     1       9.267  39.659  58.064  1.00  0.00    -0.041 A 
HETATM    4  C5  UNL     1      10.143  40.577  57.540  1.00  0.00     0.002 A 
HETATM    5  C6  UNL     1      10.977  41.318  58.364  1.00  0.00     0.054 A 
HETATM    6  C7  UNL     1      10.883  41.090  59.745  1.00  0.00     0.102 A 
HETATM    7  C9  UNL     1      10.362  40.669  56.079  1.00  0.00     0.074 A 
HETATM    8  C10 UNL     1      11.083  41.522  55.318  1.00  0.00     0.080 A 
HETATM    9  N2  UNL     1      10.825  41.117  54.014  1.00  0.00    -0.349 N 
ATOM     10  H2  UNL     1      11.220  41.552  53.179  1.00  0.00     0.166 HD
HETATM   11  C14 UNL     1       9.998  40.092  54.008  1.00  0.00     0.183 A 
HETATM   12  N3  UNL     1       9.686  39.787  55.316  1.00  0.00    -0.340 N 
HETATM   13  C15 UNL     1       8.878  38.714  55.811  1.00  0.00     0.134 C 
HETATM   14  C16 UNL     1       8.347  38.949  57.166  1.00  0.00     0.060 C 
ENDROOT
BRANCH   8  15
HETATM   15  C11 UNL     1      11.800  42.757  55.603  1.00  0.00     0.050 A 
HETATM   16  C12 UNL     1      11.194  44.036  55.497  1.00  0.00     0.109 A 
HETATM   17  N1  UNL     1      11.922  45.053  55.762  1.00  0.00    -0.368 N 
HETATM   18  C13 UNL     1      13.184  44.918  56.116  1.00  0.00     0.138 A 
ATOM     19  H1  UNL     1      11.520  45.987  55.697  1.00  0.00     0.165 HD
HETATM   20  S1  UNL     1      13.356  43.231  56.076  1.00  0.00    -0.081 SA
ENDBRANCH   8  15
BRANCH   6  21
HETATM   21  O2  UNL     1      11.705  41.822  60.595  1.00  0.00    -0.353 OA
HETATM   22  C8  UNL     1      12.313  43.025  60.243  1.00  0.00     0.210 C 
ENDBRANCH   6  21
BRANCH   1  23
HETATM   23  O1  UNL     1       9.898  39.932  61.620  1.00  0.00    -0.353 OA
HETATM   24  C1  UNL     1       9.935  38.620  62.136  1.00  0.00     0.210 C 
ENDBRANCH   1  23
TORSDOF 3
ENDMDL
