MODEL 1
REMARK VINA RESULT: -9.795420668      0.000      0.000
REMARK  16 active torsions:
REMARK  status: ('A' for Active; 'I' for Inactive)
REMARK    1  A    between atoms: O1_2  and  C2_3 
REMARK       I    between atoms: C2_3  and  N1_5 
REMARK    2  A    between atoms: N1_5  and  C3_7 
REMARK    3  A    between atoms: C7_12  and  O4_13 
REMARK    4  A    between atoms: O4_13  and  C8_14 
REMARK       I    between atoms: C8_14  and  N2_16 
REMARK    5  A    between atoms: N2_16  and  C9_18 
REMARK    6  A    between atoms: C9_18  and  C10_19 
REMARK    7  A    between atoms: C9_18  and  C17_26 
REMARK    8  A    between atoms: C10_19  and  C11_20 
REMARK    9  A    between atoms: C17_26  and  O6_27 
REMARK   10  A    between atoms: C17_26  and  C18_29 
REMARK   11  A    between atoms: C18_29  and  N3_30 
REMARK   12  A    between atoms: N3_30  and  C19_31 
REMARK   13  A    between atoms: N3_30  and  S1_35 
REMARK   14  A    between atoms: C19_31  and  C20_32 
REMARK   15  A    between atoms: S1_35  and  C23_38 
REMARK   16  A    between atoms: C26_41  and  O9_42 
ROOT
HETATM    1  C9  UNL     1      15.577  22.929  17.091  1.00  0.00     0.029 C 
ENDROOT
BRANCH   1   2
HETATM    2  N2  UNL     1      15.729  21.560  17.444  1.00  0.00    -0.307 N 
HETATM    3  C8  UNL     1      15.018  20.934  18.486  1.00  0.00     0.365 C 
HETATM    4  O5  UNL     1      14.212  21.586  19.167  1.00  0.00    -0.238 OA
ATOM      5  H2  UNL     1      16.393  20.998  16.910  1.00  0.00     0.170 HD
BRANCH   3   6
HETATM    6  O4  UNL     1      15.217  19.599  18.752  1.00  0.00    -0.298 OA
BRANCH   6   7
HETATM    7  C7  UNL     1      14.667  18.545  18.017  1.00  0.00     0.136 C 
HETATM    8  C6  UNL     1      14.201  17.505  19.043  1.00  0.00     0.065 C 
HETATM    9  C5  UNL     1      12.748  17.253  18.776  1.00  0.00     0.130 C 
HETATM   10  O3  UNL     1      11.921  18.023  19.582  1.00  0.00    -0.383 OA
HETATM   11  C31 UNL     1      12.455  17.798  17.397  1.00  0.00     0.042 C 
HETATM   12  C4  UNL     1      10.694  17.935  18.949  1.00  0.00     0.193 C 
HETATM   13  C3  UNL     1      10.998  18.127  17.474  1.00  0.00     0.117 C 
HETATM   14  C30 UNL     1      13.373  18.973  17.317  1.00  0.00     0.042 C 
BRANCH  13  15
HETATM   15  N1  UNL     1      10.654  19.469  17.133  1.00  0.00    -0.330 N 
HETATM   16  C2  UNL     1       9.953  19.737  15.929  1.00  0.00     0.360 C 
HETATM   17  O2  UNL     1       9.612  18.817  15.127  1.00  0.00    -0.239 OA
ATOM     18  H1  UNL     1      10.913  20.236  17.755  1.00  0.00     0.165 HD
BRANCH  16  19
HETATM   19  O1  UNL     1       9.593  21.032  15.546  1.00  0.00    -0.309 OA
HETATM   20  C1  UNL     1       9.305  21.369  14.192  1.00  0.00     0.215 C 
ENDBRANCH  16  19
ENDBRANCH  13  15
ENDBRANCH   6   7
ENDBRANCH   3   6
ENDBRANCH   1   2
BRANCH   1  21
HETATM   21  C10 UNL     1      14.415  23.251  16.167  1.00  0.00     0.094 C 
BRANCH  21  22
HETATM   22  C11 UNL     1      14.303  22.291  15.055  1.00  0.00    -0.053 A 
HETATM   23  C12 UNL     1      15.344  22.106  14.188  1.00  0.00     0.007 A 
HETATM   24  C13 UNL     1      15.238  21.203  13.116  1.00  0.00     0.001 A 
HETATM   25  C14 UNL     1      14.048  20.526  12.988  1.00  0.00     0.000 A 
HETATM   26  C15 UNL     1      13.004  20.714  13.863  1.00  0.00     0.001 A 
HETATM   27  C16 UNL     1      13.098  21.594  14.913  1.00  0.00     0.007 A 
ENDBRANCH  21  22
ENDBRANCH   1  21
BRANCH   1  28
HETATM   28  C17 UNL     1      15.789  23.924  18.178  1.00  0.00     0.203 C 
BRANCH  28  29
HETATM   29  O6  UNL     1      14.566  24.519  18.477  1.00  0.00    -0.385 OA
ATOM     30  H6  UNL     1      14.682  25.082  19.233  1.00  0.00     0.211 HD
ENDBRANCH  28  29
BRANCH  28  31
HETATM   31  C18 UNL     1      16.849  24.951  17.863  1.00  0.00     0.119 C 
BRANCH  31  32
HETATM   32  N3  UNL     1      18.124  24.422  17.620  1.00  0.00    -0.262 N 
BRANCH  32  33
HETATM   33  C19 UNL     1      18.779  23.628  18.554  1.00  0.00     0.085 C 
BRANCH  33  34
HETATM   34  C20 UNL     1      19.365  24.367  19.701  1.00  0.00     0.017 C 
HETATM   35  C21 UNL     1      20.840  24.036  19.912  1.00  0.00     0.015 C 
HETATM   36  C22 UNL     1      18.652  24.215  21.004  1.00  0.00     0.015 C 
ENDBRANCH  33  34
ENDBRANCH  32  33
BRANCH  32  37
HETATM   37  S1  UNL     1      18.777  24.464  16.087  1.00  0.00     0.267 S 
HETATM   38  O7  UNL     1      19.695  23.293  15.789  1.00  0.00    -0.200 OA
HETATM   39  O8  UNL     1      17.701  24.525  14.989  1.00  0.00    -0.200 OA
BRANCH  37  40
HETATM   40  C23 UNL     1      19.740  25.891  15.832  1.00  0.00     0.080 A 
HETATM   41  C24 UNL     1      20.668  26.247  16.801  1.00  0.00     0.028 A 
HETATM   42  C25 UNL     1      21.461  27.341  16.652  1.00  0.00     0.038 A 
HETATM   43  C26 UNL     1      21.353  28.119  15.521  1.00  0.00     0.068 A 
HETATM   44  C28 UNL     1      20.423  27.755  14.555  1.00  0.00     0.038 A 
HETATM   45  C29 UNL     1      19.606  26.656  14.676  1.00  0.00     0.028 A 
BRANCH  43  46
HETATM   46  O9  UNL     1      22.167  29.226  15.387  1.00  0.00    -0.356 OA
HETATM   47  C27 UNL     1      23.556  29.106  15.602  1.00  0.00     0.210 C 
ENDBRANCH  43  46
ENDBRANCH  37  40
ENDBRANCH  32  37
ENDBRANCH  31  32
ENDBRANCH  28  31
ENDBRANCH   1  28
TORSDOF 16
ENDMDL
