MODEL 5
REMARK VINA RESULT: -9.124616484      1.657      2.224
REMARK  16 active torsions:
REMARK  status: ('A' for Active; 'I' for Inactive)
REMARK    1  A    between atoms: O1_2  and  C2_3 
REMARK       I    between atoms: C2_3  and  N1_5 
REMARK    2  A    between atoms: N1_5  and  C3_7 
REMARK    3  A    between atoms: C7_12  and  O4_13 
REMARK    4  A    between atoms: O4_13  and  C8_14 
REMARK       I    between atoms: C8_14  and  N2_16 
REMARK    5  A    between atoms: N2_16  and  C9_18 
REMARK    6  A    between atoms: C9_18  and  C10_19 
REMARK    7  A    between atoms: C9_18  and  C17_26 
REMARK    8  A    between atoms: C10_19  and  C11_20 
REMARK    9  A    between atoms: C17_26  and  O6_27 
REMARK   10  A    between atoms: C17_26  and  C18_29 
REMARK   11  A    between atoms: C18_29  and  N3_30 
REMARK   12  A    between atoms: N3_30  and  C19_31 
REMARK   13  A    between atoms: N3_30  and  S1_35 
REMARK   14  A    between atoms: C19_31  and  C20_32 
REMARK   15  A    between atoms: S1_35  and  C23_38 
REMARK   16  A    between atoms: C26_41  and  O9_42 
ROOT
HETATM    1  C9  UNL     1      14.283  21.436  17.655  1.00  0.00     0.029 C 
ENDROOT
BRANCH   1   2
HETATM    2  N2  UNL     1      13.946  20.338  18.492  1.00  0.00    -0.307 N 
HETATM    3  C8  UNL     1      14.666  19.127  18.527  1.00  0.00     0.365 C 
HETATM    4  O5  UNL     1      15.651  18.970  17.789  1.00  0.00    -0.238 OA
ATOM      5  H2  UNL     1      13.134  20.431  19.103  1.00  0.00     0.170 HD
BRANCH   3   6
HETATM    6  O4  UNL     1      14.279  18.118  19.378  1.00  0.00    -0.298 OA
BRANCH   6   7
HETATM    7  C7  UNL     1      13.106  17.368  19.249  1.00  0.00     0.136 C 
HETATM    8  C6  UNL     1      11.993  18.199  19.898  1.00  0.00     0.065 C 
HETATM    9  C5  UNL     1      10.921  18.369  18.864  1.00  0.00     0.130 C 
HETATM   10  O3  UNL     1      11.040  19.565  18.170  1.00  0.00    -0.383 OA
HETATM   11  C31 UNL     1      11.185  17.342  17.787  1.00  0.00     0.042 C 
HETATM   12  C4  UNL     1      10.236  19.368  17.062  1.00  0.00     0.193 C 
HETATM   13  C3  UNL     1      10.575  17.970  16.574  1.00  0.00     0.117 C 
HETATM   14  C30 UNL     1      12.676  17.259  17.783  1.00  0.00     0.042 C 
BRANCH  13  15
HETATM   15  N1  UNL     1      11.445  18.104  15.451  1.00  0.00    -0.330 N 
HETATM   16  C2  UNL     1      10.906  18.147  14.139  1.00  0.00     0.360 C 
HETATM   17  O2  UNL     1       9.660  18.071  13.918  1.00  0.00    -0.239 OA
ATOM     18  H1  UNL     1      12.453  18.168  15.591  1.00  0.00     0.165 HD
BRANCH  16  19
HETATM   19  O1  UNL     1      11.711  18.275  13.004  1.00  0.00    -0.309 OA
HETATM   20  C1  UNL     1      11.640  17.357  11.917  1.00  0.00     0.215 C 
ENDBRANCH  16  19
ENDBRANCH  13  15
ENDBRANCH   6   7
ENDBRANCH   3   6
ENDBRANCH   1   2
BRANCH   1  21
HETATM   21  C10 UNL     1      13.213  21.872  16.669  1.00  0.00     0.094 C 
BRANCH  21  22
HETATM   22  C11 UNL     1      13.609  21.623  15.270  1.00  0.00    -0.053 A 
HETATM   23  C12 UNL     1      14.156  20.424  14.905  1.00  0.00     0.007 A 
HETATM   24  C13 UNL     1      14.548  20.187  13.577  1.00  0.00     0.001 A 
HETATM   25  C14 UNL     1      14.356  21.209  12.678  1.00  0.00     0.000 A 
HETATM   26  C15 UNL     1      13.803  22.413  13.049  1.00  0.00     0.001 A 
HETATM   27  C16 UNL     1      13.417  22.654  14.345  1.00  0.00     0.007 A 
ENDBRANCH  21  22
ENDBRANCH   1  21
BRANCH   1  28
HETATM   28  C17 UNL     1      15.019  22.560  18.297  1.00  0.00     0.203 C 
BRANCH  28  29
HETATM   29  O6  UNL     1      14.824  23.708  17.531  1.00  0.00    -0.385 OA
ATOM     30  H6  UNL     1      15.581  23.826  16.969  1.00  0.00     0.211 HD
ENDBRANCH  28  29
BRANCH  28  31
HETATM   31  C18 UNL     1      16.486  22.278  18.518  1.00  0.00     0.119 C 
BRANCH  31  32
HETATM   32  N3  UNL     1      17.356  23.183  17.895  1.00  0.00    -0.262 N 
BRANCH  32  33
HETATM   33  C19 UNL     1      17.963  24.219  18.597  1.00  0.00     0.085 C 
BRANCH  33  34
HETATM   34  C20 UNL     1      18.961  23.788  19.607  1.00  0.00     0.017 C 
HETATM   35  C21 UNL     1      18.565  24.193  21.025  1.00  0.00     0.015 C 
HETATM   36  C22 UNL     1      20.366  24.229  19.362  1.00  0.00     0.015 C 
ENDBRANCH  33  34
ENDBRANCH  32  33
BRANCH  32  37
HETATM   37  S1  UNL     1      17.943  22.874  16.366  1.00  0.00     0.267 S 
HETATM   38  O7  UNL     1      18.909  21.705  16.314  1.00  0.00    -0.200 OA
HETATM   39  O8  UNL     1      16.821  22.617  15.346  1.00  0.00    -0.200 OA
BRANCH  37  40
HETATM   40  C23 UNL     1      18.815  24.234  15.720  1.00  0.00     0.080 A 
HETATM   41  C24 UNL     1      20.199  24.158  15.645  1.00  0.00     0.028 A 
HETATM   42  C25 UNL     1      20.936  25.181  15.134  1.00  0.00     0.038 A 
HETATM   43  C26 UNL     1      20.309  26.319  14.678  1.00  0.00     0.068 A 
HETATM   44  C28 UNL     1      18.923  26.386  14.757  1.00  0.00     0.038 A 
HETATM   45  C29 UNL     1      18.150  25.370  15.268  1.00  0.00     0.028 A 
BRANCH  43  46
HETATM   46  O9  UNL     1      21.073  27.346  14.164  1.00  0.00    -0.356 OA
HETATM   47  C27 UNL     1      21.690  28.267  15.037  1.00  0.00     0.210 C 
ENDBRANCH  43  46
ENDBRANCH  37  40
ENDBRANCH  32  37
ENDBRANCH  31  32
ENDBRANCH  28  31
ENDBRANCH   1  28
TORSDOF 16
ENDMDL
