MODEL 3
REMARK VINA RESULT: -9.200410266      1.588      2.329
REMARK  16 active torsions:
REMARK  status: ('A' for Active; 'I' for Inactive)
REMARK    1  A    between atoms: O1_2  and  C2_3 
REMARK       I    between atoms: C2_3  and  N1_5 
REMARK    2  A    between atoms: N1_5  and  C3_7 
REMARK    3  A    between atoms: C7_12  and  O4_13 
REMARK    4  A    between atoms: O4_13  and  C8_14 
REMARK       I    between atoms: C8_14  and  N2_16 
REMARK    5  A    between atoms: N2_16  and  C9_18 
REMARK    6  A    between atoms: C9_18  and  C10_19 
REMARK    7  A    between atoms: C9_18  and  C17_26 
REMARK    8  A    between atoms: C10_19  and  C11_20 
REMARK    9  A    between atoms: C17_26  and  O6_27 
REMARK   10  A    between atoms: C17_26  and  C18_29 
REMARK   11  A    between atoms: C18_29  and  N3_30 
REMARK   12  A    between atoms: N3_30  and  C19_31 
REMARK   13  A    between atoms: N3_30  and  S1_35 
REMARK   14  A    between atoms: C19_31  and  C20_32 
REMARK   15  A    between atoms: S1_35  and  C23_38 
REMARK   16  A    between atoms: C26_41  and  O9_42 
ROOT
HETATM    1  C9  UNL     1      15.235  22.649  17.044  1.00  0.00     0.029 C 
ENDROOT
BRANCH   1   2
HETATM    2  N2  UNL     1      15.038  21.291  17.414  1.00  0.00    -0.307 N 
HETATM    3  C8  UNL     1      16.086  20.365  17.589  1.00  0.00     0.365 C 
HETATM    4  O5  UNL     1      17.262  20.716  17.405  1.00  0.00    -0.238 OA
ATOM      5  H2  UNL     1      14.082  20.967  17.563  1.00  0.00     0.170 HD
BRANCH   3   6
HETATM    6  O4  UNL     1      15.808  19.071  17.961  1.00  0.00    -0.298 OA
BRANCH   6   7
HETATM    7  C7  UNL     1      14.897  18.701  18.956  1.00  0.00     0.136 C 
HETATM    8  C6  UNL     1      13.996  19.920  19.185  1.00  0.00     0.065 C 
HETATM    9  C5  UNL     1      12.584  19.458  18.990  1.00  0.00     0.130 C 
HETATM   10  O3  UNL     1      12.123  19.697  17.702  1.00  0.00    -0.383 OA
HETATM   11  C31 UNL     1      12.605  17.948  19.051  1.00  0.00     0.042 C 
HETATM   12  C4  UNL     1      11.000  18.893  17.615  1.00  0.00     0.193 C 
HETATM   13  C3  UNL     1      11.418  17.566  18.225  1.00  0.00     0.117 C 
HETATM   14  C30 UNL     1      13.933  17.623  18.452  1.00  0.00     0.042 C 
BRANCH  13  15
HETATM   15  N1  UNL     1      11.684  16.664  17.151  1.00  0.00    -0.330 N 
HETATM   16  C2  UNL     1      10.946  15.457  17.042  1.00  0.00     0.360 C 
HETATM   17  O2  UNL     1      10.041  15.140  17.872  1.00  0.00    -0.239 OA
ATOM     18  H1  UNL     1      12.404  16.886  16.464  1.00  0.00     0.165 HD
BRANCH  16  19
HETATM   19  O1  UNL     1      11.166  14.537  16.012  1.00  0.00    -0.309 OA
HETATM   20  C1  UNL     1      10.454  13.306  15.932  1.00  0.00     0.215 C 
ENDBRANCH  16  19
ENDBRANCH  13  15
ENDBRANCH   6   7
ENDBRANCH   3   6
ENDBRANCH   1   2
BRANCH   1  21
HETATM   21  C10 UNL     1      14.374  23.157  15.900  1.00  0.00     0.094 C 
BRANCH  21  22
HETATM   22  C11 UNL     1      14.174  22.136  14.856  1.00  0.00    -0.053 A 
HETATM   23  C12 UNL     1      12.978  21.481  14.745  1.00  0.00     0.007 A 
HETATM   24  C13 UNL     1      12.786  20.496  13.761  1.00  0.00     0.001 A 
HETATM   25  C14 UNL     1      13.848  20.230  12.929  1.00  0.00     0.000 A 
HETATM   26  C15 UNL     1      15.048  20.893  13.043  1.00  0.00     0.001 A 
HETATM   27  C16 UNL     1      15.245  21.856  14.002  1.00  0.00     0.007 A 
ENDBRANCH  21  22
ENDBRANCH   1  21
BRANCH   1  28
HETATM   28  C17 UNL     1      15.412  23.623  18.157  1.00  0.00     0.203 C 
BRANCH  28  29
HETATM   29  O6  UNL     1      14.174  24.195  18.442  1.00  0.00    -0.385 OA
ATOM     30  H6  UNL     1      14.162  25.077  18.088  1.00  0.00     0.211 HD
ENDBRANCH  28  29
BRANCH  28  31
HETATM   31  C18 UNL     1      16.463  24.672  17.885  1.00  0.00     0.119 C 
BRANCH  31  32
HETATM   32  N3  UNL     1      17.764  24.171  17.733  1.00  0.00    -0.262 N 
BRANCH  32  33
HETATM   33  C19 UNL     1      18.388  23.434  18.733  1.00  0.00     0.085 C 
BRANCH  33  34
HETATM   34  C20 UNL     1      19.036  24.246  19.794  1.00  0.00     0.017 C 
HETATM   35  C21 UNL     1      20.509  23.889  19.979  1.00  0.00     0.015 C 
HETATM   36  C22 UNL     1      18.369  24.222  21.129  1.00  0.00     0.015 C 
ENDBRANCH  33  34
ENDBRANCH  32  33
BRANCH  32  37
HETATM   37  S1  UNL     1      18.498  24.171  16.237  1.00  0.00     0.267 S 
HETATM   38  O7  UNL     1      19.503  23.047  16.057  1.00  0.00    -0.200 OA
HETATM   39  O8  UNL     1      17.485  24.100  15.082  1.00  0.00    -0.200 OA
BRANCH  37  40
HETATM   40  C23 UNL     1      19.384  25.641  15.950  1.00  0.00     0.080 A 
HETATM   41  C24 UNL     1      20.286  26.070  16.912  1.00  0.00     0.028 A 
HETATM   42  C25 UNL     1      21.020  27.202  16.738  1.00  0.00     0.038 A 
HETATM   43  C26 UNL     1      20.874  27.945  15.588  1.00  0.00     0.068 A 
HETATM   44  C28 UNL     1      19.969  27.508  14.629  1.00  0.00     0.038 A 
HETATM   45  C29 UNL     1      19.213  26.369  14.775  1.00  0.00     0.028 A 
BRANCH  43  46
HETATM   46  O9  UNL     1      21.627  29.091  15.429  1.00  0.00    -0.356 OA
HETATM   47  C27 UNL     1      23.036  29.014  15.449  1.00  0.00     0.210 C 
ENDBRANCH  43  46
ENDBRANCH  37  40
ENDBRANCH  32  37
ENDBRANCH  31  32
ENDBRANCH  28  31
ENDBRANCH   1  28
TORSDOF 16
ENDMDL
