MODEL 4
REMARK VINA RESULT: -9.152705217      2.447     10.679
REMARK  16 active torsions:
REMARK  status: ('A' for Active; 'I' for Inactive)
REMARK    1  A    between atoms: O1_2  and  C2_3 
REMARK       I    between atoms: C2_3  and  N1_5 
REMARK    2  A    between atoms: N1_5  and  C3_7 
REMARK    3  A    between atoms: C7_12  and  O4_13 
REMARK    4  A    between atoms: O4_13  and  C8_14 
REMARK       I    between atoms: C8_14  and  N2_16 
REMARK    5  A    between atoms: N2_16  and  C9_18 
REMARK    6  A    between atoms: C9_18  and  C10_19 
REMARK    7  A    between atoms: C9_18  and  C17_26 
REMARK    8  A    between atoms: C10_19  and  C11_20 
REMARK    9  A    between atoms: C17_26  and  O6_27 
REMARK   10  A    between atoms: C17_26  and  C18_29 
REMARK   11  A    between atoms: C18_29  and  N3_30 
REMARK   12  A    between atoms: N3_30  and  C19_31 
REMARK   13  A    between atoms: N3_30  and  S1_35 
REMARK   14  A    between atoms: C19_31  and  C20_32 
REMARK   15  A    between atoms: S1_35  and  C23_38 
REMARK   16  A    between atoms: C26_41  and  O9_42 
ROOT
HETATM    1  C9  UNL     1      18.131  24.375  16.582  1.00  0.00     0.029 C 
ENDROOT
BRANCH   1   2
HETATM    2  N2  UNL     1      18.919  25.224  15.760  1.00  0.00    -0.307 N 
HETATM    3  C8  UNL     1      20.133  24.833  15.161  1.00  0.00     0.365 C 
HETATM    4  O5  UNL     1      20.577  23.690  15.350  1.00  0.00    -0.238 OA
ATOM      5  H2  UNL     1      18.586  26.175  15.594  1.00  0.00     0.170 HD
BRANCH   3   6
HETATM    6  O4  UNL     1      20.827  25.716  14.368  1.00  0.00    -0.298 OA
BRANCH   6   7
HETATM    7  C7  UNL     1      21.701  26.700  14.839  1.00  0.00     0.136 C 
HETATM    8  C6  UNL     1      20.823  27.775  15.491  1.00  0.00     0.065 C 
HETATM    9  C5  UNL     1      21.318  27.945  16.895  1.00  0.00     0.130 C 
HETATM   10  O3  UNL     1      20.596  27.186  17.806  1.00  0.00    -0.383 OA
HETATM   11  C31 UNL     1      22.688  27.310  16.957  1.00  0.00     0.042 C 
HETATM   12  C4  UNL     1      21.409  27.182  18.926  1.00  0.00     0.193 C 
HETATM   13  C3  UNL     1      22.807  26.921  18.396  1.00  0.00     0.117 C 
HETATM   14  C30 UNL     1      22.556  26.175  15.996  1.00  0.00     0.042 C 
BRANCH  13  15
HETATM   15  N1  UNL     1      23.110  25.546  18.636  1.00  0.00    -0.330 N 
HETATM   16  C2  UNL     1      23.692  25.154  19.869  1.00  0.00     0.360 C 
HETATM   17  O2  UNL     1      23.959  25.988  20.786  1.00  0.00    -0.239 OA
ATOM     18  H1  UNL     1      22.908  24.847  17.921  1.00  0.00     0.165 HD
BRANCH  16  19
HETATM   19  O1  UNL     1      24.009  23.823  20.156  1.00  0.00    -0.309 OA
HETATM   20  C1  UNL     1      25.233  23.229  19.734  1.00  0.00     0.215 C 
ENDBRANCH  16  19
ENDBRANCH  13  15
ENDBRANCH   6   7
ENDBRANCH   3   6
ENDBRANCH   1   2
BRANCH   1  21
HETATM   21  C10 UNL     1      17.944  24.828  18.020  1.00  0.00     0.094 C 
BRANCH  21  22
HETATM   22  C11 UNL     1      18.660  23.964  18.976  1.00  0.00    -0.053 A 
HETATM   23  C12 UNL     1      19.987  23.683  18.800  1.00  0.00     0.007 A 
HETATM   24  C13 UNL     1      20.671  22.848  19.699  1.00  0.00     0.001 A 
HETATM   25  C14 UNL     1      19.947  22.337  20.750  1.00  0.00     0.000 A 
HETATM   26  C15 UNL     1      18.613  22.625  20.925  1.00  0.00     0.001 A 
HETATM   27  C16 UNL     1      17.935  23.439  20.051  1.00  0.00     0.007 A 
ENDBRANCH  21  22
ENDBRANCH   1  21
BRANCH   1  28
HETATM   28  C17 UNL     1      16.910  23.792  15.960  1.00  0.00     0.203 C 
BRANCH  28  29
HETATM   29  O6  UNL     1      15.802  24.191  16.705  1.00  0.00    -0.385 OA
ATOM     30  H6  UNL     1      15.100  23.569  16.555  1.00  0.00     0.211 HD
ENDBRANCH  28  29
BRANCH  28  31
HETATM   31  C18 UNL     1      16.965  22.292  15.801  1.00  0.00     0.119 C 
BRANCH  31  32
HETATM   32  N3  UNL     1      15.819  21.614  16.238  1.00  0.00    -0.262 N 
BRANCH  32  33
HETATM   33  C19 UNL     1      14.896  21.082  15.345  1.00  0.00     0.085 C 
BRANCH  33  34
HETATM   34  C20 UNL     1      14.698  21.874  14.106  1.00  0.00     0.017 C 
HETATM   35  C21 UNL     1      13.294  22.465  14.012  1.00  0.00     0.015 C 
HETATM   36  C22 UNL     1      15.003  21.167  12.827  1.00  0.00     0.015 C 
ENDBRANCH  33  34
ENDBRANCH  32  33
BRANCH  32  37
HETATM   37  S1  UNL     1      15.670  21.148  17.831  1.00  0.00     0.267 S 
HETATM   38  O7  UNL     1      16.959  20.612  18.428  1.00  0.00    -0.200 OA
HETATM   39  O8  UNL     1      15.159  22.284  18.733  1.00  0.00    -0.200 OA
BRANCH  37  40
HETATM   40  C23 UNL     1      14.499  19.876  18.028  1.00  0.00     0.080 A 
HETATM   41  C24 UNL     1      14.949  18.566  18.102  1.00  0.00     0.028 A 
HETATM   42  C25 UNL     1      14.083  17.530  18.271  1.00  0.00     0.038 A 
HETATM   43  C26 UNL     1      12.732  17.773  18.375  1.00  0.00     0.068 A 
HETATM   44  C28 UNL     1      12.290  19.089  18.300  1.00  0.00     0.038 A 
HETATM   45  C29 UNL     1      13.138  20.157  18.129  1.00  0.00     0.028 A 
BRANCH  43  46
HETATM   46  O9  UNL     1      11.870  16.710  18.546  1.00  0.00    -0.356 OA
HETATM   47  C27 UNL     1      11.234  16.134  17.426  1.00  0.00     0.210 C 
ENDBRANCH  43  46
ENDBRANCH  37  40
ENDBRANCH  32  37
ENDBRANCH  31  32
ENDBRANCH  28  31
ENDBRANCH   1  28
TORSDOF 16
ENDMDL
