MODEL 8
REMARK VINA RESULT: -9.027136750      2.370     10.713
REMARK  16 active torsions:
REMARK  status: ('A' for Active; 'I' for Inactive)
REMARK    1  A    between atoms: O1_2  and  C2_3 
REMARK       I    between atoms: C2_3  and  N1_5 
REMARK    2  A    between atoms: N1_5  and  C3_7 
REMARK    3  A    between atoms: C7_12  and  O4_13 
REMARK    4  A    between atoms: O4_13  and  C8_14 
REMARK       I    between atoms: C8_14  and  N2_16 
REMARK    5  A    between atoms: N2_16  and  C9_18 
REMARK    6  A    between atoms: C9_18  and  C10_19 
REMARK    7  A    between atoms: C9_18  and  C17_26 
REMARK    8  A    between atoms: C10_19  and  C11_20 
REMARK    9  A    between atoms: C17_26  and  O6_27 
REMARK   10  A    between atoms: C17_26  and  C18_29 
REMARK   11  A    between atoms: C18_29  and  N3_30 
REMARK   12  A    between atoms: N3_30  and  C19_31 
REMARK   13  A    between atoms: N3_30  and  S1_35 
REMARK   14  A    between atoms: C19_31  and  C20_32 
REMARK   15  A    between atoms: S1_35  and  C23_38 
REMARK   16  A    between atoms: C26_41  and  O9_42 
ROOT
HETATM    1  C9  UNL     1      16.499  23.137  18.268  1.00  0.00     0.029 C 
ENDROOT
BRANCH   1   2
HETATM    2  N2  UNL     1      17.270  24.240  17.810  1.00  0.00    -0.307 N 
HETATM    3  C8  UNL     1      17.694  24.402  16.477  1.00  0.00     0.365 C 
HETATM    4  O5  UNL     1      17.406  23.546  15.625  1.00  0.00    -0.238 OA
ATOM      5  H2  UNL     1      17.533  24.956  18.488  1.00  0.00     0.170 HD
BRANCH   3   6
HETATM    6  O4  UNL     1      18.428  25.507  16.115  1.00  0.00    -0.298 OA
BRANCH   6   7
HETATM    7  C7  UNL     1      19.375  25.540  15.088  1.00  0.00     0.136 C 
HETATM    8  C6  UNL     1      19.172  26.874  14.360  1.00  0.00     0.065 C 
HETATM    9  C5  UNL     1      20.493  27.581  14.373  1.00  0.00     0.130 C 
HETATM   10  O3  UNL     1      20.602  28.479  15.425  1.00  0.00    -0.383 OA
HETATM   11  C31 UNL     1      21.539  26.547  14.721  1.00  0.00     0.042 C 
HETATM   12  C4  UNL     1      21.961  28.730  15.486  1.00  0.00     0.193 C 
HETATM   13  C3  UNL     1      22.618  27.367  15.353  1.00  0.00     0.117 C 
HETATM   14  C30 UNL     1      20.797  25.642  15.648  1.00  0.00     0.042 C 
BRANCH  13  15
HETATM   15  N1  UNL     1      23.018  26.952  16.659  1.00  0.00    -0.330 N 
HETATM   16  C2  UNL     1      24.285  26.342  16.851  1.00  0.00     0.360 C 
HETATM   17  O2  UNL     1      25.093  26.148  15.894  1.00  0.00    -0.239 OA
ATOM     18  H1  UNL     1      22.394  27.093  17.453  1.00  0.00     0.165 HD
BRANCH  16  19
HETATM   19  O1  UNL     1      24.727  25.915  18.106  1.00  0.00    -0.309 OA
HETATM   20  C1  UNL     1      23.838  25.760  19.209  1.00  0.00     0.215 C 
ENDBRANCH  16  19
ENDBRANCH  13  15
ENDBRANCH   6   7
ENDBRANCH   3   6
ENDBRANCH   1   2
BRANCH   1  21
HETATM   21  C10 UNL     1      16.792  22.662  19.680  1.00  0.00     0.094 C 
BRANCH  21  22
HETATM   22  C11 UNL     1      18.204  22.860  20.055  1.00  0.00    -0.053 A 
HETATM   23  C12 UNL     1      18.623  24.049  20.583  1.00  0.00     0.007 A 
HETATM   24  C13 UNL     1      19.971  24.249  20.928  1.00  0.00     0.001 A 
HETATM   25  C14 UNL     1      20.832  23.199  20.709  1.00  0.00     0.000 A 
HETATM   26  C15 UNL     1      20.405  22.004  20.180  1.00  0.00     0.001 A 
HETATM   27  C16 UNL     1      19.090  21.800  19.839  1.00  0.00     0.007 A 
ENDBRANCH  21  22
ENDBRANCH   1  21
BRANCH   1  28
HETATM   28  C17 UNL     1      15.053  23.143  17.911  1.00  0.00     0.203 C 
BRANCH  28  29
HETATM   29  O6  UNL     1      14.491  24.333  18.367  1.00  0.00    -0.385 OA
ATOM     30  H6  UNL     1      13.553  24.298  18.219  1.00  0.00     0.211 HD
ENDBRANCH  28  29
BRANCH  28  31
HETATM   31  C18 UNL     1      14.297  21.937  18.416  1.00  0.00     0.119 C 
BRANCH  31  32
HETATM   32  N3  UNL     1      13.918  21.025  17.423  1.00  0.00    -0.262 N 
BRANCH  32  33
HETATM   33  C19 UNL     1      13.464  19.748  17.733  1.00  0.00     0.085 C 
BRANCH  33  34
HETATM   34  C20 UNL     1      14.218  19.063  18.813  1.00  0.00     0.017 C 
HETATM   35  C21 UNL     1      14.807  17.731  18.354  1.00  0.00     0.015 C 
HETATM   36  C22 UNL     1      13.472  18.839  20.086  1.00  0.00     0.015 C 
ENDBRANCH  33  34
ENDBRANCH  32  33
BRANCH  32  37
HETATM   37  S1  UNL     1      13.702  21.531  15.850  1.00  0.00     0.267 S 
HETATM   38  O7  UNL     1      13.472  23.026  15.722  1.00  0.00    -0.200 OA
HETATM   39  O8  UNL     1      14.880  21.147  14.939  1.00  0.00    -0.200 OA
BRANCH  37  40
HETATM   40  C23 UNL     1      12.318  20.779  15.111  1.00  0.00     0.080 A 
HETATM   41  C24 UNL     1      12.524  19.709  14.253  1.00  0.00     0.028 A 
HETATM   42  C25 UNL     1      11.480  19.069  13.658  1.00  0.00     0.038 A 
HETATM   43  C26 UNL     1      10.190  19.481  13.907  1.00  0.00     0.068 A 
HETATM   44  C28 UNL     1       9.993  20.553  14.768  1.00  0.00     0.038 A 
HETATM   45  C29 UNL     1      11.025  21.221  15.384  1.00  0.00     0.028 A 
BRANCH  43  46
HETATM   46  O9  UNL     1       9.145  18.820  13.294  1.00  0.00    -0.356 OA
HETATM   47  C27 UNL     1       9.338  17.516  12.789  1.00  0.00     0.210 C 
ENDBRANCH  43  46
ENDBRANCH  37  40
ENDBRANCH  32  37
ENDBRANCH  31  32
ENDBRANCH  28  31
ENDBRANCH   1  28
TORSDOF 16
ENDMDL
