MODEL 7
REMARK VINA RESULT: -9.057392003      2.270     11.190
REMARK  16 active torsions:
REMARK  status: ('A' for Active; 'I' for Inactive)
REMARK    1  A    between atoms: O1_2  and  C2_3 
REMARK       I    between atoms: C2_3  and  N1_5 
REMARK    2  A    between atoms: N1_5  and  C3_7 
REMARK    3  A    between atoms: C7_12  and  O4_13 
REMARK    4  A    between atoms: O4_13  and  C8_14 
REMARK       I    between atoms: C8_14  and  N2_16 
REMARK    5  A    between atoms: N2_16  and  C9_18 
REMARK    6  A    between atoms: C9_18  and  C10_19 
REMARK    7  A    between atoms: C9_18  and  C17_26 
REMARK    8  A    between atoms: C10_19  and  C11_20 
REMARK    9  A    between atoms: C17_26  and  O6_27 
REMARK   10  A    between atoms: C17_26  and  C18_29 
REMARK   11  A    between atoms: C18_29  and  N3_30 
REMARK   12  A    between atoms: N3_30  and  C19_31 
REMARK   13  A    between atoms: N3_30  and  S1_35 
REMARK   14  A    between atoms: C19_31  and  C20_32 
REMARK   15  A    between atoms: S1_35  and  C23_38 
REMARK   16  A    between atoms: C26_41  and  O9_42 
ROOT
HETATM    1  C9  UNL     1      17.114  24.334  17.670  1.00  0.00     0.029 C 
ENDROOT
BRANCH   1   2
HETATM    2  N2  UNL     1      17.766  25.446  17.072  1.00  0.00    -0.307 N 
HETATM    3  C8  UNL     1      18.768  25.333  16.088  1.00  0.00     0.365 C 
HETATM    4  O5  UNL     1      19.136  24.212  15.703  1.00  0.00    -0.238 OA
ATOM      5  H2  UNL     1      17.494  26.382  17.375  1.00  0.00     0.170 HD
BRANCH   3   6
HETATM    6  O4  UNL     1      19.339  26.463  15.552  1.00  0.00    -0.298 OA
BRANCH   6   7
HETATM    7  C7  UNL     1      20.418  26.471  14.663  1.00  0.00     0.136 C 
HETATM    8  C6  UNL     1      20.482  27.888  14.080  1.00  0.00     0.065 C 
HETATM    9  C5  UNL     1      21.864  28.403  14.343  1.00  0.00     0.130 C 
HETATM   10  O3  UNL     1      21.933  29.166  15.500  1.00  0.00    -0.383 OA
HETATM   11  C31 UNL     1      22.718  27.206  14.694  1.00  0.00     0.042 C 
HETATM   12  C4  UNL     1      23.290  29.222  15.761  1.00  0.00     0.193 C 
HETATM   13  C3  UNL     1      23.789  27.803  15.549  1.00  0.00     0.117 C 
HETATM   14  C30 UNL     1      21.749  26.321  15.405  1.00  0.00     0.042 C 
BRANCH  13  15
HETATM   15  N1  UNL     1      23.949  27.206  16.836  1.00  0.00    -0.330 N 
HETATM   16  C2  UNL     1      24.967  26.239  17.047  1.00  0.00     0.360 C 
HETATM   17  O2  UNL     1      25.756  25.877  16.123  1.00  0.00    -0.239 OA
ATOM     18  H1  UNL     1      23.333  27.474  17.603  1.00  0.00     0.165 HD
BRANCH  16  19
HETATM   19  O1  UNL     1      25.167  25.622  18.285  1.00  0.00    -0.309 OA
HETATM   20  C1  UNL     1      24.137  25.542  19.266  1.00  0.00     0.215 C 
ENDBRANCH  16  19
ENDBRANCH  13  15
ENDBRANCH   6   7
ENDBRANCH   3   6
ENDBRANCH   1   2
BRANCH   1  21
HETATM   21  C10 UNL     1      17.074  24.324  19.188  1.00  0.00     0.094 C 
BRANCH  21  22
HETATM   22  C11 UNL     1      18.186  23.550  19.771  1.00  0.00    -0.053 A 
HETATM   23  C12 UNL     1      19.482  23.934  19.568  1.00  0.00     0.007 A 
HETATM   24  C13 UNL     1      20.546  23.191  20.108  1.00  0.00     0.001 A 
HETATM   25  C14 UNL     1      20.218  22.075  20.840  1.00  0.00     0.000 A 
HETATM   26  C15 UNL     1      18.912  21.693  21.043  1.00  0.00     0.001 A 
HETATM   27  C16 UNL     1      17.866  22.412  20.519  1.00  0.00     0.007 A 
ENDBRANCH  21  22
ENDBRANCH   1  21
BRANCH   1  28
HETATM   28  C17 UNL     1      15.854  23.874  17.022  1.00  0.00     0.203 C 
BRANCH  28  29
HETATM   29  O6  UNL     1      14.822  23.961  17.954  1.00  0.00    -0.385 OA
ATOM     30  H6  UNL     1      14.078  24.382  17.539  1.00  0.00     0.211 HD
ENDBRANCH  28  29
BRANCH  28  31
HETATM   31  C18 UNL     1      15.950  22.494  16.419  1.00  0.00     0.119 C 
BRANCH  31  32
HETATM   32  N3  UNL     1      14.935  21.611  16.814  1.00  0.00    -0.262 N 
BRANCH  32  33
HETATM   33  C19 UNL     1      13.940  21.197  15.936  1.00  0.00     0.085 C 
BRANCH  33  34
HETATM   34  C20 UNL     1      14.171  21.561  14.515  1.00  0.00     0.017 C 
HETATM   35  C21 UNL     1      13.137  22.558  13.997  1.00  0.00     0.015 C 
HETATM   36  C22 UNL     1      14.252  20.420  13.556  1.00  0.00     0.015 C 
ENDBRANCH  33  34
ENDBRANCH  32  33
BRANCH  32  37
HETATM   37  S1  UNL     1      15.051  20.782  18.255  1.00  0.00     0.267 S 
HETATM   38  O7  UNL     1      16.435  20.216  18.517  1.00  0.00    -0.200 OA
HETATM   39  O8  UNL     1      14.645  21.641  19.464  1.00  0.00    -0.200 OA
BRANCH  37  40
HETATM   40  C23 UNL     1      13.970  19.419  18.307  1.00  0.00     0.080 A 
HETATM   41  C24 UNL     1      12.628  19.647  18.577  1.00  0.00     0.028 A 
HETATM   42  C25 UNL     1      11.732  18.625  18.614  1.00  0.00     0.038 A 
HETATM   43  C26 UNL     1      12.150  17.334  18.380  1.00  0.00     0.068 A 
HETATM   44  C28 UNL     1      13.495  17.115  18.109  1.00  0.00     0.038 A 
HETATM   45  C29 UNL     1      14.427  18.126  18.065  1.00  0.00     0.028 A 
BRANCH  43  46
HETATM   46  O9  UNL     1      11.226  16.310  18.422  1.00  0.00    -0.356 OA
HETATM   47  C27 UNL     1      10.859  15.646  17.233  1.00  0.00     0.210 C 
ENDBRANCH  43  46
ENDBRANCH  37  40
ENDBRANCH  32  37
ENDBRANCH  31  32
ENDBRANCH  28  31
ENDBRANCH   1  28
TORSDOF 16
ENDMDL
