MODEL 2
REMARK VINA RESULT: -7.250127883      1.564      8.541
REMARK  17 active torsions:
REMARK  status: ('A' for Active; 'I' for Inactive)
REMARK    1  A    between atoms: N1_1  and  C1_5 
REMARK    2  A    between atoms: C1_5  and  C2_6 
REMARK    3  A    between atoms: C3_8  and  O2_9 
REMARK    4  A    between atoms: O2_9  and  C4_10 
REMARK    5  A    between atoms: C5_11  and  N2_12 
REMARK    6  A    between atoms: C7_17  and  N3_18 
REMARK    7  A    between atoms: C8_22  and  O3_23 
REMARK    8  A    between atoms: O3_23  and  C9_24 
REMARK    9  A    between atoms: C10_26  and  C11_27 
REMARK   10  A    between atoms: C11_27  and  O5_28 
REMARK   11  A    between atoms: C12_30  and  O6_31 
REMARK   12  A    between atoms: C13_33  and  N4_34 
REMARK   13  A    between atoms: C14_38  and  O7_39 
REMARK   14  A    between atoms: C15_41  and  O8_42 
REMARK   15  A    between atoms: C16_44  and  O9_45 
REMARK   16  A    between atoms: C17_47  and  O10_48 
REMARK   17  A    between atoms: C18_50  and  O11_51 
ROOT
HETATM    1  C4  UNL     1      -6.729  14.896 -34.919  1.00  0.00     0.186 C 
HETATM    2  C5  UNL     1      -8.125  14.277 -34.841  1.00  0.00     0.217 C 
HETATM    3  C6  UNL     1      -7.968  12.830 -34.544  1.00  0.00     0.071 C 
HETATM    4  C7  UNL     1      -6.723  12.187 -35.028  1.00  0.00     0.217 C 
HETATM    5  C8  UNL     1      -6.092  12.851 -36.225  1.00  0.00     0.186 C 
HETATM    6  C15 UNL     1      -5.961  14.340 -36.066  1.00  0.00     0.180 C 
ENDROOT
BRANCH   1   7
HETATM    7  O2  UNL     1      -6.171  14.706 -33.677  1.00  0.00    -0.349 OA
BRANCH   7   8
HETATM    8  C3  UNL     1      -5.748  15.856 -33.038  1.00  0.00     0.292 C 
HETATM    9  O1  UNL     1      -6.758  16.758 -32.802  1.00  0.00    -0.349 OA
HETATM   10  C2  UNL     1      -7.376  16.703 -31.603  1.00  0.00     0.181 C 
HETATM   11  C18 UNL     1      -6.363  16.821 -30.455  1.00  0.00     0.180 C 
HETATM   12  C17 UNL     1      -5.558  15.541 -30.540  1.00  0.00     0.183 C 
HETATM   13  C16 UNL     1      -4.888  15.521 -31.889  1.00  0.00     0.204 C 
BRANCH  10  14
HETATM   14  C1  UNL     1      -8.303  17.907 -31.481  1.00  0.00     0.264 C 
BRANCH  14  15
HETATM   15  N1  UNL     1      -9.592  17.491 -30.918  1.00  0.00    -0.077 N 
ATOM     16  H13 UNL     1     -10.370  18.023 -31.309  1.00  0.00     0.274 HD
ATOM     17  H12 UNL     1      -9.869  16.564 -31.240  1.00  0.00     0.274 HD
ATOM     18  H11 UNL     1      -9.563  17.550 -29.900  1.00  0.00     0.274 HD
ENDBRANCH  14  15
ENDBRANCH  10  14
BRANCH  11  19
HETATM   19  O11 UNL     1      -7.042  16.932 -29.245  1.00  0.00    -0.390 OA
ATOM     20  H11 UNL     1      -6.454  17.271 -28.581  1.00  0.00     0.210 HD
ENDBRANCH  11  19
BRANCH  12  21
HETATM   21  O10 UNL     1      -4.580  15.458 -29.560  1.00  0.00    -0.390 OA
ATOM     22  H10 UNL     1      -4.534  14.560 -29.254  1.00  0.00     0.210 HD
ENDBRANCH  12  21
BRANCH  13  23
HETATM   23  O9  UNL     1      -4.296  14.266 -32.008  1.00  0.00    -0.388 OA
ATOM     24  H9  UNL     1      -3.822  14.009 -31.226  1.00  0.00     0.210 HD
ENDBRANCH  13  23
ENDBRANCH   7   8
ENDBRANCH   1   7
BRANCH   2  25
HETATM   25  N2  UNL     1      -8.876  14.558 -36.043  1.00  0.00    -0.072 N 
ATOM     26  H23 UNL     1      -9.712  13.977 -36.111  1.00  0.00     0.274 HD
ATOM     27  H22 UNL     1      -9.327  15.471 -36.001  1.00  0.00     0.274 HD
ATOM     28  H21 UNL     1      -8.283  14.466 -36.868  1.00  0.00     0.274 HD
ENDBRANCH   2  25
BRANCH   6  29
HETATM   29  O8  UNL     1      -6.416  15.009 -37.225  1.00  0.00    -0.390 OA
ATOM     30  H8  UNL     1      -7.358  15.096 -37.140  1.00  0.00     0.210 HD
ENDBRANCH   6  29
BRANCH   5  31
HETATM   31  O3  UNL     1      -4.879  12.256 -36.557  1.00  0.00    -0.349 OA
BRANCH  31  32
HETATM   32  C9  UNL     1      -4.792  11.946 -37.906  1.00  0.00     0.291 C 
HETATM   33  O4  UNL     1      -6.047  12.131 -38.476  1.00  0.00    -0.349 OA
HETATM   34  C10 UNL     1      -6.197  11.590 -39.723  1.00  0.00     0.179 C 
HETATM   35  C12 UNL     1      -4.861  11.393 -40.393  1.00  0.00     0.182 C 
HETATM   36  C13 UNL     1      -3.976  12.613 -40.108  1.00  0.00     0.247 C 
HETATM   37  C14 UNL     1      -3.707  12.691 -38.628  1.00  0.00     0.206 C 
BRANCH  34  38
HETATM   38  C11 UNL     1      -6.878  10.245 -39.580  1.00  0.00     0.198 C 
BRANCH  38  39
HETATM   39  O5  UNL     1      -6.106   9.194 -40.044  1.00  0.00    -0.398 OA
ATOM     40  H5  UNL     1      -6.082   9.139 -40.992  1.00  0.00     0.209 HD
ENDBRANCH  38  39
ENDBRANCH  34  38
BRANCH  35  41
HETATM   41  O6  UNL     1      -4.978  11.286 -41.759  1.00  0.00    -0.391 OA
ATOM     42  H6  UNL     1      -4.562  10.499 -42.093  1.00  0.00     0.210 HD
ENDBRANCH  35  41
BRANCH  36  43
HETATM   43  N4  UNL     1      -2.712  12.403 -40.791  1.00  0.00    -0.070 N 
ATOM     44  H43 UNL     1      -2.527  11.421 -40.993  1.00  0.00     0.274 HD
ATOM     45  H42 UNL     1      -2.720  12.738 -41.754  1.00  0.00     0.274 HD
ATOM     46  H41 UNL     1      -1.982  12.837 -40.225  1.00  0.00     0.274 HD
ENDBRANCH  36  43
BRANCH  37  47
HETATM   47  O7  UNL     1      -3.586  14.005 -38.183  1.00  0.00    -0.388 OA
ATOM     48  H7  UNL     1      -4.166  14.596 -38.647  1.00  0.00     0.210 HD
ENDBRANCH  37  47
ENDBRANCH  31  32
ENDBRANCH   5  31
BRANCH   4  49
HETATM   49  N3  UNL     1      -6.871  10.765 -35.266  1.00  0.00    -0.072 N 
ATOM     50  H33 UNL     1      -7.517  10.350 -34.594  1.00  0.00     0.274 HD
ATOM     51  H32 UNL     1      -7.392  10.593 -36.126  1.00  0.00     0.274 HD
ATOM     52  H31 UNL     1      -5.983  10.265 -35.272  1.00  0.00     0.274 HD
ENDBRANCH   4  49
TORSDOF 17
ENDMDL
