MODEL 1
REMARK VINA RESULT: -7.329502286      0.000      0.000
REMARK  17 active torsions:
REMARK  status: ('A' for Active; 'I' for Inactive)
REMARK    1  A    between atoms: N1_1  and  C1_5 
REMARK    2  A    between atoms: C1_5  and  C2_6 
REMARK    3  A    between atoms: C3_8  and  O2_9 
REMARK    4  A    between atoms: O2_9  and  C4_10 
REMARK    5  A    between atoms: C5_11  and  N2_12 
REMARK    6  A    between atoms: C7_17  and  N3_18 
REMARK    7  A    between atoms: C8_22  and  O3_23 
REMARK    8  A    between atoms: O3_23  and  C9_24 
REMARK    9  A    between atoms: C10_26  and  C11_27 
REMARK   10  A    between atoms: C11_27  and  O5_28 
REMARK   11  A    between atoms: C12_30  and  O6_31 
REMARK   12  A    between atoms: C13_33  and  N4_34 
REMARK   13  A    between atoms: C14_38  and  O7_39 
REMARK   14  A    between atoms: C15_41  and  O8_42 
REMARK   15  A    between atoms: C16_44  and  O9_45 
REMARK   16  A    between atoms: C17_47  and  O10_48 
REMARK   17  A    between atoms: C18_50  and  O11_51 
ROOT
HETATM    1  C4  UNL     1      -5.592  11.927 -36.335  1.00  0.00     0.186 C 
HETATM    2  C5  UNL     1      -7.004  11.344 -36.280  1.00  0.00     0.217 C 
HETATM    3  C6  UNL     1      -7.965  12.445 -36.545  1.00  0.00     0.071 C 
HETATM    4  C7  UNL     1      -7.537  13.807 -36.146  1.00  0.00     0.217 C 
HETATM    5  C8  UNL     1      -6.530  13.851 -35.026  1.00  0.00     0.186 C 
HETATM    6  C15 UNL     1      -5.376  12.910 -35.239  1.00  0.00     0.180 C 
ENDROOT
BRANCH   1   7
HETATM    7  O2  UNL     1      -5.444  12.413 -37.612  1.00  0.00    -0.349 OA
BRANCH   7   8
HETATM    8  C3  UNL     1      -4.150  12.405 -38.100  1.00  0.00     0.292 C 
HETATM    9  O1  UNL     1      -3.838  11.270 -38.810  1.00  0.00    -0.349 OA
HETATM   10  C2  UNL     1      -4.001  11.308 -40.149  1.00  0.00     0.181 C 
HETATM   11  C18 UNL     1      -3.223  12.479 -40.767  1.00  0.00     0.180 C 
HETATM   12  C17 UNL     1      -3.937  13.710 -40.251  1.00  0.00     0.183 C 
HETATM   13  C16 UNL     1      -3.835  13.690 -38.748  1.00  0.00     0.204 C 
BRANCH  10  14
HETATM   14  C1  UNL     1      -3.406  10.037 -40.746  1.00  0.00     0.264 C 
BRANCH  14  15
HETATM   15  N1  UNL     1      -1.945  10.061 -40.619  1.00  0.00    -0.077 N 
ATOM     16  H13 UNL     1      -1.497  10.473 -41.438  1.00  0.00     0.274 HD
ATOM     17  H12 UNL     1      -1.632  10.737 -39.922  1.00  0.00     0.274 HD
ATOM     18  H11 UNL     1      -1.597   9.122 -40.424  1.00  0.00     0.274 HD
ENDBRANCH  14  15
ENDBRANCH  10  14
BRANCH  11  19
HETATM   19  O11 UNL     1      -3.272  12.389 -42.156  1.00  0.00    -0.390 OA
ATOM     20  H11 UNL     1      -2.960  13.201 -42.538  1.00  0.00     0.210 HD
ENDBRANCH  11  19
BRANCH  12  21
HETATM   21  O10 UNL     1      -3.375  14.890 -40.716  1.00  0.00    -0.390 OA
ATOM     22  H10 UNL     1      -4.059  15.544 -40.787  1.00  0.00     0.210 HD
ENDBRANCH  12  21
BRANCH  13  23
HETATM   23  O9  UNL     1      -4.638  14.733 -38.292  1.00  0.00    -0.388 OA
ATOM     24  H9  UNL     1      -4.145  15.400 -37.829  1.00  0.00     0.210 HD
ENDBRANCH  13  23
ENDBRANCH   7   8
ENDBRANCH   1   7
BRANCH   2  25
HETATM   25  N2  UNL     1      -7.223  10.654 -35.029  1.00  0.00    -0.072 N 
ATOM     26  H23 UNL     1      -6.808   9.722 -35.034  1.00  0.00     0.274 HD
ATOM     27  H22 UNL     1      -6.675  11.062 -34.272  1.00  0.00     0.274 HD
ATOM     28  H21 UNL     1      -8.217  10.624 -34.803  1.00  0.00     0.274 HD
ENDBRANCH   2  25
BRANCH   6  29
HETATM   29  O8  UNL     1      -5.115  12.165 -34.067  1.00  0.00    -0.390 OA
ATOM     30  H8  UNL     1      -4.704  12.758 -33.450  1.00  0.00     0.210 HD
ENDBRANCH   6  29
BRANCH   5  31
HETATM   31  O3  UNL     1      -6.100  15.150 -34.777  1.00  0.00    -0.349 OA
BRANCH  31  32
HETATM   32  C9  UNL     1      -6.279  15.523 -33.453  1.00  0.00     0.291 C 
HETATM   33  O4  UNL     1      -5.028  15.613 -32.854  1.00  0.00    -0.349 OA
HETATM   34  C10 UNL     1      -5.047  15.681 -31.488  1.00  0.00     0.179 C 
HETATM   35  C12 UNL     1      -6.384  16.166 -30.989  1.00  0.00     0.182 C 
HETATM   36  C13 UNL     1      -6.871  17.304 -31.894  1.00  0.00     0.247 C 
HETATM   37  C14 UNL     1      -7.100  16.768 -33.282  1.00  0.00     0.206 C 
BRANCH  34  38
HETATM   38  C11 UNL     1      -4.791  14.294 -30.938  1.00  0.00     0.198 C 
BRANCH  38  39
HETATM   39  O5  UNL     1      -5.732  13.898 -30.003  1.00  0.00    -0.398 OA
ATOM     40  H5  UNL     1      -5.350  13.456 -29.254  1.00  0.00     0.209 HD
ENDBRANCH  38  39
ENDBRANCH  34  38
BRANCH  35  41
HETATM   41  O6  UNL     1      -6.310  16.667 -29.710  1.00  0.00    -0.391 OA
ATOM     42  H6  UNL     1      -6.653  17.551 -29.652  1.00  0.00     0.210 HD
ENDBRANCH  35  41
BRANCH  36  43
HETATM   43  N4  UNL     1      -8.144  17.766 -31.368  1.00  0.00    -0.070 N 
ATOM     44  H43 UNL     1      -8.482  17.200 -30.589  1.00  0.00     0.274 HD
ATOM     45  H42 UNL     1      -8.069  18.651 -30.866  1.00  0.00     0.274 HD
ATOM     46  H41 UNL     1      -8.802  17.805 -32.146  1.00  0.00     0.274 HD
ENDBRANCH  36  43
BRANCH  37  47
HETATM   47  O7  UNL     1      -6.829  17.715 -34.265  1.00  0.00    -0.388 OA
ATOM     48  H7  UNL     1      -6.925  17.361 -35.141  1.00  0.00     0.210 HD
ENDBRANCH  37  47
ENDBRANCH  31  32
ENDBRANCH   5  31
BRANCH   4  49
HETATM   49  N3  UNL     1      -8.647  14.691 -35.854  1.00  0.00    -0.072 N 
ATOM     50  H33 UNL     1      -9.457  14.458 -36.429  1.00  0.00     0.274 HD
ATOM     51  H32 UNL     1      -9.035  14.495 -34.931  1.00  0.00     0.274 HD
ATOM     52  H31 UNL     1      -8.409  15.678 -35.947  1.00  0.00     0.274 HD
ENDBRANCH   4  49
TORSDOF 17
ENDMDL
