MODEL 3
REMARK VINA RESULT: -7.211226928      1.513      8.598
REMARK  17 active torsions:
REMARK  status: ('A' for Active; 'I' for Inactive)
REMARK    1  A    between atoms: N1_1  and  C1_5 
REMARK    2  A    between atoms: C1_5  and  C2_6 
REMARK    3  A    between atoms: C3_8  and  O2_9 
REMARK    4  A    between atoms: O2_9  and  C4_10 
REMARK    5  A    between atoms: C5_11  and  N2_12 
REMARK    6  A    between atoms: C7_17  and  N3_18 
REMARK    7  A    between atoms: C8_22  and  O3_23 
REMARK    8  A    between atoms: O3_23  and  C9_24 
REMARK    9  A    between atoms: C10_26  and  C11_27 
REMARK   10  A    between atoms: C11_27  and  O5_28 
REMARK   11  A    between atoms: C12_30  and  O6_31 
REMARK   12  A    between atoms: C13_33  and  N4_34 
REMARK   13  A    between atoms: C14_38  and  O7_39 
REMARK   14  A    between atoms: C15_41  and  O8_42 
REMARK   15  A    between atoms: C16_44  and  O9_45 
REMARK   16  A    between atoms: C17_47  and  O10_48 
REMARK   17  A    between atoms: C18_50  and  O11_51 
ROOT
HETATM    1  C4  UNL     1      -6.629  14.936 -34.925  1.00  0.00     0.186 C 
HETATM    2  C5  UNL     1      -8.065  14.427 -34.802  1.00  0.00     0.217 C 
HETATM    3  C6  UNL     1      -8.011  12.975 -34.492  1.00  0.00     0.071 C 
HETATM    4  C7  UNL     1      -6.834  12.233 -35.002  1.00  0.00     0.217 C 
HETATM    5  C8  UNL     1      -6.186  12.835 -36.223  1.00  0.00     0.186 C 
HETATM    6  C15 UNL     1      -5.937  14.311 -36.085  1.00  0.00     0.180 C 
ENDROOT
BRANCH   1   7
HETATM    7  O2  UNL     1      -6.053  14.715 -33.696  1.00  0.00    -0.349 OA
BRANCH   7   8
HETATM    8  C3  UNL     1      -5.648  15.852 -33.022  1.00  0.00     0.292 C 
HETATM    9  O1  UNL     1      -6.665  16.748 -32.794  1.00  0.00    -0.349 OA
HETATM   10  C2  UNL     1      -7.315  16.667 -31.613  1.00  0.00     0.181 C 
HETATM   11  C18 UNL     1      -6.332  16.761 -30.436  1.00  0.00     0.180 C 
HETATM   12  C17 UNL     1      -5.524  15.484 -30.527  1.00  0.00     0.183 C 
HETATM   13  C16 UNL     1      -4.819  15.493 -31.858  1.00  0.00     0.204 C 
BRANCH  10  14
HETATM   14  C1  UNL     1      -8.246  17.867 -31.490  1.00  0.00     0.264 C 
BRANCH  14  15
HETATM   15  N1  UNL     1      -9.538  17.444 -30.939  1.00  0.00    -0.077 N 
ATOM     16  H13 UNL     1      -9.632  16.428 -30.922  1.00  0.00     0.274 HD
ATOM     17  H12 UNL     1      -9.601  17.617 -29.936  1.00  0.00     0.274 HD
ATOM     18  H11 UNL     1     -10.298  17.890 -31.452  1.00  0.00     0.274 HD
ENDBRANCH  14  15
ENDBRANCH  10  14
BRANCH  11  19
HETATM   19  O11 UNL     1      -7.044  16.846 -29.242  1.00  0.00    -0.390 OA
ATOM     20  H11 UNL     1      -6.875  17.686 -28.832  1.00  0.00     0.210 HD
ENDBRANCH  11  19
BRANCH  12  21
HETATM   21  O10 UNL     1      -4.572  15.381 -29.523  1.00  0.00    -0.390 OA
ATOM     22  H10 UNL     1      -5.018  15.224 -28.699  1.00  0.00     0.210 HD
ENDBRANCH  12  21
BRANCH  13  23
HETATM   23  O9  UNL     1      -4.222  14.242 -31.988  1.00  0.00    -0.388 OA
ATOM     24  H9  UNL     1      -4.856  13.542 -32.094  1.00  0.00     0.210 HD
ENDBRANCH  13  23
ENDBRANCH   7   8
ENDBRANCH   1   7
BRANCH   2  25
HETATM   25  N2  UNL     1      -8.825  14.753 -35.987  1.00  0.00    -0.072 N 
ATOM     26  H23 UNL     1      -8.537  15.646 -36.386  1.00  0.00     0.274 HD
ATOM     27  H22 UNL     1      -8.581  14.149 -36.771  1.00  0.00     0.274 HD
ATOM     28  H21 UNL     1      -9.826  14.732 -35.790  1.00  0.00     0.274 HD
ENDBRANCH   2  25
BRANCH   6  29
HETATM   29  O8  UNL     1      -6.372  15.001 -37.240  1.00  0.00    -0.390 OA
ATOM     30  H8  UNL     1      -6.540  15.898 -36.977  1.00  0.00     0.210 HD
ENDBRANCH   6  29
BRANCH   5  31
HETATM   31  O3  UNL     1      -5.032  12.145 -36.580  1.00  0.00    -0.349 OA
BRANCH  31  32
HETATM   32  C9  UNL     1      -4.984  11.861 -37.937  1.00  0.00     0.291 C 
HETATM   33  O4  UNL     1      -3.744  12.261 -38.421  1.00  0.00    -0.349 OA
HETATM   34  C10 UNL     1      -3.651  12.320 -39.784  1.00  0.00     0.179 C 
HETATM   35  C12 UNL     1      -4.699  11.456 -40.437  1.00  0.00     0.182 C 
HETATM   36  C13 UNL     1      -4.815  10.140 -39.659  1.00  0.00     0.247 C 
HETATM   37  C14 UNL     1      -5.306  10.432 -38.265  1.00  0.00     0.206 C 
BRANCH  34  38
HETATM   38  C11 UNL     1      -3.860  13.756 -40.214  1.00  0.00     0.198 C 
BRANCH  38  39
HETATM   39  O5  UNL     1      -3.902  14.641 -39.151  1.00  0.00    -0.398 OA
ATOM     40  H5  UNL     1      -3.120  14.616 -38.613  1.00  0.00     0.209 HD
ENDBRANCH  38  39
ENDBRANCH  34  38
BRANCH  35  41
HETATM   41  O6  UNL     1      -4.372  11.135 -41.733  1.00  0.00    -0.391 OA
ATOM     42  H6  UNL     1      -5.094  11.287 -42.333  1.00  0.00     0.210 HD
ENDBRANCH  35  41
BRANCH  36  43
HETATM   43  N4  UNL     1      -5.809   9.322 -40.331  1.00  0.00    -0.070 N 
ATOM     44  H43 UNL     1      -5.402   8.672 -41.003  1.00  0.00     0.274 HD
ATOM     45  H42 UNL     1      -6.235   8.629 -39.716  1.00  0.00     0.274 HD
ATOM     46  H41 UNL     1      -6.492   9.953 -40.751  1.00  0.00     0.274 HD
ENDBRANCH  36  43
BRANCH  37  47
HETATM   47  O7  UNL     1      -4.785   9.546 -37.326  1.00  0.00    -0.388 OA
ATOM     48  H7  UNL     1      -5.132   8.668 -37.429  1.00  0.00     0.210 HD
ENDBRANCH  37  47
ENDBRANCH  31  32
ENDBRANCH   5  31
BRANCH   4  49
HETATM   49  N3  UNL     1      -7.098  10.825 -35.218  1.00  0.00    -0.072 N 
ATOM     50  H33 UNL     1      -8.094  10.660 -35.358  1.00  0.00     0.274 HD
ATOM     51  H32 UNL     1      -6.749  10.526 -36.129  1.00  0.00     0.274 HD
ATOM     52  H31 UNL     1      -6.732  10.230 -34.475  1.00  0.00     0.274 HD
ENDBRANCH   4  49
TORSDOF 17
ENDMDL
