MODEL 5
REMARK VINA RESULT: -5.439204462      1.140      1.387
REMARK  2 active torsions:
REMARK  status: ('A' for Active; 'I' for Inactive)
REMARK    1  A    between atoms: C5_5  and  C6_6 
REMARK    2  A    between atoms: C7_9  and  C8_10 
ROOT
HETATM    1  C6  UNL     1     -69.398  28.135 -50.931  1.00  0.00     0.085 A 
HETATM    2  N1  UNL     1     -69.658  29.001 -49.980  1.00  0.00    -0.344 N 
ATOM      3  H1  UNL     1     -68.893  29.491 -49.518  1.00  0.00     0.167 HD
HETATM    4  C7  UNL     1     -70.889  29.238 -49.621  1.00  0.00     0.117 A 
HETATM    5  C9  UNL     1     -71.872  28.540 -50.290  1.00  0.00     0.088 A 
HETATM    6  S1  UNL     1     -70.952  27.597 -51.378  1.00  0.00    -0.081 SA
ENDROOT
BRANCH   1   7
HETATM    7  C5  UNL     1     -68.112  27.705 -51.500  1.00  0.00    -0.002 A 
HETATM    8  C4  UNL     1     -67.986  26.426 -52.022  1.00  0.00     0.015 A 
HETATM    9  C3  UNL     1     -66.807  25.972 -52.565  1.00  0.00     0.007 A 
HETATM   10  C2  UNL     1     -65.732  26.830 -52.583  1.00  0.00    -0.062 A 
HETATM   11  C1  UNL     1     -64.444  26.357 -53.169  1.00  0.00     0.048 C 
HETATM   12  C11 UNL     1     -65.833  28.114 -52.068  1.00  0.00     0.007 A 
HETATM   13  C10 UNL     1     -67.040  28.546 -51.523  1.00  0.00     0.015 A 
ENDBRANCH   1   7
BRANCH   4  14
HETATM   14  C8  UNL     1     -71.245  30.211 -48.548  1.00  0.00     0.227 C 
HETATM   15  O1  UNL     1     -72.368  30.155 -48.028  1.00  0.00    -0.643 OA
HETATM   16  O2  UNL     1     -70.344  31.168 -48.127  1.00  0.00    -0.643 OA
ENDBRANCH   4  14
TORSDOF 2
ENDMDL
