MODEL 2
REMARK VINA RESULT: -5.455927218      1.121      1.848
REMARK  2 active torsions:
REMARK  status: ('A' for Active; 'I' for Inactive)
REMARK    1  A    between atoms: C5_5  and  C6_6 
REMARK    2  A    between atoms: C7_9  and  C8_10 
ROOT
HETATM    1  C6  UNL     1     -69.368  28.163 -50.986  1.00  0.00     0.085 A 
HETATM    2  N1  UNL     1     -69.571  29.082 -50.071  1.00  0.00    -0.344 N 
ATOM      3  H1  UNL     1     -68.780  29.599 -49.688  1.00  0.00     0.167 HD
HETATM    4  C7  UNL     1     -70.778  29.338 -49.647  1.00  0.00     0.117 A 
HETATM    5  C9  UNL     1     -71.798  28.601 -50.211  1.00  0.00     0.088 A 
HETATM    6  S1  UNL     1     -70.945  27.599 -51.301  1.00  0.00    -0.081 SA
ENDROOT
BRANCH   1   7
HETATM    7  C5  UNL     1     -68.119  27.703 -51.612  1.00  0.00    -0.002 A 
HETATM    8  C4  UNL     1     -66.969  28.469 -51.490  1.00  0.00     0.015 A 
HETATM    9  C3  UNL     1     -65.774  28.086 -52.054  1.00  0.00     0.007 A 
HETATM   10  C2  UNL     1     -65.742  26.904 -52.756  1.00  0.00    -0.062 A 
HETATM   11  C1  UNL     1     -64.455  26.471 -53.376  1.00  0.00     0.048 C 
HETATM   12  C11 UNL     1     -66.878  26.120 -52.892  1.00  0.00     0.007 A 
HETATM   13  C10 UNL     1     -68.074  26.534 -52.309  1.00  0.00     0.015 A 
ENDBRANCH   1   7
BRANCH   4  14
HETATM   14  C8  UNL     1     -71.069  30.369 -48.610  1.00  0.00     0.227 C 
HETATM   15  O1  UNL     1     -71.779  30.070 -47.641  1.00  0.00    -0.643 OA
HETATM   16  O2  UNL     1     -70.559  31.648 -48.716  1.00  0.00    -0.643 OA
ENDBRANCH   4  14
TORSDOF 2
ENDMDL
