MODEL 1
REMARK VINA RESULT: -5.612387137      0.000      0.000
REMARK  2 active torsions:
REMARK  status: ('A' for Active; 'I' for Inactive)
REMARK    1  A    between atoms: C5_5  and  C6_6 
REMARK    2  A    between atoms: C7_9  and  C8_10 
ROOT
HETATM    1  C6  UNL     1     -68.987  29.064 -51.132  1.00  0.00     0.085 A 
HETATM    2  N1  UNL     1     -69.416  29.431 -49.947  1.00  0.00    -0.344 N 
ATOM      3  H1  UNL     1     -68.973  29.056 -49.109  1.00  0.00     0.167 HD
HETATM    4  C7  UNL     1     -70.406  30.272 -49.834  1.00  0.00     0.117 A 
HETATM    5  C9  UNL     1     -70.955  30.739 -51.009  1.00  0.00     0.088 A 
HETATM    6  S1  UNL     1     -70.010  29.932 -52.182  1.00  0.00    -0.081 SA
ENDROOT
BRANCH   1   7
HETATM    7  C5  UNL     1     -67.904  28.142 -51.508  1.00  0.00    -0.002 A 
HETATM    8  C4  UNL     1     -68.210  26.839 -51.874  1.00  0.00     0.015 A 
HETATM    9  C3  UNL     1     -67.237  25.935 -52.234  1.00  0.00     0.007 A 
HETATM   10  C2  UNL     1     -65.928  26.358 -52.225  1.00  0.00    -0.062 A 
HETATM   11  C1  UNL     1     -64.858  25.393 -52.612  1.00  0.00     0.048 C 
HETATM   12  C11 UNL     1     -65.598  27.656 -51.863  1.00  0.00     0.007 A 
HETATM   13  C10 UNL     1     -66.604  28.549 -51.502  1.00  0.00     0.015 A 
ENDBRANCH   1   7
BRANCH   4  14
HETATM   14  C8  UNL     1     -70.935  30.726 -48.516  1.00  0.00     0.227 C 
HETATM   15  O1  UNL     1     -70.634  31.851 -48.097  1.00  0.00    -0.643 OA
HETATM   16  O2  UNL     1     -71.755  29.912 -47.759  1.00  0.00    -0.643 OA
ENDBRANCH   4  14
TORSDOF 2
ENDMDL
