MODEL 11
REMARK VINA RESULT: -7.239283345      4.747      6.484
REMARK  8 active torsions:
REMARK  status: ('A' for Active; 'I' for Inactive)
REMARK    1  A    between atoms: N4_10  and  C5_11 
REMARK    2  A    between atoms: C6_13  and  C7_14 
REMARK    3  A    between atoms: C7_14  and  O2_15 
REMARK    4  A    between atoms: O2_15  and  P1_16 
REMARK    5  A    between atoms: P1_16  and  O5_19 
REMARK    6  A    between atoms: O5_19  and  P2_20 
REMARK    7  A    between atoms: C8_24  and  O9_25 
REMARK    8  A    between atoms: C9_27  and  O10_28 
ROOT
HETATM    1  C5  UNL     1      28.863  -9.624  11.859  1.00  0.00     0.262 C 
HETATM    2  O1  UNL     1      28.474 -10.846  11.353  1.00  0.00    -0.353 OA
HETATM    3  C6  UNL     1      27.990 -10.586  10.098  1.00  0.00     0.180 C 
HETATM    4  C8  UNL     1      29.049  -9.675   9.513  1.00  0.00     0.182 C 
HETATM    5  C9  UNL     1      29.375  -8.796  10.701  1.00  0.00     0.198 C 
ENDROOT
BRANCH   1   6
HETATM    6  N4  UNL     1      29.950  -9.838  12.775  1.00  0.00    -0.297 N 
HETATM    7  C2  UNL     1      30.007  -9.288  14.015  1.00  0.00     0.146 A 
HETATM    8  N2  UNL     1      29.175  -8.471  14.698  1.00  0.00    -0.314 N 
HETATM    9  C3  UNL     1      31.180  -9.726  14.565  1.00  0.00     0.146 A 
HETATM   10  C1  UNL     1      29.463  -8.056  15.941  1.00  0.00     0.196 A 
ATOM     11  H2  UNL     1      28.308  -8.163  14.258  1.00  0.00     0.170 HD
HETATM   12  N1  UNL     1      28.609  -7.199  16.681  1.00  0.00    -0.063 NA
HETATM   13  N5  UNL     1      30.633  -8.493  16.488  1.00  0.00    -0.295 N 
HETATM   14  C10 UNL     1      31.476  -9.301  15.840  1.00  0.00     0.278 A 
ATOM     15  H5  UNL     1      30.874  -8.191  17.433  1.00  0.00     0.171 HD
HETATM   16  O11 UNL     1      32.558  -9.687  16.387  1.00  0.00    -0.265 OA
HETATM   17  N3  UNL     1      31.794 -10.510  13.677  1.00  0.00    -0.345 N 
HETATM   18  C4  UNL     1      31.046 -10.587  12.570  1.00  0.00     0.188 A 
ATOM     19  H3  UNL     1      32.691 -10.976  13.818  1.00  0.00     0.167 HD
ENDBRANCH   1   6
BRANCH   5  20
HETATM   20  O10 UNL     1      28.631  -7.611  10.547  1.00  0.00    -0.388 OA
ATOM     21  H10 UNL     1      27.768  -7.689  10.935  1.00  0.00     0.210 HD
ENDBRANCH   5  20
BRANCH   3  22
HETATM   22  C7  UNL     1      27.973 -11.837   9.214  1.00  0.00     0.216 C 
BRANCH  22  23
HETATM   23  O2  UNL     1      28.912 -11.613   8.225  1.00  0.00    -0.287 OA
BRANCH  23  24
HETATM   24  P1  UNL     1      28.774 -12.654   6.919  1.00  0.00     0.418 P 
HETATM   25  O3  UNL     1      28.134 -11.844   5.788  1.00  0.00    -0.624 OA
HETATM   26  O4  UNL     1      27.810 -14.000   7.263  1.00  0.00    -0.624 OA
BRANCH  24  27
HETATM   27  O5  UNL     1      30.305 -13.197   6.501  1.00  0.00    -0.173 OA
BRANCH  27  28
HETATM   28  P2  UNL     1      31.370 -13.270   7.775  1.00  0.00     0.431 P 
HETATM   29  O6  UNL     1      31.761 -11.833   8.132  1.00  0.00    -0.616 OA
HETATM   30  O7  UNL     1      32.817 -14.021   7.271  1.00  0.00    -0.616 OA
HETATM   31  O8  UNL     1      30.755 -13.974   9.155  1.00  0.00    -0.616 OA
ENDBRANCH  27  28
ENDBRANCH  24  27
ENDBRANCH  23  24
ENDBRANCH  22  23
ENDBRANCH   3  22
BRANCH   4  32
HETATM   32  O9  UNL     1      28.559  -8.937   8.443  1.00  0.00    -0.390 OA
ATOM     33  H9  UNL     1      28.616  -8.003   8.604  1.00  0.00     0.210 HD
ENDBRANCH   4  32
TORSDOF 8
ENDMDL
