MODEL 4
REMARK VINA RESULT: -7.960000118      1.007      1.361
REMARK  8 active torsions:
REMARK  status: ('A' for Active; 'I' for Inactive)
REMARK    1  A    between atoms: N4_10  and  C5_11 
REMARK    2  A    between atoms: C6_13  and  C7_14 
REMARK    3  A    between atoms: C7_14  and  O2_15 
REMARK    4  A    between atoms: O2_15  and  P1_16 
REMARK    5  A    between atoms: P1_16  and  O5_19 
REMARK    6  A    between atoms: O5_19  and  P2_20 
REMARK    7  A    between atoms: C8_24  and  O9_25 
REMARK    8  A    between atoms: C9_27  and  O10_28 
ROOT
HETATM    1  C5  UNL     1      26.875  -6.781  10.582  1.00  0.00     0.262 C 
HETATM    2  O1  UNL     1      27.430  -7.483   9.534  1.00  0.00    -0.353 OA
HETATM    3  C6  UNL     1      28.535  -8.106  10.053  1.00  0.00     0.180 C 
HETATM    4  C8  UNL     1      28.008  -8.698  11.344  1.00  0.00     0.182 C 
HETATM    5  C9  UNL     1      27.117  -7.581  11.842  1.00  0.00     0.198 C 
ENDROOT
BRANCH   1   6
HETATM    6  N4  UNL     1      25.456  -6.695  10.368  1.00  0.00    -0.297 N 
HETATM    7  C2  UNL     1      24.753  -5.535  10.447  1.00  0.00     0.146 A 
HETATM    8  N2  UNL     1      25.110  -4.260  10.717  1.00  0.00    -0.314 N 
HETATM    9  C3  UNL     1      23.453  -5.867  10.183  1.00  0.00     0.146 A 
HETATM   10  C1  UNL     1      24.207  -3.268  10.736  1.00  0.00     0.196 A 
ATOM     11  H2  UNL     1      26.088  -4.048  10.909  1.00  0.00     0.170 HD
HETATM   12  N1  UNL     1      24.553  -1.921  11.016  1.00  0.00    -0.063 NA
HETATM   13  N5  UNL     1      22.911  -3.600  10.472  1.00  0.00    -0.295 N 
HETATM   14  C10 UNL     1      22.527  -4.850  10.202  1.00  0.00     0.278 A 
ATOM     15  H5  UNL     1      22.206  -2.862  10.481  1.00  0.00     0.171 HD
HETATM   16  O11 UNL     1      21.306  -5.118   9.961  1.00  0.00    -0.265 OA
HETATM   17  N3  UNL     1      23.392  -7.181   9.955  1.00  0.00    -0.345 N 
HETATM   18  C4  UNL     1      24.620  -7.701  10.066  1.00  0.00     0.188 A 
ATOM     19  H3  UNL     1      22.546  -7.705   9.731  1.00  0.00     0.167 HD
ENDBRANCH   1   6
BRANCH   5  20
HETATM   20  O10 UNL     1      27.868  -6.849  12.781  1.00  0.00    -0.388 OA
ATOM     21  H10 UNL     1      27.650  -7.100  13.671  1.00  0.00     0.210 HD
ENDBRANCH   5  20
BRANCH   3  22
HETATM   22  C7  UNL     1      28.986  -9.293   9.198  1.00  0.00     0.216 C 
BRANCH  22  23
HETATM   23  O2  UNL     1      28.198 -10.361   9.585  1.00  0.00    -0.287 OA
BRANCH  23  24
HETATM   24  P1  UNL     1      28.804 -11.849   9.112  1.00  0.00     0.418 P 
HETATM   25  O3  UNL     1      27.741 -12.478   8.205  1.00  0.00    -0.624 OA
HETATM   26  O4  UNL     1      29.103 -12.874  10.423  1.00  0.00    -0.624 OA
BRANCH  24  27
HETATM   27  O5  UNL     1      30.248 -11.606   8.294  1.00  0.00    -0.173 OA
BRANCH  27  28
HETATM   28  P2  UNL     1      30.920 -12.997   7.678  1.00  0.00     0.431 P 
HETATM   29  O6  UNL     1      32.318 -12.643   7.161  1.00  0.00    -0.616 OA
HETATM   30  O7  UNL     1      30.043 -13.498   6.304  1.00  0.00    -0.616 OA
HETATM   31  O8  UNL     1      31.098 -14.231   8.784  1.00  0.00    -0.616 OA
ENDBRANCH  27  28
ENDBRANCH  24  27
ENDBRANCH  23  24
ENDBRANCH  22  23
ENDBRANCH   3  22
BRANCH   4  32
HETATM   32  O9  UNL     1      29.034  -8.979  12.238  1.00  0.00    -0.390 OA
ATOM     33  H9  UNL     1      28.913  -8.528  13.065  1.00  0.00     0.210 HD
ENDBRANCH   4  32
TORSDOF 8
ENDMDL
