MODEL 8
REMARK VINA RESULT: -7.407597986      4.797      7.132
REMARK  8 active torsions:
REMARK  status: ('A' for Active; 'I' for Inactive)
REMARK    1  A    between atoms: N4_10  and  C5_11 
REMARK    2  A    between atoms: C6_13  and  C7_14 
REMARK    3  A    between atoms: C7_14  and  O2_15 
REMARK    4  A    between atoms: O2_15  and  P1_16 
REMARK    5  A    between atoms: P1_16  and  O5_19 
REMARK    6  A    between atoms: O5_19  and  P2_20 
REMARK    7  A    between atoms: C8_24  and  O9_25 
REMARK    8  A    between atoms: C9_27  and  O10_28 
ROOT
HETATM    1  C5  UNL     1      29.494  -8.230  13.643  1.00  0.00     0.262 C 
HETATM    2  O1  UNL     1      28.854  -9.088  12.776  1.00  0.00    -0.353 OA
HETATM    3  C6  UNL     1      28.624  -8.357  11.640  1.00  0.00     0.180 C 
HETATM    4  C8  UNL     1      29.958  -7.680  11.402  1.00  0.00     0.182 C 
HETATM    5  C9  UNL     1      30.357  -7.306  12.813  1.00  0.00     0.198 C 
ENDROOT
BRANCH   1   6
HETATM    6  N4  UNL     1      30.355  -9.006  14.495  1.00  0.00    -0.297 N 
HETATM    7  C2  UNL     1      31.070 -10.077  14.065  1.00  0.00     0.146 A 
HETATM    8  N2  UNL     1      31.187 -10.682  12.862  1.00  0.00    -0.314 N 
HETATM    9  C3  UNL     1      31.752 -10.535  15.158  1.00  0.00     0.146 A 
HETATM   10  C1  UNL     1      31.976 -11.753  12.689  1.00  0.00     0.196 A 
ATOM     11  H2  UNL     1      30.664 -10.315  12.068  1.00  0.00     0.170 HD
HETATM   12  N1  UNL     1      32.120 -12.406  11.439  1.00  0.00    -0.063 NA
HETATM   13  N5  UNL     1      32.657 -12.208  13.780  1.00  0.00    -0.295 N 
HETATM   14  C10 UNL     1      32.563 -11.633  14.981  1.00  0.00     0.278 A 
ATOM     15  H5  UNL     1      33.264 -13.021  13.673  1.00  0.00     0.171 HD
HETATM   16  O11 UNL     1      33.215 -12.089  15.974  1.00  0.00    -0.265 OA
HETATM   17  N3  UNL     1      31.449  -9.756  16.199  1.00  0.00    -0.345 N 
HETATM   18  C4  UNL     1      30.590  -8.811  15.802  1.00  0.00     0.188 A 
ATOM     19  H3  UNL     1      31.815  -9.865  17.145  1.00  0.00     0.167 HD
ENDBRANCH   1   6
BRANCH   5  20
HETATM   20  O10 UNL     1      29.993  -5.959  12.995  1.00  0.00    -0.388 OA
ATOM     21  H10 UNL     1      30.498  -5.554  13.690  1.00  0.00     0.210 HD
ENDBRANCH   5  20
BRANCH   3  22
HETATM   22  C7  UNL     1      28.379  -9.248  10.418  1.00  0.00     0.216 C 
BRANCH  22  23
HETATM   23  O2  UNL     1      28.858 -10.499  10.759  1.00  0.00    -0.287 OA
BRANCH  23  24
HETATM   24  P1  UNL     1      28.341 -11.719   9.734  1.00  0.00     0.418 P 
HETATM   25  O3  UNL     1      26.859 -11.946  10.050  1.00  0.00    -0.624 OA
HETATM   26  O4  UNL     1      29.193 -13.161   9.962  1.00  0.00    -0.624 OA
BRANCH  24  27
HETATM   27  O5  UNL     1      28.564 -11.220   8.149  1.00  0.00    -0.173 OA
BRANCH  27  28
HETATM   28  P2  UNL     1      28.755 -12.467   7.066  1.00  0.00     0.431 P 
HETATM   29  O6  UNL     1      28.242 -11.981   5.708  1.00  0.00    -0.616 OA
HETATM   30  O7  UNL     1      27.733 -13.762   7.499  1.00  0.00    -0.616 OA
HETATM   31  O8  UNL     1      30.331 -12.966   6.852  1.00  0.00    -0.616 OA
ENDBRANCH  27  28
ENDBRANCH  24  27
ENDBRANCH  23  24
ENDBRANCH  22  23
ENDBRANCH   3  22
BRANCH   4  32
HETATM   32  O9  UNL     1      29.830  -6.563  10.588  1.00  0.00    -0.390 OA
ATOM     33  H9  UNL     1      29.689  -6.803   9.680  1.00  0.00     0.210 HD
ENDBRANCH   4  32
TORSDOF 8
ENDMDL
