MODEL 2
REMARK VINA RESULT: -8.071795230      0.819      1.580
REMARK  8 active torsions:
REMARK  status: ('A' for Active; 'I' for Inactive)
REMARK    1  A    between atoms: N4_10  and  C5_11 
REMARK    2  A    between atoms: C6_13  and  C7_14 
REMARK    3  A    between atoms: C7_14  and  O2_15 
REMARK    4  A    between atoms: O2_15  and  P1_16 
REMARK    5  A    between atoms: P1_16  and  O5_19 
REMARK    6  A    between atoms: O5_19  and  P2_20 
REMARK    7  A    between atoms: C8_24  and  O9_25 
REMARK    8  A    between atoms: C9_27  and  O10_28 
ROOT
HETATM    1  C5  UNL     1      27.033  -6.622  10.739  1.00  0.00     0.262 C 
HETATM    2  O1  UNL     1      27.640  -7.316   9.716  1.00  0.00    -0.353 OA
HETATM    3  C6  UNL     1      28.755  -7.888  10.271  1.00  0.00     0.180 C 
HETATM    4  C8  UNL     1      28.219  -8.482  11.557  1.00  0.00     0.182 C 
HETATM    5  C9  UNL     1      27.273  -7.395  12.017  1.00  0.00     0.198 C 
ENDROOT
BRANCH   1   6
HETATM    6  N4  UNL     1      25.617  -6.594  10.488  1.00  0.00    -0.297 N 
HETATM    7  C2  UNL     1      24.866  -5.464  10.545  1.00  0.00     0.146 A 
HETATM    8  N2  UNL     1      25.163  -4.175  10.818  1.00  0.00    -0.314 N 
HETATM    9  C3  UNL     1      23.587  -5.850  10.249  1.00  0.00     0.146 A 
HETATM   10  C1  UNL     1      24.220  -3.220  10.811  1.00  0.00     0.196 A 
ATOM     11  H2  UNL     1      26.127  -3.922  11.035  1.00  0.00     0.170 HD
HETATM   12  N1  UNL     1      24.504  -1.860  11.093  1.00  0.00    -0.063 NA
HETATM   13  N5  UNL     1      22.946  -3.606  10.515  1.00  0.00    -0.295 N 
HETATM   14  C10 UNL     1      22.620  -4.871  10.240  1.00  0.00     0.278 A 
ATOM     15  H5  UNL     1      22.212  -2.897  10.503  1.00  0.00     0.171 HD
HETATM   16  O11 UNL     1      21.418  -5.189   9.969  1.00  0.00    -0.265 OA
HETATM   17  N3  UNL     1      23.586  -7.165  10.025  1.00  0.00    -0.345 N 
HETATM   18  C4  UNL     1      24.831  -7.635  10.169  1.00  0.00     0.188 A 
ATOM     19  H3  UNL     1      22.768  -7.724   9.782  1.00  0.00     0.167 HD
ENDBRANCH   1   6
BRANCH   5  20
HETATM   20  O10 UNL     1      27.971  -6.621  12.963  1.00  0.00    -0.388 OA
ATOM     21  H10 UNL     1      28.787  -7.034  13.216  1.00  0.00     0.210 HD
ENDBRANCH   5  20
BRANCH   3  22
HETATM   22  C7  UNL     1      29.274  -9.068   9.445  1.00  0.00     0.216 C 
BRANCH  22  23
HETATM   23  O2  UNL     1      29.031 -10.198  10.204  1.00  0.00    -0.287 OA
BRANCH  23  24
HETATM   24  P1  UNL     1      28.397 -11.475   9.324  1.00  0.00     0.418 P 
HETATM   25  O3  UNL     1      28.346 -11.009   7.865  1.00  0.00    -0.624 OA
HETATM   26  O4  UNL     1      26.842 -11.903   9.833  1.00  0.00    -0.624 OA
BRANCH  24  27
HETATM   27  O5  UNL     1      29.398 -12.807   9.513  1.00  0.00    -0.173 OA
BRANCH  27  28
HETATM   28  P2  UNL     1      30.497 -13.009   8.282  1.00  0.00     0.431 P 
HETATM   29  O6  UNL     1      31.388 -14.198   8.650  1.00  0.00    -0.616 OA
HETATM   30  O7  UNL     1      31.541 -11.661   8.220  1.00  0.00    -0.616 OA
HETATM   31  O8  UNL     1      29.821 -13.338   6.794  1.00  0.00    -0.616 OA
ENDBRANCH  27  28
ENDBRANCH  24  27
ENDBRANCH  23  24
ENDBRANCH  22  23
ENDBRANCH   3  22
BRANCH   4  32
HETATM   32  O9  UNL     1      29.232  -8.710  12.480  1.00  0.00    -0.390 OA
ATOM     33  H9  UNL     1      28.950  -8.520  13.367  1.00  0.00     0.210 HD
ENDBRANCH   4  32
TORSDOF 8
ENDMDL
