MODEL 1
REMARK VINA RESULT: -9.248038231      0.000      0.000
REMARK  8 active torsions:
REMARK  status: ('A' for Active; 'I' for Inactive)
REMARK    1  A    between atoms: N4_10  and  C5_11 
REMARK    2  A    between atoms: C6_13  and  C7_14 
REMARK    3  A    between atoms: C7_14  and  O2_15 
REMARK    4  A    between atoms: O2_15  and  P1_16 
REMARK    5  A    between atoms: P1_16  and  O5_19 
REMARK    6  A    between atoms: O5_19  and  P2_20 
REMARK    7  A    between atoms: C8_24  and  O9_25 
REMARK    8  A    between atoms: C9_27  and  O10_28 
ROOT
HETATM    1  C5  UNL     1      27.044  -6.531  10.830  1.00  0.00     0.262 C 
HETATM    2  O1  UNL     1      27.653  -7.419   9.970  1.00  0.00    -0.353 OA
HETATM    3  C6  UNL     1      28.744  -7.897  10.648  1.00  0.00     0.180 C 
HETATM    4  C8  UNL     1      28.172  -8.226  12.011  1.00  0.00     0.182 C 
HETATM    5  C9  UNL     1      27.244  -7.053  12.236  1.00  0.00     0.198 C 
ENDROOT
BRANCH   1   6
HETATM    6  N4  UNL     1      25.634  -6.523  10.549  1.00  0.00    -0.297 N 
HETATM    7  C2  UNL     1      24.869  -5.402  10.573  1.00  0.00     0.146 A 
HETATM    8  N2  UNL     1      25.146  -4.106  10.836  1.00  0.00    -0.314 N 
HETATM    9  C3  UNL     1      23.602  -5.806  10.255  1.00  0.00     0.146 A 
HETATM   10  C1  UNL     1      24.193  -3.162  10.795  1.00  0.00     0.196 A 
ATOM     11  H2  UNL     1      26.102  -3.838  11.070  1.00  0.00     0.170 HD
HETATM   12  N1  UNL     1      24.455  -1.795  11.065  1.00  0.00    -0.063 NA
HETATM   13  N5  UNL     1      22.930  -3.566  10.477  1.00  0.00    -0.295 N 
HETATM   14  C10 UNL     1      22.624  -4.838  10.212  1.00  0.00     0.278 A 
ATOM     15  H5  UNL     1      22.188  -2.866  10.439  1.00  0.00     0.171 HD
HETATM   16  O11 UNL     1      21.432  -5.174   9.919  1.00  0.00    -0.265 OA
HETATM   17  N3  UNL     1      23.621  -7.124  10.048  1.00  0.00    -0.345 N 
HETATM   18  C4  UNL     1      24.867  -7.578  10.226  1.00  0.00     0.188 A 
ATOM     19  H3  UNL     1      22.814  -7.695   9.795  1.00  0.00     0.167 HD
ENDBRANCH   1   6
BRANCH   5  20
HETATM   20  O10 UNL     1      27.943  -6.128  13.034  1.00  0.00    -0.388 OA
ATOM     21  H10 UNL     1      27.680  -5.236  12.843  1.00  0.00     0.210 HD
ENDBRANCH   5  20
BRANCH   3  22
HETATM   22  C7  UNL     1      29.249  -9.222  10.071  1.00  0.00     0.216 C 
BRANCH  22  23
HETATM   23  O2  UNL     1      28.520 -10.213  10.702  1.00  0.00    -0.287 OA
BRANCH  23  24
HETATM   24  P1  UNL     1      28.208 -11.541   9.729  1.00  0.00     0.418 P 
HETATM   25  O3  UNL     1      26.739 -11.909   9.963  1.00  0.00    -0.624 OA
HETATM   26  O4  UNL     1      29.188 -12.866  10.106  1.00  0.00    -0.624 OA
BRANCH  24  27
HETATM   27  O5  UNL     1      28.490 -11.114   8.132  1.00  0.00    -0.173 OA
BRANCH  27  28
HETATM   28  P2  UNL     1      28.745 -12.409   7.120  1.00  0.00     0.431 P 
HETATM   29  O6  UNL     1      28.271 -12.001   5.722  1.00  0.00    -0.616 OA
HETATM   30  O7  UNL     1      27.734 -13.704   7.581  1.00  0.00    -0.616 OA
HETATM   31  O8  UNL     1      30.337 -12.883   6.986  1.00  0.00    -0.616 OA
ENDBRANCH  27  28
ENDBRANCH  24  27
ENDBRANCH  23  24
ENDBRANCH  22  23
ENDBRANCH   3  22
BRANCH   4  32
HETATM   32  O9  UNL     1      29.163  -8.295  12.982  1.00  0.00    -0.390 OA
ATOM     33  H9  UNL     1      29.775  -7.573  12.912  1.00  0.00     0.210 HD
ENDBRANCH   4  32
TORSDOF 8
ENDMDL
