MODEL 8
REMARK VINA RESULT: -8.336827540      4.050      9.931
REMARK  18 active torsions:
REMARK  status: ('A' for Active; 'I' for Inactive)
REMARK    1  A    between atoms: C2_2  and  C3_3 
REMARK    2  A    between atoms: C3_3  and  C5_5 
REMARK    3  A    between atoms: C5_5  and  N1_6 
REMARK    4  A    between atoms: N1_6  and  C6_7 
REMARK    5  A    between atoms: N1_6  and  S1_33 
REMARK    6  A    between atoms: C6_7  and  C7_8 
REMARK    7  A    between atoms: C7_8  and  O1_9 
REMARK    8  A    between atoms: C7_8  and  C8_11 
REMARK    9  A    between atoms: C8_11  and  C9_12 
REMARK   10  A    between atoms: C8_11  and  N2_19 
REMARK   11  A    between atoms: C9_12  and  C10_13 
REMARK       I    between atoms: N2_19  and  C16_21 
REMARK   12  A    between atoms: C16_21  and  O3_23 
REMARK   13  A    between atoms: O3_23  and  C17_24 
REMARK   14  A    between atoms: C17_24  and  C18_25 
REMARK   15  A    between atoms: C18_25  and  N3_26 
REMARK       I    between atoms: N3_26  and  C19_28 
REMARK   16  A    between atoms: C19_28  and  C20_30 
REMARK   17  A    between atoms: S1_33  and  C21_36 
REMARK   18  A    between atoms: C24_39  and  O7_40 
ROOT
HETATM    1  C8  UNL     1      20.091  31.754  14.564  1.00  0.00     0.120 C 
ENDROOT
BRANCH   1   2
HETATM    2  C7  UNL     1      20.565  30.383  14.223  1.00  0.00     0.155 C 
BRANCH   2   3
HETATM    3  C6  UNL     1      20.631  30.068  12.771  1.00  0.00     0.141 C 
BRANCH   3   4
HETATM    4  N1  UNL     1      20.269  28.697  12.555  1.00  0.00    -0.204 NA
BRANCH   4   5
HETATM    5  C5  UNL     1      21.130  28.057  11.619  1.00  0.00     0.112 C 
BRANCH   5   6
HETATM    6  C3  UNL     1      22.210  27.204  12.175  1.00  0.00    -0.005 C 
HETATM    7  C4  UNL     1      22.049  25.825  11.512  1.00  0.00     0.011 C 
BRANCH   6   8
HETATM    8  C2  UNL     1      23.606  27.637  11.859  1.00  0.00     0.001 C 
HETATM    9  C1  UNL     1      24.521  26.431  11.685  1.00  0.00     0.005 C 
ENDBRANCH   6   8
ENDBRANCH   5   6
ENDBRANCH   4   5
BRANCH   4  10
HETATM   10  S1  UNL     1      18.626  28.346  12.364  1.00  0.00     0.243 S 
HETATM   11  O5  UNL     1      17.941  29.513  11.712  1.00  0.00    -0.206 OA
HETATM   12  O6  UNL     1      17.963  28.259  13.750  1.00  0.00    -0.206 OA
BRANCH  10  13
HETATM   13  C21 UNL     1      18.306  26.910  11.459  1.00  0.00     0.074 A 
HETATM   14  C22 UNL     1      18.277  25.693  12.097  1.00  0.00     0.027 A 
HETATM   15  C23 UNL     1      18.025  24.513  11.429  1.00  0.00     0.038 A 
HETATM   16  C24 UNL     1      17.793  24.544  10.069  1.00  0.00     0.068 A 
HETATM   17  C26 UNL     1      17.823  25.764   9.433  1.00  0.00     0.038 A 
HETATM   18  C27 UNL     1      18.077  26.952  10.112  1.00  0.00     0.027 A 
BRANCH  16  19
HETATM   19  O7  UNL     1      17.537  23.369   9.370  1.00  0.00    -0.356 OA
HETATM   20  C25 UNL     1      17.481  23.343   7.976  1.00  0.00     0.210 C 
ENDBRANCH  16  19
ENDBRANCH  10  13
ENDBRANCH   4  10
ENDBRANCH   3   4
ENDBRANCH   2   3
BRANCH   2  21
HETATM   21  O1  UNL     1      21.896  30.322  14.750  1.00  0.00    -0.392 OA
ATOM     22  H1  UNL     1      21.849  29.950  15.623  1.00  0.00     0.210 HD
ENDBRANCH   2  21
ENDBRANCH   1   2
BRANCH   1  23
HETATM   23  C9  UNL     1      18.921  32.204  13.743  1.00  0.00     0.066 C 
BRANCH  23  24
HETATM   24  C10 UNL     1      17.767  32.699  14.523  1.00  0.00    -0.056 A 
HETATM   25  C11 UNL     1      16.999  31.836  15.292  1.00  0.00     0.007 A 
HETATM   26  C12 UNL     1      15.927  32.273  16.036  1.00  0.00     0.001 A 
HETATM   27  C13 UNL     1      15.569  33.600  16.045  1.00  0.00     0.000 A 
HETATM   28  C14 UNL     1      16.330  34.471  15.279  1.00  0.00     0.001 A 
HETATM   29  C15 UNL     1      17.394  34.024  14.545  1.00  0.00     0.007 A 
ENDBRANCH  23  24
ENDBRANCH   1  23
BRANCH   1  30
HETATM   30  N2  UNL     1      21.095  32.757  14.598  1.00  0.00    -0.329 N 
HETATM   31  C16 UNL     1      21.171  33.638  15.707  1.00  0.00     0.361 C 
HETATM   32  O2  UNL     1      20.354  33.556  16.687  1.00  0.00    -0.239 OA
ATOM     33  H2  UNL     1      21.759  32.844  13.829  1.00  0.00     0.165 HD
BRANCH  31  34
HETATM   34  O3  UNL     1      22.129  34.638  15.798  1.00  0.00    -0.302 OA
BRANCH  34  35
HETATM   35  C17 UNL     1      22.251  35.400  16.988  1.00  0.00     0.200 C 
BRANCH  35  36
HETATM   36  C18 UNL     1      21.656  36.779  16.827  1.00  0.00     0.149 C 
BRANCH  36  37
HETATM   37  N3  UNL     1      20.213  36.648  16.964  1.00  0.00    -0.357 N 
HETATM   38  C19 UNL     1      19.604  36.992  18.201  1.00  0.00     0.250 C 
HETATM   39  O4  UNL     1      20.340  37.401  19.135  1.00  0.00    -0.271 OA
ATOM     40  H3  UNL     1      19.647  36.315  16.183  1.00  0.00     0.162 HD
BRANCH  38  41
HETATM   41  C20 UNL     1      18.143  36.867  18.360  1.00  0.00     0.269 C 
HETATM   42 CL1  UNL     1      17.288  37.594  16.992  1.00  0.00    -0.098 Cl
HETATM   43 CL2  UNL     1      17.709  35.158  18.522  1.00  0.00    -0.098 Cl
ENDBRANCH  38  41
ENDBRANCH  36  37
ENDBRANCH  35  36
ENDBRANCH  34  35
ENDBRANCH  31  34
ENDBRANCH   1  30
TORSDOF 18
ENDMDL
