MODEL 20
REMARK VINA RESULT: -8.051093913      1.899      3.435
REMARK  18 active torsions:
REMARK  status: ('A' for Active; 'I' for Inactive)
REMARK    1  A    between atoms: C2_2  and  C3_3 
REMARK    2  A    between atoms: C3_3  and  C5_5 
REMARK    3  A    between atoms: C5_5  and  N1_6 
REMARK    4  A    between atoms: N1_6  and  C6_7 
REMARK    5  A    between atoms: N1_6  and  S1_33 
REMARK    6  A    between atoms: C6_7  and  C7_8 
REMARK    7  A    between atoms: C7_8  and  O1_9 
REMARK    8  A    between atoms: C7_8  and  C8_11 
REMARK    9  A    between atoms: C8_11  and  C9_12 
REMARK   10  A    between atoms: C8_11  and  N2_19 
REMARK   11  A    between atoms: C9_12  and  C10_13 
REMARK       I    between atoms: N2_19  and  C16_21 
REMARK   12  A    between atoms: C16_21  and  O3_23 
REMARK   13  A    between atoms: O3_23  and  C17_24 
REMARK   14  A    between atoms: C17_24  and  C18_25 
REMARK   15  A    between atoms: C18_25  and  N3_26 
REMARK       I    between atoms: N3_26  and  C19_28 
REMARK   16  A    between atoms: C19_28  and  C20_30 
REMARK   17  A    between atoms: S1_33  and  C21_36 
REMARK   18  A    between atoms: C24_39  and  O7_40 
ROOT
HETATM    1  C8  UNL     1      20.260  28.158  13.210  1.00  0.00     0.120 C 
ENDROOT
BRANCH   1   2
HETATM    2  C7  UNL     1      20.619  28.907  14.447  1.00  0.00     0.155 C 
BRANCH   2   3
HETATM    3  C6  UNL     1      19.505  29.645  15.098  1.00  0.00     0.141 C 
BRANCH   3   4
HETATM    4  N1  UNL     1      19.761  31.056  15.045  1.00  0.00    -0.204 NA
BRANCH   4   5
HETATM    5  C5  UNL     1      20.426  31.523  16.214  1.00  0.00     0.112 C 
BRANCH   5   6
HETATM    6  C3  UNL     1      21.625  32.374  16.008  1.00  0.00    -0.005 C 
HETATM    7  C4  UNL     1      22.338  32.444  17.369  1.00  0.00     0.011 C 
BRANCH   6   8
HETATM    8  C2  UNL     1      22.643  31.840  15.051  1.00  0.00     0.001 C 
HETATM    9  C1  UNL     1      23.030  32.899  14.026  1.00  0.00     0.005 C 
ENDBRANCH   6   8
ENDBRANCH   5   6
ENDBRANCH   4   5
BRANCH   4  10
HETATM   10  S1  UNL     1      18.514  32.054  14.490  1.00  0.00     0.243 S 
HETATM   11  O5  UNL     1      17.544  31.236  13.684  1.00  0.00    -0.206 OA
HETATM   12  O6  UNL     1      19.083  33.055  13.470  1.00  0.00    -0.206 OA
BRANCH  10  13
HETATM   13  C21 UNL     1      17.664  32.891  15.739  1.00  0.00     0.074 A 
HETATM   14  C22 UNL     1      16.363  32.551  16.025  1.00  0.00     0.027 A 
HETATM   15  C23 UNL     1      15.633  33.181  17.011  1.00  0.00     0.038 A 
HETATM   16  C24 UNL     1      16.221  34.192  17.743  1.00  0.00     0.068 A 
HETATM   17  C26 UNL     1      17.524  34.530  17.454  1.00  0.00     0.038 A 
HETATM   18  C27 UNL     1      18.255  33.891  16.459  1.00  0.00     0.027 A 
BRANCH  16  19
HETATM   19  O7  UNL     1      15.508  34.845  18.744  1.00  0.00    -0.356 OA
HETATM   20  C25 UNL     1      15.448  36.238  18.810  1.00  0.00     0.210 C 
ENDBRANCH  16  19
ENDBRANCH  10  13
ENDBRANCH   4  10
ENDBRANCH   3   4
ENDBRANCH   2   3
BRANCH   2  21
HETATM   21  O1  UNL     1      21.073  27.899  15.358  1.00  0.00    -0.392 OA
ATOM     22  H1  UNL     1      21.994  28.056  15.533  1.00  0.00     0.210 HD
ENDBRANCH   2  21
ENDBRANCH   1   2
BRANCH   1  23
HETATM   23  C9  UNL     1      18.813  27.773  13.142  1.00  0.00     0.066 C 
BRANCH  23  24
HETATM   24  C10 UNL     1      18.398  27.138  11.873  1.00  0.00    -0.056 A 
HETATM   25  C11 UNL     1      18.253  27.884  10.711  1.00  0.00     0.007 A 
HETATM   26  C12 UNL     1      17.878  27.316   9.516  1.00  0.00     0.001 A 
HETATM   27  C13 UNL     1      17.628  25.967   9.424  1.00  0.00     0.000 A 
HETATM   28  C14 UNL     1      17.769  25.212  10.579  1.00  0.00     0.001 A 
HETATM   29  C15 UNL     1      18.143  25.790  11.761  1.00  0.00     0.007 A 
ENDBRANCH  23  24
ENDBRANCH   1  23
BRANCH   1  30
HETATM   30  N2  UNL     1      21.089  27.045  12.906  1.00  0.00    -0.329 N 
HETATM   31  C16 UNL     1      22.231  27.224  12.084  1.00  0.00     0.361 C 
HETATM   32  O2  UNL     1      22.540  28.368  11.603  1.00  0.00    -0.239 OA
ATOM     33  H2  UNL     1      20.865  26.123  13.277  1.00  0.00     0.165 HD
BRANCH  31  34
HETATM   34  O3  UNL     1      23.079  26.177  11.751  1.00  0.00    -0.302 OA
BRANCH  34  35
HETATM   35  C17 UNL     1      23.043  25.617  10.448  1.00  0.00     0.200 C 
BRANCH  35  36
HETATM   36  C18 UNL     1      21.723  24.935  10.175  1.00  0.00     0.149 C 
BRANCH  36  37
HETATM   37  N3  UNL     1      21.172  25.526   8.965  1.00  0.00    -0.357 N 
HETATM   38  C19 UNL     1      20.703  24.670   7.932  1.00  0.00     0.250 C 
HETATM   39  O4  UNL     1      20.782  23.426   8.105  1.00  0.00    -0.271 OA
ATOM     40  H3  UNL     1      21.122  26.539   8.860  1.00  0.00     0.162 HD
BRANCH  38  41
HETATM   41  C20 UNL     1      20.139  25.249   6.697  1.00  0.00     0.269 C 
HETATM   42 CL1  UNL     1      21.281  25.117   5.353  1.00  0.00    -0.098 Cl
HETATM   43 CL2  UNL     1      18.619  24.432   6.300  1.00  0.00    -0.098 Cl
ENDBRANCH  38  41
ENDBRANCH  36  37
ENDBRANCH  35  36
ENDBRANCH  34  35
ENDBRANCH  31  34
ENDBRANCH   1  30
TORSDOF 18
ENDMDL
