MODEL 5
REMARK VINA RESULT: -8.475544922      3.699      9.158
REMARK  18 active torsions:
REMARK  status: ('A' for Active; 'I' for Inactive)
REMARK    1  A    between atoms: C2_2  and  C3_3 
REMARK    2  A    between atoms: C3_3  and  C5_5 
REMARK    3  A    between atoms: C5_5  and  N1_6 
REMARK    4  A    between atoms: N1_6  and  C6_7 
REMARK    5  A    between atoms: N1_6  and  S1_33 
REMARK    6  A    between atoms: C6_7  and  C7_8 
REMARK    7  A    between atoms: C7_8  and  O1_9 
REMARK    8  A    between atoms: C7_8  and  C8_11 
REMARK    9  A    between atoms: C8_11  and  C9_12 
REMARK   10  A    between atoms: C8_11  and  N2_19 
REMARK   11  A    between atoms: C9_12  and  C10_13 
REMARK       I    between atoms: N2_19  and  C16_21 
REMARK   12  A    between atoms: C16_21  and  O3_23 
REMARK   13  A    between atoms: O3_23  and  C17_24 
REMARK   14  A    between atoms: C17_24  and  C18_25 
REMARK   15  A    between atoms: C18_25  and  N3_26 
REMARK       I    between atoms: N3_26  and  C19_28 
REMARK   16  A    between atoms: C19_28  and  C20_30 
REMARK   17  A    between atoms: S1_33  and  C21_36 
REMARK   18  A    between atoms: C24_39  and  O7_40 
ROOT
HETATM    1  C8  UNL     1      20.625  31.882  14.677  1.00  0.00     0.120 C 
ENDROOT
BRANCH   1   2
HETATM    2  C7  UNL     1      21.401  31.174  13.619  1.00  0.00     0.155 C 
BRANCH   2   3
HETATM    3  C6  UNL     1      20.614  30.711  12.446  1.00  0.00     0.141 C 
BRANCH   3   4
HETATM    4  N1  UNL     1      20.355  29.305  12.561  1.00  0.00    -0.204 NA
BRANCH   4   5
HETATM    5  C5  UNL     1      21.179  28.536  11.691  1.00  0.00     0.112 C 
BRANCH   5   6
HETATM    6  C3  UNL     1      22.181  27.646  12.329  1.00  0.00    -0.005 C 
HETATM    7  C4  UNL     1      21.989  26.259  11.691  1.00  0.00     0.011 C 
BRANCH   6   8
HETATM    8  C2  UNL     1      23.613  28.002  12.084  1.00  0.00     0.001 C 
HETATM    9  C1  UNL     1      24.418  26.768  11.695  1.00  0.00     0.005 C 
ENDBRANCH   6   8
ENDBRANCH   5   6
ENDBRANCH   4   5
BRANCH   4  10
HETATM   10  S1  UNL     1      18.739  28.813  12.627  1.00  0.00     0.243 S 
HETATM   11  O5  UNL     1      17.852  29.967  12.251  1.00  0.00    -0.206 OA
HETATM   12  O6  UNL     1      18.358  28.521  14.088  1.00  0.00    -0.206 OA
BRANCH  10  13
HETATM   13  C21 UNL     1      18.368  27.452  11.629  1.00  0.00     0.074 A 
HETATM   14  C22 UNL     1      18.107  27.637  10.292  1.00  0.00     0.027 A 
HETATM   15  C23 UNL     1      17.807  26.591   9.445  1.00  0.00     0.038 A 
HETATM   16  C24 UNL     1      17.764  25.307   9.949  1.00  0.00     0.068 A 
HETATM   17  C26 UNL     1      18.025  25.126  11.288  1.00  0.00     0.038 A 
HETATM   18  C27 UNL     1      18.327  26.184  12.138  1.00  0.00     0.027 A 
BRANCH  16  19
HETATM   19  O7  UNL     1      17.463  24.233   9.117  1.00  0.00    -0.356 OA
HETATM   20  C25 UNL     1      18.352  23.799   8.131  1.00  0.00     0.210 C 
ENDBRANCH  16  19
ENDBRANCH  10  13
ENDBRANCH   4  10
ENDBRANCH   3   4
ENDBRANCH   2   3
BRANCH   2  21
HETATM   21  O1  UNL     1      22.349  32.145  13.160  1.00  0.00    -0.392 OA
ATOM     22  H1  UNL     1      22.747  32.549  13.922  1.00  0.00     0.210 HD
ENDBRANCH   2  21
ENDBRANCH   1   2
BRANCH   1  23
HETATM   23  C9  UNL     1      21.324  31.929  16.002  1.00  0.00     0.066 C 
BRANCH  23  24
HETATM   24  C10 UNL     1      21.693  33.284  16.461  1.00  0.00    -0.056 A 
HETATM   25  C11 UNL     1      21.331  34.411  15.736  1.00  0.00     0.007 A 
HETATM   26  C12 UNL     1      21.654  35.684  16.147  1.00  0.00     0.001 A 
HETATM   27  C13 UNL     1      22.358  35.892  17.309  1.00  0.00     0.000 A 
HETATM   28  C14 UNL     1      22.726  34.773  18.042  1.00  0.00     0.001 A 
HETATM   29  C15 UNL     1      22.398  33.513  17.622  1.00  0.00     0.007 A 
ENDBRANCH  23  24
ENDBRANCH   1  23
BRANCH   1  30
HETATM   30  N2  UNL     1      19.279  31.457  14.835  1.00  0.00    -0.329 N 
HETATM   31  C16 UNL     1      18.221  32.373  14.605  1.00  0.00     0.361 C 
HETATM   32  O2  UNL     1      18.445  33.583  14.257  1.00  0.00    -0.239 OA
ATOM     33  H2  UNL     1      19.073  30.497  15.112  1.00  0.00     0.165 HD
BRANCH  31  34
HETATM   34  O3  UNL     1      16.886  32.019  14.744  1.00  0.00    -0.302 OA
BRANCH  34  35
HETATM   35  C17 UNL     1      16.252  32.115  16.008  1.00  0.00     0.200 C 
BRANCH  35  36
HETATM   36  C18 UNL     1      15.527  33.431  16.167  1.00  0.00     0.149 C 
BRANCH  36  37
HETATM   37  N3  UNL     1      16.496  34.404  16.648  1.00  0.00    -0.357 N 
HETATM   38  C19 UNL     1      16.432  34.829  18.003  1.00  0.00     0.250 C 
HETATM   39  O4  UNL     1      15.534  34.342  18.738  1.00  0.00    -0.271 OA
ATOM     40  H3  UNL     1      17.211  34.776  16.023  1.00  0.00     0.162 HD
BRANCH  38  41
HETATM   41  C20 UNL     1      17.405  35.814  18.511  1.00  0.00     0.269 C 
HETATM   42 CL1  UNL     1      18.954  35.047  18.882  1.00  0.00    -0.098 Cl
HETATM   43 CL2  UNL     1      17.623  37.102  17.315  1.00  0.00    -0.098 Cl
ENDBRANCH  38  41
ENDBRANCH  36  37
ENDBRANCH  35  36
ENDBRANCH  34  35
ENDBRANCH  31  34
ENDBRANCH   1  30
TORSDOF 18
ENDMDL
