MODEL 2
REMARK VINA RESULT: -8.594553521      4.321      8.497
REMARK  18 active torsions:
REMARK  status: ('A' for Active; 'I' for Inactive)
REMARK    1  A    between atoms: C2_2  and  C3_3 
REMARK    2  A    between atoms: C3_3  and  C5_5 
REMARK    3  A    between atoms: C5_5  and  N1_6 
REMARK    4  A    between atoms: N1_6  and  C6_7 
REMARK    5  A    between atoms: N1_6  and  S1_33 
REMARK    6  A    between atoms: C6_7  and  C7_8 
REMARK    7  A    between atoms: C7_8  and  O1_9 
REMARK    8  A    between atoms: C7_8  and  C8_11 
REMARK    9  A    between atoms: C8_11  and  C9_12 
REMARK   10  A    between atoms: C8_11  and  N2_19 
REMARK   11  A    between atoms: C9_12  and  C10_13 
REMARK       I    between atoms: N2_19  and  C16_21 
REMARK   12  A    between atoms: C16_21  and  O3_23 
REMARK   13  A    between atoms: O3_23  and  C17_24 
REMARK   14  A    between atoms: C17_24  and  C18_25 
REMARK   15  A    between atoms: C18_25  and  N3_26 
REMARK       I    between atoms: N3_26  and  C19_28 
REMARK   16  A    between atoms: C19_28  and  C20_30 
REMARK   17  A    between atoms: S1_33  and  C21_36 
REMARK   18  A    between atoms: C24_39  and  O7_40 
ROOT
HETATM    1  C8  UNL     1      18.111  31.501  15.301  1.00  0.00     0.120 C 
ENDROOT
BRANCH   1   2
HETATM    2  C7  UNL     1      19.363  31.214  16.056  1.00  0.00     0.155 C 
BRANCH   2   3
HETATM    3  C6  UNL     1      20.206  32.396  16.377  1.00  0.00     0.141 C 
BRANCH   3   4
HETATM    4  N1  UNL     1      21.584  32.093  16.122  1.00  0.00    -0.204 NA
BRANCH   4   5
HETATM    5  C5  UNL     1      22.459  32.801  16.996  1.00  0.00     0.112 C 
BRANCH   5   6
HETATM    6  C3  UNL     1      22.081  34.195  17.339  1.00  0.00    -0.005 C 
HETATM    7  C4  UNL     1      22.660  34.462  18.739  1.00  0.00     0.011 C 
BRANCH   6   8
HETATM    8  C2  UNL     1      22.657  35.258  16.460  1.00  0.00     0.001 C 
HETATM    9  C1  UNL     1      22.287  36.644  16.972  1.00  0.00     0.005 C 
ENDBRANCH   6   8
ENDBRANCH   5   6
ENDBRANCH   4   5
BRANCH   4  10
HETATM   10  S1  UNL     1      22.085  32.039  14.508  1.00  0.00     0.243 S 
HETATM   11  O5  UNL     1      23.527  32.452  14.421  1.00  0.00    -0.206 OA
HETATM   12  O6  UNL     1      21.344  33.126  13.712  1.00  0.00    -0.206 OA
BRANCH  10  13
HETATM   13  C21 UNL     1      21.880  30.500  13.752  1.00  0.00     0.074 A 
HETATM   14  C22 UNL     1      21.679  29.380  14.525  1.00  0.00     0.027 A 
HETATM   15  C23 UNL     1      21.508  28.126  13.979  1.00  0.00     0.038 A 
HETATM   16  C24 UNL     1      21.536  27.977  12.608  1.00  0.00     0.068 A 
HETATM   17  C26 UNL     1      21.738  29.099  11.837  1.00  0.00     0.038 A 
HETATM   18  C27 UNL     1      21.910  30.363  12.392  1.00  0.00     0.027 A 
BRANCH  16  19
HETATM   19  O7  UNL     1      21.366  26.722  12.031  1.00  0.00    -0.356 OA
HETATM   20  C25 UNL     1      22.421  26.054  11.407  1.00  0.00     0.210 C 
ENDBRANCH  16  19
ENDBRANCH  10  13
ENDBRANCH   4  10
ENDBRANCH   3   4
ENDBRANCH   2   3
BRANCH   2  21
HETATM   21  O1  UNL     1      18.915  30.643  17.291  1.00  0.00    -0.392 OA
ATOM     22  H1  UNL     1      18.138  30.127  17.110  1.00  0.00     0.210 HD
ENDBRANCH   2  21
ENDBRANCH   1   2
BRANCH   1  23
HETATM   23  C9  UNL     1      18.236  31.272  13.826  1.00  0.00     0.066 C 
BRANCH  23  24
HETATM   24  C10 UNL     1      18.088  29.863  13.401  1.00  0.00    -0.056 A 
HETATM   25  C11 UNL     1      18.073  29.518  12.056  1.00  0.00     0.007 A 
HETATM   26  C12 UNL     1      17.947  28.214  11.635  1.00  0.00     0.001 A 
HETATM   27  C13 UNL     1      17.828  27.189  12.543  1.00  0.00     0.000 A 
HETATM   28  C14 UNL     1      17.841  27.522  13.889  1.00  0.00     0.001 A 
HETATM   29  C15 UNL     1      17.967  28.823  14.294  1.00  0.00     0.007 A 
ENDBRANCH  23  24
ENDBRANCH   1  23
BRANCH   1  30
HETATM   30  N2  UNL     1      17.515  32.763  15.564  1.00  0.00    -0.329 N 
HETATM   31  C16 UNL     1      16.183  32.824  16.046  1.00  0.00     0.361 C 
HETATM   32  O2  UNL     1      15.495  31.766  16.254  1.00  0.00    -0.239 OA
ATOM     33  H2  UNL     1      18.042  33.622  15.406  1.00  0.00     0.165 HD
BRANCH  31  34
HETATM   34  O3  UNL     1      15.545  34.026  16.321  1.00  0.00    -0.302 OA
BRANCH  34  35
HETATM   35  C17 UNL     1      15.056  34.291  17.626  1.00  0.00     0.200 C 
BRANCH  35  36
HETATM   36  C18 UNL     1      15.113  35.765  17.951  1.00  0.00     0.149 C 
BRANCH  36  37
HETATM   37  N3  UNL     1      16.473  36.064  18.373  1.00  0.00    -0.357 N 
HETATM   38  C19 UNL     1      17.317  36.807  17.504  1.00  0.00     0.250 C 
HETATM   39  O4  UNL     1      16.852  37.181  16.396  1.00  0.00    -0.271 OA
ATOM     40  H3  UNL     1      16.816  35.745  19.280  1.00  0.00     0.162 HD
BRANCH  38  41
HETATM   41  C20 UNL     1      18.699  37.121  17.913  1.00  0.00     0.269 C 
HETATM   42 CL1  UNL     1      18.782  38.689  18.727  1.00  0.00    -0.098 Cl
HETATM   43 CL2  UNL     1      19.308  35.841  18.975  1.00  0.00    -0.098 Cl
ENDBRANCH  38  41
ENDBRANCH  36  37
ENDBRANCH  35  36
ENDBRANCH  34  35
ENDBRANCH  31  34
ENDBRANCH   1  30
TORSDOF 18
ENDMDL
