MODEL 1
REMARK VINA RESULT: -8.165820091      0.000      0.000
REMARK  18 active torsions:
REMARK  status: ('A' for Active; 'I' for Inactive)
REMARK    1  A    between atoms: C2_2  and  C3_3 
REMARK    2  A    between atoms: C3_3  and  C5_5 
REMARK    3  A    between atoms: C5_5  and  N1_6 
REMARK    4  A    between atoms: N1_6  and  C6_7 
REMARK    5  A    between atoms: N1_6  and  S1_31 
REMARK    6  A    between atoms: C6_7  and  C7_8 
REMARK    7  A    between atoms: C7_8  and  O1_9 
REMARK    8  A    between atoms: C7_8  and  C8_11 
REMARK    9  A    between atoms: C8_11  and  C9_12 
REMARK   10  A    between atoms: C8_11  and  N2_19 
REMARK   11  A    between atoms: C9_12  and  C10_13 
REMARK       I    between atoms: N2_19  and  C16_21 
REMARK   12  A    between atoms: C16_21  and  O3_23 
REMARK   13  A    between atoms: O3_23  and  C17_24 
REMARK   14  A    between atoms: C17_24  and  C18_25 
REMARK   15  A    between atoms: C18_25  and  C20_27 
REMARK   16  A    between atoms: C20_27  and  O5_29 
REMARK   17  A    between atoms: S1_31  and  C22_34 
REMARK   18  A    between atoms: C25_37  and  O8_38 
ROOT
HETATM    1  C7  UNL     1      19.112  31.268  16.445  1.00  0.00     0.155 C 
ENDROOT
BRANCH   1   2
HETATM    2  C6  UNL     1      19.958  32.482  16.591  1.00  0.00     0.141 C 
BRANCH   2   3
HETATM    3  N1  UNL     1      21.340  32.266  16.206  1.00  0.00    -0.204 NA
BRANCH   3   4
HETATM    4  C5  UNL     1      22.173  33.281  16.817  1.00  0.00     0.112 C 
BRANCH   4   5
HETATM    5  C3  UNL     1      21.346  34.432  17.382  1.00  0.00    -0.005 C 
HETATM    6  C4  UNL     1      21.757  34.773  18.778  1.00  0.00     0.011 C 
BRANCH   5   7
HETATM    7  C2  UNL     1      21.604  35.606  16.437  1.00  0.00     0.001 C 
HETATM    8  C1  UNL     1      22.360  36.721  17.086  1.00  0.00     0.005 C 
ENDBRANCH   5   7
ENDBRANCH   4   5
ENDBRANCH   3   4
BRANCH   3   9
HETATM    9  S1  UNL     1      21.524  32.384  14.501  1.00  0.00     0.243 S 
HETATM   10  O6  UNL     1      20.449  33.270  13.903  1.00  0.00    -0.206 OA
HETATM   11  O7  UNL     1      22.864  33.021  14.225  1.00  0.00    -0.206 OA
BRANCH   9  12
HETATM   12  C22 UNL     1      21.405  30.848  13.683  1.00  0.00     0.074 A 
HETATM   13  C23 UNL     1      21.759  29.678  14.347  1.00  0.00     0.027 A 
HETATM   14  C24 UNL     1      21.689  28.451  13.767  1.00  0.00     0.038 A 
HETATM   15  C25 UNL     1      21.253  28.330  12.472  1.00  0.00     0.068 A 
HETATM   16  C27 UNL     1      20.891  29.449  11.766  1.00  0.00     0.038 A 
HETATM   17  C28 UNL     1      20.973  30.697  12.383  1.00  0.00     0.027 A 
BRANCH  15  18
HETATM   18  O8  UNL     1      21.185  27.078  11.890  1.00  0.00    -0.356 OA
HETATM   19  C26 UNL     1      22.333  26.289  11.662  1.00  0.00     0.210 C 
ENDBRANCH  15  18
ENDBRANCH   9  12
ENDBRANCH   3   9
ENDBRANCH   2   3
ENDBRANCH   1   2
BRANCH   1  20
HETATM   20  O1  UNL     1      19.167  30.343  17.456  1.00  0.00    -0.392 OA
ATOM     21  H1  UNL     1      18.450  30.340  18.079  1.00  0.00     0.210 HD
ENDBRANCH   1  20
BRANCH   1  22
HETATM   22  C8  UNL     1      17.781  31.483  15.819  1.00  0.00     0.120 C 
BRANCH  22  23
HETATM   23  C9  UNL     1      17.736  31.575  14.327  1.00  0.00     0.066 C 
BRANCH  23  24
HETATM   24  C10 UNL     1      17.640  30.263  13.701  1.00  0.00    -0.056 A 
HETATM   25  C11 UNL     1      17.301  30.092  12.382  1.00  0.00     0.007 A 
HETATM   26  C12 UNL     1      17.269  28.839  11.785  1.00  0.00     0.001 A 
HETATM   27  C13 UNL     1      17.577  27.723  12.502  1.00  0.00     0.000 A 
HETATM   28  C14 UNL     1      17.919  27.888  13.831  1.00  0.00     0.001 A 
HETATM   29  C15 UNL     1      17.954  29.106  14.423  1.00  0.00     0.007 A 
ENDBRANCH  23  24
ENDBRANCH  22  23
BRANCH  22  30
HETATM   30  N2  UNL     1      17.190  32.752  16.361  1.00  0.00    -0.329 N 
HETATM   31  C16 UNL     1      15.798  32.804  16.569  1.00  0.00     0.360 C 
HETATM   32  O2  UNL     1      15.088  31.815  16.305  1.00  0.00    -0.239 OA
ATOM     33  H2  UNL     1      17.781  33.556  16.573  1.00  0.00     0.165 HD
BRANCH  31  34
HETATM   34  O3  UNL     1      15.156  33.941  17.070  1.00  0.00    -0.303 OA
BRANCH  34  35
HETATM   35  C17 UNL     1      15.807  35.196  16.963  1.00  0.00     0.194 C 
BRANCH  35  36
HETATM   36  C18 UNL     1      16.208  35.643  18.364  1.00  0.00     0.106 C 
HETATM   37  C19 UNL     1      15.580  36.958  18.725  1.00  0.00     0.022 C 
BRANCH  36  38
HETATM   38  C20 UNL     1      17.668  35.695  18.508  1.00  0.00     0.264 C 
HETATM   39  O4  UNL     1      18.256  34.863  19.225  1.00  0.00    -0.265 OA
BRANCH  38  40
HETATM   40  O5  UNL     1      18.395  36.663  17.853  1.00  0.00    -0.326 OA
HETATM   41  C21 UNL     1      19.158  37.654  18.508  1.00  0.00     0.213 C 
ENDBRANCH  38  40
ENDBRANCH  36  38
ENDBRANCH  35  36
ENDBRANCH  34  35
ENDBRANCH  31  34
ENDBRANCH  22  30
ENDBRANCH   1  22
TORSDOF 18
ENDMDL
