MODEL 6
REMARK VINA RESULT: -7.717048045      2.237      8.243
REMARK  18 active torsions:
REMARK  status: ('A' for Active; 'I' for Inactive)
REMARK    1  A    between atoms: C2_2  and  C3_3 
REMARK    2  A    between atoms: C3_3  and  C5_5 
REMARK    3  A    between atoms: C5_5  and  N1_6 
REMARK    4  A    between atoms: N1_6  and  C6_7 
REMARK    5  A    between atoms: N1_6  and  S1_31 
REMARK    6  A    between atoms: C6_7  and  C7_8 
REMARK    7  A    between atoms: C7_8  and  O1_9 
REMARK    8  A    between atoms: C7_8  and  C8_11 
REMARK    9  A    between atoms: C8_11  and  C9_12 
REMARK   10  A    between atoms: C8_11  and  N2_19 
REMARK   11  A    between atoms: C9_12  and  C10_13 
REMARK       I    between atoms: N2_19  and  C16_21 
REMARK   12  A    between atoms: C16_21  and  O3_23 
REMARK   13  A    between atoms: O3_23  and  C17_24 
REMARK   14  A    between atoms: C17_24  and  C18_25 
REMARK   15  A    between atoms: C18_25  and  C20_27 
REMARK   16  A    between atoms: C20_27  and  O5_29 
REMARK   17  A    between atoms: S1_31  and  C22_34 
REMARK   18  A    between atoms: C25_37  and  O8_38 
ROOT
HETATM    1  C7  UNL     1      19.815  29.313  15.410  1.00  0.00     0.155 C 
ENDROOT
BRANCH   1   2
HETATM    2  C6  UNL     1      19.068  30.524  15.841  1.00  0.00     0.141 C 
BRANCH   2   3
HETATM    3  N1  UNL     1      19.436  31.717  15.103  1.00  0.00    -0.204 NA
BRANCH   3   4
HETATM    4  C5  UNL     1      20.223  32.585  15.954  1.00  0.00     0.112 C 
BRANCH   4   5
HETATM    5  C3  UNL     1      21.715  32.470  15.662  1.00  0.00    -0.005 C 
HETATM    6  C4  UNL     1      21.991  32.465  14.193  1.00  0.00     0.011 C 
BRANCH   5   7
HETATM    7  C2  UNL     1      22.345  33.693  16.330  1.00  0.00     0.001 C 
HETATM    8  C1  UNL     1      21.519  34.930  16.175  1.00  0.00     0.005 C 
ENDBRANCH   5   7
ENDBRANCH   4   5
ENDBRANCH   3   4
BRANCH   3   9
HETATM    9  S1  UNL     1      18.037  32.585  14.608  1.00  0.00     0.243 S 
HETATM   10  O6  UNL     1      18.388  33.618  13.555  1.00  0.00    -0.206 OA
HETATM   11  O7  UNL     1      17.075  31.598  13.994  1.00  0.00    -0.206 OA
BRANCH   9  12
HETATM   12  C22 UNL     1      17.264  33.454  15.908  1.00  0.00     0.074 A 
HETATM   13  C23 UNL     1      16.069  32.983  16.443  1.00  0.00     0.027 A 
HETATM   14  C24 UNL     1      15.417  33.613  17.456  1.00  0.00     0.038 A 
HETATM   15  C25 UNL     1      15.936  34.763  17.994  1.00  0.00     0.068 A 
HETATM   16  C27 UNL     1      17.110  35.276  17.506  1.00  0.00     0.038 A 
HETATM   17  C28 UNL     1      17.761  34.612  16.466  1.00  0.00     0.027 A 
BRANCH  15  18
HETATM   18  O8  UNL     1      15.266  35.397  19.023  1.00  0.00    -0.356 OA
HETATM   19  C26 UNL     1      15.270  36.800  19.176  1.00  0.00     0.210 C 
ENDBRANCH  15  18
ENDBRANCH   9  12
ENDBRANCH   3   9
ENDBRANCH   2   3
ENDBRANCH   1   2
BRANCH   1  20
HETATM   20  O1  UNL     1      20.079  28.368  16.369  1.00  0.00    -0.392 OA
ATOM     21  H1  UNL     1      20.984  28.099  16.472  1.00  0.00     0.210 HD
ENDBRANCH   1  20
BRANCH   1  22
HETATM   22  C8  UNL     1      19.486  28.803  14.054  1.00  0.00     0.120 C 
BRANCH  22  23
HETATM   23  C9  UNL     1      18.226  28.008  13.911  1.00  0.00     0.066 C 
BRANCH  23  24
HETATM   24  C10 UNL     1      17.925  27.708  12.518  1.00  0.00    -0.056 A 
HETATM   25  C11 UNL     1      17.553  28.671  11.614  1.00  0.00     0.007 A 
HETATM   26  C12 UNL     1      17.325  28.378  10.276  1.00  0.00     0.001 A 
HETATM   27  C13 UNL     1      17.466  27.105   9.812  1.00  0.00     0.000 A 
HETATM   28  C14 UNL     1      17.841  26.130  10.717  1.00  0.00     0.001 A 
HETATM   29  C15 UNL     1      18.066  26.405  12.025  1.00  0.00     0.007 A 
ENDBRANCH  23  24
ENDBRANCH  22  23
BRANCH  22  30
HETATM   30  N2  UNL     1      20.615  27.937  13.575  1.00  0.00    -0.329 N 
HETATM   31  C16 UNL     1      21.457  28.437  12.563  1.00  0.00     0.360 C 
HETATM   32  O2  UNL     1      21.257  29.571  12.086  1.00  0.00    -0.239 OA
ATOM     33  H2  UNL     1      20.768  27.010  13.972  1.00  0.00     0.165 HD
BRANCH  31  34
HETATM   34  O3  UNL     1      22.534  27.705  12.052  1.00  0.00    -0.303 OA
BRANCH  34  35
HETATM   35  C17 UNL     1      22.424  27.146  10.754  1.00  0.00     0.194 C 
BRANCH  35  36
HETATM   36  C18 UNL     1      23.832  26.866  10.239  1.00  0.00     0.106 C 
HETATM   37  C19 UNL     1      23.815  26.409   8.809  1.00  0.00     0.022 C 
BRANCH  36  38
HETATM   38  C20 UNL     1      24.531  25.901  11.096  1.00  0.00     0.264 C 
HETATM   39  O4  UNL     1      24.279  24.685  11.003  1.00  0.00    -0.265 OA
BRANCH  38  40
HETATM   40  O5  UNL     1      25.469  26.334  12.006  1.00  0.00    -0.326 OA
HETATM   41  C21 UNL     1      26.100  27.595  11.945  1.00  0.00     0.213 C 
ENDBRANCH  38  40
ENDBRANCH  36  38
ENDBRANCH  35  36
ENDBRANCH  34  35
ENDBRANCH  31  34
ENDBRANCH  22  30
ENDBRANCH   1  22
TORSDOF 18
ENDMDL
