MODEL 4
REMARK VINA RESULT: -7.747158169      2.161      8.468
REMARK  18 active torsions:
REMARK  status: ('A' for Active; 'I' for Inactive)
REMARK    1  A    between atoms: C2_2  and  C3_3 
REMARK    2  A    between atoms: C3_3  and  C5_5 
REMARK    3  A    between atoms: C5_5  and  N1_6 
REMARK    4  A    between atoms: N1_6  and  C6_7 
REMARK    5  A    between atoms: N1_6  and  S1_31 
REMARK    6  A    between atoms: C6_7  and  C7_8 
REMARK    7  A    between atoms: C7_8  and  O1_9 
REMARK    8  A    between atoms: C7_8  and  C8_11 
REMARK    9  A    between atoms: C8_11  and  C9_12 
REMARK   10  A    between atoms: C8_11  and  N2_19 
REMARK   11  A    between atoms: C9_12  and  C10_13 
REMARK       I    between atoms: N2_19  and  C16_21 
REMARK   12  A    between atoms: C16_21  and  O3_23 
REMARK   13  A    between atoms: O3_23  and  C17_24 
REMARK   14  A    between atoms: C17_24  and  C18_25 
REMARK   15  A    between atoms: C18_25  and  C20_27 
REMARK   16  A    between atoms: C20_27  and  O5_29 
REMARK   17  A    between atoms: S1_31  and  C22_34 
REMARK   18  A    between atoms: C25_37  and  O8_38 
ROOT
HETATM    1  C7  UNL     1      19.608  29.953  15.844  1.00  0.00     0.155 C 
ENDROOT
BRANCH   1   2
HETATM    2  C6  UNL     1      18.670  31.048  16.207  1.00  0.00     0.141 C 
BRANCH   2   3
HETATM    3  N1  UNL     1      18.956  32.296  15.524  1.00  0.00    -0.204 NA
BRANCH   3   4
HETATM    4  C5  UNL     1      19.607  33.207  16.443  1.00  0.00     0.112 C 
BRANCH   4   5
HETATM    5  C3  UNL     1      20.724  33.996  15.767  1.00  0.00    -0.005 C 
HETATM    6  C4  UNL     1      21.142  35.174  16.587  1.00  0.00     0.011 C 
BRANCH   5   7
HETATM    7  C2  UNL     1      21.877  33.001  15.620  1.00  0.00     0.001 C 
HETATM    8  C1  UNL     1      22.140  32.622  14.198  1.00  0.00     0.005 C 
ENDBRANCH   5   7
ENDBRANCH   4   5
ENDBRANCH   3   4
BRANCH   3   9
HETATM    9  S1  UNL     1      17.506  33.040  14.978  1.00  0.00     0.243 S 
HETATM   10  O6  UNL     1      17.775  33.935  13.784  1.00  0.00    -0.206 OA
HETATM   11  O7  UNL     1      16.563  31.946  14.540  1.00  0.00    -0.206 OA
BRANCH   9  12
HETATM   12  C22 UNL     1      16.746  34.046  16.182  1.00  0.00     0.074 A 
HETATM   13  C23 UNL     1      16.872  35.430  16.111  1.00  0.00     0.027 A 
HETATM   14  C24 UNL     1      16.304  36.269  17.017  1.00  0.00     0.038 A 
HETATM   15  C25 UNL     1      15.568  35.759  18.056  1.00  0.00     0.068 A 
HETATM   16  C27 UNL     1      15.410  34.403  18.179  1.00  0.00     0.038 A 
HETATM   17  C28 UNL     1      16.003  33.561  17.237  1.00  0.00     0.027 A 
BRANCH  15  18
HETATM   18  O8  UNL     1      14.995  36.620  18.972  1.00  0.00    -0.356 OA
HETATM   19  C26 UNL     1      15.564  37.873  19.289  1.00  0.00     0.210 C 
ENDBRANCH  15  18
ENDBRANCH   9  12
ENDBRANCH   3   9
ENDBRANCH   2   3
ENDBRANCH   1   2
BRANCH   1  20
HETATM   20  O1  UNL     1      19.989  29.099  16.848  1.00  0.00    -0.392 OA
ATOM     21  H1  UNL     1      19.805  28.176  16.723  1.00  0.00     0.210 HD
ENDBRANCH   1  20
BRANCH   1  22
HETATM   22  C8  UNL     1      19.399  29.344  14.504  1.00  0.00     0.120 C 
BRANCH  22  23
HETATM   23  C9  UNL     1      18.143  28.558  14.300  1.00  0.00     0.066 C 
BRANCH  23  24
HETATM   24  C10 UNL     1      17.902  28.269  12.893  1.00  0.00    -0.056 A 
HETATM   25  C11 UNL     1      18.146  27.040  12.335  1.00  0.00     0.007 A 
HETATM   26  C12 UNL     1      17.857  26.763  11.005  1.00  0.00     0.001 A 
HETATM   27  C13 UNL     1      17.313  27.718  10.201  1.00  0.00     0.000 A 
HETATM   28  C14 UNL     1      17.064  28.959  10.758  1.00  0.00     0.001 A 
HETATM   29  C15 UNL     1      17.342  29.239  12.054  1.00  0.00     0.007 A 
ENDBRANCH  23  24
ENDBRANCH  22  23
BRANCH  22  30
HETATM   30  N2  UNL     1      20.551  28.429  14.203  1.00  0.00    -0.329 N 
HETATM   31  C16 UNL     1      21.351  28.712  13.079  1.00  0.00     0.360 C 
HETATM   32  O2  UNL     1      21.097  29.698  12.362  1.00  0.00    -0.239 OA
ATOM     33  H2  UNL     1      20.748  27.624  14.797  1.00  0.00     0.165 HD
BRANCH  31  34
HETATM   34  O3  UNL     1      22.444  27.918  12.718  1.00  0.00    -0.303 OA
BRANCH  34  35
HETATM   35  C17 UNL     1      22.457  27.316  11.435  1.00  0.00     0.194 C 
BRANCH  35  36
HETATM   36  C18 UNL     1      23.885  27.364  10.902  1.00  0.00     0.106 C 
HETATM   37  C19 UNL     1      23.957  28.064   9.576  1.00  0.00     0.022 C 
BRANCH  36  38
HETATM   38  C20 UNL     1      24.470  26.019  10.824  1.00  0.00     0.264 C 
HETATM   39  O4  UNL     1      24.808  25.424  11.865  1.00  0.00    -0.265 OA
BRANCH  38  40
HETATM   40  O5  UNL     1      24.646  25.410   9.603  1.00  0.00    -0.326 OA
HETATM   41  C21 UNL     1      23.942  24.260   9.187  1.00  0.00     0.213 C 
ENDBRANCH  38  40
ENDBRANCH  36  38
ENDBRANCH  35  36
ENDBRANCH  34  35
ENDBRANCH  31  34
ENDBRANCH  22  30
ENDBRANCH   1  22
TORSDOF 18
ENDMDL
