MODEL 3
REMARK VINA RESULT: -7.865147663      2.163      6.229
REMARK  18 active torsions:
REMARK  status: ('A' for Active; 'I' for Inactive)
REMARK    1  A    between atoms: C2_2  and  C3_3 
REMARK    2  A    between atoms: C3_3  and  C5_5 
REMARK    3  A    between atoms: C5_5  and  N1_6 
REMARK    4  A    between atoms: N1_6  and  C6_7 
REMARK    5  A    between atoms: N1_6  and  S1_31 
REMARK    6  A    between atoms: C6_7  and  C7_8 
REMARK    7  A    between atoms: C7_8  and  O1_9 
REMARK    8  A    between atoms: C7_8  and  C8_11 
REMARK    9  A    between atoms: C8_11  and  C9_12 
REMARK   10  A    between atoms: C8_11  and  N2_19 
REMARK   11  A    between atoms: C9_12  and  C10_13 
REMARK       I    between atoms: N2_19  and  C16_21 
REMARK   12  A    between atoms: C16_21  and  O3_23 
REMARK   13  A    between atoms: O3_23  and  C17_24 
REMARK   14  A    between atoms: C17_24  and  C18_25 
REMARK   15  A    between atoms: C18_25  and  C20_27 
REMARK   16  A    between atoms: C20_27  and  O5_29 
REMARK   17  A    between atoms: S1_31  and  C22_34 
REMARK   18  A    between atoms: C25_37  and  O8_38 
ROOT
HETATM    1  C7  UNL     1      19.506  30.735  16.394  1.00  0.00     0.155 C 
ENDROOT
BRANCH   1   2
HETATM    2  C6  UNL     1      20.204  32.042  16.514  1.00  0.00     0.141 C 
BRANCH   2   3
HETATM    3  N1  UNL     1      21.556  32.020  15.988  1.00  0.00    -0.204 NA
BRANCH   3   4
HETATM    4  C5  UNL     1      22.297  33.144  16.520  1.00  0.00     0.112 C 
BRANCH   4   5
HETATM    5  C3  UNL     1      21.379  34.183  17.154  1.00  0.00    -0.005 C 
HETATM    6  C4  UNL     1      21.836  34.562  18.526  1.00  0.00     0.011 C 
BRANCH   5   7
HETATM    7  C2  UNL     1      21.434  35.386  16.211  1.00  0.00     0.001 C 
HETATM    8  C1  UNL     1      21.903  36.635  16.888  1.00  0.00     0.005 C 
ENDBRANCH   5   7
ENDBRANCH   4   5
ENDBRANCH   3   4
BRANCH   3   9
HETATM    9  S1  UNL     1      21.547  32.155  14.274  1.00  0.00     0.243 S 
HETATM   10  O6  UNL     1      20.333  32.930  13.801  1.00  0.00    -0.206 OA
HETATM   11  O7  UNL     1      22.781  32.921  13.865  1.00  0.00    -0.206 OA
BRANCH   9  12
HETATM   12  C22 UNL     1      21.493  30.615  13.457  1.00  0.00     0.074 A 
HETATM   13  C23 UNL     1      21.929  29.466  14.111  1.00  0.00     0.027 A 
HETATM   14  C24 UNL     1      21.913  28.237  13.531  1.00  0.00     0.038 A 
HETATM   15  C25 UNL     1      21.452  28.092  12.247  1.00  0.00     0.068 A 
HETATM   16  C27 UNL     1      21.010  29.188  11.552  1.00  0.00     0.038 A 
HETATM   17  C28 UNL     1      21.037  30.439  12.168  1.00  0.00     0.027 A 
BRANCH  15  18
HETATM   18  O8  UNL     1      21.439  26.838  11.665  1.00  0.00    -0.356 OA
HETATM   19  C26 UNL     1      22.624  26.119  11.398  1.00  0.00     0.210 C 
ENDBRANCH  15  18
ENDBRANCH   9  12
ENDBRANCH   3   9
ENDBRANCH   2   3
ENDBRANCH   1   2
BRANCH   1  20
HETATM   20  O1  UNL     1      19.440  29.957  17.521  1.00  0.00    -0.392 OA
ATOM     21  H1  UNL     1      18.984  29.127  17.448  1.00  0.00     0.210 HD
ENDBRANCH   1  20
BRANCH   1  22
HETATM   22  C8  UNL     1      18.309  30.723  15.513  1.00  0.00     0.120 C 
BRANCH  22  23
HETATM   23  C9  UNL     1      16.993  31.049  16.145  1.00  0.00     0.066 C 
BRANCH  23  24
HETATM   24  C10 UNL     1      16.634  32.449  15.967  1.00  0.00    -0.056 A 
HETATM   25  C11 UNL     1      15.887  33.147  16.883  1.00  0.00     0.007 A 
HETATM   26  C12 UNL     1      15.601  34.497  16.728  1.00  0.00     0.001 A 
HETATM   27  C13 UNL     1      16.060  35.181  15.644  1.00  0.00     0.000 A 
HETATM   28  C14 UNL     1      16.813  34.485  14.717  1.00  0.00     0.001 A 
HETATM   29  C15 UNL     1      17.098  33.167  14.860  1.00  0.00     0.007 A 
ENDBRANCH  23  24
ENDBRANCH  22  23
BRANCH  22  30
HETATM   30  N2  UNL     1      18.179  29.363  14.891  1.00  0.00    -0.329 N 
HETATM   31  C16 UNL     1      17.839  29.283  13.527  1.00  0.00     0.360 C 
HETATM   32  O2  UNL     1      17.653  30.322  12.866  1.00  0.00    -0.239 OA
ATOM     33  H2  UNL     1      18.333  28.519  15.443  1.00  0.00     0.165 HD
BRANCH  31  34
HETATM   34  O3  UNL     1      17.695  28.062  12.860  1.00  0.00    -0.303 OA
BRANCH  34  35
HETATM   35  C17 UNL     1      17.707  28.053  11.442  1.00  0.00     0.194 C 
BRANCH  35  36
HETATM   36  C18 UNL     1      17.676  26.601  10.978  1.00  0.00     0.106 C 
HETATM   37  C19 UNL     1      18.104  25.662  12.068  1.00  0.00     0.022 C 
BRANCH  36  38
HETATM   38  C20 UNL     1      18.485  26.412   9.767  1.00  0.00     0.264 C 
HETATM   39  O4  UNL     1      19.195  25.396   9.642  1.00  0.00    -0.265 OA
BRANCH  38  40
HETATM   40  O5  UNL     1      18.463  27.355   8.765  1.00  0.00    -0.326 OA
HETATM   41  C21 UNL     1      18.110  27.075   7.428  1.00  0.00     0.213 C 
ENDBRANCH  38  40
ENDBRANCH  36  38
ENDBRANCH  35  36
ENDBRANCH  34  35
ENDBRANCH  31  34
ENDBRANCH  22  30
ENDBRANCH   1  22
TORSDOF 18
ENDMDL
