MODEL 2
REMARK VINA RESULT: -7.881404287      2.256      8.381
REMARK  18 active torsions:
REMARK  status: ('A' for Active; 'I' for Inactive)
REMARK    1  A    between atoms: C2_2  and  C3_3 
REMARK    2  A    between atoms: C3_3  and  C5_5 
REMARK    3  A    between atoms: C5_5  and  N1_6 
REMARK    4  A    between atoms: N1_6  and  C6_7 
REMARK    5  A    between atoms: N1_6  and  S1_31 
REMARK    6  A    between atoms: C6_7  and  C7_8 
REMARK    7  A    between atoms: C7_8  and  O1_9 
REMARK    8  A    between atoms: C7_8  and  C8_11 
REMARK    9  A    between atoms: C8_11  and  C9_12 
REMARK   10  A    between atoms: C8_11  and  N2_19 
REMARK   11  A    between atoms: C9_12  and  C10_13 
REMARK       I    between atoms: N2_19  and  C16_21 
REMARK   12  A    between atoms: C16_21  and  O3_23 
REMARK   13  A    between atoms: O3_23  and  C17_24 
REMARK   14  A    between atoms: C17_24  and  C18_25 
REMARK   15  A    between atoms: C18_25  and  C20_27 
REMARK   16  A    between atoms: C20_27  and  O5_29 
REMARK   17  A    between atoms: S1_31  and  C22_34 
REMARK   18  A    between atoms: C25_37  and  O8_38 
ROOT
HETATM    1  C7  UNL     1      19.911  29.152  15.216  1.00  0.00     0.155 C 
ENDROOT
BRANCH   1   2
HETATM    2  C6  UNL     1      19.228  30.349  15.773  1.00  0.00     0.141 C 
BRANCH   2   3
HETATM    3  N1  UNL     1      19.580  31.580  15.091  1.00  0.00    -0.204 NA
BRANCH   3   4
HETATM    4  C5  UNL     1      20.292  32.449  16.005  1.00  0.00     0.112 C 
BRANCH   4   5
HETATM    5  C3  UNL     1      21.789  32.479  15.714  1.00  0.00    -0.005 C 
HETATM    6  C4  UNL     1      22.065  32.529  14.245  1.00  0.00     0.011 C 
BRANCH   5   7
HETATM    7  C2  UNL     1      22.301  33.743  16.406  1.00  0.00     0.001 C 
HETATM    8  C1  UNL     1      21.476  34.951  16.097  1.00  0.00     0.005 C 
ENDBRANCH   5   7
ENDBRANCH   4   5
ENDBRANCH   3   4
BRANCH   3   9
HETATM    9  S1  UNL     1      18.171  32.408  14.559  1.00  0.00     0.243 S 
HETATM   10  O6  UNL     1      18.528  33.500  13.570  1.00  0.00    -0.206 OA
HETATM   11  O7  UNL     1      17.287  31.409  13.854  1.00  0.00    -0.206 OA
BRANCH   9  12
HETATM   12  C22 UNL     1      17.295  33.185  15.851  1.00  0.00     0.074 A 
HETATM   13  C23 UNL     1      17.822  34.318  16.465  1.00  0.00     0.027 A 
HETATM   14  C24 UNL     1      17.189  34.970  17.476  1.00  0.00     0.038 A 
HETATM   15  C25 UNL     1      15.977  34.516  17.931  1.00  0.00     0.068 A 
HETATM   16  C27 UNL     1      15.409  33.404  17.365  1.00  0.00     0.038 A 
HETATM   17  C28 UNL     1      16.077  32.752  16.329  1.00  0.00     0.027 A 
BRANCH  15  18
HETATM   18  O8  UNL     1      15.342  35.186  18.959  1.00  0.00    -0.356 OA
HETATM   19  C26 UNL     1      15.250  36.594  19.000  1.00  0.00     0.210 C 
ENDBRANCH  15  18
ENDBRANCH   9  12
ENDBRANCH   3   9
ENDBRANCH   2   3
ENDBRANCH   1   2
BRANCH   1  20
HETATM   20  O1  UNL     1      20.229  28.148  16.095  1.00  0.00    -0.392 OA
ATOM     21  H1  UNL     1      20.738  27.422  15.756  1.00  0.00     0.210 HD
ENDBRANCH   1  20
BRANCH   1  22
HETATM   22  C8  UNL     1      19.466  28.728  13.863  1.00  0.00     0.120 C 
BRANCH  22  23
HETATM   23  C9  UNL     1      18.282  27.816  13.789  1.00  0.00     0.066 C 
BRANCH  23  24
HETATM   24  C10 UNL     1      17.955  27.455  12.417  1.00  0.00    -0.056 A 
HETATM   25  C11 UNL     1      17.621  28.384  11.463  1.00  0.00     0.007 A 
HETATM   26  C12 UNL     1      17.368  28.029  10.145  1.00  0.00     0.001 A 
HETATM   27  C13 UNL     1      17.445  26.727   9.751  1.00  0.00     0.000 A 
HETATM   28  C14 UNL     1      17.781  25.787  10.707  1.00  0.00     0.001 A 
HETATM   29  C15 UNL     1      18.030  26.122  11.996  1.00  0.00     0.007 A 
ENDBRANCH  23  24
ENDBRANCH  22  23
BRANCH  22  30
HETATM   30  N2  UNL     1      20.604  28.035  13.173  1.00  0.00    -0.329 N 
HETATM   31  C16 UNL     1      21.309  28.739  12.178  1.00  0.00     0.360 C 
HETATM   32  O2  UNL     1      20.984  29.906  11.887  1.00  0.00    -0.239 OA
ATOM     33  H2  UNL     1      20.861  27.078  13.418  1.00  0.00     0.165 HD
BRANCH  31  34
HETATM   34  O3  UNL     1      22.384  28.177  11.479  1.00  0.00    -0.303 OA
BRANCH  34  35
HETATM   35  C17 UNL     1      22.895  26.925  11.904  1.00  0.00     0.194 C 
BRANCH  35  36
HETATM   36  C18 UNL     1      22.611  25.902  10.810  1.00  0.00     0.106 C 
HETATM   37  C19 UNL     1      21.476  24.994  11.185  1.00  0.00     0.022 C 
BRANCH  36  38
HETATM   38  C20 UNL     1      23.816  25.133  10.474  1.00  0.00     0.264 C 
HETATM   39  O4  UNL     1      24.758  25.060  11.287  1.00  0.00    -0.265 OA
BRANCH  38  40
HETATM   40  O5  UNL     1      23.912  24.490   9.261  1.00  0.00    -0.326 OA
HETATM   41  C21 UNL     1      23.951  25.155   8.018  1.00  0.00     0.213 C 
ENDBRANCH  38  40
ENDBRANCH  36  38
ENDBRANCH  35  36
ENDBRANCH  34  35
ENDBRANCH  31  34
ENDBRANCH  22  30
ENDBRANCH   1  22
TORSDOF 18
ENDMDL
