MODEL 10
REMARK VINA RESULT: -7.546373045      2.426      5.841
REMARK  18 active torsions:
REMARK  status: ('A' for Active; 'I' for Inactive)
REMARK    1  A    between atoms: C2_2  and  C3_3 
REMARK    2  A    between atoms: C3_3  and  C5_5 
REMARK    3  A    between atoms: C5_5  and  N1_6 
REMARK    4  A    between atoms: N1_6  and  C6_7 
REMARK    5  A    between atoms: N1_6  and  S1_31 
REMARK    6  A    between atoms: C6_7  and  C7_8 
REMARK    7  A    between atoms: C7_8  and  O1_9 
REMARK    8  A    between atoms: C7_8  and  C8_11 
REMARK    9  A    between atoms: C8_11  and  C9_12 
REMARK   10  A    between atoms: C8_11  and  N2_19 
REMARK   11  A    between atoms: C9_12  and  C10_13 
REMARK       I    between atoms: N2_19  and  C16_21 
REMARK   12  A    between atoms: C16_21  and  O3_23 
REMARK   13  A    between atoms: O3_23  and  C17_24 
REMARK   14  A    between atoms: C17_24  and  C18_25 
REMARK   15  A    between atoms: C18_25  and  C20_27 
REMARK   16  A    between atoms: C20_27  and  O5_29 
REMARK   17  A    between atoms: S1_31  and  C22_34 
REMARK   18  A    between atoms: C25_37  and  O8_38 
ROOT
HETATM    1  C7  UNL     1      20.049  30.303  15.292  1.00  0.00     0.155 C 
ENDROOT
BRANCH   1   2
HETATM    2  C6  UNL     1      20.750  30.120  13.993  1.00  0.00     0.141 C 
BRANCH   2   3
HETATM    3  N1  UNL     1      20.386  28.891  13.314  1.00  0.00    -0.204 NA
BRANCH   3   4
HETATM    4  C5  UNL     1      21.244  28.707  12.162  1.00  0.00     0.112 C 
BRANCH   4   5
HETATM    5  C3  UNL     1      21.951  27.356  12.188  1.00  0.00    -0.005 C 
HETATM    6  C4  UNL     1      21.743  26.600  10.915  1.00  0.00     0.011 C 
BRANCH   5   7
HETATM    7  C2  UNL     1      23.430  27.688  12.388  1.00  0.00     0.001 C 
HETATM    8  C1  UNL     1      24.342  26.723  11.698  1.00  0.00     0.005 C 
ENDBRANCH   5   7
ENDBRANCH   4   5
ENDBRANCH   3   4
BRANCH   3   9
HETATM    9  S1  UNL     1      18.761  28.958  12.760  1.00  0.00     0.243 S 
HETATM   10  O6  UNL     1      17.790  28.802  13.914  1.00  0.00    -0.206 OA
HETATM   11  O7  UNL     1      18.539  30.318  12.143  1.00  0.00    -0.206 OA
BRANCH   9  12
HETATM   12  C22 UNL     1      18.365  27.704  11.614  1.00  0.00     0.074 A 
HETATM   13  C23 UNL     1      18.248  26.385  12.042  1.00  0.00     0.027 A 
HETATM   14  C24 UNL     1      17.942  25.362  11.201  1.00  0.00     0.038 A 
HETATM   15  C25 UNL     1      17.734  25.610   9.868  1.00  0.00     0.068 A 
HETATM   16  C27 UNL     1      17.837  26.890   9.388  1.00  0.00     0.038 A 
HETATM   17  C28 UNL     1      18.153  27.923  10.271  1.00  0.00     0.027 A 
BRANCH  15  18
HETATM   18  O8  UNL     1      17.424  24.564   9.021  1.00  0.00    -0.356 OA
HETATM   19  C26 UNL     1      16.906  24.771   7.723  1.00  0.00     0.210 C 
ENDBRANCH  15  18
ENDBRANCH   9  12
ENDBRANCH   3   9
ENDBRANCH   2   3
ENDBRANCH   1   2
BRANCH   1  20
HETATM   20  O1  UNL     1      20.097  29.259  16.180  1.00  0.00    -0.392 OA
ATOM     21  H1  UNL     1      19.997  29.470  17.101  1.00  0.00     0.210 HD
ENDBRANCH   1  20
BRANCH   1  22
HETATM   22  C8  UNL     1      20.119  31.668  15.874  1.00  0.00     0.120 C 
BRANCH  22  23
HETATM   23  C9  UNL     1      21.314  31.991  16.716  1.00  0.00     0.066 C 
BRANCH  23  24
HETATM   24  C10 UNL     1      21.488  33.426  16.890  1.00  0.00    -0.056 A 
HETATM   25  C11 UNL     1      21.988  33.980  18.042  1.00  0.00     0.007 A 
HETATM   26  C12 UNL     1      22.202  35.345  18.172  1.00  0.00     0.001 A 
HETATM   27  C13 UNL     1      21.919  36.192  17.142  1.00  0.00     0.000 A 
HETATM   28  C14 UNL     1      21.415  35.641  15.979  1.00  0.00     0.001 A 
HETATM   29  C15 UNL     1      21.203  34.309  15.842  1.00  0.00     0.007 A 
ENDBRANCH  23  24
ENDBRANCH  22  23
BRANCH  22  30
HETATM   30  N2  UNL     1      18.903  31.896  16.723  1.00  0.00    -0.329 N 
HETATM   31  C16 UNL     1      17.783  32.512  16.133  1.00  0.00     0.360 C 
HETATM   32  O2  UNL     1      17.816  32.855  14.936  1.00  0.00    -0.239 OA
ATOM     33  H2  UNL     1      18.888  31.612  17.703  1.00  0.00     0.165 HD
BRANCH  31  34
HETATM   34  O3  UNL     1      16.604  32.767  16.843  1.00  0.00    -0.303 OA
BRANCH  34  35
HETATM   35  C17 UNL     1      15.781  33.846  16.435  1.00  0.00     0.194 C 
BRANCH  35  36
HETATM   36  C18 UNL     1      15.896  34.951  17.479  1.00  0.00     0.106 C 
HETATM   37  C19 UNL     1      14.562  35.575  17.772  1.00  0.00     0.022 C 
BRANCH  36  38
HETATM   38  C20 UNL     1      16.878  35.965  17.075  1.00  0.00     0.264 C 
HETATM   39  O4  UNL     1      16.567  36.842  16.248  1.00  0.00    -0.265 OA
BRANCH  38  40
HETATM   40  O5  UNL     1      18.147  35.950  17.609  1.00  0.00    -0.326 OA
HETATM   41  C21 UNL     1      18.524  35.170  18.722  1.00  0.00     0.213 C 
ENDBRANCH  38  40
ENDBRANCH  36  38
ENDBRANCH  35  36
ENDBRANCH  34  35
ENDBRANCH  31  34
ENDBRANCH  22  30
ENDBRANCH   1  22
TORSDOF 18
ENDMDL
