MODEL 2
REMARK VINA RESULT: -9.026953482      2.211      7.022
REMARK  17 active torsions:
REMARK  status: ('A' for Active; 'I' for Inactive)
REMARK    1  A    between atoms: C2_2  and  C3_3 
REMARK    2  A    between atoms: C3_3  and  C5_5 
REMARK    3  A    between atoms: C5_5  and  N1_6 
REMARK    4  A    between atoms: N1_6  and  C6_7 
REMARK    5  A    between atoms: N1_6  and  S1_33 
REMARK    6  A    between atoms: C6_7  and  C7_8 
REMARK    7  A    between atoms: C7_8  and  O1_9 
REMARK    8  A    between atoms: C7_8  and  C8_11 
REMARK    9  A    between atoms: C8_11  and  C9_12 
REMARK   10  A    between atoms: C8_11  and  N2_19 
REMARK   11  A    between atoms: C9_12  and  C10_13 
REMARK       I    between atoms: N2_19  and  C16_21 
REMARK   12  A    between atoms: C16_21  and  O3_23 
REMARK   13  A    between atoms: O3_23  and  C17_24 
REMARK   14  A    between atoms: C17_24  and  C18_25 
REMARK   15  A    between atoms: C18_25  and  N3_26 
REMARK   16  A    between atoms: S1_33  and  C22_36 
REMARK   17  A    between atoms: C25_39  and  O7_40 
ROOT
HETATM    1  C8  UNL     1      -7.490  -2.906 -14.852  1.00  0.00     0.120 C 
ENDROOT
BRANCH   1   2
HETATM    2  C7  UNL     1      -6.532  -2.212 -15.752  1.00  0.00     0.155 C 
BRANCH   2   3
HETATM    3  C6  UNL     1      -5.400  -2.976 -16.315  1.00  0.00     0.141 C 
BRANCH   3   4
HETATM    4  N1  UNL     1      -4.794  -3.799 -15.290  1.00  0.00    -0.204 NA
BRANCH   4   5
HETATM    5  C5  UNL     1      -4.738  -5.160 -15.712  1.00  0.00     0.112 C 
BRANCH   5   6
HETATM    6  C3  UNL     1      -4.736  -5.359 -17.208  1.00  0.00    -0.005 C 
HETATM    7  C4  UNL     1      -3.366  -5.761 -17.717  1.00  0.00     0.011 C 
BRANCH   6   8
HETATM    8  C2  UNL     1      -5.748  -6.440 -17.531  1.00  0.00     0.001 C 
HETATM    9  C1  UNL     1      -6.641  -6.019 -18.659  1.00  0.00     0.005 C 
ENDBRANCH   6   8
ENDBRANCH   5   6
ENDBRANCH   4   5
BRANCH   4  10
HETATM   10  S1  UNL     1      -3.357  -3.193 -14.629  1.00  0.00     0.243 S 
HETATM   11  O5  UNL     1      -2.776  -4.253 -13.687  1.00  0.00    -0.206 OA
HETATM   12  O6  UNL     1      -2.282  -2.968 -15.654  1.00  0.00    -0.206 OA
BRANCH  10  13
HETATM   13  C22 UNL     1      -3.607  -1.787 -13.635  1.00  0.00     0.074 A 
HETATM   14  C23 UNL     1      -3.515  -0.526 -14.175  1.00  0.00     0.027 A 
HETATM   15  C24 UNL     1      -3.694   0.615 -13.423  1.00  0.00     0.038 A 
HETATM   16  C25 UNL     1      -3.979   0.520 -12.063  1.00  0.00     0.068 A 
HETATM   17  C27 UNL     1      -4.074  -0.728 -11.515  1.00  0.00     0.038 A 
HETATM   18  C28 UNL     1      -3.893  -1.854 -12.286  1.00  0.00     0.027 A 
BRANCH  16  19
HETATM   19  O7  UNL     1      -4.158   1.694 -11.312  1.00  0.00    -0.356 OA
HETATM   20  C26 UNL     1      -3.353   2.837 -11.551  1.00  0.00     0.210 C 
ENDBRANCH  16  19
ENDBRANCH  10  13
ENDBRANCH   4  10
ENDBRANCH   3   4
ENDBRANCH   2   3
BRANCH   2  21
HETATM   21  O1  UNL     1      -7.249  -1.559 -16.757  1.00  0.00    -0.392 OA
ATOM     22  H1  UNL     1      -8.167  -1.481 -16.527  1.00  0.00     0.210 HD
ENDBRANCH   2  21
ENDBRANCH   1   2
BRANCH   1  23
HETATM   23  C9  UNL     1      -8.857  -3.047 -15.483  1.00  0.00     0.066 C 
BRANCH  23  24
HETATM   24  C10 UNL     1      -9.192  -4.357 -15.996  1.00  0.00    -0.056 A 
HETATM   25  C11 UNL     1      -8.784  -5.546 -15.473  1.00  0.00     0.007 A 
HETATM   26  C12 UNL     1      -9.128  -6.792 -16.020  1.00  0.00     0.001 A 
HETATM   27  C13 UNL     1      -9.916  -6.824 -17.136  1.00  0.00     0.000 A 
HETATM   28  C14 UNL     1     -10.350  -5.658 -17.697  1.00  0.00     0.001 A 
HETATM   29  C15 UNL     1      -9.997  -4.453 -17.140  1.00  0.00     0.007 A 
ENDBRANCH  23  24
ENDBRANCH   1  23
BRANCH   1  30
HETATM   30  N2  UNL     1      -7.467  -2.448 -13.509  1.00  0.00    -0.329 N 
HETATM   31  C16 UNL     1      -7.433  -1.104 -13.114  1.00  0.00     0.361 C 
HETATM   32  O2  UNL     1      -7.412  -0.198 -13.962  1.00  0.00    -0.239 OA
ATOM     33  H2  UNL     1      -7.477  -3.153 -12.773  1.00  0.00     0.165 HD
BRANCH  31  34
HETATM   34  O3  UNL     1      -7.423  -0.830 -11.771  1.00  0.00    -0.302 OA
BRANCH  34  35
HETATM   35  C17 UNL     1      -8.102   0.208 -11.165  1.00  0.00     0.200 C 
BRANCH  35  36
HETATM   36  C18 UNL     1      -7.380   0.940 -10.078  1.00  0.00     0.154 C 
BRANCH  36  37
HETATM   37  N3  UNL     1      -7.510   2.353 -10.371  1.00  0.00    -0.331 N 
HETATM   38  C19 UNL     1      -7.359   2.902 -11.723  1.00  0.00     0.147 C 
HETATM   39  C20 UNL     1      -6.808   4.300 -11.474  1.00  0.00     0.144 C 
HETATM   40  N4  UNL     1      -7.360   4.606 -10.166  1.00  0.00    -0.341 N 
HETATM   41  C21 UNL     1      -7.782   3.444  -9.489  1.00  0.00     0.318 C 
ATOM     42  H4  UNL     1      -7.433   5.549  -9.783  1.00  0.00     0.164 HD
HETATM   43  O4  UNL     1      -8.302   3.289  -8.346  1.00  0.00    -0.247 OA
ENDBRANCH  36  37
ENDBRANCH  35  36
ENDBRANCH  34  35
ENDBRANCH  31  34
ENDBRANCH   1  30
TORSDOF 17
ENDMDL
