MODEL 4
REMARK VINA RESULT: -8.815986472      2.284      6.517
REMARK  17 active torsions:
REMARK  status: ('A' for Active; 'I' for Inactive)
REMARK    1  A    between atoms: C2_2  and  C3_3 
REMARK    2  A    between atoms: C3_3  and  C5_5 
REMARK    3  A    between atoms: C5_5  and  N1_6 
REMARK    4  A    between atoms: N1_6  and  C6_7 
REMARK    5  A    between atoms: N1_6  and  S1_33 
REMARK    6  A    between atoms: C6_7  and  C7_8 
REMARK    7  A    between atoms: C7_8  and  O1_9 
REMARK    8  A    between atoms: C7_8  and  C8_11 
REMARK    9  A    between atoms: C8_11  and  C9_12 
REMARK   10  A    between atoms: C8_11  and  N2_19 
REMARK   11  A    between atoms: C9_12  and  C10_13 
REMARK       I    between atoms: N2_19  and  C16_21 
REMARK   12  A    between atoms: C16_21  and  O3_23 
REMARK   13  A    between atoms: O3_23  and  C17_24 
REMARK   14  A    between atoms: C17_24  and  C18_25 
REMARK   15  A    between atoms: C18_25  and  N3_26 
REMARK   16  A    between atoms: S1_33  and  C22_36 
REMARK   17  A    between atoms: C25_39  and  O7_40 
ROOT
HETATM    1  C8  UNL     1      -6.907  -1.480 -15.307  1.00  0.00     0.120 C 
ENDROOT
BRANCH   1   2
HETATM    2  C7  UNL     1      -5.576  -1.474 -15.968  1.00  0.00     0.155 C 
BRANCH   2   3
HETATM    3  C6  UNL     1      -5.004  -2.754 -16.432  1.00  0.00     0.141 C 
BRANCH   3   4
HETATM    4  N1  UNL     1      -4.623  -3.571 -15.299  1.00  0.00    -0.204 NA
BRANCH   4   5
HETATM    5  C5  UNL     1      -4.698  -4.955 -15.636  1.00  0.00     0.112 C 
BRANCH   5   6
HETATM    6  C3  UNL     1      -4.845  -5.241 -17.111  1.00  0.00    -0.005 C 
HETATM    7  C4  UNL     1      -3.575  -5.823 -17.696  1.00  0.00     0.011 C 
BRANCH   6   8
HETATM    8  C2  UNL     1      -5.991  -6.218 -17.279  1.00  0.00     0.001 C 
HETATM    9  C1  UNL     1      -6.600  -6.100 -18.644  1.00  0.00     0.005 C 
ENDBRANCH   6   8
ENDBRANCH   5   6
ENDBRANCH   4   5
BRANCH   4  10
HETATM   10  S1  UNL     1      -3.201  -3.100 -14.510  1.00  0.00     0.243 S 
HETATM   11  O5  UNL     1      -2.748  -4.252 -13.606  1.00  0.00    -0.206 OA
HETATM   12  O6  UNL     1      -2.048  -2.880 -15.448  1.00  0.00    -0.206 OA
BRANCH  10  13
HETATM   13  C22 UNL     1      -3.434  -1.746 -13.442  1.00  0.00     0.074 A 
HETATM   14  C23 UNL     1      -2.820  -0.543 -13.697  1.00  0.00     0.027 A 
HETATM   15  C24 UNL     1      -2.967   0.552 -12.873  1.00  0.00     0.038 A 
HETATM   16  C25 UNL     1      -3.760   0.467 -11.731  1.00  0.00     0.068 A 
HETATM   17  C27 UNL     1      -4.376  -0.724 -11.467  1.00  0.00     0.038 A 
HETATM   18  C28 UNL     1      -4.215  -1.803 -12.306  1.00  0.00     0.027 A 
BRANCH  16  19
HETATM   19  O7  UNL     1      -3.898   1.593 -10.902  1.00  0.00    -0.356 OA
HETATM   20  C26 UNL     1      -3.486   2.875 -11.346  1.00  0.00     0.210 C 
ENDBRANCH  16  19
ENDBRANCH  10  13
ENDBRANCH   4  10
ENDBRANCH   3   4
ENDBRANCH   2   3
BRANCH   2  21
HETATM   21  O1  UNL     1      -5.586  -0.526 -16.993  1.00  0.00    -0.392 OA
ATOM     22  H1  UNL     1      -4.740  -0.102 -17.076  1.00  0.00     0.210 HD
ENDBRANCH   2  21
ENDBRANCH   1   2
BRANCH   1  23
HETATM   23  C9  UNL     1      -7.976  -2.076 -16.194  1.00  0.00     0.066 C 
BRANCH  23  24
HETATM   24  C10 UNL     1      -8.375  -3.433 -15.894  1.00  0.00    -0.056 A 
HETATM   25  C11 UNL     1      -9.170  -4.221 -16.671  1.00  0.00     0.007 A 
HETATM   26  C12 UNL     1      -9.538  -5.529 -16.326  1.00  0.00     0.001 A 
HETATM   27  C13 UNL     1      -9.079  -6.052 -15.149  1.00  0.00     0.000 A 
HETATM   28  C14 UNL     1      -8.279  -5.301 -14.337  1.00  0.00     0.001 A 
HETATM   29  C15 UNL     1      -7.935  -4.023 -14.700  1.00  0.00     0.007 A 
ENDBRANCH  23  24
ENDBRANCH   1  23
BRANCH   1  30
HETATM   30  N2  UNL     1      -7.243  -0.264 -14.657  1.00  0.00    -0.329 N 
HETATM   31  C16 UNL     1      -7.638  -0.147 -13.317  1.00  0.00     0.361 C 
HETATM   32  O2  UNL     1      -7.727  -1.152 -12.596  1.00  0.00    -0.239 OA
ATOM     33  H2  UNL     1      -7.193   0.592 -15.208  1.00  0.00     0.165 HD
BRANCH  31  34
HETATM   34  O3  UNL     1      -7.921   1.106 -12.840  1.00  0.00    -0.302 OA
BRANCH  34  35
HETATM   35  C17 UNL     1      -7.200   1.769 -11.866  1.00  0.00     0.200 C 
BRANCH  35  36
HETATM   36  C18 UNL     1      -7.188   3.264 -11.940  1.00  0.00     0.154 C 
BRANCH  36  37
HETATM   37  N3  UNL     1      -7.017   3.745 -10.584  1.00  0.00    -0.331 N 
HETATM   38  C19 UNL     1      -7.362   2.944  -9.405  1.00  0.00     0.147 C 
HETATM   39  C20 UNL     1      -7.767   3.989  -8.376  1.00  0.00     0.144 C 
HETATM   40  N4  UNL     1      -6.978   5.135  -8.793  1.00  0.00    -0.341 N 
HETATM   41  C21 UNL     1      -6.524   5.004 -10.122  1.00  0.00     0.318 C 
ATOM     42  H4  UNL     1      -6.777   5.938  -8.197  1.00  0.00     0.164 HD
HETATM   43  O4  UNL     1      -5.825   5.775 -10.842  1.00  0.00    -0.247 OA
ENDBRANCH  36  37
ENDBRANCH  35  36
ENDBRANCH  34  35
ENDBRANCH  31  34
ENDBRANCH   1  30
TORSDOF 17
ENDMDL
