MODEL 5
REMARK VINA RESULT: -8.811706621      3.385      9.021
REMARK  17 active torsions:
REMARK  status: ('A' for Active; 'I' for Inactive)
REMARK    1  A    between atoms: C2_2  and  C3_3 
REMARK    2  A    between atoms: C3_3  and  C5_5 
REMARK    3  A    between atoms: C5_5  and  N1_6 
REMARK    4  A    between atoms: N1_6  and  C6_7 
REMARK    5  A    between atoms: N1_6  and  S1_33 
REMARK    6  A    between atoms: C6_7  and  C7_8 
REMARK    7  A    between atoms: C7_8  and  O1_9 
REMARK    8  A    between atoms: C7_8  and  C8_11 
REMARK    9  A    between atoms: C8_11  and  C9_12 
REMARK   10  A    between atoms: C8_11  and  N2_19 
REMARK   11  A    between atoms: C9_12  and  C10_13 
REMARK       I    between atoms: N2_19  and  C16_21 
REMARK   12  A    between atoms: C16_21  and  O3_23 
REMARK   13  A    between atoms: O3_23  and  C17_24 
REMARK   14  A    between atoms: C17_24  and  C18_25 
REMARK   15  A    between atoms: C18_25  and  N3_26 
REMARK   16  A    between atoms: S1_33  and  C22_36 
REMARK   17  A    between atoms: C25_39  and  O7_40 
ROOT
HETATM    1  C8  UNL     1      -7.369  -2.529 -15.597  1.00  0.00     0.120 C 
ENDROOT
BRANCH   1   2
HETATM    2  C7  UNL     1      -6.066  -2.156 -16.207  1.00  0.00     0.155 C 
BRANCH   2   3
HETATM    3  C6  UNL     1      -5.117  -3.227 -16.573  1.00  0.00     0.141 C 
BRANCH   3   4
HETATM    4  N1  UNL     1      -4.651  -3.910 -15.384  1.00  0.00    -0.204 NA
BRANCH   4   5
HETATM    5  C5  UNL     1      -4.609  -5.319 -15.604  1.00  0.00     0.112 C 
BRANCH   5   6
HETATM    6  C3  UNL     1      -4.173  -5.731 -16.989  1.00  0.00    -0.005 C 
HETATM    7  C4  UNL     1      -2.744  -6.236 -16.998  1.00  0.00     0.011 C 
BRANCH   6   8
HETATM    8  C2  UNL     1      -5.113  -6.822 -17.463  1.00  0.00     0.001 C 
HETATM    9  C1  UNL     1      -5.536  -6.586 -18.881  1.00  0.00     0.005 C 
ENDBRANCH   6   8
ENDBRANCH   5   6
ENDBRANCH   4   5
BRANCH   4  10
HETATM   10  S1  UNL     1      -3.266  -3.253 -14.666  1.00  0.00     0.243 S 
HETATM   11  O5  UNL     1      -2.675  -4.300 -13.714  1.00  0.00    -0.206 OA
HETATM   12  O6  UNL     1      -2.164  -2.973 -15.649  1.00  0.00    -0.206 OA
BRANCH  10  13
HETATM   13  C22 UNL     1      -3.609  -1.870 -13.668  1.00  0.00     0.074 A 
HETATM   14  C23 UNL     1      -3.460  -0.598 -14.166  1.00  0.00     0.027 A 
HETATM   15  C24 UNL     1      -3.710   0.527 -13.409  1.00  0.00     0.038 A 
HETATM   16  C25 UNL     1      -4.128   0.401 -12.086  1.00  0.00     0.068 A 
HETATM   17  C27 UNL     1      -4.280  -0.859 -11.580  1.00  0.00     0.038 A 
HETATM   18  C28 UNL     1      -4.026  -1.967 -12.356  1.00  0.00     0.027 A 
BRANCH  16  19
HETATM   19  O7  UNL     1      -4.377   1.558 -11.328  1.00  0.00    -0.356 OA
HETATM   20  C26 UNL     1      -3.713   2.775 -11.624  1.00  0.00     0.210 C 
ENDBRANCH  16  19
ENDBRANCH  10  13
ENDBRANCH   4  10
ENDBRANCH   3   4
ENDBRANCH   2   3
BRANCH   2  21
HETATM   21  O1  UNL     1      -6.301  -1.302 -17.286  1.00  0.00    -0.392 OA
ATOM     22  H1  UNL     1      -6.898  -1.696 -17.911  1.00  0.00     0.210 HD
ENDBRANCH   2  21
ENDBRANCH   1   2
BRANCH   1  23
HETATM   23  C9  UNL     1      -7.342  -2.413 -14.090  1.00  0.00     0.066 C 
BRANCH  23  24
HETATM   24  C10 UNL     1      -7.473  -1.077 -13.549  1.00  0.00    -0.056 A 
HETATM   25  C11 UNL     1      -7.282   0.083 -14.236  1.00  0.00     0.007 A 
HETATM   26  C12 UNL     1      -7.408   1.355 -13.659  1.00  0.00     0.001 A 
HETATM   27  C13 UNL     1      -7.742   1.445 -12.337  1.00  0.00     0.000 A 
HETATM   28  C14 UNL     1      -7.944   0.311 -11.606  1.00  0.00     0.001 A 
HETATM   29  C15 UNL     1      -7.813  -0.921 -12.198  1.00  0.00     0.007 A 
ENDBRANCH  23  24
ENDBRANCH   1  23
BRANCH   1  30
HETATM   30  N2  UNL     1      -7.940  -3.719 -16.120  1.00  0.00    -0.329 N 
HETATM   31  C16 UNL     1      -9.299  -3.904 -16.406  1.00  0.00     0.361 C 
HETATM   32  O2  UNL     1     -10.116  -2.993 -16.199  1.00  0.00    -0.239 OA
ATOM     33  H2  UNL     1      -7.312  -4.500 -16.302  1.00  0.00     0.165 HD
BRANCH  31  34
HETATM   34  O3  UNL     1      -9.688  -5.114 -16.916  1.00  0.00    -0.302 OA
BRANCH  34  35
HETATM   35  C17 UNL     1      -8.833  -6.123 -17.316  1.00  0.00     0.200 C 
BRANCH  35  36
HETATM   36  C18 UNL     1      -8.815  -7.361 -16.476  1.00  0.00     0.154 C 
BRANCH  36  37
HETATM   37  N3  UNL     1      -8.884  -8.484 -17.389  1.00  0.00    -0.331 N 
HETATM   38  C19 UNL     1      -9.441  -8.376 -18.742  1.00  0.00     0.147 C 
HETATM   39  C20 UNL     1     -10.013  -9.764 -18.997  1.00  0.00     0.144 C 
HETATM   40  N4  UNL     1      -9.152 -10.594 -18.173  1.00  0.00    -0.341 N 
HETATM   41  C21 UNL     1      -8.469  -9.838 -17.198  1.00  0.00     0.318 C 
ATOM     42  H4  UNL     1      -9.053 -11.603 -18.287  1.00  0.00     0.164 HD
HETATM   43  O4  UNL     1      -7.646 -10.184 -16.302  1.00  0.00    -0.247 OA
ENDBRANCH  36  37
ENDBRANCH  35  36
ENDBRANCH  34  35
ENDBRANCH  31  34
ENDBRANCH   1  30
TORSDOF 17
ENDMDL
