MODEL 9
REMARK VINA RESULT: -8.661119962      2.331      4.087
REMARK  17 active torsions:
REMARK  status: ('A' for Active; 'I' for Inactive)
REMARK    1  A    between atoms: C2_2  and  C3_3 
REMARK    2  A    between atoms: C3_3  and  C5_5 
REMARK    3  A    between atoms: C5_5  and  N1_6 
REMARK    4  A    between atoms: N1_6  and  C6_7 
REMARK    5  A    between atoms: N1_6  and  S1_33 
REMARK    6  A    between atoms: C6_7  and  C7_8 
REMARK    7  A    between atoms: C7_8  and  O1_9 
REMARK    8  A    between atoms: C7_8  and  C8_11 
REMARK    9  A    between atoms: C8_11  and  C9_12 
REMARK   10  A    between atoms: C8_11  and  N2_19 
REMARK   11  A    between atoms: C9_12  and  C10_13 
REMARK       I    between atoms: N2_19  and  C16_21 
REMARK   12  A    between atoms: C16_21  and  O3_23 
REMARK   13  A    between atoms: O3_23  and  C17_24 
REMARK   14  A    between atoms: C17_24  and  C18_25 
REMARK   15  A    between atoms: C18_25  and  N3_26 
REMARK   16  A    between atoms: S1_33  and  C22_36 
REMARK   17  A    between atoms: C25_39  and  O7_40 
ROOT
HETATM    1  C8  UNL     1      -6.072  -0.940 -14.169  1.00  0.00     0.120 C 
ENDROOT
BRANCH   1   2
HETATM    2  C7  UNL     1      -5.674  -1.083 -15.594  1.00  0.00     0.155 C 
BRANCH   2   3
HETATM    3  C6  UNL     1      -6.582  -1.787 -16.522  1.00  0.00     0.141 C 
BRANCH   3   4
HETATM    4  N1  UNL     1      -6.396  -3.218 -16.413  1.00  0.00    -0.204 NA
BRANCH   4   5
HETATM    5  C5  UNL     1      -5.107  -3.514 -15.879  1.00  0.00     0.112 C 
BRANCH   5   6
HETATM    6  C3  UNL     1      -4.265  -4.433 -16.731  1.00  0.00    -0.005 C 
HETATM    7  C4  UNL     1      -2.920  -3.816 -17.057  1.00  0.00     0.011 C 
BRANCH   6   8
HETATM    8  C2  UNL     1      -4.072  -5.725 -15.963  1.00  0.00     0.001 C 
HETATM    9  C1  UNL     1      -3.574  -6.815 -16.864  1.00  0.00     0.005 C 
ENDBRANCH   6   8
ENDBRANCH   5   6
ENDBRANCH   4   5
BRANCH   4  10
HETATM   10  S1  UNL     1      -7.679  -4.065 -15.703  1.00  0.00     0.243 S 
HETATM   11  O5  UNL     1      -7.142  -4.811 -14.476  1.00  0.00    -0.206 OA
HETATM   12  O6  UNL     1      -8.753  -3.166 -15.158  1.00  0.00    -0.206 OA
BRANCH  10  13
HETATM   13  C22 UNL     1      -8.333  -5.300 -16.739  1.00  0.00     0.074 A 
HETATM   14  C23 UNL     1      -9.661  -5.646 -16.658  1.00  0.00     0.027 A 
HETATM   15  C24 UNL     1     -10.219  -6.626 -17.450  1.00  0.00     0.038 A 
HETATM   16  C25 UNL     1      -9.435  -7.310 -18.376  1.00  0.00     0.068 A 
HETATM   17  C27 UNL     1      -8.113  -6.974 -18.466  1.00  0.00     0.038 A 
HETATM   18  C28 UNL     1      -7.578  -5.990 -17.665  1.00  0.00     0.027 A 
BRANCH  16  19
HETATM   19  O7  UNL     1     -10.020  -8.306 -19.174  1.00  0.00    -0.356 OA
HETATM   20  C26 UNL     1      -9.605  -9.658 -19.067  1.00  0.00     0.210 C 
ENDBRANCH  16  19
ENDBRANCH  10  13
ENDBRANCH   4  10
ENDBRANCH   3   4
ENDBRANCH   2   3
BRANCH   2  21
HETATM   21  O1  UNL     1      -5.320   0.174 -16.092  1.00  0.00    -0.392 OA
ATOM     22  H1  UNL     1      -4.914   0.707 -15.418  1.00  0.00     0.210 HD
ENDBRANCH   2  21
ENDBRANCH   1   2
BRANCH   1  23
HETATM   23  C9  UNL     1      -7.315  -0.093 -14.012  1.00  0.00     0.066 C 
BRANCH  23  24
HETATM   24  C10 UNL     1      -7.520   0.508 -12.712  1.00  0.00    -0.056 A 
HETATM   25  C11 UNL     1      -7.172   1.776 -12.356  1.00  0.00     0.007 A 
HETATM   26  C12 UNL     1      -7.381   2.306 -11.075  1.00  0.00     0.001 A 
HETATM   27  C13 UNL     1      -7.966   1.516 -10.125  1.00  0.00     0.000 A 
HETATM   28  C14 UNL     1      -8.333   0.238 -10.434  1.00  0.00     0.001 A 
HETATM   29  C15 UNL     1      -8.115  -0.255 -11.697  1.00  0.00     0.007 A 
ENDBRANCH  23  24
ENDBRANCH   1  23
BRANCH   1  30
HETATM   30  N2  UNL     1      -4.999  -0.642 -13.289  1.00  0.00    -0.329 N 
HETATM   31  C16 UNL     1      -4.553  -1.470 -12.251  1.00  0.00     0.361 C 
HETATM   32  O2  UNL     1      -5.105  -2.560 -12.032  1.00  0.00    -0.239 OA
ATOM     33  H2  UNL     1      -4.515   0.245 -13.423  1.00  0.00     0.165 HD
BRANCH  31  34
HETATM   34  O3  UNL     1      -3.495  -1.037 -11.495  1.00  0.00    -0.302 OA
BRANCH  34  35
HETATM   35  C17 UNL     1      -3.282   0.267 -11.095  1.00  0.00     0.200 C 
BRANCH  35  36
HETATM   36  C18 UNL     1      -2.134   0.987 -11.731  1.00  0.00     0.154 C 
BRANCH  36  37
HETATM   37  N3  UNL     1      -1.598   1.882 -10.726  1.00  0.00    -0.331 N 
HETATM   38  C19 UNL     1      -1.496   1.520  -9.309  1.00  0.00     0.147 C 
HETATM   39  C20 UNL     1      -1.654   2.854  -8.593  1.00  0.00     0.144 C 
HETATM   40  N4  UNL     1      -1.131   3.782  -9.580  1.00  0.00    -0.341 N 
HETATM   41  C21 UNL     1      -1.096   3.213 -10.870  1.00  0.00     0.318 C 
ATOM     42  H4  UNL     1      -0.826   4.732  -9.366  1.00  0.00     0.164 HD
HETATM   43  O4  UNL     1      -0.719   3.689 -11.979  1.00  0.00    -0.247 OA
ENDBRANCH  36  37
ENDBRANCH  35  36
ENDBRANCH  34  35
ENDBRANCH  31  34
ENDBRANCH   1  30
TORSDOF 17
ENDMDL
