MODEL 2
REMARK VINA RESULT: -8.815851862      2.054      5.237
REMARK  15 active torsions:
REMARK  status: ('A' for Active; 'I' for Inactive)
REMARK    1  A    between atoms: C2_2  and  C3_3 
REMARK    2  A    between atoms: C3_3  and  C5_5 
REMARK    3  A    between atoms: C5_5  and  N1_6 
REMARK    4  A    between atoms: N1_6  and  C6_7 
REMARK    5  A    between atoms: N1_6  and  S1_32 
REMARK    6  A    between atoms: C6_7  and  C7_8 
REMARK    7  A    between atoms: C7_8  and  O1_9 
REMARK    8  A    between atoms: C7_8  and  C8_11 
REMARK    9  A    between atoms: C8_11  and  C9_12 
REMARK   10  A    between atoms: C8_11  and  N2_19 
REMARK   11  A    between atoms: C9_12  and  C10_13 
REMARK       I    between atoms: N2_19  and  C16_21 
REMARK   12  A    between atoms: C16_21  and  O3_23 
REMARK   13  A    between atoms: O3_23  and  C17_24 
REMARK   14  A    between atoms: C17_24  and  C18_25 
REMARK   15  A    between atoms: S1_32  and  C22_35 
ROOT
HETATM    1  C7  UNL     1      20.708  30.928  13.092  1.00  0.00     0.160 C 
ENDROOT
BRANCH   1   2
HETATM    2  C6  UNL     1      19.562  31.708  13.684  1.00  0.00     0.169 C 
BRANCH   2   3
HETATM    3  N1  UNL     1      18.509  30.936  14.218  1.00  0.00    -0.304 N 
BRANCH   3   4
HETATM    4  C5  UNL     1      17.563  30.553  13.238  1.00  0.00     0.139 C 
BRANCH   4   5
HETATM    5  C3  UNL     1      17.846  29.222  12.658  1.00  0.00    -0.000 C 
HETATM    6  C4  UNL     1      17.680  28.033  13.538  1.00  0.00     0.011 C 
BRANCH   5   7
HETATM    7  C2  UNL     1      17.004  29.096  11.380  1.00  0.00     0.001 C 
HETATM    8  C1  UNL     1      17.735  28.216  10.388  1.00  0.00     0.005 C 
ENDBRANCH   5   7
ENDBRANCH   4   5
ENDBRANCH   3   4
BRANCH   3   9
HETATM    9  S1  UNL     1      17.819  31.314  15.684  1.00  0.00     0.261 S 
HETATM   10  O5  UNL     1      16.519  30.566  15.825  1.00  0.00    -0.200 OA
HETATM   11  O6  UNL     1      18.612  30.877  16.890  1.00  0.00    -0.200 OA
BRANCH   9  12
HETATM   12  C22 UNL     1      17.370  33.010  15.847  1.00  0.00     0.081 A 
HETATM   13  C23 UNL     1      16.585  33.688  14.969  1.00  0.00     0.027 A 
HETATM   14  C24 UNL     1      16.218  35.004  15.067  1.00  0.00     0.032 A 
HETATM   15  C25 UNL     1      16.680  35.751  16.170  1.00  0.00     0.049 A 
HETATM   16  N4  UNL     1      16.413  37.014  16.396  1.00  0.00    -0.359 N 
HETATM   17  C27 UNL     1      17.471  35.104  17.075  1.00  0.00     0.034 A 
HETATM   18  C26 UNL     1      16.904  37.609  17.467  1.00  0.00     0.139 A 
ATOM     19  H4  UNL     1      15.826  37.536  15.746  1.00  0.00     0.166 HD
HETATM   20  S2  UNL     1      17.789  36.345  18.204  1.00  0.00    -0.083 SA
HETATM   21  C28 UNL     1      17.824  33.752  16.936  1.00  0.00     0.046 A 
ENDBRANCH   9  12
ENDBRANCH   3   9
ENDBRANCH   2   3
ENDBRANCH   1   2
BRANCH   1  22
HETATM   22  O1  UNL     1      21.608  31.823  12.492  1.00  0.00    -0.392 OA
ATOM     23  H1  UNL     1      22.187  32.173  13.159  1.00  0.00     0.210 HD
ENDBRANCH   1  22
BRANCH   1  24
HETATM   24  C8  UNL     1      21.508  30.211  14.141  1.00  0.00     0.121 C 
BRANCH  24  25
HETATM   25  C9  UNL     1      21.250  28.745  14.086  1.00  0.00     0.066 C 
BRANCH  25  26
HETATM   26  C10 UNL     1      21.771  28.070  12.876  1.00  0.00    -0.056 A 
HETATM   27  C11 UNL     1      20.983  27.278  12.068  1.00  0.00     0.007 A 
HETATM   28  C12 UNL     1      21.481  26.654  10.932  1.00  0.00     0.001 A 
HETATM   29  C13 UNL     1      22.794  26.817  10.585  1.00  0.00     0.000 A 
HETATM   30  C14 UNL     1      23.616  27.601  11.365  1.00  0.00     0.001 A 
HETATM   31  C15 UNL     1      23.100  28.208  12.486  1.00  0.00     0.007 A 
ENDBRANCH  25  26
ENDBRANCH  24  25
BRANCH  24  32
HETATM   32  N2  UNL     1      21.410  30.778  15.442  1.00  0.00    -0.329 N 
HETATM   33  C16 UNL     1      22.347  31.763  15.857  1.00  0.00     0.361 C 
HETATM   34  O2  UNL     1      23.274  32.149  15.083  1.00  0.00    -0.239 OA
ATOM     35  H2  UNL     1      20.670  30.478  16.076  1.00  0.00     0.165 HD
BRANCH  33  36
HETATM   36  O3  UNL     1      22.305  32.356  17.111  1.00  0.00    -0.302 OA
BRANCH  36  37
HETATM   37  C17 UNL     1      22.535  33.746  17.232  1.00  0.00     0.205 C 
BRANCH  37  38
HETATM   38  C18 UNL     1      21.234  34.511  17.314  1.00  0.00     0.109 C 
HETATM   39  C19 UNL     1      21.534  35.977  16.975  1.00  0.00     0.036 C 
HETATM   40  C20 UNL     1      22.353  36.399  18.180  1.00  0.00     0.105 C 
HETATM   41  C21 UNL     1      21.887  35.505  19.265  1.00  0.00     0.218 C 
HETATM   42  O4  UNL     1      22.320  35.547  20.454  1.00  0.00    -0.274 OA
HETATM   43  N3  UNL     1      20.900  34.635  18.720  1.00  0.00    -0.354 N 
ATOM     44  H3  UNL     1      20.124  34.193  19.213  1.00  0.00     0.162 HD
ENDBRANCH  37  38
ENDBRANCH  36  37
ENDBRANCH  33  36
ENDBRANCH  24  32
ENDBRANCH   1  24
TORSDOF 15
ENDMDL
