MODEL 11
REMARK VINA RESULT: -8.549355525      3.224      7.666
REMARK  15 active torsions:
REMARK  status: ('A' for Active; 'I' for Inactive)
REMARK    1  A    between atoms: C2_2  and  C3_3 
REMARK    2  A    between atoms: C3_3  and  C5_5 
REMARK    3  A    between atoms: C5_5  and  N1_6 
REMARK    4  A    between atoms: N1_6  and  C6_7 
REMARK    5  A    between atoms: N1_6  and  S1_32 
REMARK    6  A    between atoms: C6_7  and  C7_8 
REMARK    7  A    between atoms: C7_8  and  O1_9 
REMARK    8  A    between atoms: C7_8  and  C8_11 
REMARK    9  A    between atoms: C8_11  and  C9_12 
REMARK   10  A    between atoms: C8_11  and  N2_19 
REMARK   11  A    between atoms: C9_12  and  C10_13 
REMARK       I    between atoms: N2_19  and  C16_21 
REMARK   12  A    between atoms: C16_21  and  O3_23 
REMARK   13  A    between atoms: O3_23  and  C17_24 
REMARK   14  A    between atoms: C17_24  and  C18_25 
REMARK   15  A    between atoms: S1_32  and  C22_35 
ROOT
HETATM    1  C7  UNL     1      20.109  29.449  15.365  1.00  0.00     0.160 C 
ENDROOT
BRANCH   1   2
HETATM    2  C6  UNL     1      19.065  30.406  15.881  1.00  0.00     0.169 C 
BRANCH   2   3
HETATM    3  N1  UNL     1      19.158  31.729  15.400  1.00  0.00    -0.304 N 
BRANCH   3   4
HETATM    4  C5  UNL     1      19.947  32.557  16.232  1.00  0.00     0.139 C 
BRANCH   4   5
HETATM    5  C3  UNL     1      21.100  33.151  15.521  1.00  0.00    -0.000 C 
HETATM    6  C4  UNL     1      21.333  34.613  15.677  1.00  0.00     0.011 C 
BRANCH   5   7
HETATM    7  C2  UNL     1      22.343  32.340  15.916  1.00  0.00     0.001 C 
HETATM    8  C1  UNL     1      23.092  31.936  14.663  1.00  0.00     0.005 C 
ENDBRANCH   5   7
ENDBRANCH   4   5
ENDBRANCH   3   4
BRANCH   3   9
HETATM    9  S1  UNL     1      17.834  32.510  14.761  1.00  0.00     0.261 S 
HETATM   10  O5  UNL     1      18.284  33.409  13.640  1.00  0.00    -0.200 OA
HETATM   11  O6  UNL     1      16.820  31.606  14.105  1.00  0.00    -0.200 OA
BRANCH   9  12
HETATM   12  C22 UNL     1      17.026  33.590  15.893  1.00  0.00     0.081 A 
HETATM   13  C23 UNL     1      16.064  33.206  16.773  1.00  0.00     0.027 A 
HETATM   14  C24 UNL     1      15.417  34.020  17.665  1.00  0.00     0.032 A 
HETATM   15  C25 UNL     1      15.759  35.387  17.698  1.00  0.00     0.049 A 
HETATM   16  N4  UNL     1      15.228  36.283  18.494  1.00  0.00    -0.359 N 
HETATM   17  C27 UNL     1      16.722  35.811  16.829  1.00  0.00     0.034 A 
HETATM   18  C26 UNL     1      15.631  37.539  18.434  1.00  0.00     0.139 A 
ATOM     19  H4  UNL     1      14.504  36.011  19.159  1.00  0.00     0.166 HD
HETATM   20  S2  UNL     1      16.814  37.476  17.201  1.00  0.00    -0.083 SA
HETATM   21  C28 UNL     1      17.360  34.943  15.930  1.00  0.00     0.046 A 
ENDBRANCH   9  12
ENDBRANCH   3   9
ENDBRANCH   2   3
ENDBRANCH   1   2
BRANCH   1  22
HETATM   22  O1  UNL     1      20.092  28.286  16.153  1.00  0.00    -0.392 OA
ATOM     23  H1  UNL     1      20.872  28.267  16.693  1.00  0.00     0.210 HD
ENDBRANCH   1  22
BRANCH   1  24
HETATM   24  C8  UNL     1      19.809  28.982  13.970  1.00  0.00     0.121 C 
BRANCH  24  25
HETATM   25  C9  UNL     1      18.439  28.402  13.894  1.00  0.00     0.066 C 
BRANCH  25  26
HETATM   26  C10 UNL     1      17.982  28.069  12.526  1.00  0.00    -0.056 A 
HETATM   27  C11 UNL     1      17.460  29.011  11.666  1.00  0.00     0.007 A 
HETATM   28  C12 UNL     1      17.040  28.687  10.382  1.00  0.00     0.001 A 
HETATM   29  C13 UNL     1      17.139  27.398   9.938  1.00  0.00     0.000 A 
HETATM   30  C14 UNL     1      17.654  26.425  10.766  1.00  0.00     0.001 A 
HETATM   31  C15 UNL     1      18.064  26.769  12.033  1.00  0.00     0.007 A 
ENDBRANCH  25  26
ENDBRANCH  24  25
BRANCH  24  32
HETATM   32  N2  UNL     1      20.825  28.170  13.392  1.00  0.00    -0.329 N 
HETATM   33  C16 UNL     1      21.718  28.727  12.438  1.00  0.00     0.361 C 
HETATM   34  O2  UNL     1      21.626  29.942  12.088  1.00  0.00    -0.239 OA
ATOM     35  H2  UNL     1      20.912  27.191  13.663  1.00  0.00     0.165 HD
BRANCH  33  36
HETATM   36  O3  UNL     1      22.730  27.990  11.839  1.00  0.00    -0.302 OA
BRANCH  36  37
HETATM   37  C17 UNL     1      22.401  27.018  10.865  1.00  0.00     0.205 C 
BRANCH  37  38
HETATM   38  C18 UNL     1      22.963  25.664  11.231  1.00  0.00     0.109 C 
HETATM   39  C19 UNL     1      24.488  25.803  11.330  1.00  0.00     0.036 C 
HETATM   40  C20 UNL     1      24.858  26.040   9.878  1.00  0.00     0.105 C 
HETATM   41  C21 UNL     1      23.776  25.377   9.115  1.00  0.00     0.218 C 
HETATM   42  O4  UNL     1      23.723  25.335   7.851  1.00  0.00    -0.274 OA
HETATM   43  N3  UNL     1      22.856  24.826  10.053  1.00  0.00    -0.354 N 
ATOM     44  H3  UNL     1      22.252  24.015   9.922  1.00  0.00     0.162 HD
ENDBRANCH  37  38
ENDBRANCH  36  37
ENDBRANCH  33  36
ENDBRANCH  24  32
ENDBRANCH   1  24
TORSDOF 15
ENDMDL
