MODEL 16
REMARK VINA RESULT: -8.508740666      2.647      7.428
REMARK  15 active torsions:
REMARK  status: ('A' for Active; 'I' for Inactive)
REMARK    1  A    between atoms: C2_2  and  C3_3 
REMARK    2  A    between atoms: C3_3  and  C5_5 
REMARK    3  A    between atoms: C5_5  and  N1_6 
REMARK    4  A    between atoms: N1_6  and  C6_7 
REMARK    5  A    between atoms: N1_6  and  S1_32 
REMARK    6  A    between atoms: C6_7  and  C7_8 
REMARK    7  A    between atoms: C7_8  and  O1_9 
REMARK    8  A    between atoms: C7_8  and  C8_11 
REMARK    9  A    between atoms: C8_11  and  C9_12 
REMARK   10  A    between atoms: C8_11  and  N2_19 
REMARK   11  A    between atoms: C9_12  and  C10_13 
REMARK       I    between atoms: N2_19  and  C16_21 
REMARK   12  A    between atoms: C16_21  and  O3_23 
REMARK   13  A    between atoms: O3_23  and  C17_24 
REMARK   14  A    between atoms: C17_24  and  C18_25 
REMARK   15  A    between atoms: S1_32  and  C22_35 
ROOT
HETATM    1  C7  UNL     1      19.700  30.630  15.953  1.00  0.00     0.160 C 
ENDROOT
BRANCH   1   2
HETATM    2  C6  UNL     1      18.499  31.348  16.513  1.00  0.00     0.169 C 
BRANCH   2   3
HETATM    3  N1  UNL     1      18.444  32.735  16.262  1.00  0.00    -0.304 N 
BRANCH   3   4
HETATM    4  C5  UNL     1      19.099  33.496  17.258  1.00  0.00     0.139 C 
BRANCH   4   5
HETATM    5  C3  UNL     1      20.432  33.973  16.830  1.00  0.00    -0.000 C 
HETATM    6  C4  UNL     1      20.686  34.100  15.369  1.00  0.00     0.011 C 
BRANCH   5   7
HETATM    7  C2  UNL     1      20.696  35.297  17.562  1.00  0.00     0.001 C 
HETATM    8  C1  UNL     1      19.682  35.460  18.675  1.00  0.00     0.005 C 
ENDBRANCH   5   7
ENDBRANCH   4   5
ENDBRANCH   3   4
BRANCH   3   9
HETATM    9  S1  UNL     1      17.055  33.455  15.693  1.00  0.00     0.261 S 
HETATM   10  O5  UNL     1      17.317  34.018  14.321  1.00  0.00    -0.200 OA
HETATM   11  O6  UNL     1      15.897  32.514  15.475  1.00  0.00    -0.200 OA
BRANCH   9  12
HETATM   12  C22 UNL     1      16.527  34.841  16.643  1.00  0.00     0.081 A 
HETATM   13  C23 UNL     1      15.708  34.768  17.725  1.00  0.00     0.027 A 
HETATM   14  C24 UNL     1      15.279  35.825  18.483  1.00  0.00     0.032 A 
HETATM   15  C25 UNL     1      15.712  37.121  18.137  1.00  0.00     0.049 A 
HETATM   16  N4  UNL     1      15.386  38.223  18.766  1.00  0.00    -0.359 N 
HETATM   17  C27 UNL     1      16.537  37.235  17.055  1.00  0.00     0.034 A 
HETATM   18  C26 UNL     1      15.855  39.384  18.347  1.00  0.00     0.139 A 
ATOM     19  H4  UNL     1      14.771  38.184  19.579  1.00  0.00     0.166 HD
HETATM   20  S2  UNL     1      16.802  38.921  17.001  1.00  0.00    -0.083 SA
HETATM   21  C28 UNL     1      16.952  36.125  16.304  1.00  0.00     0.046 A 
ENDBRANCH   9  12
ENDBRANCH   3   9
ENDBRANCH   2   3
ENDBRANCH   1   2
BRANCH   1  22
HETATM   22  O1  UNL     1      19.888  29.433  16.663  1.00  0.00    -0.392 OA
ATOM     23  H1  UNL     1      19.741  28.700  16.077  1.00  0.00     0.210 HD
ENDBRANCH   1  22
BRANCH   1  24
HETATM   24  C8  UNL     1      19.494  30.211  14.525  1.00  0.00     0.121 C 
BRANCH  24  25
HETATM   25  C9  UNL     1      18.103  29.723  14.318  1.00  0.00     0.066 C 
BRANCH  25  26
HETATM   26  C10 UNL     1      17.921  28.861  13.128  1.00  0.00    -0.056 A 
HETATM   27  C11 UNL     1      17.744  29.371  11.859  1.00  0.00     0.007 A 
HETATM   28  C12 UNL     1      17.580  28.553  10.750  1.00  0.00     0.001 A 
HETATM   29  C13 UNL     1      17.590  27.194  10.898  1.00  0.00     0.000 A 
HETATM   30  C14 UNL     1      17.763  26.642  12.149  1.00  0.00     0.001 A 
HETATM   31  C15 UNL     1      17.924  27.473  13.233  1.00  0.00     0.007 A 
ENDBRANCH  25  26
ENDBRANCH  24  25
BRANCH  24  32
HETATM   32  N2  UNL     1      20.505  29.347  14.017  1.00  0.00    -0.329 N 
HETATM   33  C16 UNL     1      21.600  29.889  13.292  1.00  0.00     0.361 C 
HETATM   34  O2  UNL     1      21.695  31.136  13.088  1.00  0.00    -0.239 OA
ATOM     35  H2  UNL     1      20.443  28.341  14.174  1.00  0.00     0.165 HD
BRANCH  33  36
HETATM   36  O3  UNL     1      22.617  29.101  12.772  1.00  0.00    -0.302 OA
BRANCH  36  37
HETATM   37  C17 UNL     1      22.355  27.750  12.448  1.00  0.00     0.205 C 
BRANCH  37  38
HETATM   38  C18 UNL     1      22.256  27.554  10.953  1.00  0.00     0.109 C 
HETATM   39  C19 UNL     1      21.264  26.411  10.698  1.00  0.00     0.036 C 
HETATM   40  C20 UNL     1      22.039  25.222  11.232  1.00  0.00     0.105 C 
HETATM   41  C21 UNL     1      23.459  25.616  11.079  1.00  0.00     0.218 C 
HETATM   42  O4  UNL     1      24.438  24.881  11.401  1.00  0.00    -0.274 OA
HETATM   43  N3  UNL     1      23.489  26.926  10.522  1.00  0.00    -0.354 N 
ATOM     44  H3  UNL     1      24.223  27.336   9.944  1.00  0.00     0.162 HD
ENDBRANCH  37  38
ENDBRANCH  36  37
ENDBRANCH  33  36
ENDBRANCH  24  32
ENDBRANCH   1  24
TORSDOF 15
ENDMDL
