MODEL 4
REMARK VINA RESULT: -8.611785838      3.275      8.050
REMARK  15 active torsions:
REMARK  status: ('A' for Active; 'I' for Inactive)
REMARK    1  A    between atoms: C2_2  and  C3_3 
REMARK    2  A    between atoms: C3_3  and  C5_5 
REMARK    3  A    between atoms: C5_5  and  N1_6 
REMARK    4  A    between atoms: N1_6  and  C6_7 
REMARK    5  A    between atoms: N1_6  and  S1_32 
REMARK    6  A    between atoms: C6_7  and  C7_8 
REMARK    7  A    between atoms: C7_8  and  O1_9 
REMARK    8  A    between atoms: C7_8  and  C8_11 
REMARK    9  A    between atoms: C8_11  and  C9_12 
REMARK   10  A    between atoms: C8_11  and  N2_19 
REMARK   11  A    between atoms: C9_12  and  C10_13 
REMARK       I    between atoms: N2_19  and  C16_21 
REMARK   12  A    between atoms: C16_21  and  O3_23 
REMARK   13  A    between atoms: O3_23  and  C17_24 
REMARK   14  A    between atoms: C17_24  and  C18_25 
REMARK   15  A    between atoms: S1_32  and  C22_35 
ROOT
HETATM    1  C7  UNL     1      21.981  31.328  13.586  1.00  0.00     0.160 C 
ENDROOT
BRANCH   1   2
HETATM    2  C6  UNL     1      21.767  29.891  13.985  1.00  0.00     0.169 C 
BRANCH   2   3
HETATM    3  N1  UNL     1      21.136  29.076  13.022  1.00  0.00    -0.304 N 
BRANCH   3   4
HETATM    4  C5  UNL     1      20.102  28.283  13.573  1.00  0.00     0.139 C 
BRANCH   4   5
HETATM    5  C3  UNL     1      18.781  28.946  13.518  1.00  0.00    -0.000 C 
HETATM    6  C4  UNL     1      18.408  29.644  12.257  1.00  0.00     0.011 C 
BRANCH   5   7
HETATM    7  C2  UNL     1      17.731  27.897  13.909  1.00  0.00     0.001 C 
HETATM    8  C1  UNL     1      17.557  26.918  12.767  1.00  0.00     0.005 C 
ENDBRANCH   5   7
ENDBRANCH   4   5
ENDBRANCH   3   4
BRANCH   3   9
HETATM    9  S1  UNL     1      22.015  28.287  11.850  1.00  0.00     0.261 S 
HETATM   10  O5  UNL     1      22.163  29.190  10.653  1.00  0.00    -0.200 OA
HETATM   11  O6  UNL     1      23.438  27.968  12.231  1.00  0.00    -0.200 OA
BRANCH   9  12
HETATM   12  C22 UNL     1      21.229  26.844  11.217  1.00  0.00     0.081 A 
HETATM   13  C23 UNL     1      21.597  25.570  11.518  1.00  0.00     0.027 A 
HETATM   14  C24 UNL     1      21.008  24.429  11.043  1.00  0.00     0.032 A 
HETATM   15  C25 UNL     1      19.916  24.552  10.160  1.00  0.00     0.049 A 
HETATM   16  N4  UNL     1      19.254  23.554   9.627  1.00  0.00    -0.359 N 
HETATM   17  C27 UNL     1      19.516  25.816   9.834  1.00  0.00     0.034 A 
HETATM   18  C26 UNL     1      18.245  23.794   8.811  1.00  0.00     0.139 A 
ATOM     19  H4  UNL     1      19.519  22.593   9.843  1.00  0.00     0.166 HD
HETATM   20  S2  UNL     1      18.210  25.503   8.779  1.00  0.00    -0.083 SA
HETATM   21  C28 UNL     1      20.149  26.961  10.343  1.00  0.00     0.046 A 
ENDBRANCH   9  12
ENDBRANCH   3   9
ENDBRANCH   2   3
ENDBRANCH   1   2
BRANCH   1  22
HETATM   22  O1  UNL     1      21.197  31.609  12.454  1.00  0.00    -0.392 OA
ATOM     23  H1  UNL     1      20.674  32.383  12.625  1.00  0.00     0.210 HD
ENDBRANCH   1  22
BRANCH   1  24
HETATM   24  C8  UNL     1      21.504  32.287  14.640  1.00  0.00     0.121 C 
BRANCH  24  25
HETATM   25  C9  UNL     1      22.645  32.763  15.470  1.00  0.00     0.066 C 
BRANCH  25  26
HETATM   26  C10 UNL     1      22.350  33.948  16.306  1.00  0.00    -0.056 A 
HETATM   27  C11 UNL     1      22.133  35.200  15.773  1.00  0.00     0.007 A 
HETATM   28  C12 UNL     1      21.852  36.304  16.568  1.00  0.00     0.001 A 
HETATM   29  C13 UNL     1      21.783  36.165  17.926  1.00  0.00     0.000 A 
HETATM   30  C14 UNL     1      21.994  34.930  18.501  1.00  0.00     0.001 A 
HETATM   31  C15 UNL     1      22.271  33.852  17.693  1.00  0.00     0.007 A 
ENDBRANCH  25  26
ENDBRANCH  24  25
BRANCH  24  32
HETATM   32  N2  UNL     1      20.383  31.826  15.386  1.00  0.00    -0.329 N 
HETATM   33  C16 UNL     1      19.075  32.257  15.037  1.00  0.00     0.361 C 
HETATM   34  O2  UNL     1      18.886  33.049  14.065  1.00  0.00    -0.239 OA
ATOM     35  H2  UNL     1      20.519  31.189  16.171  1.00  0.00     0.165 HD
BRANCH  33  36
HETATM   36  O3  UNL     1      17.942  31.844  15.724  1.00  0.00    -0.302 OA
BRANCH  36  37
HETATM   37  C17 UNL     1      17.263  32.760  16.561  1.00  0.00     0.205 C 
BRANCH  37  38
HETATM   38  C18 UNL     1      15.815  32.906  16.153  1.00  0.00     0.109 C 
HETATM   39  C19 UNL     1      15.690  34.199  15.336  1.00  0.00     0.036 C 
HETATM   40  C20 UNL     1      15.940  35.249  16.401  1.00  0.00     0.105 C 
HETATM   41  C21 UNL     1      15.513  34.596  17.660  1.00  0.00     0.218 C 
HETATM   42  O4  UNL     1      15.549  35.154  18.796  1.00  0.00    -0.274 OA
HETATM   43  N3  UNL     1      15.074  33.280  17.342  1.00  0.00    -0.354 N 
ATOM     44  H3  UNL     1      14.385  32.719  17.843  1.00  0.00     0.162 HD
ENDBRANCH  37  38
ENDBRANCH  36  37
ENDBRANCH  33  36
ENDBRANCH  24  32
ENDBRANCH   1  24
TORSDOF 15
ENDMDL
