MODEL 1
REMARK VINA RESULT: -8.984276947      0.000      0.000
REMARK  15 active torsions:
REMARK  status: ('A' for Active; 'I' for Inactive)
REMARK    1  A    between atoms: C2_2  and  C3_3 
REMARK    2  A    between atoms: C3_3  and  C5_5 
REMARK    3  A    between atoms: C5_5  and  N1_6 
REMARK    4  A    between atoms: N1_6  and  C6_7 
REMARK    5  A    between atoms: N1_6  and  S1_32 
REMARK    6  A    between atoms: C6_7  and  C7_8 
REMARK    7  A    between atoms: C7_8  and  O1_9 
REMARK    8  A    between atoms: C7_8  and  C8_11 
REMARK    9  A    between atoms: C8_11  and  C9_12 
REMARK   10  A    between atoms: C8_11  and  N2_19 
REMARK   11  A    between atoms: C9_12  and  C10_13 
REMARK       I    between atoms: N2_19  and  C16_21 
REMARK   12  A    between atoms: C16_21  and  O3_23 
REMARK   13  A    between atoms: O3_23  and  C17_24 
REMARK   14  A    between atoms: C17_24  and  C18_25 
REMARK   15  A    between atoms: S1_32  and  C22_35 
ROOT
HETATM    1  C7  UNL     1      18.726  30.904  15.295  1.00  0.00     0.160 C 
ENDROOT
BRANCH   1   2
HETATM    2  C6  UNL     1      19.724  32.031  15.343  1.00  0.00     0.169 C 
BRANCH   2   3
HETATM    3  N1  UNL     1      20.938  31.803  14.660  1.00  0.00    -0.304 N 
BRANCH   3   4
HETATM    4  C5  UNL     1      21.284  30.432  14.609  1.00  0.00     0.139 C 
BRANCH   4   5
HETATM    5  C3  UNL     1      21.128  29.852  13.257  1.00  0.00    -0.000 C 
HETATM    6  C4  UNL     1      21.193  30.779  12.094  1.00  0.00     0.011 C 
BRANCH   5   7
HETATM    7  C2  UNL     1      22.156  28.719  13.129  1.00  0.00     0.001 C 
HETATM    8  C1  UNL     1      21.543  27.579  12.341  1.00  0.00     0.005 C 
ENDBRANCH   5   7
ENDBRANCH   4   5
ENDBRANCH   3   4
BRANCH   3   9
HETATM    9  S1  UNL     1      22.250  32.804  14.873  1.00  0.00     0.261 S 
HETATM   10  O5  UNL     1      23.421  31.987  15.355  1.00  0.00    -0.200 OA
HETATM   11  O6  UNL     1      22.765  33.451  13.612  1.00  0.00    -0.200 OA
BRANCH   9  12
HETATM   12  C22 UNL     1      22.023  34.025  16.121  1.00  0.00     0.081 A 
HETATM   13  C23 UNL     1      22.100  33.787  17.457  1.00  0.00     0.027 A 
HETATM   14  C24 UNL     1      21.929  34.713  18.451  1.00  0.00     0.032 A 
HETATM   15  C25 UNL     1      21.646  36.046  18.089  1.00  0.00     0.049 A 
HETATM   16  N4  UNL     1      21.459  37.037  18.925  1.00  0.00    -0.359 N 
HETATM   17  C27 UNL     1      21.561  36.325  16.755  1.00  0.00     0.034 A 
HETATM   18  C26 UNL     1      21.200  38.247  18.465  1.00  0.00     0.139 A 
ATOM     19  H4  UNL     1      21.513  36.873  19.931  1.00  0.00     0.166 HD
HETATM   20  S2  UNL     1      21.217  37.997  16.774  1.00  0.00    -0.083 SA
HETATM   21  C28 UNL     1      21.743  35.344  15.767  1.00  0.00     0.046 A 
ENDBRANCH   9  12
ENDBRANCH   3   9
ENDBRANCH   2   3
ENDBRANCH   1   2
BRANCH   1  22
HETATM   22  O1  UNL     1      18.268  30.642  16.596  1.00  0.00    -0.392 OA
ATOM     23  H1  UNL     1      17.583  29.986  16.557  1.00  0.00     0.210 HD
ENDBRANCH   1  22
BRANCH   1  24
HETATM   24  C8  UNL     1      17.496  31.269  14.513  1.00  0.00     0.121 C 
BRANCH  24  25
HETATM   25  C9  UNL     1      17.677  30.945  13.070  1.00  0.00     0.066 C 
BRANCH  25  26
HETATM   26  C10 UNL     1      17.732  29.498  12.764  1.00  0.00    -0.056 A 
HETATM   27  C11 UNL     1      17.652  28.526  13.739  1.00  0.00     0.007 A 
HETATM   28  C12 UNL     1      17.700  27.171  13.439  1.00  0.00     0.001 A 
HETATM   29  C13 UNL     1      17.832  26.766  12.139  1.00  0.00     0.000 A 
HETATM   30  C14 UNL     1      17.916  27.704  11.134  1.00  0.00     0.001 A 
HETATM   31  C15 UNL     1      17.866  29.040  11.455  1.00  0.00     0.007 A 
ENDBRANCH  25  26
ENDBRANCH  24  25
BRANCH  24  32
HETATM   32  N2  UNL     1      17.010  32.582  14.766  1.00  0.00    -0.329 N 
HETATM   33  C16 UNL     1      15.903  32.771  15.636  1.00  0.00     0.361 C 
HETATM   34  O2  UNL     1      15.337  31.785  16.196  1.00  0.00    -0.239 OA
ATOM     35  H2  UNL     1      17.455  33.386  14.323  1.00  0.00     0.165 HD
BRANCH  33  36
HETATM   36  O3  UNL     1      15.382  34.025  15.924  1.00  0.00    -0.302 OA
BRANCH  36  37
HETATM   37  C17 UNL     1      16.225  35.159  15.869  1.00  0.00     0.205 C 
BRANCH  37  38
HETATM   38  C18 UNL     1      17.009  35.322  17.151  1.00  0.00     0.109 C 
HETATM   39  C19 UNL     1      16.027  35.765  18.244  1.00  0.00     0.036 C 
HETATM   40  C20 UNL     1      15.677  37.166  17.778  1.00  0.00     0.105 C 
HETATM   41  C21 UNL     1      16.864  37.597  17.005  1.00  0.00     0.218 C 
HETATM   42  O4  UNL     1      16.978  38.731  16.453  1.00  0.00    -0.274 OA
HETATM   43  N3  UNL     1      17.803  36.527  17.014  1.00  0.00    -0.354 N 
ATOM     44  H3  UNL     1      18.818  36.593  16.940  1.00  0.00     0.162 HD
ENDBRANCH  37  38
ENDBRANCH  36  37
ENDBRANCH  33  36
ENDBRANCH  24  32
ENDBRANCH   1  24
TORSDOF 15
ENDMDL
