MODEL 5
REMARK VINA RESULT: -8.026989920      1.336      4.402
REMARK  2 active torsions:
REMARK  status: ('A' for Active; 'I' for Inactive)
REMARK    1  A    between atoms: C3_5  and  C4_6 
REMARK    2  A    between atoms: C3_5  and  C10_12 
ROOT
HETATM    1  C1  UNL     1      22.717  12.682  24.819  1.00  0.00     0.162 C 
HETATM    2  N1  UNL     1      22.387  11.935  23.621  1.00  0.00    -0.294 N 
HETATM    3  C2  UNL     1      21.936  12.485  22.391  1.00  0.00     0.264 A 
HETATM    4  O1  UNL     1      21.748  13.727  22.150  1.00  0.00    -0.269 OA
HETATM    5  C3  UNL     1      21.737  11.336  21.480  1.00  0.00     0.170 A 
HETATM    6  N2  UNL     1      22.095  10.196  22.276  1.00  0.00    -0.339 N 
ATOM      7  H2  UNL     1      22.066   9.236  21.934  1.00  0.00     0.164 HD
HETATM    8  C16 UNL     1      22.459  10.519  23.469  1.00  0.00     0.194 A 
HETATM    9  N3  UNL     1      22.863   9.579  24.453  1.00  0.00    -0.063 NA
ENDROOT
BRANCH   5  10
HETATM   10  C4  UNL     1      20.334  11.233  21.006  1.00  0.00    -0.016 A 
HETATM   11  C5  UNL     1      20.033  10.766  19.759  1.00  0.00     0.010 A 
HETATM   12  C6  UNL     1      18.714  10.666  19.303  1.00  0.00     0.001 A 
HETATM   13  C7  UNL     1      17.726  11.065  20.171  1.00  0.00     0.000 A 
HETATM   14  C8  UNL     1      18.020  11.544  21.446  1.00  0.00     0.001 A 
HETATM   15  C9  UNL     1      19.329  11.631  21.869  1.00  0.00     0.010 A 
ENDBRANCH   5  10
BRANCH   5  16
HETATM   16  C10 UNL     1      22.628  11.411  20.286  1.00  0.00    -0.016 A 
HETATM   17  C11 UNL     1      23.301  10.249  19.901  1.00  0.00     0.010 A 
HETATM   18  C12 UNL     1      24.146  10.209  18.815  1.00  0.00     0.001 A 
HETATM   19  C13 UNL     1      24.328  11.372  18.085  1.00  0.00     0.000 A 
HETATM   20  C14 UNL     1      23.685  12.542  18.428  1.00  0.00     0.001 A 
HETATM   21  C15 UNL     1      22.838  12.532  19.537  1.00  0.00     0.010 A 
ENDBRANCH   5  16
TORSDOF 2
ENDMDL
