MODEL 7
REMARK VINA RESULT: -7.398350894      3.434      5.991
REMARK  2 active torsions:
REMARK  status: ('A' for Active; 'I' for Inactive)
REMARK    1  A    between atoms: C3_5  and  C4_6 
REMARK    2  A    between atoms: C3_5  and  C10_12 
ROOT
HETATM    1  C1  UNL     1      15.456  12.933  23.994  1.00  0.00     0.162 C 
HETATM    2  N1  UNL     1      16.397  11.984  23.432  1.00  0.00    -0.294 N 
HETATM    3  C2  UNL     1      16.732  11.852  22.057  1.00  0.00     0.264 A 
HETATM    4  O1  UNL     1      16.250  12.549  21.099  1.00  0.00    -0.269 OA
HETATM    5  C3  UNL     1      17.728  10.761  21.982  1.00  0.00     0.170 A 
HETATM    6  N2  UNL     1      17.888  10.345  23.347  1.00  0.00    -0.339 N 
ATOM      7  H2  UNL     1      18.517   9.597  23.640  1.00  0.00     0.164 HD
HETATM    8  C16 UNL     1      17.152  11.020  24.162  1.00  0.00     0.194 A 
HETATM    9  N3  UNL     1      17.126  10.806  25.565  1.00  0.00    -0.063 NA
ENDROOT
BRANCH   5  10
HETATM   10  C4  UNL     1      17.263   9.635  21.135  1.00  0.00    -0.016 A 
HETATM   11  C5  UNL     1      18.077   9.060  20.201  1.00  0.00     0.010 A 
HETATM   12  C6  UNL     1      17.648   7.999  19.397  1.00  0.00     0.001 A 
HETATM   13  C7  UNL     1      16.360   7.558  19.587  1.00  0.00     0.000 A 
HETATM   14  C8  UNL     1      15.521   8.135  20.536  1.00  0.00     0.001 A 
HETATM   15  C9  UNL     1      15.970   9.180  21.316  1.00  0.00     0.010 A 
ENDBRANCH   5  10
BRANCH   5  16
HETATM   16  C10 UNL     1      19.037  11.237  21.449  1.00  0.00    -0.016 A 
HETATM   17  C11 UNL     1      19.892  11.910  22.324  1.00  0.00     0.010 A 
HETATM   18  C12 UNL     1      21.121  12.390  21.935  1.00  0.00     0.001 A 
HETATM   19  C13 UNL     1      21.515  12.192  20.621  1.00  0.00     0.000 A 
HETATM   20  C14 UNL     1      20.703  11.534  19.722  1.00  0.00     0.001 A 
HETATM   21  C15 UNL     1      19.466  11.066  20.165  1.00  0.00     0.010 A 
ENDBRANCH   5  16
TORSDOF 2
ENDMDL
