MODEL 10
REMARK VINA RESULT: -7.284142420      3.140      5.546
REMARK  2 active torsions:
REMARK  status: ('A' for Active; 'I' for Inactive)
REMARK    1  A    between atoms: C3_5  and  C4_6 
REMARK    2  A    between atoms: C3_5  and  C10_12 
ROOT
HETATM    1  C1  UNL     1      24.924  16.997  18.768  1.00  0.00     0.162 C 
HETATM    2  N1  UNL     1      24.782  15.810  19.588  1.00  0.00    -0.294 N 
HETATM    3  C2  UNL     1      24.503  14.497  19.120  1.00  0.00     0.264 A 
HETATM    4  O1  UNL     1      24.330  14.160  17.899  1.00  0.00    -0.269 OA
HETATM    5  C3  UNL     1      24.456  13.637  20.322  1.00  0.00     0.170 A 
HETATM    6  N2  UNL     1      24.716  14.542  21.406  1.00  0.00    -0.339 N 
ATOM      7  H2  UNL     1      24.752  14.257  22.385  1.00  0.00     0.164 HD
HETATM    8  C16 UNL     1      24.899  15.754  21.008  1.00  0.00     0.194 A 
HETATM    9  N3  UNL     1      25.174  16.839  21.881  1.00  0.00    -0.063 NA
ENDROOT
BRANCH   5  10
HETATM   10  C4  UNL     1      23.138  12.976  20.487  1.00  0.00    -0.016 A 
HETATM   11  C5  UNL     1      22.567  12.258  19.476  1.00  0.00     0.010 A 
HETATM   12  C6  UNL     1      21.324  11.633  19.621  1.00  0.00     0.001 A 
HETATM   13  C7  UNL     1      20.696  11.775  20.834  1.00  0.00     0.000 A 
HETATM   14  C8  UNL     1      21.267  12.505  21.874  1.00  0.00     0.001 A 
HETATM   15  C9  UNL     1      22.494  13.111  21.703  1.00  0.00     0.010 A 
ENDBRANCH   5  10
BRANCH   5  16
HETATM   16  C10 UNL     1      25.508  12.580  20.292  1.00  0.00    -0.016 A 
HETATM   17  C11 UNL     1      26.592  12.713  21.163  1.00  0.00     0.010 A 
HETATM   18  C12 UNL     1      27.615  11.794  21.215  1.00  0.00     0.001 A 
HETATM   19  C13 UNL     1      27.557  10.701  20.367  1.00  0.00     0.000 A 
HETATM   20  C14 UNL     1      26.507  10.529  19.491  1.00  0.00     0.001 A 
HETATM   21  C15 UNL     1      25.494  11.487  19.475  1.00  0.00     0.010 A 
ENDBRANCH   5  16
TORSDOF 2
ENDMDL
