MODEL 16
REMARK VINA RESULT: -8.673188698      3.210      7.422
REMARK  4 active torsions:
REMARK  status: ('A' for Active; 'I' for Inactive)
REMARK    1  A    between atoms: O1_2  and  C2_3 
REMARK    2  A    between atoms: C6_7  and  C7_8 
REMARK    3  A    between atoms: C11_12  and  C12_13 
REMARK    4  A    between atoms: C12_13  and  C13_14 
ROOT
HETATM    1  C12 UNL     1      22.007  11.583  21.544  1.00  0.00     0.170 A 
HETATM    2  N1  UNL     1      22.301  10.349  22.219  1.00  0.00    -0.339 N 
ATOM      3  H1  UNL     1      22.332   9.437  21.762  1.00  0.00     0.164 HD
HETATM    4  C19 UNL     1      22.519  10.538  23.467  1.00  0.00     0.194 A 
HETATM    5  N2  UNL     1      22.843   9.507  24.436  1.00  0.00    -0.063 NA
HETATM    6  N3  UNL     1      22.408  11.914  23.800  1.00  0.00    -0.294 N 
HETATM    7  C20 UNL     1      22.594  12.489  25.135  1.00  0.00     0.162 C 
HETATM    8  C21 UNL     1      22.088  12.594  22.598  1.00  0.00     0.264 A 
HETATM    9  O2  UNL     1      21.910  13.850  22.498  1.00  0.00    -0.269 OA
ENDROOT
BRANCH   1  10
HETATM   10  C11 UNL     1      23.082  11.824  20.510  1.00  0.00    -0.015 A 
HETATM   11  C10 UNL     1      22.745  12.360  19.286  1.00  0.00     0.010 A 
HETATM   12  C9  UNL     1      23.716  12.591  18.306  1.00  0.00     0.002 A 
HETATM   13  C8  UNL     1      25.024  12.270  18.593  1.00  0.00     0.012 A 
HETATM   14  C7  UNL     1      25.409  11.730  19.809  1.00  0.00    -0.025 A 
HETATM   15  C22 UNL     1      24.392  11.530  20.730  1.00  0.00     0.022 A 
BRANCH  14  16
HETATM   16  C6  UNL     1      26.793  11.397  20.094  1.00  0.00    -0.023 A 
HETATM   17  C5  UNL     1      27.293  10.170  19.725  1.00  0.00     0.012 A 
HETATM   18  C4  UNL     1      28.596   9.788  19.965  1.00  0.00     0.004 A 
HETATM   19  C3  UNL     1      29.446  10.689  20.612  1.00  0.00     0.037 A 
HETATM   20  C2  UNL     1      28.973  11.925  20.992  1.00  0.00     0.069 A 
HETATM   21  C23 UNL     1      27.657  12.261  20.729  1.00  0.00     0.049 A 
BRANCH  20  22
HETATM   22  O1  UNL     1      29.836  12.795  21.630  1.00  0.00    -0.356 OA
HETATM   23  C1  UNL     1      29.853  14.152  21.207  1.00  0.00     0.210 C 
ENDBRANCH  20  22
ENDBRANCH  14  16
ENDBRANCH   1  10
BRANCH   1  24
HETATM   24  C13 UNL     1      20.666  11.516  20.909  1.00  0.00    -0.016 A 
HETATM   25  C14 UNL     1      19.675  12.411  21.211  1.00  0.00     0.010 A 
HETATM   26  C15 UNL     1      18.421  12.328  20.594  1.00  0.00     0.001 A 
HETATM   27  C16 UNL     1      18.158  11.332  19.662  1.00  0.00     0.000 A 
HETATM   28  C17 UNL     1      19.151  10.428  19.354  1.00  0.00     0.001 A 
HETATM   29  C18 UNL     1      20.391  10.527  19.977  1.00  0.00     0.010 A 
ENDBRANCH   1  24
TORSDOF 4
ENDMDL
