MODEL 1
REMARK VINA RESULT: -9.100134541      0.000      0.000
REMARK  4 active torsions:
REMARK  status: ('A' for Active; 'I' for Inactive)
REMARK    1  A    between atoms: O1_2  and  C2_3 
REMARK    2  A    between atoms: C6_7  and  C7_8 
REMARK    3  A    between atoms: C11_12  and  C12_13 
REMARK    4  A    between atoms: C12_13  and  C13_14 
ROOT
HETATM    1  C12 UNL     1      24.069  13.527  20.434  1.00  0.00     0.170 A 
HETATM    2  N1  UNL     1      24.201  14.619  19.509  1.00  0.00    -0.339 N 
ATOM      3  H1  UNL     1      23.532  14.826  18.766  1.00  0.00     0.164 HD
HETATM    4  C19 UNL     1      25.264  15.298  19.734  1.00  0.00     0.194 A 
HETATM    5  N2  UNL     1      25.699  16.463  18.985  1.00  0.00    -0.063 NA
HETATM    6  N3  UNL     1      25.985  14.764  20.835  1.00  0.00    -0.294 N 
HETATM    7  C20 UNL     1      27.244  15.289  21.368  1.00  0.00     0.162 C 
HETATM    8  C21 UNL     1      25.246  13.645  21.295  1.00  0.00     0.264 A 
HETATM    9  O2  UNL     1      25.579  12.907  22.276  1.00  0.00    -0.269 OA
ENDROOT
BRANCH   1  10
HETATM   10  C11 UNL     1      22.811  13.741  21.242  1.00  0.00    -0.015 A 
HETATM   11  C10 UNL     1      22.791  14.696  22.236  1.00  0.00     0.010 A 
HETATM   12  C9  UNL     1      21.643  14.915  23.004  1.00  0.00     0.002 A 
HETATM   13  C8  UNL     1      20.526  14.152  22.745  1.00  0.00     0.012 A 
HETATM   14  C7  UNL     1      20.500  13.182  21.757  1.00  0.00    -0.025 A 
HETATM   15  C22 UNL     1      21.674  13.022  21.037  1.00  0.00     0.022 A 
BRANCH  14  16
HETATM   16  C6  UNL     1      19.315  12.386  21.498  1.00  0.00    -0.023 A 
HETATM   17  C5  UNL     1      18.133  12.687  22.132  1.00  0.00     0.012 A 
HETATM   18  C4  UNL     1      16.970  11.973  21.933  1.00  0.00     0.004 A 
HETATM   19  C3  UNL     1      16.995  10.895  21.044  1.00  0.00     0.037 A 
HETATM   20  C2  UNL     1      18.165  10.570  20.394  1.00  0.00     0.069 A 
HETATM   21  C23 UNL     1      19.305  11.317  20.629  1.00  0.00     0.049 A 
BRANCH  20  22
HETATM   22  O1  UNL     1      18.160   9.499  19.522  1.00  0.00    -0.356 OA
HETATM   23  C1  UNL     1      17.383   8.359  19.864  1.00  0.00     0.210 C 
ENDBRANCH  20  22
ENDBRANCH  14  16
ENDBRANCH   1  10
BRANCH   1  24
HETATM   24  C13 UNL     1      24.016  12.236  19.702  1.00  0.00    -0.016 A 
HETATM   25  C14 UNL     1      24.226  12.159  18.351  1.00  0.00     0.010 A 
HETATM   26  C15 UNL     1      24.175  10.928  17.686  1.00  0.00     0.001 A 
HETATM   27  C16 UNL     1      23.909   9.758  18.387  1.00  0.00     0.000 A 
HETATM   28  C17 UNL     1      23.698   9.829  19.747  1.00  0.00     0.001 A 
HETATM   29  C18 UNL     1      23.752  11.061  20.390  1.00  0.00     0.010 A 
ENDBRANCH   1  24
TORSDOF 4
ENDMDL
