MODEL 3
REMARK VINA RESULT: -9.030157248      2.327      3.710
REMARK  4 active torsions:
REMARK  status: ('A' for Active; 'I' for Inactive)
REMARK    1  A    between atoms: O1_2  and  C2_3 
REMARK    2  A    between atoms: C6_7  and  C7_8 
REMARK    3  A    between atoms: C11_12  and  C12_13 
REMARK    4  A    between atoms: C12_13  and  C13_14 
ROOT
HETATM    1  C12 UNL     1      26.240  12.466  19.605  1.00  0.00     0.170 A 
HETATM    2  N1  UNL     1      26.694  13.033  18.365  1.00  0.00    -0.339 N 
ATOM      3  H1  UNL     1      27.023  12.486  17.569  1.00  0.00     0.164 HD
HETATM    4  C19 UNL     1      26.634  14.313  18.387  1.00  0.00     0.194 A 
HETATM    5  N2  UNL     1      27.017  15.197  17.301  1.00  0.00    -0.063 NA
HETATM    6  N3  UNL     1      26.132  14.779  19.631  1.00  0.00    -0.294 N 
HETATM    7  C20 UNL     1      25.932  16.181  20.002  1.00  0.00     0.162 C 
HETATM    8  C21 UNL     1      25.873  13.626  20.416  1.00  0.00     0.264 A 
HETATM    9  O2  UNL     1      25.409  13.643  21.601  1.00  0.00    -0.269 OA
ENDROOT
BRANCH   1  10
HETATM   10  C11 UNL     1      25.018  11.625  19.320  1.00  0.00    -0.015 A 
HETATM   11  C10 UNL     1      25.134  10.489  18.547  1.00  0.00     0.010 A 
HETATM   12  C9  UNL     1      24.022   9.693  18.261  1.00  0.00     0.002 A 
HETATM   13  C8  UNL     1      22.799  10.067  18.773  1.00  0.00     0.012 A 
HETATM   14  C7  UNL     1      22.634  11.198  19.554  1.00  0.00    -0.025 A 
HETATM   15  C22 UNL     1      23.782  11.939  19.795  1.00  0.00     0.022 A 
BRANCH  14  16
HETATM   16  C6  UNL     1      21.338  11.580  20.084  1.00  0.00    -0.023 A 
HETATM   17  C5  UNL     1      21.250  12.567  21.037  1.00  0.00     0.012 A 
HETATM   18  C4  UNL     1      20.053  12.978  21.583  1.00  0.00     0.004 A 
HETATM   19  C3  UNL     1      18.875  12.365  21.146  1.00  0.00     0.037 A 
HETATM   20  C2  UNL     1      18.933  11.374  20.191  1.00  0.00     0.069 A 
HETATM   21  C23 UNL     1      20.160  10.997  19.675  1.00  0.00     0.049 A 
BRANCH  20  22
HETATM   22  O1  UNL     1      17.754  10.786  19.779  1.00  0.00    -0.356 OA
HETATM   23  C1  UNL     1      17.378   9.549  20.371  1.00  0.00     0.210 C 
ENDBRANCH  20  22
ENDBRANCH  14  16
ENDBRANCH   1  10
BRANCH   1  24
HETATM   24  C13 UNL     1      27.315  11.647  20.221  1.00  0.00    -0.016 A 
HETATM   25  C14 UNL     1      28.559  12.160  20.477  1.00  0.00     0.010 A 
HETATM   26  C15 UNL     1      29.554  11.368  21.063  1.00  0.00     0.001 A 
HETATM   27  C16 UNL     1      29.297  10.043  21.396  1.00  0.00     0.000 A 
HETATM   28  C17 UNL     1      28.047   9.523  21.141  1.00  0.00     0.001 A 
HETATM   29  C18 UNL     1      27.072  10.325  20.558  1.00  0.00     0.010 A 
ENDBRANCH   1  24
TORSDOF 4
ENDMDL
