MODEL 9
REMARK VINA RESULT: -8.884784375      3.463      7.489
REMARK  4 active torsions:
REMARK  status: ('A' for Active; 'I' for Inactive)
REMARK    1  A    between atoms: O1_2  and  C2_3 
REMARK    2  A    between atoms: C6_7  and  C7_8 
REMARK    3  A    between atoms: C11_12  and  C12_13 
REMARK    4  A    between atoms: C12_13  and  C13_14 
ROOT
HETATM    1  C12 UNL     1      22.119  10.791  21.475  1.00  0.00     0.170 A 
HETATM    2  N1  UNL     1      22.179   9.700  22.409  1.00  0.00    -0.339 N 
ATOM      3  H1  UNL     1      22.087   8.717  22.152  1.00  0.00     0.164 HD
HETATM    4  C19 UNL     1      22.362  10.119  23.606  1.00  0.00     0.194 A 
HETATM    5  N2  UNL     1      22.469   9.283  24.789  1.00  0.00    -0.063 NA
HETATM    6  N3  UNL     1      22.454  11.535  23.642  1.00  0.00    -0.294 N 
HETATM    7  C20 UNL     1      22.661  12.349  24.842  1.00  0.00     0.162 C 
HETATM    8  C21 UNL     1      22.307  11.981  22.304  1.00  0.00     0.264 A 
HETATM    9  O2  UNL     1      22.336  13.199  21.936  1.00  0.00    -0.269 OA
ENDROOT
BRANCH   1  10
HETATM   10  C11 UNL     1      23.269  10.647  20.507  1.00  0.00    -0.015 A 
HETATM   11  C10 UNL     1      23.047  10.112  19.256  1.00  0.00     0.010 A 
HETATM   12  C9  UNL     1      24.092   9.961  18.338  1.00  0.00     0.002 A 
HETATM   13  C8  UNL     1      25.355  10.362  18.713  1.00  0.00     0.012 A 
HETATM   14  C7  UNL     1      25.625  10.904  19.958  1.00  0.00    -0.025 A 
HETATM   15  C22 UNL     1      24.541  11.022  20.814  1.00  0.00     0.022 A 
BRANCH  14  16
HETATM   16  C6  UNL     1      26.963  11.320  20.337  1.00  0.00    -0.023 A 
HETATM   17  C5  UNL     1      27.356  12.624  20.152  1.00  0.00     0.012 A 
HETATM   18  C4  UNL     1      28.610  13.086  20.489  1.00  0.00     0.004 A 
HETATM   19  C3  UNL     1      29.523  12.187  21.047  1.00  0.00     0.037 A 
HETATM   20  C2  UNL     1      29.158  10.874  21.245  1.00  0.00     0.069 A 
HETATM   21  C23 UNL     1      27.887  10.460  20.888  1.00  0.00     0.049 A 
BRANCH  20  22
HETATM   22  O1  UNL     1      30.081  10.008  21.797  1.00  0.00    -0.356 OA
HETATM   23  C1  UNL     1      29.716   9.298  22.973  1.00  0.00     0.210 C 
ENDBRANCH  20  22
ENDBRANCH  14  16
ENDBRANCH   1  10
BRANCH   1  24
HETATM   24  C13 UNL     1      20.819  10.784  20.759  1.00  0.00    -0.016 A 
HETATM   25  C14 UNL     1      20.480  11.761  19.861  1.00  0.00     0.010 A 
HETATM   26  C15 UNL     1      19.249  11.728  19.195  1.00  0.00     0.001 A 
HETATM   27  C16 UNL     1      18.345  10.701  19.435  1.00  0.00     0.000 A 
HETATM   28  C17 UNL     1      18.680   9.715  20.337  1.00  0.00     0.001 A 
HETATM   29  C18 UNL     1      19.907   9.764  20.989  1.00  0.00     0.010 A 
ENDBRANCH   1  24
TORSDOF 4
ENDMDL
