MODEL 2
REMARK VINA RESULT: -9.055671846      3.600      7.091
REMARK  4 active torsions:
REMARK  status: ('A' for Active; 'I' for Inactive)
REMARK    1  A    between atoms: O1_2  and  C2_3 
REMARK    2  A    between atoms: C6_7  and  C7_8 
REMARK    3  A    between atoms: C11_12  and  C12_13 
REMARK    4  A    between atoms: C12_13  and  C13_14 
ROOT
HETATM    1  C12 UNL     1      19.708  13.143  23.653  1.00  0.00     0.170 A 
HETATM    2  N1  UNL     1      18.433  12.848  24.248  1.00  0.00    -0.339 N 
ATOM      3  H1  UNL     1      17.543  13.221  23.916  1.00  0.00     0.164 HD
HETATM    4  C19 UNL     1      18.556  12.056  25.248  1.00  0.00     0.194 A 
HETATM    5  N2  UNL     1      17.469  11.559  26.072  1.00  0.00    -0.063 NA
HETATM    6  N3  UNL     1      19.916  11.709  25.459  1.00  0.00    -0.294 N 
HETATM    7  C20 UNL     1      20.420  10.826  26.513  1.00  0.00     0.162 C 
HETATM    8  C21 UNL     1      20.663  12.384  24.460  1.00  0.00     0.264 A 
HETATM    9  O2  UNL     1      21.926  12.316  24.325  1.00  0.00    -0.269 OA
ENDROOT
BRANCH   1  10
HETATM   10  C11 UNL     1      19.699  12.625  22.235  1.00  0.00    -0.015 A 
HETATM   11  C10 UNL     1      18.499  12.411  21.592  1.00  0.00     0.010 A 
HETATM   12  C9  UNL     1      18.457  11.927  20.280  1.00  0.00     0.002 A 
HETATM   13  C8  UNL     1      19.648  11.669  19.640  1.00  0.00     0.012 A 
HETATM   14  C7  UNL     1      20.877  11.869  20.245  1.00  0.00    -0.025 A 
HETATM   15  C22 UNL     1      20.840  12.349  21.546  1.00  0.00     0.022 A 
BRANCH  14  16
HETATM   16  C6  UNL     1      22.124  11.589  19.556  1.00  0.00    -0.023 A 
HETATM   17  C5  UNL     1      22.487  10.290  19.294  1.00  0.00     0.012 A 
HETATM   18  C4  UNL     1      23.656   9.952  18.644  1.00  0.00     0.004 A 
HETATM   19  C3  UNL     1      24.509  10.980  18.233  1.00  0.00     0.037 A 
HETATM   20  C2  UNL     1      24.171  12.292  18.481  1.00  0.00     0.069 A 
HETATM   21  C23 UNL     1      22.987  12.577  19.137  1.00  0.00     0.049 A 
BRANCH  20  22
HETATM   22  O1  UNL     1      25.034  13.286  18.064  1.00  0.00    -0.356 OA
HETATM   23  C1  UNL     1      26.401  13.190  18.441  1.00  0.00     0.210 C 
ENDBRANCH  20  22
ENDBRANCH  14  16
ENDBRANCH   1  10
BRANCH   1  24
HETATM   24  C13 UNL     1      19.962  14.606  23.682  1.00  0.00    -0.016 A 
HETATM   25  C14 UNL     1      21.154  15.143  23.273  1.00  0.00     0.010 A 
HETATM   26  C15 UNL     1      21.366  16.527  23.306  1.00  0.00     0.001 A 
HETATM   27  C16 UNL     1      20.368  17.383  23.756  1.00  0.00     0.000 A 
HETATM   28  C17 UNL     1      19.167  16.849  24.167  1.00  0.00     0.001 A 
HETATM   29  C18 UNL     1      18.975  15.472  24.128  1.00  0.00     0.010 A 
ENDBRANCH   1  24
TORSDOF 4
ENDMDL
