MODEL 4
REMARK VINA RESULT: -8.698724238      2.706      7.028
REMARK  3 active torsions:
REMARK  status: ('A' for Active; 'I' for Inactive)
REMARK    1  A    between atoms: C3_5  and  C4_6 
REMARK    2  A    between atoms: C3_5  and  C10_12 
REMARK    3  A    between atoms: C14_16  and  C15_17 
ROOT
HETATM    1  C1  UNL     1      22.366  12.797  25.054  1.00  0.00     0.162 C 
HETATM    2  N1  UNL     1      22.315  12.133  23.741  1.00  0.00    -0.294 N 
HETATM    3  C2  UNL     1      22.043  12.753  22.492  1.00  0.00     0.264 A 
HETATM    4  O1  UNL     1      21.807  13.979  22.380  1.00  0.00    -0.269 OA
HETATM    5  C3  UNL     1      22.095  11.712  21.459  1.00  0.00     0.170 A 
HETATM    6  N3  UNL     1      22.408  10.526  22.220  1.00  0.00    -0.339 N 
ATOM      7  H3  UNL     1      22.521   9.602  21.804  1.00  0.00     0.164 HD
HETATM    8  C21 UNL     1      22.529  10.758  23.475  1.00  0.00     0.194 A 
HETATM    9  N4  UNL     1      22.835   9.810  24.514  1.00  0.00    -0.063 NA
ENDROOT
BRANCH   5  10
HETATM   10  C4  UNL     1      20.765  11.459  20.825  1.00  0.00    -0.016 A 
HETATM   11  C5  UNL     1      19.607  12.095  21.223  1.00  0.00     0.010 A 
HETATM   12  C6  UNL     1      18.379  11.856  20.637  1.00  0.00     0.001 A 
HETATM   13  C7  UNL     1      18.283  10.959  19.620  1.00  0.00     0.000 A 
HETATM   14  C8  UNL     1      19.402  10.305  19.192  1.00  0.00     0.001 A 
HETATM   15  C9  UNL     1      20.614  10.550  19.781  1.00  0.00     0.010 A 
ENDBRANCH   5  10
BRANCH   5  16
HETATM   16  C10 UNL     1      23.145  11.927  20.429  1.00  0.00    -0.015 A 
HETATM   17  C11 UNL     1      22.771  12.440  19.195  1.00  0.00     0.010 A 
HETATM   18  C12 UNL     1      23.729  12.657  18.216  1.00  0.00     0.002 A 
HETATM   19  C13 UNL     1      25.065  12.373  18.439  1.00  0.00     0.012 A 
HETATM   20  C14 UNL     1      25.448  11.867  19.654  1.00  0.00    -0.024 A 
HETATM   21  C20 UNL     1      24.471  11.660  20.612  1.00  0.00     0.022 A 
BRANCH  20  22
HETATM   22  C15 UNL     1      26.855  11.551  19.946  1.00  0.00    -0.011 A 
HETATM   23  C16 UNL     1      27.335  10.295  19.667  1.00  0.00     0.015 A 
HETATM   24  C17 UNL     1      28.665  10.052  19.957  1.00  0.00     0.018 A 
HETATM   25  C18 UNL     1      29.482  11.019  20.502  1.00  0.00     0.087 A 
HETATM   26  N2  UNL     1      28.957  12.223  20.751  1.00  0.00    -0.374 N 
HETATM   27  C19 UNL     1      27.681  12.521  20.493  1.00  0.00     0.099 A 
ATOM     28  H2  UNL     1      29.556  12.944  21.154  1.00  0.00     0.164 HD
ENDBRANCH  20  22
ENDBRANCH   5  16
TORSDOF 3
ENDMDL
