MODEL 1
REMARK VINA RESULT: -9.206542247      0.000      0.000
REMARK  3 active torsions:
REMARK  status: ('A' for Active; 'I' for Inactive)
REMARK    1  A    between atoms: C3_5  and  C4_6 
REMARK    2  A    between atoms: C3_5  and  C10_12 
REMARK    3  A    between atoms: C14_16  and  C15_17 
ROOT
HETATM    1  C1  UNL     1      23.467  12.453  24.599  1.00  0.00     0.162 C 
HETATM    2  N1  UNL     1      22.869  12.492  23.255  1.00  0.00    -0.294 N 
HETATM    3  C2  UNL     1      22.537  11.372  22.447  1.00  0.00     0.264 A 
HETATM    4  O1  UNL     1      22.730  10.188  22.813  1.00  0.00    -0.269 OA
HETATM    5  C3  UNL     1      21.969  11.882  21.193  1.00  0.00     0.170 A 
HETATM    6  N3  UNL     1      22.016  13.312  21.383  1.00  0.00    -0.339 N 
ATOM      7  H3  UNL     1      21.690  13.984  20.689  1.00  0.00     0.164 HD
HETATM    8  C21 UNL     1      22.511  13.647  22.517  1.00  0.00     0.194 A 
HETATM    9  N4  UNL     1      22.705  14.979  23.027  1.00  0.00    -0.063 NA
ENDROOT
BRANCH   5  10
HETATM   10  C4  UNL     1      22.831  11.592  20.007  1.00  0.00    -0.016 A 
HETATM   11  C5  UNL     1      23.251  10.321  19.674  1.00  0.00     0.010 A 
HETATM   12  C6  UNL     1      24.051  10.057  18.578  1.00  0.00     0.001 A 
HETATM   13  C7  UNL     1      24.454  11.080  17.778  1.00  0.00     0.000 A 
HETATM   14  C8  UNL     1      24.063  12.355  18.069  1.00  0.00     0.001 A 
HETATM   15  C9  UNL     1      23.270  12.604  19.157  1.00  0.00     0.010 A 
ENDBRANCH   5  10
BRANCH   5  16
HETATM   16  C10 UNL     1      20.564  11.464  20.947  1.00  0.00    -0.015 A 
HETATM   17  C11 UNL     1      20.087  11.469  19.644  1.00  0.00     0.010 A 
HETATM   18  C12 UNL     1      18.783  11.079  19.381  1.00  0.00     0.002 A 
HETATM   19  C13 UNL     1      17.931  10.681  20.396  1.00  0.00     0.012 A 
HETATM   20  C14 UNL     1      18.389  10.671  21.688  1.00  0.00    -0.024 A 
HETATM   21  C20 UNL     1      19.695  11.065  21.921  1.00  0.00     0.022 A 
BRANCH  20  22
HETATM   22  C15 UNL     1      17.528  10.253  22.806  1.00  0.00    -0.011 A 
HETATM   23  C16 UNL     1      16.336   9.626  22.539  1.00  0.00     0.015 A 
HETATM   24  C17 UNL     1      15.568   9.250  23.626  1.00  0.00     0.018 A 
HETATM   25  C18 UNL     1      15.970   9.489  24.922  1.00  0.00     0.087 A 
HETATM   26  N2  UNL     1      17.141  10.103  25.118  1.00  0.00    -0.374 N 
HETATM   27  C19 UNL     1      17.929  10.490  24.112  1.00  0.00     0.099 A 
ATOM     28  H2  UNL     1      17.445  10.283  26.075  1.00  0.00     0.164 HD
ENDBRANCH  20  22
ENDBRANCH   5  16
TORSDOF 3
ENDMDL
