MODEL 2
REMARK VINA RESULT: -9.087466372      1.348      1.379
REMARK  3 active torsions:
REMARK  status: ('A' for Active; 'I' for Inactive)
REMARK    1  A    between atoms: C3_5  and  C4_6 
REMARK    2  A    between atoms: C3_5  and  C10_12 
REMARK    3  A    between atoms: C14_16  and  C15_17 
ROOT
HETATM    1  C1  UNL     1      23.632  12.498  24.544  1.00  0.00     0.162 C 
HETATM    2  N1  UNL     1      23.061  12.620  23.194  1.00  0.00    -0.294 N 
HETATM    3  C2  UNL     1      22.611  11.555  22.369  1.00  0.00     0.264 A 
HETATM    4  O1  UNL     1      22.658  10.353  22.724  1.00  0.00    -0.269 OA
HETATM    5  C3  UNL     1      22.123  12.140  21.114  1.00  0.00     0.170 A 
HETATM    6  N3  UNL     1      22.336  13.553  21.321  1.00  0.00    -0.339 N 
ATOM      7  H3  UNL     1      22.100  14.266  20.630  1.00  0.00     0.164 HD
HETATM    8  C21 UNL     1      22.851  13.816  22.464  1.00  0.00     0.194 A 
HETATM    9  N4  UNL     1      23.193  15.111  22.991  1.00  0.00    -0.063 NA
ENDROOT
BRANCH   5  10
HETATM   10  C4  UNL     1      22.962  11.762  19.936  1.00  0.00    -0.016 A 
HETATM   11  C5  UNL     1      23.346  10.465  19.669  1.00  0.00     0.010 A 
HETATM   12  C6  UNL     1      24.124  10.119  18.580  1.00  0.00     0.001 A 
HETATM   13  C7  UNL     1      24.539  11.086  17.719  1.00  0.00     0.000 A 
HETATM   14  C8  UNL     1      24.184  12.384  17.942  1.00  0.00     0.001 A 
HETATM   15  C9  UNL     1      23.413  12.713  19.024  1.00  0.00     0.010 A 
ENDBRANCH   5  10
BRANCH   5  16
HETATM   16  C10 UNL     1      20.682  11.893  20.846  1.00  0.00    -0.015 A 
HETATM   17  C11 UNL     1      20.314  11.375  19.612  1.00  0.00     0.010 A 
HETATM   18  C12 UNL     1      18.979  11.129  19.334  1.00  0.00     0.002 A 
HETATM   19  C13 UNL     1      17.989  11.389  20.266  1.00  0.00     0.012 A 
HETATM   20  C14 UNL     1      18.338  11.900  21.488  1.00  0.00    -0.024 A 
HETATM   21  C20 UNL     1      19.678  12.137  21.738  1.00  0.00     0.022 A 
BRANCH  20  22
HETATM   22  C15 UNL     1      17.327  12.191  22.517  1.00  0.00    -0.011 A 
HETATM   23  C16 UNL     1      16.070  12.587  22.133  1.00  0.00     0.015 A 
HETATM   24  C17 UNL     1      15.157  12.843  23.140  1.00  0.00     0.018 A 
HETATM   25  C18 UNL     1      15.483  12.712  24.472  1.00  0.00     0.087 A 
HETATM   26  N2  UNL     1      16.724  12.323  24.784  1.00  0.00    -0.374 N 
HETATM   27  C19 UNL     1      17.650  12.060  23.859  1.00  0.00     0.099 A 
ATOM     28  H2  UNL     1      16.972  12.224  25.768  1.00  0.00     0.164 HD
ENDBRANCH  20  22
ENDBRANCH   5  16
TORSDOF 3
ENDMDL
