MODEL 3
REMARK VINA RESULT: -8.920332013      0.727      1.377
REMARK  3 active torsions:
REMARK  status: ('A' for Active; 'I' for Inactive)
REMARK    1  A    between atoms: C3_5  and  C4_6 
REMARK    2  A    between atoms: C3_5  and  C10_12 
REMARK    3  A    between atoms: C14_16  and  C15_17 
ROOT
HETATM    1  C1  UNL     1      22.968  12.258  24.818  1.00  0.00     0.162 C 
HETATM    2  N1  UNL     1      22.436  12.325  23.449  1.00  0.00    -0.294 N 
HETATM    3  C2  UNL     1      22.152  11.223  22.598  1.00  0.00     0.264 A 
HETATM    4  O1  UNL     1      22.336  10.032  22.945  1.00  0.00    -0.269 OA
HETATM    5  C3  UNL     1      21.641  11.760  21.331  1.00  0.00     0.170 A 
HETATM    6  N3  UNL     1      21.667  13.185  21.558  1.00  0.00    -0.339 N 
ATOM      7  H3  UNL     1      21.370  13.872  20.865  1.00  0.00     0.164 HD
HETATM    8  C21 UNL     1      22.104  13.496  22.722  1.00  0.00     0.194 A 
HETATM    9  N4  UNL     1      22.262  14.816  23.272  1.00  0.00    -0.063 NA
ENDROOT
BRANCH   5  10
HETATM   10  C4  UNL     1      22.562  11.504  20.182  1.00  0.00    -0.016 A 
HETATM   11  C5  UNL     1      23.066  12.509  19.383  1.00  0.00     0.010 A 
HETATM   12  C6  UNL     1      23.915  12.269  18.319  1.00  0.00     0.001 A 
HETATM   13  C7  UNL     1      24.283  10.993  18.028  1.00  0.00     0.000 A 
HETATM   14  C8  UNL     1      23.808   9.966  18.791  1.00  0.00     0.001 A 
HETATM   15  C9  UNL     1      22.968  10.216  19.843  1.00  0.00     0.010 A 
ENDBRANCH   5  10
BRANCH   5  16
HETATM   16  C10 UNL     1      20.252  11.339  21.007  1.00  0.00    -0.015 A 
HETATM   17  C11 UNL     1      19.835  11.387  19.685  1.00  0.00     0.010 A 
HETATM   18  C12 UNL     1      18.547  10.996  19.350  1.00  0.00     0.002 A 
HETATM   19  C13 UNL     1      17.656  10.552  20.311  1.00  0.00     0.012 A 
HETATM   20  C14 UNL     1      18.056  10.499  21.621  1.00  0.00    -0.024 A 
HETATM   21  C20 UNL     1      19.345  10.897  21.926  1.00  0.00     0.022 A 
BRANCH  20  22
HETATM   22  C15 UNL     1      17.151  10.032  22.683  1.00  0.00    -0.011 A 
HETATM   23  C16 UNL     1      17.438  10.332  23.992  1.00  0.00     0.015 A 
HETATM   24  C17 UNL     1      16.552   9.873  24.950  1.00  0.00     0.018 A 
HETATM   25  C18 UNL     1      15.429   9.147  24.618  1.00  0.00     0.087 A 
HETATM   26  N2  UNL     1      15.203   8.887  23.326  1.00  0.00    -0.374 N 
HETATM   27  C19 UNL     1      16.019   9.302  22.354  1.00  0.00     0.099 A 
ATOM     28  H2  UNL     1      14.374   8.350  23.073  1.00  0.00     0.164 HD
ENDBRANCH  20  22
ENDBRANCH   5  16
TORSDOF 3
ENDMDL
