MODEL 11
REMARK VINA RESULT: -8.189748486      3.118      6.617
REMARK  3 active torsions:
REMARK  status: ('A' for Active; 'I' for Inactive)
REMARK    1  A    between atoms: C3_5  and  C4_6 
REMARK    2  A    between atoms: C3_5  and  C15_20 
REMARK    3  A    between atoms: C8_10  and  C9_11 
ROOT
HETATM    1  C4  UNL     1      23.787  11.629  20.516  1.00  0.00    -0.019 A 
HETATM    2  C5  UNL     1      23.677  11.632  19.147  1.00  0.00     0.010 A 
HETATM    3  C6  UNL     1      24.780  11.498  18.320  1.00  0.00     0.002 A 
HETATM    4  C7  UNL     1      26.006  11.359  18.876  1.00  0.00     0.012 A 
HETATM    5  C8  UNL     1      26.171  11.350  20.242  1.00  0.00    -0.024 A 
HETATM    6  C14 UNL     1      25.058  11.485  21.040  1.00  0.00     0.022 A 
ENDROOT
BRANCH   1   7
HETATM    7  C3  UNL     1      22.580  11.767  21.331  1.00  0.00     0.145 A 
HETATM    8  C2  UNL     1      22.295  13.164  21.717  1.00  0.00     0.259 A 
HETATM    9  N1  UNL     1      22.357  13.252  23.128  1.00  0.00    -0.294 N 
HETATM   10  O1  UNL     1      22.034  14.161  20.986  1.00  0.00    -0.270 OA
HETATM   11  C1  UNL     1      22.156  14.402  23.990  1.00  0.00     0.162 C 
HETATM   12  C18 UNL     1      22.666  11.950  23.598  1.00  0.00     0.194 A 
HETATM   13  N3  UNL     1      22.789  11.127  22.619  1.00  0.00    -0.342 N 
HETATM   14  N4  UNL     1      22.815  11.620  24.995  1.00  0.00    -0.063 NA
ATOM     15  H3  UNL     1      23.008  10.137  22.734  1.00  0.00     0.163 HD
BRANCH   7  16
HETATM   16  C15 UNL     1      21.395  11.101  20.671  1.00  0.00     0.028 A 
HETATM   17  C16 UNL     1      20.571  10.226  21.583  1.00  0.00     0.008 A 
HETATM   18  C17 UNL     1      21.323   9.673  20.379  1.00  0.00     0.008 A 
ENDBRANCH   7  16
ENDBRANCH   1   7
BRANCH   5  19
HETATM   19  C9  UNL     1      27.519  11.197  20.784  1.00  0.00    -0.009 A 
HETATM   20  C10 UNL     1      28.565  11.963  20.304  1.00  0.00     0.100 A 
HETATM   21  N2  UNL     1      29.819  11.828  20.800  1.00  0.00    -0.373 N 
HETATM   22  C11 UNL     1      30.131  10.957  21.777  1.00  0.00     0.111 A 
ATOM     23  H2  UNL     1      30.559  12.414  20.416  1.00  0.00     0.164 HD
HETATM   24  C12 UNL     1      29.115  10.174  22.283  1.00  0.00     0.050 A 
HETATM   25 CL1  UNL     1      29.520   9.040  23.555  1.00  0.00    -0.083 Cl
HETATM   26  C13 UNL     1      27.827  10.299  21.788  1.00  0.00     0.038 A 
ENDBRANCH   5  19
TORSDOF 3
ENDMDL
