MODEL 1
REMARK VINA RESULT: -8.537212661      0.000      0.000
REMARK  3 active torsions:
REMARK  status: ('A' for Active; 'I' for Inactive)
REMARK    1  A    between atoms: C3_5  and  C4_6 
REMARK    2  A    between atoms: C3_5  and  C15_20 
REMARK    3  A    between atoms: C8_10  and  C9_11 
ROOT
HETATM    1  C4  UNL     1      26.143  11.760  19.881  1.00  0.00    -0.019 A 
HETATM    2  C5  UNL     1      25.837  11.770  18.542  1.00  0.00     0.010 A 
HETATM    3  C6  UNL     1      24.537  11.635  18.082  1.00  0.00     0.002 A 
HETATM    4  C7  UNL     1      23.534  11.489  18.979  1.00  0.00     0.012 A 
HETATM    5  C8  UNL     1      23.787  11.472  20.332  1.00  0.00    -0.024 A 
HETATM    6  C14 UNL     1      25.087  11.609  20.760  1.00  0.00     0.022 A 
ENDROOT
BRANCH   1   7
HETATM    7  C3  UNL     1      27.536  11.915  20.297  1.00  0.00     0.145 A 
HETATM    8  C2  UNL     1      28.156  10.649  20.737  1.00  0.00     0.259 A 
HETATM    9  N1  UNL     1      28.514  10.784  22.099  1.00  0.00    -0.294 N 
HETATM   10  O1  UNL     1      28.368   9.589  20.081  1.00  0.00    -0.270 OA
HETATM   11  C1  UNL     1      29.148   9.825  22.985  1.00  0.00     0.162 C 
HETATM   12  C18 UNL     1      28.131  12.093  22.487  1.00  0.00     0.194 A 
HETATM   13  N3  UNL     1      27.594  12.722  21.505  1.00  0.00    -0.342 N 
HETATM   14  N4  UNL     1      28.329  12.622  23.815  1.00  0.00    -0.063 NA
ATOM     15  H3  UNL     1      27.248  13.680  21.565  1.00  0.00     0.163 HD
BRANCH   7  16
HETATM   16  C15 UNL     1      28.350  12.614  19.234  1.00  0.00     0.028 A 
HETATM   17  C16 UNL     1      29.838  12.372  19.315  1.00  0.00     0.008 A 
HETATM   18  C17 UNL     1      29.223  13.755  19.497  1.00  0.00     0.008 A 
ENDBRANCH   7  16
ENDBRANCH   1   7
BRANCH   5  19
HETATM   19  C9  UNL     1      22.663  11.311  21.252  1.00  0.00    -0.009 A 
HETATM   20  C10 UNL     1      22.210  10.054  21.601  1.00  0.00     0.100 A 
HETATM   21  N2  UNL     1      21.169   9.894  22.454  1.00  0.00    -0.373 N 
HETATM   22  C11 UNL     1      20.514  10.928  23.012  1.00  0.00     0.111 A 
ATOM     23  H2  UNL     1      20.869   8.947  22.683  1.00  0.00     0.164 HD
HETATM   24  C12 UNL     1      20.936  12.201  22.690  1.00  0.00     0.050 A 
HETATM   25 CL1  UNL     1      20.084  13.548  23.416  1.00  0.00    -0.083 Cl
HETATM   26  C13 UNL     1      21.999  12.382  21.820  1.00  0.00     0.038 A 
ENDBRANCH   5  19
TORSDOF 3
ENDMDL
