MODEL 2
REMARK VINA RESULT: -8.450612157      1.141      1.364
REMARK  3 active torsions:
REMARK  status: ('A' for Active; 'I' for Inactive)
REMARK    1  A    between atoms: C3_5  and  C4_6 
REMARK    2  A    between atoms: C3_5  and  C15_20 
REMARK    3  A    between atoms: C8_10  and  C9_11 
ROOT
HETATM    1  C4  UNL     1      26.122  11.917  19.914  1.00  0.00    -0.019 A 
HETATM    2  C5  UNL     1      25.808  11.632  18.607  1.00  0.00     0.010 A 
HETATM    3  C6  UNL     1      24.497  11.541  18.168  1.00  0.00     0.002 A 
HETATM    4  C7  UNL     1      23.492  11.740  19.053  1.00  0.00     0.012 A 
HETATM    5  C8  UNL     1      23.753  12.028  20.373  1.00  0.00    -0.024 A 
HETATM    6  C14 UNL     1      25.064  12.112  20.781  1.00  0.00     0.022 A 
ENDROOT
BRANCH   1   7
HETATM    7  C3  UNL     1      27.527  12.005  20.308  1.00  0.00     0.145 A 
HETATM    8  C2  UNL     1      28.100  10.706  20.719  1.00  0.00     0.259 A 
HETATM    9  N1  UNL     1      28.486  10.805  22.076  1.00  0.00    -0.294 N 
HETATM   10  O1  UNL     1      28.254   9.648  20.044  1.00  0.00    -0.270 OA
HETATM   11  C1  UNL     1      29.092   9.806  22.937  1.00  0.00     0.162 C 
HETATM   12  C18 UNL     1      28.167  12.123  22.490  1.00  0.00     0.194 A 
HETATM   13  N3  UNL     1      27.642  12.791  21.526  1.00  0.00    -0.342 N 
HETATM   14  N4  UNL     1      28.410  12.624  23.821  1.00  0.00    -0.063 NA
ATOM     15  H3  UNL     1      27.339  13.762  21.606  1.00  0.00     0.163 HD
BRANCH   7  16
HETATM   16  C15 UNL     1      28.354  12.684  19.241  1.00  0.00     0.028 A 
HETATM   17  C16 UNL     1      29.834  12.394  19.306  1.00  0.00     0.008 A 
HETATM   18  C17 UNL     1      29.265  13.795  19.501  1.00  0.00     0.008 A 
ENDBRANCH   7  16
ENDBRANCH   1   7
BRANCH   5  19
HETATM   19  C9  UNL     1      22.627  12.233  21.282  1.00  0.00    -0.009 A 
HETATM   20  C10 UNL     1      22.428  13.454  21.896  1.00  0.00     0.100 A 
HETATM   21  N2  UNL     1      21.386  13.654  22.740  1.00  0.00    -0.373 N 
HETATM   22  C11 UNL     1      20.488  12.697  23.035  1.00  0.00     0.111 A 
ATOM     23  H2  UNL     1      21.278  14.572  23.170  1.00  0.00     0.164 HD
HETATM   24  C12 UNL     1      20.652  11.463  22.442  1.00  0.00     0.050 A 
HETATM   25 CL1  UNL     1      19.484  10.216  22.827  1.00  0.00    -0.083 Cl
HETATM   26  C13 UNL     1      21.711  11.241  21.577  1.00  0.00     0.038 A 
ENDBRANCH   5  19
TORSDOF 3
ENDMDL
