MODEL 3
REMARK VINA RESULT: -8.450096718      4.423      7.976
REMARK  3 active torsions:
REMARK  status: ('A' for Active; 'I' for Inactive)
REMARK    1  A    between atoms: C3_5  and  C4_6 
REMARK    2  A    between atoms: C3_5  and  C15_20 
REMARK    3  A    between atoms: C8_10  and  C9_11 
ROOT
HETATM    1  C4  UNL     1      20.472  12.096  22.954  1.00  0.00    -0.019 A 
HETATM    2  C5  UNL     1      20.144  10.813  22.588  1.00  0.00     0.010 A 
HETATM    3  C6  UNL     1      20.687  10.207  21.466  1.00  0.00     0.002 A 
HETATM    4  C7  UNL     1      21.569  10.898  20.707  1.00  0.00     0.012 A 
HETATM    5  C8  UNL     1      21.930  12.186  21.030  1.00  0.00    -0.024 A 
HETATM    6  C14 UNL     1      21.376  12.763  22.149  1.00  0.00     0.022 A 
ENDROOT
BRANCH   1   7
HETATM    7  C3  UNL     1      19.867  12.672  24.154  1.00  0.00     0.145 A 
HETATM    8  C2  UNL     1      20.584  12.316  25.395  1.00  0.00     0.259 A 
HETATM    9  N1  UNL     1      19.703  11.572  26.215  1.00  0.00    -0.294 N 
HETATM   10  O1  UNL     1      21.769  12.586  25.744  1.00  0.00    -0.270 OA
HETATM   11  C1  UNL     1      19.930  10.993  27.526  1.00  0.00     0.162 C 
HETATM   12  C18 UNL     1      18.480  11.475  25.504  1.00  0.00     0.194 A 
HETATM   13  N3  UNL     1      18.559  12.077  24.372  1.00  0.00    -0.342 N 
HETATM   14  N4  UNL     1      17.316  10.786  26.008  1.00  0.00    -0.063 NA
ATOM     15  H3  UNL     1      17.791  12.132  23.703  1.00  0.00     0.163 HD
BRANCH   7  16
HETATM   16  C15 UNL     1      19.678  14.164  24.009  1.00  0.00     0.028 A 
HETATM   17  C16 UNL     1      19.548  14.915  25.312  1.00  0.00     0.008 A 
HETATM   18  C17 UNL     1      18.422  14.856  24.287  1.00  0.00     0.008 A 
ENDBRANCH   7  16
ENDBRANCH   1   7
BRANCH   5  19
HETATM   19  C9  UNL     1      22.886  12.882  20.172  1.00  0.00    -0.009 A 
HETATM   20  C10 UNL     1      22.719  14.219  19.868  1.00  0.00     0.100 A 
HETATM   21  N2  UNL     1      23.601  14.874  19.073  1.00  0.00    -0.373 N 
HETATM   22  C11 UNL     1      24.681  14.281  18.532  1.00  0.00     0.111 A 
ATOM     23  H2  UNL     1      23.438  15.861  18.875  1.00  0.00     0.164 HD
HETATM   24  C12 UNL     1      24.883  12.946  18.812  1.00  0.00     0.050 A 
HETATM   25 CL1  UNL     1      26.289  12.173  18.109  1.00  0.00    -0.083 Cl
HETATM   26  C13 UNL     1      23.993  12.261  19.623  1.00  0.00     0.038 A 
ENDBRANCH   5  19
TORSDOF 3
ENDMDL
