MODEL 5
REMARK VINA RESULT: -8.235282189      4.061      7.213
REMARK  4 active torsions:
REMARK  status: ('A' for Active; 'I' for Inactive)
REMARK    1  A    between atoms: C3_3  and  C4_4 
REMARK    2  A    between atoms: C7_9  and  C8_10 
REMARK    3  A    between atoms: C12_14  and  C13_15 
REMARK    4  A    between atoms: C13_15  and  C14_16 
ROOT
HETATM    1  C1  UNL     1      30.492   8.324  24.273  1.00  0.00     0.112 C 
HETATM    2  C2  UNL     1      29.928   9.185  23.221  1.00  0.00    -0.105 C 
HETATM    3  C3  UNL     1      29.485   9.897  22.355  1.00  0.00    -0.066 C 
ENDROOT
BRANCH   3   4
HETATM    4  C4  UNL     1      28.972  10.770  21.310  1.00  0.00     0.034 A 
HETATM    5  C5  UNL     1      29.810  11.607  20.602  1.00  0.00     0.108 A 
HETATM    6  N1  UNL     1      29.355  12.423  19.632  1.00  0.00    -0.373 N 
HETATM    7  C6  UNL     1      28.040  12.419  19.348  1.00  0.00     0.100 A 
ATOM      8  H1  UNL     1      29.995  13.032  19.123  1.00  0.00     0.164 HD
HETATM    9  C7  UNL     1      27.153  11.613  20.012  1.00  0.00    -0.009 A 
HETATM   10  C21 UNL     1      27.628  10.778  21.008  1.00  0.00     0.035 A 
BRANCH   9  11
HETATM   11  C8  UNL     1      25.725  11.606  19.708  1.00  0.00    -0.024 A 
HETATM   12  C9  UNL     1      25.329  11.468  18.395  1.00  0.00     0.012 A 
HETATM   13  C10 UNL     1      23.982  11.461  18.103  1.00  0.00     0.002 A 
HETATM   14  C11 UNL     1      23.046  11.590  19.118  1.00  0.00     0.010 A 
HETATM   15  C12 UNL     1      23.423  11.728  20.438  1.00  0.00    -0.019 A 
HETATM   16  C20 UNL     1      24.767  11.734  20.715  1.00  0.00     0.022 A 
BRANCH  15  17
HETATM   17  C13 UNL     1      22.428  11.867  21.532  1.00  0.00     0.145 A 
HETATM   18  N2  UNL     1      22.914  11.228  22.733  1.00  0.00    -0.342 N 
HETATM   19  C17 UNL     1      23.025  12.064  23.702  1.00  0.00     0.194 A 
ATOM     20  H2  UNL     1      23.141  10.236  22.804  1.00  0.00     0.163 HD
HETATM   21  N3  UNL     1      23.487  11.695  25.010  1.00  0.00    -0.063 NA
HETATM   22  N4  UNL     1      22.624  13.362  23.301  1.00  0.00    -0.294 N 
HETATM   23  C18 UNL     1      22.634  14.538  24.174  1.00  0.00     0.162 C 
HETATM   24  C19 UNL     1      22.237  13.262  21.944  1.00  0.00     0.259 A 
HETATM   25  O1  UNL     1      21.815  14.256  21.285  1.00  0.00    -0.270 OA
BRANCH  17  26
HETATM   26  C14 UNL     1      21.128  11.235  21.057  1.00  0.00     0.028 A 
HETATM   27  C15 UNL     1      20.227  10.555  21.997  1.00  0.00     0.008 A 
HETATM   28  C16 UNL     1      21.024   9.756  21.038  1.00  0.00     0.008 A 
ENDBRANCH  17  26
ENDBRANCH  15  17
ENDBRANCH   9  11
ENDBRANCH   3   4
TORSDOF 4
ENDMDL
