MODEL 1
REMARK VINA RESULT: -8.618886782      0.000      0.000
REMARK  4 active torsions:
REMARK  status: ('A' for Active; 'I' for Inactive)
REMARK    1  A    between atoms: C3_3  and  C4_4 
REMARK    2  A    between atoms: C7_9  and  C8_10 
REMARK    3  A    between atoms: C12_14  and  C13_15 
REMARK    4  A    between atoms: C13_15  and  C14_16 
ROOT
HETATM    1  C1  UNL     1      21.186  12.928  29.250  1.00  0.00     0.112 C 
HETATM    2  C2  UNL     1      20.563  12.357  28.046  1.00  0.00    -0.105 C 
HETATM    3  C3  UNL     1      20.058  11.906  27.048  1.00  0.00    -0.066 C 
ENDROOT
BRANCH   3   4
HETATM    4  C4  UNL     1      19.448  11.386  25.833  1.00  0.00     0.034 A 
HETATM    5  C5  UNL     1      18.157  10.901  25.833  1.00  0.00     0.108 A 
HETATM    6  N1  UNL     1      17.574  10.414  24.721  1.00  0.00    -0.373 N 
HETATM    7  C6  UNL     1      18.279  10.402  23.575  1.00  0.00     0.100 A 
ATOM      8  H1  UNL     1      16.618  10.061  24.746  1.00  0.00     0.164 HD
HETATM    9  C7  UNL     1      19.566  10.868  23.505  1.00  0.00    -0.009 A 
HETATM   10  C21 UNL     1      20.157  11.366  24.653  1.00  0.00     0.035 A 
BRANCH   9  11
HETATM   11  C8  UNL     1      20.335  10.857  22.263  1.00  0.00    -0.024 A 
HETATM   12  C9  UNL     1      20.259   9.748  21.448  1.00  0.00     0.012 A 
HETATM   13  C10 UNL     1      20.983   9.733  20.276  1.00  0.00     0.002 A 
HETATM   14  C11 UNL     1      21.773  10.818  19.929  1.00  0.00     0.010 A 
HETATM   15  C12 UNL     1      21.863  11.936  20.731  1.00  0.00    -0.019 A 
HETATM   16  C20 UNL     1      21.136  11.938  21.896  1.00  0.00     0.022 A 
BRANCH  15  17
HETATM   17  C13 UNL     1      22.706  13.103  20.368  1.00  0.00     0.145 A 
HETATM   18  N2  UNL     1      22.023  14.334  20.691  1.00  0.00    -0.342 N 
HETATM   19  C17 UNL     1      22.684  15.035  21.540  1.00  0.00     0.194 A 
ATOM     20  H2  UNL     1      21.125  14.613  20.293  1.00  0.00     0.163 HD
HETATM   21  N3  UNL     1      22.232  16.303  22.036  1.00  0.00    -0.063 NA
HETATM   22  N4  UNL     1      23.894  14.390  21.897  1.00  0.00    -0.294 N 
HETATM   23  C18 UNL     1      24.871  14.930  22.845  1.00  0.00     0.162 C 
HETATM   24  C19 UNL     1      23.935  13.179  21.167  1.00  0.00     0.259 A 
HETATM   25  O1  UNL     1      24.901  12.368  21.253  1.00  0.00    -0.270 OA
BRANCH  17  26
HETATM   26  C14 UNL     1      23.005  13.011  18.879  1.00  0.00     0.028 A 
HETATM   27  C15 UNL     1      23.998  13.892  18.248  1.00  0.00     0.008 A 
HETATM   28  C16 UNL     1      22.554  14.114  17.996  1.00  0.00     0.008 A 
ENDBRANCH  17  26
ENDBRANCH  15  17
ENDBRANCH   9  11
ENDBRANCH   3   4
TORSDOF 4
ENDMDL
