MODEL 3
REMARK VINA RESULT: -8.372182346      2.464      6.973
REMARK  4 active torsions:
REMARK  status: ('A' for Active; 'I' for Inactive)
REMARK    1  A    between atoms: C3_3  and  C4_4 
REMARK    2  A    between atoms: C7_9  and  C8_10 
REMARK    3  A    between atoms: C12_14  and  C13_15 
REMARK    4  A    between atoms: C13_15  and  C14_16 
ROOT
HETATM    1  C1  UNL     1      29.314  11.999  19.520  1.00  0.00     0.112 C 
HETATM    2  C2  UNL     1      27.887  12.307  19.327  1.00  0.00    -0.105 C 
HETATM    3  C3  UNL     1      26.717  12.563  19.190  1.00  0.00    -0.066 C 
ENDROOT
BRANCH   3   4
HETATM    4  C4  UNL     1      25.302  12.868  19.049  1.00  0.00     0.034 A 
HETATM    5  C5  UNL     1      24.858  13.793  18.126  1.00  0.00     0.108 A 
HETATM    6  N1  UNL     1      23.553  14.090  17.981  1.00  0.00    -0.373 N 
HETATM    7  C6  UNL     1      22.655  13.462  18.763  1.00  0.00     0.100 A 
ATOM      8  H1  UNL     1      23.249  14.778  17.292  1.00  0.00     0.164 HD
HETATM    9  C7  UNL     1      23.028  12.533  19.699  1.00  0.00    -0.009 A 
HETATM   10  C21 UNL     1      24.372  12.234  19.843  1.00  0.00     0.035 A 
BRANCH   9  11
HETATM   11  C8  UNL     1      22.058  11.849  20.550  1.00  0.00    -0.024 A 
HETATM   12  C9  UNL     1      21.615  10.599  20.176  1.00  0.00     0.012 A 
HETATM   13  C10 UNL     1      20.699   9.950  20.976  1.00  0.00     0.002 A 
HETATM   14  C11 UNL     1      20.237  10.550  22.137  1.00  0.00     0.010 A 
HETATM   15  C12 UNL     1      20.669  11.800  22.529  1.00  0.00    -0.019 A 
HETATM   16  C20 UNL     1      21.581  12.435  21.723  1.00  0.00     0.022 A 
BRANCH  15  17
HETATM   17  C13 UNL     1      20.180  12.451  23.771  1.00  0.00     0.145 A 
HETATM   18  N2  UNL     1      18.843  11.999  24.080  1.00  0.00    -0.342 N 
HETATM   19  C17 UNL     1      18.792  11.416  25.223  1.00  0.00     0.194 A 
ATOM     20  H2  UNL     1      18.039  12.127  23.466  1.00  0.00     0.163 HD
HETATM   21  N3  UNL     1      17.586  10.870  25.775  1.00  0.00    -0.063 NA
HETATM   22  N4  UNL     1      20.067  11.403  25.843  1.00  0.00    -0.294 N 
HETATM   23  C18 UNL     1      20.343  10.812  27.154  1.00  0.00     0.162 C 
HETATM   24  C19 UNL     1      20.953  12.055  24.954  1.00  0.00     0.259 A 
HETATM   25  O1  UNL     1      22.179  12.219  25.219  1.00  0.00    -0.270 OA
BRANCH  17  26
HETATM   26  C14 UNL     1      20.218  13.955  23.549  1.00  0.00     0.028 A 
HETATM   27  C15 UNL     1      20.294  14.888  24.682  1.00  0.00     0.008 A 
HETATM   28  C16 UNL     1      19.028  14.757  23.924  1.00  0.00     0.008 A 
ENDBRANCH  17  26
ENDBRANCH  15  17
ENDBRANCH   9  11
ENDBRANCH   3   4
TORSDOF 4
ENDMDL
