MODEL 2
REMARK VINA RESULT: -8.485658483      1.321      2.537
REMARK  4 active torsions:
REMARK  status: ('A' for Active; 'I' for Inactive)
REMARK    1  A    between atoms: C3_3  and  C4_4 
REMARK    2  A    between atoms: C7_9  and  C8_10 
REMARK    3  A    between atoms: C12_14  and  C13_15 
REMARK    4  A    between atoms: C13_15  and  C14_16 
ROOT
HETATM    1  C1  UNL     1      13.775   9.781  25.286  1.00  0.00     0.112 C 
HETATM    2  C2  UNL     1      15.198  10.138  25.163  1.00  0.00    -0.105 C 
HETATM    3  C3  UNL     1      16.360  10.446  25.077  1.00  0.00    -0.066 C 
ENDROOT
BRANCH   3   4
HETATM    4  C4  UNL     1      17.758  10.838  24.986  1.00  0.00     0.034 A 
HETATM    5  C5  UNL     1      18.446  11.296  26.091  1.00  0.00     0.108 A 
HETATM    6  N1  UNL     1      19.739  11.665  26.027  1.00  0.00    -0.373 N 
HETATM    7  C6  UNL     1      20.378  11.583  24.846  1.00  0.00     0.100 A 
ATOM      8  H1  UNL     1      20.226  12.001  26.858  1.00  0.00     0.164 HD
HETATM    9  C7  UNL     1      19.755  11.137  23.710  1.00  0.00    -0.009 A 
HETATM   10  C21 UNL     1      18.425  10.760  23.783  1.00  0.00     0.035 A 
BRANCH   9  11
HETATM   11  C8  UNL     1      20.443  11.047  22.425  1.00  0.00    -0.024 A 
HETATM   12  C9  UNL     1      20.290   9.903  21.671  1.00  0.00     0.012 A 
HETATM   13  C10 UNL     1      20.939   9.813  20.459  1.00  0.00     0.002 A 
HETATM   14  C11 UNL     1      21.729  10.860  20.010  1.00  0.00     0.010 A 
HETATM   15  C12 UNL     1      21.894  12.012  20.749  1.00  0.00    -0.019 A 
HETATM   16  C20 UNL     1      21.243  12.089  21.955  1.00  0.00     0.022 A 
BRANCH  15  17
HETATM   17  C13 UNL     1      22.738  13.139  20.276  1.00  0.00     0.145 A 
HETATM   18  N2  UNL     1      22.149  14.401  20.659  1.00  0.00    -0.342 N 
HETATM   19  C17 UNL     1      22.931  15.080  21.418  1.00  0.00     0.194 A 
ATOM     20  H2  UNL     1      21.224  14.715  20.362  1.00  0.00     0.163 HD
HETATM   21  N3  UNL     1      22.592  16.371  21.945  1.00  0.00    -0.063 NA
HETATM   22  N4  UNL     1      24.146  14.386  21.643  1.00  0.00    -0.294 N 
HETATM   23  C18 UNL     1      25.246  14.892  22.467  1.00  0.00     0.162 C 
HETATM   24  C19 UNL     1      24.052  13.169  20.930  1.00  0.00     0.259 A 
HETATM   25  O1  UNL     1      24.988  12.317  20.917  1.00  0.00    -0.270 OA
BRANCH  17  26
HETATM   26  C14 UNL     1      22.862  13.022  18.765  1.00  0.00     0.028 A 
HETATM   27  C15 UNL     1      23.896  13.760  18.027  1.00  0.00     0.008 A 
HETATM   28  C16 UNL     1      22.479  14.185  17.930  1.00  0.00     0.008 A 
ENDBRANCH  17  26
ENDBRANCH  15  17
ENDBRANCH   9  11
ENDBRANCH   3   4
TORSDOF 4
ENDMDL
