MODEL 2
REMARK VINA RESULT: -9.740595249      2.499      3.619
REMARK  7 active torsions:
REMARK  status: ('A' for Active; 'I' for Inactive)
REMARK    1  A    between atoms: N1_2  and  C2_3 
REMARK    2  A    between atoms: N1_2  and  S1_20 
REMARK    3  A    between atoms: C5_6  and  C6_7 
REMARK    4  A    between atoms: C6_7  and  O1_8 
REMARK    5  A    between atoms: C6_7  and  C7_10 
REMARK    6  A    between atoms: C6_7  and  C8_14 
REMARK    7  A    between atoms: S1_20  and  C11_23 
ROOT
HETATM    1  C2  UNL     1      39.182  67.649  40.203  1.00  0.00     0.044 A 
HETATM    2  C3  UNL     1      40.366  67.855  39.560  1.00  0.00     0.031 A 
HETATM    3  C4  UNL     1      41.564  67.685  40.225  1.00  0.00     0.013 A 
HETATM    4  C5  UNL     1      41.644  67.306  41.550  1.00  0.00    -0.006 A 
HETATM    5  C9  UNL     1      40.396  67.109  42.159  1.00  0.00     0.013 A 
HETATM    6  C10 UNL     1      39.198  67.269  41.527  1.00  0.00     0.031 A 
ENDROOT
BRANCH   1   7
HETATM    7  N1  UNL     1      37.926  67.785  39.544  1.00  0.00    -0.276 N 
HETATM    8  C1  UNL     1      37.274  69.054  39.502  1.00  0.00     0.170 C 
BRANCH   7   9
HETATM    9  S1  UNL     1      37.246  66.397  38.824  1.00  0.00     0.264 S 
HETATM   10  O2  UNL     1      36.854  66.756  37.410  1.00  0.00    -0.200 OA
HETATM   11  O3  UNL     1      35.980  65.995  39.575  1.00  0.00    -0.200 OA
BRANCH   9  12
HETATM   12  C11 UNL     1      38.350  65.066  38.843  1.00  0.00     0.080 A 
HETATM   13  C12 UNL     1      39.144  64.797  37.730  1.00  0.00     0.025 A 
HETATM   14  C13 UNL     1      40.021  63.734  37.757  1.00  0.00     0.002 A 
HETATM   15  C14 UNL     1      40.134  62.920  38.874  1.00  0.00     0.000 A 
HETATM   16  C15 UNL     1      39.348  63.194  39.965  1.00  0.00     0.002 A 
HETATM   17  C16 UNL     1      38.465  64.243  39.967  1.00  0.00     0.025 A 
ENDBRANCH   9  12
ENDBRANCH   7   9
ENDBRANCH   1   7
BRANCH   4  18
HETATM   18  C6  UNL     1      42.884  67.082  42.315  1.00  0.00     0.281 C 
BRANCH  18  19
HETATM   19  O1  UNL     1      42.620  66.804  43.663  1.00  0.00    -0.370 OA
ATOM     20  H1  UNL     1      43.187  66.120  43.999  1.00  0.00     0.211 HD
ENDBRANCH  18  19
BRANCH  18  21
HETATM   21  C7  UNL     1      43.806  68.308  42.253  1.00  0.00     0.431 C 
HETATM   22  F1  UNL     1      44.893  68.040  43.056  1.00  0.00    -0.167 F 
HETATM   23  F2  UNL     1      44.143  68.618  40.953  1.00  0.00    -0.167 F 
HETATM   24  F3  UNL     1      43.101  69.419  42.726  1.00  0.00    -0.167 F 
ENDBRANCH  18  21
BRANCH  18  25
HETATM   25  C8  UNL     1      43.630  65.902  41.761  1.00  0.00     0.431 C 
HETATM   26  F4  UNL     1      44.577  66.231  40.819  1.00  0.00    -0.167 F 
HETATM   27  F5  UNL     1      42.742  64.999  41.166  1.00  0.00    -0.167 F 
HETATM   28  F6  UNL     1      44.299  65.209  42.762  1.00  0.00    -0.167 F 
ENDBRANCH  18  25
ENDBRANCH   4  18
TORSDOF 7
ENDMDL
