MODEL 8
REMARK VINA RESULT: -9.547673357      1.671      3.320
REMARK  7 active torsions:
REMARK  status: ('A' for Active; 'I' for Inactive)
REMARK    1  A    between atoms: N1_2  and  C2_3 
REMARK    2  A    between atoms: N1_2  and  S1_20 
REMARK    3  A    between atoms: C5_6  and  C6_7 
REMARK    4  A    between atoms: C6_7  and  O1_8 
REMARK    5  A    between atoms: C6_7  and  C7_10 
REMARK    6  A    between atoms: C6_7  and  C8_14 
REMARK    7  A    between atoms: S1_20  and  C11_23 
ROOT
HETATM    1  C2  UNL     1      39.796  67.630  38.660  1.00  0.00     0.044 A 
HETATM    2  C3  UNL     1      39.445  67.896  39.950  1.00  0.00     0.031 A 
HETATM    3  C4  UNL     1      40.414  68.059  40.921  1.00  0.00     0.013 A 
HETATM    4  C5  UNL     1      41.766  67.966  40.660  1.00  0.00    -0.006 A 
HETATM    5  C9  UNL     1      42.067  67.691  39.318  1.00  0.00     0.013 A 
HETATM    6  C10 UNL     1      41.131  67.526  38.339  1.00  0.00     0.031 A 
ENDROOT
BRANCH   1   7
HETATM    7  N1  UNL     1      38.829  67.485  37.625  1.00  0.00    -0.276 N 
HETATM    8  C1  UNL     1      38.791  68.419  36.546  1.00  0.00     0.170 C 
BRANCH   7   9
HETATM    9  S1  UNL     1      37.738  66.178  37.725  1.00  0.00     0.264 S 
HETATM   10  O2  UNL     1      37.160  65.953  36.348  1.00  0.00    -0.200 OA
HETATM   11  O3  UNL     1      36.590  66.538  38.664  1.00  0.00    -0.200 OA
BRANCH   9  12
HETATM   12  C11 UNL     1      38.512  64.749  38.315  1.00  0.00     0.080 A 
HETATM   13  C12 UNL     1      39.182  63.900  37.437  1.00  0.00     0.025 A 
HETATM   14  C13 UNL     1      39.797  62.764  37.918  1.00  0.00     0.002 A 
HETATM   15  C14 UNL     1      39.765  62.444  39.267  1.00  0.00     0.000 A 
HETATM   16  C15 UNL     1      39.103  63.287  40.124  1.00  0.00     0.002 A 
HETATM   17  C16 UNL     1      38.481  64.423  39.674  1.00  0.00     0.025 A 
ENDBRANCH   9  12
ENDBRANCH   7   9
ENDBRANCH   1   7
BRANCH   4  18
HETATM   18  C6  UNL     1      42.853  68.151  41.639  1.00  0.00     0.281 C 
BRANCH  18  19
HETATM   19  O1  UNL     1      43.556  69.343  41.416  1.00  0.00    -0.370 OA
ATOM     20  H1  UNL     1      43.404  69.685  40.543  1.00  0.00     0.211 HD
ENDBRANCH  18  19
BRANCH  18  21
HETATM   21  C7  UNL     1      43.855  66.990  41.585  1.00  0.00     0.431 C 
HETATM   22  F1  UNL     1      43.125  65.827  41.484  1.00  0.00    -0.167 F 
HETATM   23  F2  UNL     1      44.768  67.160  40.567  1.00  0.00    -0.167 F 
HETATM   24  F3  UNL     1      44.610  67.001  42.763  1.00  0.00    -0.167 F 
ENDBRANCH  18  21
BRANCH  18  25
HETATM   25  C8  UNL     1      42.292  68.226  43.030  1.00  0.00     0.431 C 
HETATM   26  F4  UNL     1      41.701  67.060  43.458  1.00  0.00    -0.167 F 
HETATM   27  F5  UNL     1      41.330  69.239  43.113  1.00  0.00    -0.167 F 
HETATM   28  F6  UNL     1      43.278  68.530  43.959  1.00  0.00    -0.167 F 
ENDBRANCH  18  25
ENDBRANCH   4  18
TORSDOF 7
ENDMDL
