MODEL 7
REMARK VINA RESULT: -9.607754231      2.620      3.290
REMARK  7 active torsions:
REMARK  status: ('A' for Active; 'I' for Inactive)
REMARK    1  A    between atoms: N1_2  and  C2_3 
REMARK    2  A    between atoms: N1_2  and  S1_20 
REMARK    3  A    between atoms: C5_6  and  C6_7 
REMARK    4  A    between atoms: C6_7  and  O1_8 
REMARK    5  A    between atoms: C6_7  and  C7_10 
REMARK    6  A    between atoms: C6_7  and  C8_14 
REMARK    7  A    between atoms: S1_20  and  C11_23 
ROOT
HETATM    1  C2  UNL     1      39.321  67.539  40.451  1.00  0.00     0.044 A 
HETATM    2  C3  UNL     1      39.637  67.347  41.763  1.00  0.00     0.031 A 
HETATM    3  C4  UNL     1      40.922  67.573  42.216  1.00  0.00     0.013 A 
HETATM    4  C5  UNL     1      41.948  67.995  41.394  1.00  0.00    -0.006 A 
HETATM    5  C9  UNL     1      41.565  68.174  40.056  1.00  0.00     0.013 A 
HETATM    6  C10 UNL     1      40.304  67.960  39.582  1.00  0.00     0.031 A 
ENDROOT
BRANCH   1   7
HETATM    7  N1  UNL     1      38.001  67.347  39.952  1.00  0.00    -0.276 N 
HETATM    8  C1  UNL     1      37.285  68.443  39.383  1.00  0.00     0.170 C 
BRANCH   7   9
HETATM    9  S1  UNL     1      37.323  65.786  40.061  1.00  0.00     0.264 S 
HETATM   10  O2  UNL     1      35.941  65.840  39.455  1.00  0.00    -0.200 OA
HETATM   11  O3  UNL     1      37.178  65.389  41.527  1.00  0.00    -0.200 OA
BRANCH   9  12
HETATM   12  C11 UNL     1      38.307  64.610  39.262  1.00  0.00     0.080 A 
HETATM   13  C12 UNL     1      39.066  63.708  40.004  1.00  0.00     0.025 A 
HETATM   14  C13 UNL     1      39.846  62.773  39.357  1.00  0.00     0.002 A 
HETATM   15  C14 UNL     1      39.892  62.709  37.972  1.00  0.00     0.000 A 
HETATM   16  C15 UNL     1      39.140  63.600  37.250  1.00  0.00     0.002 A 
HETATM   17  C16 UNL     1      38.357  64.541  37.866  1.00  0.00     0.025 A 
ENDBRANCH   9  12
ENDBRANCH   7   9
ENDBRANCH   1   7
BRANCH   4  18
HETATM   18  C6  UNL     1      43.333  68.277  41.810  1.00  0.00     0.281 C 
BRANCH  18  19
HETATM   19  O1  UNL     1      44.007  69.073  40.873  1.00  0.00    -0.370 OA
ATOM     20  H1  UNL     1      44.729  68.607  40.470  1.00  0.00     0.211 HD
ENDBRANCH  18  19
BRANCH  18  21
HETATM   21  C7  UNL     1      44.134  66.982  41.999  1.00  0.00     0.431 C 
HETATM   22  F1  UNL     1      45.320  67.323  42.612  1.00  0.00    -0.167 F 
HETATM   23  F2  UNL     1      43.407  66.037  42.690  1.00  0.00    -0.167 F 
HETATM   24  F3  UNL     1      44.370  66.418  40.741  1.00  0.00    -0.167 F 
ENDBRANCH  18  21
BRANCH  18  25
HETATM   25  C8  UNL     1      43.341  69.030  43.110  1.00  0.00     0.431 C 
HETATM   26  F4  UNL     1      43.384  68.223  44.223  1.00  0.00    -0.167 F 
HETATM   27  F5  UNL     1      42.198  69.831  43.217  1.00  0.00    -0.167 F 
HETATM   28  F6  UNL     1      44.437  69.878  43.199  1.00  0.00    -0.167 F 
ENDBRANCH  18  25
ENDBRANCH   4  18
TORSDOF 7
ENDMDL
