MODEL 3
REMARK VINA RESULT: -8.711818048      1.255      1.720
REMARK  3 active torsions:
REMARK  status: ('A' for Active; 'I' for Inactive)
REMARK    1  A    between atoms: C6_7  and  N2_8 
REMARK       I    between atoms: N2_8  and  C7_10 
REMARK    2  A    between atoms: C7_10  and  C8_12 
REMARK       I    between atoms: C8_12  and  N3_14 
REMARK    3  A    between atoms: N3_14  and  C9_16 
ROOT
HETATM    1  N2  UNL     1      29.237 -14.871  37.320  1.00  0.00    -0.348 N 
ATOM      2  H2  UNL     1      29.006 -13.879  37.362  1.00  0.00     0.163 HD
HETATM    3  C7  UNL     1      28.618 -15.741  38.228  1.00  0.00     0.310 C 
HETATM    4  O1  UNL     1      28.898 -16.956  38.178  1.00  0.00    -0.262 OA
ENDROOT
BRANCH   3   5
HETATM    5  C8  UNL     1      27.647 -15.276  39.242  1.00  0.00     0.313 C 
HETATM    6  O2  UNL     1      26.519 -14.869  38.918  1.00  0.00    -0.262 OA
HETATM    7  N3  UNL     1      28.014 -15.296  40.600  1.00  0.00    -0.319 N 
ATOM      8  H3  UNL     1      28.955 -15.638  40.798  1.00  0.00     0.169 HD
BRANCH   7   9
HETATM    9  C9  UNL     1      27.264 -14.913  41.715  1.00  0.00     0.038 A 
HETATM   10  C10 UNL     1      27.854 -14.587  42.897  1.00  0.00     0.031 A 
HETATM   11  C11 UNL     1      27.059 -14.225  43.984  1.00  0.00     0.029 A 
HETATM   12  C12 UNL     1      25.694 -14.198  43.861  1.00  0.00     0.072 A 
HETATM   13 CL1  UNL     1      24.685 -13.740  45.238  1.00  0.00    -0.081 Cl
HETATM   14  C13 UNL     1      25.104 -14.525  42.671  1.00  0.00     0.140 A 
HETATM   15  F1  UNL     1      23.757 -14.500  42.546  1.00  0.00    -0.204 F 
HETATM   16  C14 UNL     1      25.891 -14.877  41.619  1.00  0.00     0.073 A 
ENDBRANCH   7   9
ENDBRANCH   3   5
BRANCH   1  17
HETATM   17  C6  UNL     1      30.202 -15.327  36.311  1.00  0.00     0.089 C 
HETATM   18  C5  UNL     1      29.582 -16.232  35.309  1.00  0.00     0.066 C 
HETATM   19  C2  UNL     1      28.881 -15.536  34.178  1.00  0.00     0.155 C 
HETATM   20  N1  UNL     1      29.478 -14.312  33.768  1.00  0.00     0.102 N 
HETATM   21  C3  UNL     1      28.753 -16.554  33.049  1.00  0.00     0.049 C 
HETATM   22  C4  UNL     1      27.445 -15.271  34.656  1.00  0.00     0.049 C 
HETATM   23  C1  UNL     1      29.416 -14.051  32.354  1.00  0.00     0.311 C 
HETATM   24  C16 UNL     1      30.850 -14.142  34.195  1.00  0.00     0.155 C 
HETATM   25  C15 UNL     1      30.861 -14.108  35.695  1.00  0.00     0.066 C 
HETATM   26  C17 UNL     1      31.798 -15.122  33.595  1.00  0.00     0.049 C 
HETATM   27  C18 UNL     1      31.281 -12.746  33.724  1.00  0.00     0.049 C 
ENDBRANCH   1  17
TORSDOF 3
ENDMDL
