MODEL 2
REMARK VINA RESULT: -8.744671861      1.017      1.176
REMARK  3 active torsions:
REMARK  status: ('A' for Active; 'I' for Inactive)
REMARK    1  A    between atoms: C6_7  and  N2_8 
REMARK       I    between atoms: N2_8  and  C7_10 
REMARK    2  A    between atoms: C7_10  and  C8_12 
REMARK       I    between atoms: C8_12  and  N3_14 
REMARK    3  A    between atoms: N3_14  and  C9_16 
ROOT
HETATM    1  N2  UNL     1      28.207 -15.197  36.839  1.00  0.00    -0.348 N 
ATOM      2  H2  UNL     1      27.658 -14.354  36.669  1.00  0.00     0.163 HD
HETATM    3  C7  UNL     1      28.136 -15.798  38.102  1.00  0.00     0.310 C 
HETATM    4  O1  UNL     1      28.805 -16.831  38.312  1.00  0.00    -0.262 OA
ENDROOT
BRANCH   3   5
HETATM    5  C8  UNL     1      27.299 -15.259  39.195  1.00  0.00     0.313 C 
HETATM    6  O2  UNL     1      26.202 -14.722  38.966  1.00  0.00    -0.262 OA
HETATM    7  N3  UNL     1      27.759 -15.357  40.521  1.00  0.00    -0.319 N 
ATOM      8  H3  UNL     1      28.668 -15.805  40.641  1.00  0.00     0.169 HD
BRANCH   7   9
HETATM    9  C9  UNL     1      27.140 -14.926  41.697  1.00  0.00     0.038 A 
HETATM   10  C10 UNL     1      27.857 -14.599  42.806  1.00  0.00     0.031 A 
HETATM   11  C11 UNL     1      27.190 -14.188  43.960  1.00  0.00     0.029 A 
HETATM   12  C12 UNL     1      25.821 -14.114  43.975  1.00  0.00     0.072 A 
HETATM   13 CL1  UNL     1      24.974 -13.594  45.435  1.00  0.00    -0.081 Cl
HETATM   14  C13 UNL     1      25.103 -14.443  42.858  1.00  0.00     0.140 A 
HETATM   15  F1  UNL     1      23.751 -14.371  42.868  1.00  0.00    -0.204 F 
HETATM   16  C14 UNL     1      25.767 -14.842  41.739  1.00  0.00     0.073 A 
ENDBRANCH   7   9
ENDBRANCH   3   5
BRANCH   1  17
HETATM   17  C6  UNL     1      29.036 -15.728  35.748  1.00  0.00     0.089 C 
HETATM   18  C5  UNL     1      28.616 -15.210  34.421  1.00  0.00     0.066 C 
HETATM   19  C2  UNL     1      29.179 -13.866  34.059  1.00  0.00     0.155 C 
HETATM   20  N1  UNL     1      30.493 -13.620  34.543  1.00  0.00     0.102 N 
HETATM   21  C3  UNL     1      29.056 -13.733  32.544  1.00  0.00     0.049 C 
HETATM   22  C4  UNL     1      28.214 -12.822  34.642  1.00  0.00     0.049 C 
HETATM   23  C1  UNL     1      31.329 -12.849  33.659  1.00  0.00     0.311 C 
HETATM   24  C16 UNL     1      31.223 -14.808  34.927  1.00  0.00     0.155 C 
HETATM   25  C15 UNL     1      30.490 -15.443  36.072  1.00  0.00     0.066 C 
HETATM   26  C17 UNL     1      31.517 -15.732  33.797  1.00  0.00     0.049 C 
HETATM   27  C18 UNL     1      32.570 -14.328  35.485  1.00  0.00     0.049 C 
ENDBRANCH   1  17
TORSDOF 3
ENDMDL
