MODEL 5
REMARK VINA RESULT: -8.353868731      1.255      1.723
REMARK  3 active torsions:
REMARK  status: ('A' for Active; 'I' for Inactive)
REMARK    1  A    between atoms: C6_7  and  N2_8 
REMARK       I    between atoms: N2_8  and  C7_10 
REMARK    2  A    between atoms: C7_10  and  C8_12 
REMARK       I    between atoms: C8_12  and  N3_14 
REMARK    3  A    between atoms: N3_14  and  C9_16 
ROOT
HETATM    1  N2  UNL     1      27.051 -15.669  36.738  1.00  0.00    -0.348 N 
ATOM      2  H2  UNL     1      26.140 -15.234  36.594  1.00  0.00     0.163 HD
HETATM    3  C7  UNL     1      27.577 -15.704  38.036  1.00  0.00     0.310 C 
HETATM    4  O1  UNL     1      28.692 -16.237  38.215  1.00  0.00    -0.262 OA
ENDROOT
BRANCH   3   5
HETATM    5  C8  UNL     1      26.864 -15.139  39.201  1.00  0.00     0.313 C 
HETATM    6  O2  UNL     1      25.816 -14.486  39.063  1.00  0.00    -0.262 OA
HETATM    7  N3  UNL     1      27.388 -15.346  40.490  1.00  0.00    -0.319 N 
ATOM      8  H3  UNL     1      28.252 -15.886  40.534  1.00  0.00     0.169 HD
BRANCH   7   9
HETATM    9  C9  UNL     1      26.885 -14.912  41.719  1.00  0.00     0.038 A 
HETATM   10  C10 UNL     1      27.705 -14.558  42.744  1.00  0.00     0.031 A 
HETATM   11  C11 UNL     1      27.153 -14.146  43.957  1.00  0.00     0.029 A 
HETATM   12  C12 UNL     1      25.791 -14.100  44.113  1.00  0.00     0.072 A 
HETATM   13 CL1  UNL     1      25.089 -13.578  45.648  1.00  0.00    -0.081 Cl
HETATM   14  C13 UNL     1      24.968 -14.456  43.080  1.00  0.00     0.140 A 
HETATM   15  F1  UNL     1      23.624 -14.412  43.230  1.00  0.00    -0.204 F 
HETATM   16  C14 UNL     1      25.521 -14.856  41.903  1.00  0.00     0.073 A 
ENDBRANCH   7   9
ENDBRANCH   3   5
BRANCH   1  17
HETATM   17  C6  UNL     1      27.755 -16.229  35.576  1.00  0.00     0.089 C 
HETATM   18  C5  UNL     1      28.005 -15.208  34.526  1.00  0.00     0.066 C 
HETATM   19  C2  UNL     1      29.232 -14.370  34.738  1.00  0.00     0.155 C 
HETATM   20  N1  UNL     1      30.320 -15.049  35.352  1.00  0.00     0.102 N 
HETATM   21  C3  UNL     1      29.586 -13.761  33.385  1.00  0.00     0.049 C 
HETATM   22  C4  UNL     1      28.802 -13.188  35.621  1.00  0.00     0.049 C 
HETATM   23  C1  UNL     1      31.623 -14.660  34.879  1.00  0.00     0.311 C 
HETATM   24  C16 UNL     1      30.236 -16.493  35.293  1.00  0.00     0.155 C 
HETATM   25  C15 UNL     1      29.018 -16.910  36.066  1.00  0.00     0.066 C 
HETATM   26  C17 UNL     1      30.310 -17.050  33.914  1.00  0.00     0.049 C 
HETATM   27  C18 UNL     1      31.447 -17.031  36.067  1.00  0.00     0.049 C 
ENDBRANCH   1  17
TORSDOF 3
ENDMDL
