MODEL 6
REMARK VINA RESULT: -8.216199847      1.771      2.387
REMARK  3 active torsions:
REMARK  status: ('A' for Active; 'I' for Inactive)
REMARK    1  A    between atoms: C6_7  and  N2_8 
REMARK       I    between atoms: N2_8  and  C7_10 
REMARK    2  A    between atoms: C7_10  and  C8_12 
REMARK       I    between atoms: C8_12  and  N3_14 
REMARK    3  A    between atoms: N3_14  and  C9_16 
ROOT
HETATM    1  N2  UNL     1      27.541 -14.644  36.415  1.00  0.00    -0.348 N 
ATOM      2  H2  UNL     1      27.335 -13.648  36.495  1.00  0.00     0.163 HD
HETATM    3  C7  UNL     1      27.177 -15.491  37.470  1.00  0.00     0.310 C 
HETATM    4  O1  UNL     1      27.427 -16.710  37.372  1.00  0.00    -0.262 OA
ENDROOT
BRANCH   3   5
HETATM    5  C8  UNL     1      26.507 -14.998  38.692  1.00  0.00     0.313 C 
HETATM    6  O2  UNL     1      25.464 -14.326  38.632  1.00  0.00    -0.262 OA
HETATM    7  N3  UNL     1      27.067 -15.300  39.947  1.00  0.00    -0.319 N 
ATOM      8  H3  UNL     1      27.925 -15.852  39.927  1.00  0.00     0.169 HD
BRANCH   7   9
HETATM    9  C9  UNL     1      26.607 -14.946  41.218  1.00  0.00     0.038 A 
HETATM   10  C10 UNL     1      25.283 -14.777  41.479  1.00  0.00     0.031 A 
HETATM   11  C11 UNL     1      24.877 -14.408  42.761  1.00  0.00     0.029 A 
HETATM   12  C12 UNL     1      25.807 -14.218  43.751  1.00  0.00     0.072 A 
HETATM   13 CL1  UNL     1      25.295 -13.751  45.376  1.00  0.00    -0.081 Cl
HETATM   14  C13 UNL     1      27.138 -14.390  43.485  1.00  0.00     0.140 A 
HETATM   15  F1  UNL     1      28.059 -14.203  44.459  1.00  0.00    -0.204 F 
HETATM   16  C14 UNL     1      27.520 -14.749  42.230  1.00  0.00     0.073 A 
ENDBRANCH   7   9
ENDBRANCH   3   5
BRANCH   1  17
HETATM   17  C6  UNL     1      28.207 -15.127  35.197  1.00  0.00     0.089 C 
HETATM   18  C5  UNL     1      27.720 -14.432  33.978  1.00  0.00     0.066 C 
HETATM   19  C2  UNL     1      28.381 -13.114  33.695  1.00  0.00     0.155 C 
HETATM   20  N1  UNL     1      29.753 -13.043  34.062  1.00  0.00     0.102 N 
HETATM   21  C3  UNL     1      28.133 -12.806  32.221  1.00  0.00     0.049 C 
HETATM   22  C4  UNL     1      27.586 -12.055  34.475  1.00  0.00     0.049 C 
HETATM   23  C1  UNL     1      30.578 -12.261  33.178  1.00  0.00     0.311 C 
HETATM   24  C16 UNL     1      30.390 -14.328  34.249  1.00  0.00     0.155 C 
HETATM   25  C15 UNL     1      29.706 -15.014  35.396  1.00  0.00     0.066 C 
HETATM   26  C17 UNL     1      30.482 -15.147  33.009  1.00  0.00     0.049 C 
HETATM   27  C18 UNL     1      31.826 -14.038  34.710  1.00  0.00     0.049 C 
ENDBRANCH   1  17
TORSDOF 3
ENDMDL
