MODEL 7
REMARK VINA RESULT: -8.166625143      1.799      2.345
REMARK  3 active torsions:
REMARK  status: ('A' for Active; 'I' for Inactive)
REMARK    1  A    between atoms: C6_7  and  N2_8 
REMARK       I    between atoms: N2_8  and  C7_10 
REMARK    2  A    between atoms: C7_10  and  C8_12 
REMARK       I    between atoms: C8_12  and  N3_14 
REMARK    3  A    between atoms: N3_14  and  C9_16 
ROOT
HETATM    1  N2  UNL     1      29.054 -14.618  37.223  1.00  0.00    -0.348 N 
ATOM      2  H2  UNL     1      28.597 -13.710  37.311  1.00  0.00     0.163 HD
HETATM    3  C7  UNL     1      28.669 -15.648  38.090  1.00  0.00     0.310 C 
HETATM    4  O1  UNL     1      29.226 -16.760  37.982  1.00  0.00    -0.262 OA
ENDROOT
BRANCH   3   5
HETATM    5  C8  UNL     1      27.630 -15.471  39.126  1.00  0.00     0.313 C 
HETATM    6  O2  UNL     1      26.421 -15.497  38.841  1.00  0.00    -0.262 OA
HETATM    7  N3  UNL     1      28.023 -15.270  40.462  1.00  0.00    -0.319 N 
ATOM      8  H3  UNL     1      29.030 -15.256  40.629  1.00  0.00     0.169 HD
BRANCH   7   9
HETATM    9  C9  UNL     1      27.222 -15.087  41.592  1.00  0.00     0.038 A 
HETATM   10  C10 UNL     1      26.167 -14.228  41.590  1.00  0.00     0.031 A 
HETATM   11  C11 UNL     1      25.408 -14.069  42.750  1.00  0.00     0.029 A 
HETATM   12  C12 UNL     1      25.724 -14.775  43.882  1.00  0.00     0.072 A 
HETATM   13 CL1  UNL     1      24.763 -14.576  45.351  1.00  0.00    -0.081 Cl
HETATM   14  C13 UNL     1      26.784 -15.639  43.880  1.00  0.00     0.140 A 
HETATM   15  F1  UNL     1      27.100 -16.338  44.996  1.00  0.00    -0.204 F 
HETATM   16  C14 UNL     1      27.517 -15.783  42.742  1.00  0.00     0.073 A 
ENDBRANCH   7   9
ENDBRANCH   3   5
BRANCH   1  17
HETATM   17  C6  UNL     1      30.086 -14.787  36.191  1.00  0.00     0.089 C 
HETATM   18  C5  UNL     1      29.663 -15.730  35.123  1.00  0.00     0.066 C 
HETATM   19  C2  UNL     1      28.823 -15.120  34.039  1.00  0.00     0.155 C 
HETATM   20  N1  UNL     1      29.145 -13.772  33.721  1.00  0.00     0.102 N 
HETATM   21  C3  UNL     1      28.904 -16.060  32.840  1.00  0.00     0.049 C 
HETATM   22  C4  UNL     1      27.367 -15.198  34.524  1.00  0.00     0.049 C 
HETATM   23  C1  UNL     1      29.018 -13.431  32.327  1.00  0.00     0.311 C 
HETATM   24  C16 UNL     1      30.453 -13.346  34.168  1.00  0.00     0.155 C 
HETATM   25  C15 UNL     1      30.468 -13.416  35.667  1.00  0.00     0.066 C 
HETATM   26  C17 UNL     1      31.582 -14.059  33.509  1.00  0.00     0.049 C 
HETATM   27  C18 UNL     1      30.576 -11.861  33.800  1.00  0.00     0.049 C 
ENDBRANCH   1  17
TORSDOF 3
ENDMDL
