MODEL 17
REMARK VINA RESULT: -7.199610903      2.629      4.056
REMARK  3 active torsions:
REMARK  status: ('A' for Active; 'I' for Inactive)
REMARK    1  A    between atoms: C6_7  and  N2_8 
REMARK       I    between atoms: N2_8  and  C7_10 
REMARK    2  A    between atoms: C7_10  and  C8_12 
REMARK       I    between atoms: C8_12  and  N3_14 
REMARK    3  A    between atoms: N3_14  and  C9_16 
ROOT
HETATM    1  N2  UNL     1      31.442 -17.301  35.906  1.00  0.00    -0.348 N 
ATOM      2  H2  UNL     1      31.735 -17.390  36.878  1.00  0.00     0.163 HD
HETATM    3  C7  UNL     1      30.081 -17.111  35.631  1.00  0.00     0.310 C 
HETATM    4  O1  UNL     1      29.720 -17.002  34.442  1.00  0.00    -0.262 OA
ENDROOT
BRANCH   3   5
HETATM    5  C8  UNL     1      29.057 -17.034  36.695  1.00  0.00     0.313 C 
HETATM    6  O2  UNL     1      28.485 -18.052  37.118  1.00  0.00    -0.262 OA
HETATM    7  N3  UNL     1      28.727 -15.777  37.236  1.00  0.00    -0.319 N 
ATOM      8  H3  UNL     1      29.230 -14.982  36.843  1.00  0.00     0.169 HD
BRANCH   7   9
HETATM    9  C9  UNL     1      27.804 -15.472  38.239  1.00  0.00     0.038 A 
HETATM   10  C10 UNL     1      26.516 -15.141  37.951  1.00  0.00     0.031 A 
HETATM   11  C11 UNL     1      25.638 -14.830  38.989  1.00  0.00     0.029 A 
HETATM   12  C12 UNL     1      26.071 -14.858  40.290  1.00  0.00     0.072 A 
HETATM   13 CL1  UNL     1      24.960 -14.464  41.606  1.00  0.00    -0.081 Cl
HETATM   14  C13 UNL     1      27.366 -15.192  40.576  1.00  0.00     0.140 A 
HETATM   15  F1  UNL     1      27.797 -15.221  41.859  1.00  0.00    -0.204 F 
HETATM   16  C14 UNL     1      28.212 -15.493  39.554  1.00  0.00     0.073 A 
ENDBRANCH   7   9
ENDBRANCH   3   5
BRANCH   1  17
HETATM   17  C6  UNL     1      32.464 -17.380  34.853  1.00  0.00     0.089 C 
HETATM   18  C5  UNL     1      33.155 -16.081  34.645  1.00  0.00     0.066 C 
HETATM   19  C2  UNL     1      34.292 -15.812  35.589  1.00  0.00     0.155 C 
HETATM   20  N1  UNL     1      35.029 -16.963  35.980  1.00  0.00     0.102 N 
HETATM   21  C3  UNL     1      35.153 -14.733  34.940  1.00  0.00     0.049 C 
HETATM   22  C4  UNL     1      33.674 -15.152  36.831  1.00  0.00     0.049 C 
HETATM   23  C1  UNL     1      36.442 -16.748  36.151  1.00  0.00     0.311 C 
HETATM   24  C16 UNL     1      34.852 -18.110  35.116  1.00  0.00     0.155 C 
HETATM   25  C15 UNL     1      33.409 -18.517  35.189  1.00  0.00     0.066 C 
HETATM   26  C17 UNL     1      35.366 -17.913  33.732  1.00  0.00     0.049 C 
HETATM   27  C18 UNL     1      35.659 -19.255  35.744  1.00  0.00     0.049 C 
ENDBRANCH   1  17
TORSDOF 3
ENDMDL
