MODEL 1
REMARK VINA RESULT: -9.035665343      0.000      0.000
REMARK  4 active torsions:
REMARK  status: ('A' for Active; 'I' for Inactive)
REMARK    1  A    between atoms: N1_1  and  C1_5 
REMARK    2  A    between atoms: C9_13  and  N2_14 
REMARK       I    between atoms: N2_14  and  C10_16 
REMARK    3  A    between atoms: C10_16  and  C11_18 
REMARK       I    between atoms: C11_18  and  N3_20 
REMARK    4  A    between atoms: N3_20  and  C12_22 
ROOT
HETATM    1  N2  UNL     1      26.816 -14.724  36.844  1.00  0.00    -0.342 N 
ATOM      2  H2  UNL     1      26.086 -14.020  36.740  1.00  0.00     0.163 HD
HETATM    3  C10 UNL     1      27.083 -15.283  38.126  1.00  0.00     0.310 C 
HETATM    4  O1  UNL     1      27.982 -16.151  38.221  1.00  0.00    -0.262 OA
ENDROOT
BRANCH   1   5
HETATM    5  C9  UNL     1      27.564 -15.143  35.703  1.00  0.00     0.149 C 
HETATM    6  C1  UNL     1      28.764 -14.240  35.439  1.00  0.00     0.214 C 
HETATM    7  C2  UNL     1      28.089 -13.084  34.749  1.00  0.00     0.074 C 
HETATM    8  C3  UNL     1      27.132 -13.802  33.830  1.00  0.00    -0.048 A 
HETATM    9  C4  UNL     1      26.577 -13.461  32.627  1.00  0.00     0.008 A 
HETATM   10  C8  UNL     1      26.820 -15.005  34.405  1.00  0.00    -0.027 A 
HETATM   11  C5  UNL     1      25.714 -14.313  32.000  1.00  0.00     0.001 A 
HETATM   12  C6  UNL     1      25.379 -15.540  32.562  1.00  0.00     0.001 A 
HETATM   13  C7  UNL     1      25.946 -15.870  33.773  1.00  0.00     0.010 A 
BRANCH   6  14
HETATM   14  N1  UNL     1      29.742 -14.830  34.582  1.00  0.00    -0.072 N 
ATOM     15  H13 UNL     1      29.320 -15.233  33.746  1.00  0.00     0.274 HD
ATOM     16  H12 UNL     1      30.327 -14.126  34.131  1.00  0.00     0.274 HD
ATOM     17  H11 UNL     1      30.298 -15.515  35.094  1.00  0.00     0.274 HD
ENDBRANCH   6  14
ENDBRANCH   1   5
BRANCH   3  18
HETATM   18  C11 UNL     1      26.355 -14.884  39.332  1.00  0.00     0.313 C 
HETATM   19  O2  UNL     1      25.207 -14.386  39.214  1.00  0.00    -0.262 OA
HETATM   20  N3  UNL     1      26.951 -15.065  40.594  1.00  0.00    -0.319 N 
ATOM     21  H3  UNL     1      27.879 -15.488  40.609  1.00  0.00     0.169 HD
BRANCH  20  22
HETATM   22  C12 UNL     1      26.389 -14.718  41.840  1.00  0.00     0.038 A 
HETATM   23  C13 UNL     1      27.241 -14.325  42.886  1.00  0.00     0.031 A 
HETATM   24  C14 UNL     1      26.744 -13.949  44.092  1.00  0.00     0.029 A 
HETATM   25  C15 UNL     1      25.385 -13.948  44.312  1.00  0.00     0.072 A 
HETATM   26 CL1  UNL     1      24.753 -13.450  45.887  1.00  0.00    -0.081 Cl
HETATM   27  C16 UNL     1      24.526 -14.325  43.313  1.00  0.00     0.140 A 
HETATM   28  F1  UNL     1      23.186 -14.319  43.546  1.00  0.00    -0.204 F 
HETATM   29  C17 UNL     1      25.032 -14.712  42.072  1.00  0.00     0.073 A 
ENDBRANCH  20  22
ENDBRANCH   3  18
TORSDOF 4
ENDMDL
