MODEL 7
REMARK VINA RESULT: -8.379205213      1.635      2.262
REMARK  4 active torsions:
REMARK  status: ('A' for Active; 'I' for Inactive)
REMARK    1  A    between atoms: N1_1  and  C1_5 
REMARK    2  A    between atoms: C9_13  and  N2_14 
REMARK       I    between atoms: N2_14  and  C10_16 
REMARK    3  A    between atoms: C10_16  and  C11_18 
REMARK       I    between atoms: C11_18  and  N3_20 
REMARK    4  A    between atoms: N3_20  and  C12_22 
ROOT
HETATM    1  N2  UNL     1      27.240 -14.099  36.860  1.00  0.00    -0.342 N 
ATOM      2  H2  UNL     1      26.979 -13.151  37.128  1.00  0.00     0.163 HD
HETATM    3  C10 UNL     1      26.938 -15.188  37.727  1.00  0.00     0.310 C 
HETATM    4  O1  UNL     1      27.266 -16.343  37.368  1.00  0.00    -0.262 OA
ENDROOT
BRANCH   1   5
HETATM    5  C9  UNL     1      27.907 -14.327  35.620  1.00  0.00     0.149 C 
HETATM    6  C1  UNL     1      29.415 -14.477  35.796  1.00  0.00     0.214 C 
HETATM    7  C2  UNL     1      29.821 -13.032  35.912  1.00  0.00     0.074 C 
HETATM    8  C3  UNL     1      28.979 -12.398  34.833  1.00  0.00    -0.048 A 
HETATM    9  C4  UNL     1      29.154 -11.278  34.065  1.00  0.00     0.008 A 
HETATM   10  C8  UNL     1      27.852 -13.159  34.677  1.00  0.00    -0.027 A 
HETATM   11  C5  UNL     1      28.210 -10.918  33.147  1.00  0.00     0.001 A 
HETATM   12  C6  UNL     1      27.054 -11.672  32.969  1.00  0.00     0.001 A 
HETATM   13  C7  UNL     1      26.893 -12.796  33.749  1.00  0.00     0.010 A 
BRANCH   6  14
HETATM   14  N1  UNL     1      30.060 -15.088  34.678  1.00  0.00    -0.072 N 
ATOM     15  H13 UNL     1      29.705 -14.729  33.792  1.00  0.00     0.274 HD
ATOM     16  H12 UNL     1      31.029 -14.785  34.586  1.00  0.00     0.274 HD
ATOM     17  H11 UNL     1      29.983 -16.104  34.733  1.00  0.00     0.274 HD
ENDBRANCH   6  14
ENDBRANCH   1   5
BRANCH   3  18
HETATM   18  C11 UNL     1      26.265 -15.013  39.015  1.00  0.00     0.313 C 
HETATM   19  O2  UNL     1      25.030 -14.781  39.030  1.00  0.00    -0.262 OA
HETATM   20  N3  UNL     1      27.010 -15.106  40.205  1.00  0.00    -0.319 N 
ATOM     21  H3  UNL     1      28.005 -15.309  40.111  1.00  0.00     0.169 HD
BRANCH  20  22
HETATM   22  C12 UNL     1      26.514 -14.945  41.515  1.00  0.00     0.038 A 
HETATM   23  C13 UNL     1      25.355 -14.176  41.716  1.00  0.00     0.031 A 
HETATM   24  C14 UNL     1      24.821 -14.021  42.954  1.00  0.00     0.029 A 
HETATM   25  C15 UNL     1      25.413 -14.619  44.044  1.00  0.00     0.072 A 
HETATM   26 CL1  UNL     1      24.702 -14.412  45.650  1.00  0.00    -0.081 Cl
HETATM   27  C16 UNL     1      26.544 -15.375  43.884  1.00  0.00     0.140 A 
HETATM   28  F1  UNL     1      27.118 -15.958  44.971  1.00  0.00    -0.204 F 
HETATM   29  C17 UNL     1      27.097 -15.538  42.613  1.00  0.00     0.073 A 
ENDBRANCH  20  22
ENDBRANCH   3  18
TORSDOF 4
ENDMDL
