MODEL 10
REMARK VINA RESULT: -8.153863294      1.046      1.428
REMARK  4 active torsions:
REMARK  status: ('A' for Active; 'I' for Inactive)
REMARK    1  A    between atoms: N1_1  and  C1_5 
REMARK    2  A    between atoms: C9_13  and  N2_14 
REMARK       I    between atoms: N2_14  and  C10_16 
REMARK    3  A    between atoms: C10_16  and  C11_18 
REMARK       I    between atoms: C11_18  and  N3_20 
REMARK    4  A    between atoms: N3_20  and  C12_22 
ROOT
HETATM    1  N2  UNL     1      26.776 -14.864  36.506  1.00  0.00    -0.342 N 
ATOM      2  H2  UNL     1      26.176 -14.044  36.420  1.00  0.00     0.163 HD
HETATM    3  C10 UNL     1      26.963 -15.472  37.780  1.00  0.00     0.310 C 
HETATM    4  O1  UNL     1      27.702 -16.482  37.853  1.00  0.00    -0.262 OA
ENDROOT
BRANCH   1   5
HETATM    5  C9  UNL     1      27.423 -15.394  35.350  1.00  0.00     0.149 C 
HETATM    6  C1  UNL     1      28.746 -14.693  35.060  1.00  0.00     0.214 C 
HETATM    7  C2  UNL     1      28.251 -13.442  34.384  1.00  0.00     0.074 C 
HETATM    8  C3  UNL     1      27.172 -13.995  33.487  1.00  0.00    -0.048 A 
HETATM    9  C4  UNL     1      26.654 -13.565  32.296  1.00  0.00     0.008 A 
HETATM   10  C8  UNL     1      26.683 -15.134  34.068  1.00  0.00    -0.027 A 
HETATM   11  C5  UNL     1      25.652 -14.265  31.687  1.00  0.00     0.001 A 
HETATM   12  C6  UNL     1      25.136 -15.425  32.256  1.00  0.00     0.001 A 
HETATM   13  C7  UNL     1      25.669 -15.846  33.455  1.00  0.00     0.010 A 
BRANCH   6  14
HETATM   14  N1  UNL     1      29.599 -15.430  34.182  1.00  0.00    -0.072 N 
ATOM     15  H13 UNL     1      29.848 -14.889  33.354  1.00  0.00     0.274 HD
ATOM     16  H12 UNL     1      30.533 -15.549  34.572  1.00  0.00     0.274 HD
ATOM     17  H11 UNL     1      29.172 -16.323  33.938  1.00  0.00     0.274 HD
ENDBRANCH   6  14
ENDBRANCH   1   5
BRANCH   3  18
HETATM   18  C11 UNL     1      26.333 -14.967  39.000  1.00  0.00     0.313 C 
HETATM   19  O2  UNL     1      25.234 -14.363  38.914  1.00  0.00    -0.262 OA
HETATM   20  N3  UNL     1      26.967 -15.165  40.241  1.00  0.00    -0.319 N 
ATOM     21  H3  UNL     1      27.850 -15.676  40.231  1.00  0.00     0.169 HD
BRANCH  20  22
HETATM   22  C12 UNL     1      26.500 -14.726  41.497  1.00  0.00     0.038 A 
HETATM   23  C13 UNL     1      25.120 -14.762  41.762  1.00  0.00     0.031 A 
HETATM   24  C14 UNL     1      24.627 -14.381  42.968  1.00  0.00     0.029 A 
HETATM   25  C15 UNL     1      25.478 -13.949  43.960  1.00  0.00     0.072 A 
HETATM   26 CL1  UNL     1      24.820 -13.461  45.528  1.00  0.00    -0.081 Cl
HETATM   27  C16 UNL     1      26.829 -13.901  43.735  1.00  0.00     0.140 A 
HETATM   28  F1  UNL     1      27.657 -13.471  44.725  1.00  0.00    -0.204 F 
HETATM   29  C17 UNL     1      27.341 -14.292  42.497  1.00  0.00     0.073 A 
ENDBRANCH  20  22
ENDBRANCH   3  18
TORSDOF 4
ENDMDL
