MODEL 4
REMARK VINA RESULT: -8.769530587      1.164      1.274
REMARK  4 active torsions:
REMARK  status: ('A' for Active; 'I' for Inactive)
REMARK    1  A    between atoms: N1_1  and  C1_5 
REMARK    2  A    between atoms: C9_13  and  N2_14 
REMARK       I    between atoms: N2_14  and  C10_16 
REMARK    3  A    between atoms: C10_16  and  C11_18 
REMARK       I    between atoms: C11_18  and  N3_20 
REMARK    4  A    between atoms: N3_20  and  C12_22 
ROOT
HETATM    1  N2  UNL     1      27.181 -14.533  37.252  1.00  0.00    -0.342 N 
ATOM      2  H2  UNL     1      26.438 -13.836  37.233  1.00  0.00     0.163 HD
HETATM    3  C10 UNL     1      27.423 -15.279  38.441  1.00  0.00     0.310 C 
HETATM    4  O1  UNL     1      28.340 -16.133  38.431  1.00  0.00    -0.262 OA
ENDROOT
BRANCH   1   5
HETATM    5  C9  UNL     1      27.974 -14.755  36.086  1.00  0.00     0.149 C 
HETATM    6  C1  UNL     1      28.946 -13.609  35.824  1.00  0.00     0.214 C 
HETATM    7  C2  UNL     1      28.022 -12.610  35.180  1.00  0.00     0.074 C 
HETATM    8  C3  UNL     1      27.220 -13.495  34.260  1.00  0.00    -0.048 A 
HETATM    9  C4  UNL     1      26.575 -13.253  33.077  1.00  0.00     0.008 A 
HETATM   10  C8  UNL     1      27.186 -14.750  34.806  1.00  0.00    -0.027 A 
HETATM   11  C5  UNL     1      25.900 -14.256  32.443  1.00  0.00     0.001 A 
HETATM   12  C6  UNL     1      25.849 -15.539  32.976  1.00  0.00     0.001 A 
HETATM   13  C7  UNL     1      26.503 -15.768  34.167  1.00  0.00     0.010 A 
BRANCH   6  14
HETATM   14  N1  UNL     1      30.006 -13.955  34.933  1.00  0.00    -0.072 N 
ATOM     15  H13 UNL     1      30.664 -13.186  34.809  1.00  0.00     0.274 HD
ATOM     16  H12 UNL     1      30.644 -14.634  35.347  1.00  0.00     0.274 HD
ATOM     17  H11 UNL     1      29.631 -14.281  34.042  1.00  0.00     0.274 HD
ENDBRANCH   6  14
ENDBRANCH   1   5
BRANCH   3  18
HETATM   18  C11 UNL     1      26.649 -15.087  39.668  1.00  0.00     0.313 C 
HETATM   19  O2  UNL     1      25.408 -14.907  39.584  1.00  0.00    -0.262 OA
HETATM   20  N3  UNL     1      27.306 -15.106  40.912  1.00  0.00    -0.319 N 
ATOM     21  H3  UNL     1      28.312 -15.270  40.900  1.00  0.00     0.169 HD
BRANCH  20  22
HETATM   22  C12 UNL     1      26.707 -14.920  42.175  1.00  0.00     0.038 A 
HETATM   23  C13 UNL     1      26.048 -13.708  42.446  1.00  0.00     0.031 A 
HETATM   24  C14 UNL     1      25.428 -13.496  43.635  1.00  0.00     0.029 A 
HETATM   25  C15 UNL     1      25.435 -14.475  44.604  1.00  0.00     0.072 A 
HETATM   26 CL1  UNL     1      24.617 -14.185  46.145  1.00  0.00    -0.081 Cl
HETATM   27  C16 UNL     1      26.067 -15.668  44.373  1.00  0.00     0.140 A 
HETATM   28  F1  UNL     1      26.066 -16.623  45.341  1.00  0.00    -0.204 F 
HETATM   29  C17 UNL     1      26.706 -15.890  43.152  1.00  0.00     0.073 A 
ENDBRANCH  20  22
ENDBRANCH   3  18
TORSDOF 4
ENDMDL
