MODEL 20
REMARK VINA RESULT: -6.900903196      3.958      5.524
REMARK  4 active torsions:
REMARK  status: ('A' for Active; 'I' for Inactive)
REMARK    1  A    between atoms: N1_1  and  C1_5 
REMARK    2  A    between atoms: C9_13  and  N2_14 
REMARK       I    between atoms: N2_14  and  C10_16 
REMARK    3  A    between atoms: C10_16  and  C11_18 
REMARK       I    between atoms: C11_18  and  N3_20 
REMARK    4  A    between atoms: N3_20  and  C12_22 
ROOT
HETATM    1  N2  UNL     1      31.090 -16.059  36.388  1.00  0.00    -0.342 N 
ATOM      2  H2  UNL     1      31.455 -15.902  37.328  1.00  0.00     0.163 HD
HETATM    3  C10 UNL     1      29.758 -15.667  36.072  1.00  0.00     0.310 C 
HETATM    4  O1  UNL     1      29.339 -15.867  34.908  1.00  0.00    -0.262 OA
ENDROOT
BRANCH   1   5
HETATM    5  C9  UNL     1      31.917 -16.671  35.400  1.00  0.00     0.149 C 
HETATM    6  C1  UNL     1      32.777 -17.789  35.980  1.00  0.00     0.214 C 
HETATM    7  C2  UNL     1      33.882 -16.983  36.610  1.00  0.00     0.074 C 
HETATM    8  C3  UNL     1      34.140 -15.947  35.546  1.00  0.00    -0.048 A 
HETATM    9  C4  UNL     1      35.255 -15.228  35.210  1.00  0.00     0.008 A 
HETATM   10  C8  UNL     1      32.977 -15.761  34.848  1.00  0.00    -0.027 A 
HETATM   11  C5  UNL     1      35.212 -14.327  34.185  1.00  0.00     0.001 A 
HETATM   12  C6  UNL     1      34.043 -14.118  33.460  1.00  0.00     0.001 A 
HETATM   13  C7  UNL     1      32.929 -14.850  33.809  1.00  0.00     0.010 A 
BRANCH   6  14
HETATM   14  N1  UNL     1      33.306 -18.672  34.990  1.00  0.00    -0.072 N 
ATOM     15  H13 UNL     1      33.311 -18.244  34.065  1.00  0.00     0.274 HD
ATOM     16  H12 UNL     1      34.310 -18.807  35.100  1.00  0.00     0.274 HD
ATOM     17  H11 UNL     1      32.800 -19.558  34.997  1.00  0.00     0.274 HD
ENDBRANCH   6  14
ENDBRANCH   1   5
BRANCH   3  18
HETATM   18  C11 UNL     1      28.862 -15.044  37.048  1.00  0.00     0.313 C 
HETATM   19  O2  UNL     1      28.714 -13.797  37.031  1.00  0.00    -0.262 OA
HETATM   20  N3  UNL     1      28.187 -15.851  37.983  1.00  0.00    -0.319 N 
ATOM     21  H3  UNL     1      28.348 -16.856  37.926  1.00  0.00     0.169 HD
BRANCH  20  22
HETATM   22  C12 UNL     1      27.309 -15.404  38.992  1.00  0.00     0.038 A 
HETATM   23  C13 UNL     1      25.977 -15.110  38.656  1.00  0.00     0.031 A 
HETATM   24  C14 UNL     1      25.087 -14.709  39.600  1.00  0.00     0.029 A 
HETATM   25  C15 UNL     1      25.480 -14.581  40.914  1.00  0.00     0.072 A 
HETATM   26 CL1  UNL     1      24.307 -14.062  42.131  1.00  0.00    -0.081 Cl
HETATM   27  C16 UNL     1      26.771 -14.860  41.276  1.00  0.00     0.140 A 
HETATM   28  F1  UNL     1      27.145 -14.729  42.577  1.00  0.00    -0.204 F 
HETATM   29  C17 UNL     1      27.690 -15.273  40.309  1.00  0.00     0.073 A 
ENDBRANCH  20  22
ENDBRANCH   3  18
TORSDOF 4
ENDMDL
