MODEL 2
REMARK VINA RESULT: -8.998832837      1.274      1.656
REMARK  4 active torsions:
REMARK  status: ('A' for Active; 'I' for Inactive)
REMARK    1  A    between atoms: N1_1  and  C1_5 
REMARK    2  A    between atoms: C9_13  and  N2_14 
REMARK       I    between atoms: N2_14  and  C10_16 
REMARK    3  A    between atoms: C10_16  and  C11_18 
REMARK       I    between atoms: C11_18  and  N3_20 
REMARK    4  A    between atoms: N3_20  and  C12_22 
ROOT
HETATM    1  N2  UNL     1      28.091 -14.825  37.000  1.00  0.00    -0.342 N 
ATOM      2  H2  UNL     1      27.484 -14.023  36.828  1.00  0.00     0.163 HD
HETATM    3  C10 UNL     1      28.016 -15.514  38.243  1.00  0.00     0.310 C 
HETATM    4  O1  UNL     1      28.771 -16.499  38.423  1.00  0.00    -0.262 OA
ENDROOT
BRANCH   1   5
HETATM    5  C9  UNL     1      29.009 -15.247  35.993  1.00  0.00     0.149 C 
HETATM    6  C1  UNL     1      29.427 -14.102  35.077  1.00  0.00     0.214 C 
HETATM    7  C2  UNL     1      28.233 -14.035  34.161  1.00  0.00     0.074 C 
HETATM    8  C3  UNL     1      27.970 -15.498  33.907  1.00  0.00    -0.048 A 
HETATM    9  C4  UNL     1      27.398 -16.164  32.857  1.00  0.00     0.008 A 
HETATM   10  C8  UNL     1      28.418 -16.201  34.994  1.00  0.00    -0.027 A 
HETATM   11  C5  UNL     1      27.272 -17.523  32.889  1.00  0.00     0.001 A 
HETATM   12  C6  UNL     1      27.717 -18.261  33.981  1.00  0.00     0.001 A 
HETATM   13  C7  UNL     1      28.291 -17.577  35.030  1.00  0.00     0.010 A 
BRANCH   6  14
HETATM   14  N1  UNL     1      30.613 -14.374  34.330  1.00  0.00    -0.072 N 
ATOM     15  H13 UNL     1      30.404 -14.641  33.369  1.00  0.00     0.274 HD
ATOM     16  H12 UNL     1      31.145 -13.525  34.139  1.00  0.00     0.274 HD
ATOM     17  H11 UNL     1      31.179 -15.078  34.805  1.00  0.00     0.274 HD
ENDBRANCH   6  14
ENDBRANCH   1   5
BRANCH   3  18
HETATM   18  C11 UNL     1      27.101 -15.119  39.315  1.00  0.00     0.313 C 
HETATM   19  O2  UNL     1      25.927 -14.782  39.021  1.00  0.00    -0.262 OA
HETATM   20  N3  UNL     1      27.553 -15.124  40.649  1.00  0.00    -0.319 N 
ATOM     21  H3  UNL     1      28.514 -15.422  40.809  1.00  0.00     0.169 HD
BRANCH  20  22
HETATM   22  C12 UNL     1      26.803 -14.755  41.784  1.00  0.00     0.038 A 
HETATM   23  C13 UNL     1      27.480 -14.374  42.955  1.00  0.00     0.031 A 
HETATM   24  C14 UNL     1      26.802 -13.978  44.062  1.00  0.00     0.029 A 
HETATM   25  C15 UNL     1      25.425 -13.945  44.056  1.00  0.00     0.072 A 
HETATM   26 CL1  UNL     1      24.556 -13.422  45.505  1.00  0.00    -0.081 Cl
HETATM   27  C16 UNL     1      24.733 -14.310  42.932  1.00  0.00     0.140 A 
HETATM   28  F1  UNL     1      23.373 -14.273  42.942  1.00  0.00    -0.204 F 
HETATM   29  C17 UNL     1      25.426 -14.718  41.791  1.00  0.00     0.073 A 
ENDBRANCH  20  22
ENDBRANCH   3  18
TORSDOF 4
ENDMDL
