MODEL 1
REMARK VINA RESULT: -10.009929782      0.000      0.000
REMARK  4 active torsions:
REMARK  status: ('A' for Active; 'I' for Inactive)
REMARK    1  A    between atoms: N3_4  and  C2_6 
REMARK    2  A    between atoms: C10_14  and  N4_15 
REMARK       I    between atoms: N4_15  and  C11_17 
REMARK    3  A    between atoms: C11_17  and  C12_19 
REMARK       I    between atoms: C12_19  and  N5_21 
REMARK    4  A    between atoms: N5_21  and  C13_23 
ROOT
HETATM    1  N4  UNL     1      -3.251 -15.663  11.774  1.00  0.00    -0.342 N 
ATOM      2  H4  UNL     1      -3.938 -14.923  11.623  1.00  0.00     0.163 HD
HETATM    3  C11 UNL     1      -3.147 -16.286  13.039  1.00  0.00     0.310 C 
HETATM    4  O1  UNL     1      -2.287 -17.196  13.188  1.00  0.00    -0.262 OA
ENDROOT
BRANCH   1   5
HETATM    5  C10 UNL     1      -2.384 -16.075  10.700  1.00  0.00     0.141 C 
HETATM    6  C2  UNL     1      -1.177 -15.182  10.533  1.00  0.00     0.115 C 
HETATM    7  C3  UNL     1      -1.727 -14.011   9.769  1.00  0.00     0.066 C 
HETATM    8  C4  UNL     1      -2.748 -14.634   8.877  1.00  0.00    -0.048 A 
HETATM    9  C5  UNL     1      -3.334 -14.238   7.682  1.00  0.00     0.008 A 
HETATM   10  C9  UNL     1      -3.131 -15.829   9.416  1.00  0.00    -0.027 A 
HETATM   11  C6  UNL     1      -4.279 -14.987   7.017  1.00  0.00     0.001 A 
HETATM   12  C7  UNL     1      -4.639 -16.186   7.595  1.00  0.00     0.001 A 
HETATM   13  C8  UNL     1      -4.078 -16.609   8.779  1.00  0.00     0.010 A 
BRANCH   6  14
HETATM   14  N3  UNL     1      -0.234 -15.876   9.679  1.00  0.00    -0.360 N 
HETATM   15  C1  UNL     1       0.806 -16.459  10.177  1.00  0.00     0.197 C 
HETATM   16  N1  UNL     1       1.749 -17.146   9.379  1.00  0.00    -0.067 NA
HETATM   17  N2  UNL     1       1.032 -16.418  11.592  1.00  0.00    -0.067 NA
ATOM     18  H3  UNL     1      -0.392 -15.906   8.672  1.00  0.00     0.162 HD
ENDBRANCH   6  14
ENDBRANCH   1   5
BRANCH   3  19
HETATM   19  C12 UNL     1      -3.996 -15.923  14.184  1.00  0.00     0.313 C 
HETATM   20  O2  UNL     1      -5.182 -15.634  13.920  1.00  0.00    -0.262 OA
HETATM   21  N5  UNL     1      -3.523 -15.895  15.496  1.00  0.00    -0.319 N 
ATOM     22  H5  UNL     1      -2.544 -16.143  15.643  1.00  0.00     0.169 HD
BRANCH  21  23
HETATM   23  C13 UNL     1      -4.275 -15.559  16.630  1.00  0.00     0.038 A 
HETATM   24  C14 UNL     1      -3.561 -15.137  17.763  1.00  0.00     0.031 A 
HETATM   25  C15 UNL     1      -4.154 -14.778  18.939  1.00  0.00     0.029 A 
HETATM   26  C16 UNL     1      -5.532 -14.829  19.032  1.00  0.00     0.072 A 
HETATM   27 CL1  UNL     1      -6.308 -14.367  20.545  1.00  0.00    -0.081 Cl
HETATM   28  C17 UNL     1      -6.272 -15.235  17.950  1.00  0.00     0.140 A 
HETATM   29  F1  UNL     1      -7.618 -15.274  18.072  1.00  0.00    -0.204 F 
HETATM   30  C18 UNL     1      -5.628 -15.592  16.770  1.00  0.00     0.073 A 
ENDBRANCH  21  23
ENDBRANCH   3  19
TORSDOF 4
ENDMDL
