MODEL 18
REMARK VINA RESULT: -6.890439951      3.332      4.864
REMARK  4 active torsions:
REMARK  status: ('A' for Active; 'I' for Inactive)
REMARK    1  A    between atoms: N3_4  and  C2_6 
REMARK    2  A    between atoms: C10_14  and  N4_15 
REMARK       I    between atoms: N4_15  and  C11_17 
REMARK    3  A    between atoms: C11_17  and  C12_19 
REMARK       I    between atoms: C12_19  and  N5_21 
REMARK    4  A    between atoms: N5_21  and  C13_23 
ROOT
HETATM    1  N4  UNL     1      -2.592 -17.778   9.917  1.00  0.00    -0.342 N 
ATOM      2  H4  UNL     1      -2.440 -18.628  10.461  1.00  0.00     0.163 HD
HETATM    3  C11 UNL     1      -2.967 -16.579  10.566  1.00  0.00     0.310 C 
HETATM    4  O1  UNL     1      -3.145 -15.548   9.862  1.00  0.00    -0.262 OA
ENDROOT
BRANCH   1   5
HETATM    5  C10 UNL     1      -2.425 -17.795   8.486  1.00  0.00     0.141 C 
HETATM    6  C2  UNL     1      -3.446 -18.654   7.778  1.00  0.00     0.115 C 
HETATM    7  C3  UNL     1      -2.901 -20.042   7.955  1.00  0.00     0.066 C 
HETATM    8  C4  UNL     1      -1.424 -19.840   7.895  1.00  0.00    -0.048 A 
HETATM    9  C5  UNL     1      -0.360 -20.683   7.601  1.00  0.00     0.008 A 
HETATM   10  C9  UNL     1      -1.147 -18.539   8.204  1.00  0.00    -0.027 A 
HETATM   11  C6  UNL     1       0.954 -20.275   7.607  1.00  0.00     0.001 A 
HETATM   12  C7  UNL     1       1.192 -18.954   7.926  1.00  0.00     0.001 A 
HETATM   13  C8  UNL     1       0.161 -18.091   8.222  1.00  0.00     0.010 A 
BRANCH   6  14
HETATM   14  N3  UNL     1      -3.393 -18.323   6.368  1.00  0.00    -0.360 N 
HETATM   15  C1  UNL     1      -4.435 -17.871   5.753  1.00  0.00     0.197 C 
HETATM   16  N1  UNL     1      -4.424 -17.537   4.380  1.00  0.00    -0.067 NA
HETATM   17  N2  UNL     1      -5.662 -17.695   6.474  1.00  0.00    -0.067 NA
ATOM     18  H3  UNL     1      -2.521 -18.449   5.853  1.00  0.00     0.162 HD
ENDBRANCH   6  14
ENDBRANCH   1   5
BRANCH   3  19
HETATM   19  C12 UNL     1      -3.156 -16.481  12.022  1.00  0.00     0.313 C 
HETATM   20  O2  UNL     1      -2.298 -17.050  12.728  1.00  0.00    -0.262 OA
HETATM   21  N5  UNL     1      -4.225 -15.796  12.600  1.00  0.00    -0.319 N 
ATOM     22  H5  UNL     1      -4.890 -15.352  11.967  1.00  0.00     0.169 HD
BRANCH  21  23
HETATM   23  C13 UNL     1      -4.465 -15.664  13.974  1.00  0.00     0.038 A 
HETATM   24  C14 UNL     1      -5.723 -15.172  14.355  1.00  0.00     0.031 A 
HETATM   25  C15 UNL     1      -6.101 -14.988  15.654  1.00  0.00     0.029 A 
HETATM   26  C16 UNL     1      -5.204 -15.299  16.658  1.00  0.00     0.072 A 
HETATM   27 CL1  UNL     1      -5.683 -15.066  18.338  1.00  0.00    -0.081 Cl
HETATM   28  C17 UNL     1      -3.962 -15.783  16.334  1.00  0.00     0.140 A 
HETATM   29  F1  UNL     1      -3.107 -16.079  17.339  1.00  0.00    -0.204 F 
HETATM   30  C18 UNL     1      -3.617 -15.955  14.998  1.00  0.00     0.073 A 
ENDBRANCH  21  23
ENDBRANCH   3  19
TORSDOF 4
ENDMDL
