MODEL 20
REMARK VINA RESULT: -6.783056992      6.695      9.286
REMARK  4 active torsions:
REMARK  status: ('A' for Active; 'I' for Inactive)
REMARK    1  A    between atoms: N3_4  and  C2_6 
REMARK    2  A    between atoms: C10_14  and  N4_15 
REMARK       I    between atoms: N4_15  and  C11_17 
REMARK    3  A    between atoms: C11_17  and  C12_19 
REMARK       I    between atoms: C12_19  and  N5_21 
REMARK    4  A    between atoms: N5_21  and  C13_23 
ROOT
HETATM    1  N4  UNL     1      -6.134 -19.524   6.811  1.00  0.00    -0.342 N 
ATOM      2  H4  UNL     1      -6.469 -19.696   7.759  1.00  0.00     0.163 HD
HETATM    3  C11 UNL     1      -4.972 -18.747   6.599  1.00  0.00     0.310 C 
HETATM    4  O1  UNL     1      -4.588 -18.556   5.414  1.00  0.00    -0.262 OA
ENDROOT
BRANCH   1   5
HETATM    5  C10 UNL     1      -6.843 -20.072   5.683  1.00  0.00     0.141 C 
HETATM    6  C2  UNL     1      -8.016 -19.225   5.248  1.00  0.00     0.115 C 
HETATM    7  C3  UNL     1      -9.089 -19.604   6.229  1.00  0.00     0.066 C 
HETATM    8  C4  UNL     1      -8.829 -21.052   6.478  1.00  0.00    -0.048 A 
HETATM    9  C5  UNL     1      -9.622 -22.095   6.940  1.00  0.00     0.008 A 
HETATM   10  C9  UNL     1      -7.528 -21.324   6.163  1.00  0.00    -0.027 A 
HETATM   11  C6  UNL     1      -9.163 -23.383   7.097  1.00  0.00     0.001 A 
HETATM   12  C7  UNL     1      -7.844 -23.616   6.770  1.00  0.00     0.001 A 
HETATM   13  C8  UNL     1      -7.030 -22.606   6.309  1.00  0.00     0.010 A 
BRANCH   6  14
HETATM   14  N3  UNL     1      -8.423 -19.682   3.934  1.00  0.00    -0.360 N 
HETATM   15  C1  UNL     1      -8.960 -18.869   3.086  1.00  0.00     0.197 C 
HETATM   16  N1  UNL     1      -9.369 -19.275   1.796  1.00  0.00    -0.067 NA
HETATM   17  N2  UNL     1      -9.157 -17.496   3.448  1.00  0.00    -0.067 NA
ATOM     18  H3  UNL     1      -8.284 -20.659   3.675  1.00  0.00     0.162 HD
ENDBRANCH   6  14
ENDBRANCH   1   5
BRANCH   3  19
HETATM   19  C12 UNL     1      -4.193 -18.154   7.698  1.00  0.00     0.313 C 
HETATM   20  O2  UNL     1      -4.720 -17.187   8.286  1.00  0.00    -0.262 OA
HETATM   21  N5  UNL     1      -2.938 -18.630   8.076  1.00  0.00    -0.319 N 
ATOM     22  H5  UNL     1      -2.565 -19.424   7.555  1.00  0.00     0.169 HD
BRANCH  21  23
HETATM   23  C13 UNL     1      -2.144 -18.114   9.110  1.00  0.00     0.038 A 
HETATM   24  C14 UNL     1      -0.995 -17.401   8.732  1.00  0.00     0.031 A 
HETATM   25  C15 UNL     1      -0.126 -16.842   9.625  1.00  0.00     0.029 A 
HETATM   26  C16 UNL     1      -0.381 -16.979  10.976  1.00  0.00     0.072 A 
HETATM   27 CL1  UNL     1       0.734 -16.260  12.136  1.00  0.00    -0.081 Cl
HETATM   28  C17 UNL     1      -1.492 -17.667  11.393  1.00  0.00     0.140 A 
HETATM   29  F1  UNL     1      -1.715 -17.783  12.721  1.00  0.00    -0.204 F 
HETATM   30  C18 UNL     1      -2.352 -18.221  10.450  1.00  0.00     0.073 A 
ENDBRANCH  21  23
ENDBRANCH   3  19
TORSDOF 4
ENDMDL
