MODEL 19
REMARK VINA RESULT: -6.783416532      6.200      9.386
REMARK  4 active torsions:
REMARK  status: ('A' for Active; 'I' for Inactive)
REMARK    1  A    between atoms: N3_4  and  C2_6 
REMARK    2  A    between atoms: C10_14  and  N4_15 
REMARK       I    between atoms: N4_15  and  C11_17 
REMARK    3  A    between atoms: C11_17  and  C12_19 
REMARK       I    between atoms: C12_19  and  N5_21 
REMARK    4  A    between atoms: N5_21  and  C13_23 
ROOT
HETATM    1  N4  UNL     1      -4.045 -17.080   8.583  1.00  0.00    -0.342 N 
ATOM      2  H4  UNL     1      -3.554 -17.949   8.794  1.00  0.00     0.163 HD
HETATM    3  C11 UNL     1      -5.193 -17.098   7.758  1.00  0.00     0.310 C 
HETATM    4  O1  UNL     1      -5.775 -16.005   7.520  1.00  0.00    -0.262 OA
ENDROOT
BRANCH   1   5
HETATM    5  C10 UNL     1      -3.572 -15.832   9.124  1.00  0.00     0.141 C 
HETATM    6  C2  UNL     1      -2.495 -15.189   8.283  1.00  0.00     0.115 C 
HETATM    7  C3  UNL     1      -1.258 -15.942   8.683  1.00  0.00     0.066 C 
HETATM    8  C4  UNL     1      -1.482 -16.221  10.132  1.00  0.00    -0.048 A 
HETATM    9  C5  UNL     1      -0.627 -16.511  11.187  1.00  0.00     0.008 A 
HETATM   10  C9  UNL     1      -2.822 -16.159  10.388  1.00  0.00    -0.027 A 
HETATM   11  C6  UNL     1      -1.062 -16.741  12.473  1.00  0.00     0.001 A 
HETATM   12  C7  UNL     1      -2.422 -16.670  12.690  1.00  0.00     0.001 A 
HETATM   13  C8  UNL     1      -3.297 -16.384  11.667  1.00  0.00     0.010 A 
BRANCH   6  14
HETATM   14  N3  UNL     1      -2.352 -13.816   8.728  1.00  0.00    -0.360 N 
HETATM   15  C1  UNL     1      -3.019 -12.864   8.165  1.00  0.00     0.197 C 
HETATM   16  N1  UNL     1      -2.909 -11.515   8.569  1.00  0.00    -0.067 NA
HETATM   17  N2  UNL     1      -3.911 -13.167   7.084  1.00  0.00    -0.067 NA
ATOM     18  H3  UNL     1      -1.718 -13.599   9.496  1.00  0.00     0.162 HD
ENDBRANCH   6  14
ENDBRANCH   1   5
BRANCH   3  19
HETATM   19  C12 UNL     1      -5.739 -18.331   7.169  1.00  0.00     0.313 C 
HETATM   20  O2  UNL     1      -5.060 -19.366   7.334  1.00  0.00    -0.262 OA
HETATM   21  N5  UNL     1      -6.942 -18.363   6.465  1.00  0.00    -0.319 N 
ATOM     22  H5  UNL     1      -7.449 -17.483   6.368  1.00  0.00     0.169 HD
BRANCH  21  23
HETATM   23  C13 UNL     1      -7.518 -19.499   5.880  1.00  0.00     0.038 A 
HETATM   24  C14 UNL     1      -7.179 -19.766   4.544  1.00  0.00     0.031 A 
HETATM   25  C15 UNL     1      -7.661 -20.832   3.841  1.00  0.00     0.029 A 
HETATM   26  C16 UNL     1      -8.530 -21.705   4.469  1.00  0.00     0.072 A 
HETATM   27 CL1  UNL     1      -9.156 -23.085   3.570  1.00  0.00    -0.081 Cl
HETATM   28  C17 UNL     1      -8.890 -21.485   5.774  1.00  0.00     0.140 A 
HETATM   29  F1  UNL     1      -9.741 -22.356   6.360  1.00  0.00    -0.204 F 
HETATM   30  C18 UNL     1      -8.376 -20.385   6.454  1.00  0.00     0.073 A 
ENDBRANCH  21  23
ENDBRANCH   3  19
TORSDOF 4
ENDMDL
