MODEL 3
REMARK VINA RESULT: -9.271147724      1.106      1.441
REMARK  4 active torsions:
REMARK  status: ('A' for Active; 'I' for Inactive)
REMARK    1  A    between atoms: N3_4  and  C2_6 
REMARK    2  A    between atoms: C10_14  and  N4_15 
REMARK       I    between atoms: N4_15  and  C11_17 
REMARK    3  A    between atoms: C11_17  and  C12_19 
REMARK       I    between atoms: C12_19  and  N5_21 
REMARK    4  A    between atoms: N5_21  and  C13_23 
ROOT
HETATM    1  N4  UNL     1      -3.529 -15.899  11.323  1.00  0.00    -0.342 N 
ATOM      2  H4  UNL     1      -4.233 -15.172  11.192  1.00  0.00     0.163 HD
HETATM    3  C11 UNL     1      -3.266 -16.407  12.615  1.00  0.00     0.310 C 
HETATM    4  O1  UNL     1      -2.389 -17.305  12.738  1.00  0.00    -0.262 OA
ENDROOT
BRANCH   1   5
HETATM    5  C10 UNL     1      -2.800 -16.411  10.190  1.00  0.00     0.141 C 
HETATM    6  C2  UNL     1      -1.571 -15.598   9.857  1.00  0.00     0.115 C 
HETATM    7  C3  UNL     1      -2.133 -14.435   9.091  1.00  0.00     0.066 C 
HETATM    8  C4  UNL     1      -3.273 -15.038   8.339  1.00  0.00    -0.048 A 
HETATM    9  C5  UNL     1      -3.957 -14.666   7.190  1.00  0.00     0.008 A 
HETATM   10  C9  UNL     1      -3.660 -16.182   8.976  1.00  0.00    -0.027 A 
HETATM   11  C6  UNL     1      -5.003 -15.389   6.663  1.00  0.00     0.001 A 
HETATM   12  C7  UNL     1      -5.365 -16.536   7.336  1.00  0.00     0.001 A 
HETATM   13  C8  UNL     1      -4.708 -16.935   8.478  1.00  0.00     0.010 A 
BRANCH   6  14
HETATM   14  N3  UNL     1      -0.759 -16.386   8.950  1.00  0.00    -0.360 N 
HETATM   15  C1  UNL     1       0.298 -16.999   9.371  1.00  0.00     0.197 C 
HETATM   16  N1  UNL     1       1.116 -17.776   8.520  1.00  0.00    -0.067 NA
HETATM   17  N2  UNL     1       0.673 -16.900  10.751  1.00  0.00    -0.067 NA
ATOM     18  H3  UNL     1      -1.024 -16.457   7.968  1.00  0.00     0.162 HD
ENDBRANCH   6  14
ENDBRANCH   1   5
BRANCH   3  19
HETATM   19  C12 UNL     1      -3.967 -15.938  13.820  1.00  0.00     0.313 C 
HETATM   20  O2  UNL     1      -5.068 -15.379  13.633  1.00  0.00    -0.262 OA
HETATM   21  N5  UNL     1      -3.451 -16.097  15.106  1.00  0.00    -0.319 N 
ATOM     22  H5  UNL     1      -2.547 -16.564  15.190  1.00  0.00     0.169 HD
BRANCH  21  23
HETATM   23  C13 UNL     1      -4.065 -15.675  16.293  1.00  0.00     0.038 A 
HETATM   24  C14 UNL     1      -5.449 -15.878  16.399  1.00  0.00     0.031 A 
HETATM   25  C15 UNL     1      -6.184 -15.517  17.492  1.00  0.00     0.029 A 
HETATM   26  C16 UNL     1      -5.540 -14.919  18.558  1.00  0.00     0.072 A 
HETATM   27 CL1  UNL     1      -6.479 -14.451  19.974  1.00  0.00    -0.081 Cl
HETATM   28  C17 UNL     1      -4.187 -14.700  18.500  1.00  0.00     0.140 A 
HETATM   29  F1  UNL     1      -3.586 -14.113  19.559  1.00  0.00    -0.204 F 
HETATM   30  C18 UNL     1      -3.476 -15.082  17.367  1.00  0.00     0.073 A 
ENDBRANCH  21  23
ENDBRANCH   3  19
TORSDOF 4
ENDMDL
