MODEL 6
REMARK VINA RESULT: -8.207433277      1.274      1.739
REMARK  4 active torsions:
REMARK  status: ('A' for Active; 'I' for Inactive)
REMARK    1  A    between atoms: N3_4  and  C2_6 
REMARK    2  A    between atoms: C10_14  and  N4_15 
REMARK       I    between atoms: N4_15  and  C11_17 
REMARK    3  A    between atoms: C11_17  and  C12_19 
REMARK       I    between atoms: C12_19  and  N5_21 
REMARK    4  A    between atoms: N5_21  and  C13_23 
ROOT
HETATM    1  N4  UNL     1      -3.458 -15.528  11.326  1.00  0.00    -0.342 N 
ATOM      2  H4  UNL     1      -4.070 -14.716  11.242  1.00  0.00     0.163 HD
HETATM    3  C11 UNL     1      -3.371 -16.226  12.553  1.00  0.00     0.310 C 
HETATM    4  O1  UNL     1      -2.605 -17.225  12.619  1.00  0.00    -0.262 OA
ENDROOT
BRANCH   1   5
HETATM    5  C10 UNL     1      -2.680 -15.967  10.196  1.00  0.00     0.141 C 
HETATM    6  C2  UNL     1      -1.224 -16.192  10.527  1.00  0.00     0.115 C 
HETATM    7  C3  UNL     1      -0.653 -14.803  10.502  1.00  0.00     0.066 C 
HETATM    8  C4  UNL     1      -1.429 -14.134   9.417  1.00  0.00    -0.048 A 
HETATM    9  C5  UNL     1      -1.181 -13.028   8.615  1.00  0.00     0.008 A 
HETATM   10  C9  UNL     1      -2.604 -14.807   9.240  1.00  0.00    -0.027 A 
HETATM   11  C6  UNL     1      -2.059 -12.576   7.655  1.00  0.00     0.001 A 
HETATM   12  C7  UNL     1      -3.234 -13.282   7.509  1.00  0.00     0.001 A 
HETATM   13  C8  UNL     1      -3.511 -14.383   8.286  1.00  0.00     0.010 A 
BRANCH   6  14
HETATM   14  N3  UNL     1      -0.637 -16.942   9.434  1.00  0.00    -0.360 N 
HETATM   15  C1  UNL     1      -1.097 -18.103   9.104  1.00  0.00     0.197 C 
HETATM   16  N1  UNL     1      -0.554 -18.865   8.045  1.00  0.00    -0.067 NA
HETATM   17  N2  UNL     1      -2.202 -18.659   9.829  1.00  0.00    -0.067 NA
ATOM     18  H3  UNL     1       0.149 -16.548   8.917  1.00  0.00     0.162 HD
ENDBRANCH   6  14
ENDBRANCH   1   5
BRANCH   3  19
HETATM   19  C12 UNL     1      -4.133 -15.840  13.750  1.00  0.00     0.313 C 
HETATM   20  O2  UNL     1      -5.261 -15.345  13.549  1.00  0.00    -0.262 OA
HETATM   21  N5  UNL     1      -3.642 -16.010  15.045  1.00  0.00    -0.319 N 
ATOM     22  H5  UNL     1      -2.713 -16.421  15.140  1.00  0.00     0.169 HD
BRANCH  21  23
HETATM   23  C13 UNL     1      -4.313 -15.665  16.226  1.00  0.00     0.038 A 
HETATM   24  C14 UNL     1      -3.520 -15.261  17.311  1.00  0.00     0.031 A 
HETATM   25  C15 UNL     1      -4.030 -14.897  18.525  1.00  0.00     0.029 A 
HETATM   26  C16 UNL     1      -5.400 -14.925  18.706  1.00  0.00     0.072 A 
HETATM   27 CL1  UNL     1      -6.067 -14.456  20.269  1.00  0.00    -0.081 Cl
HETATM   28  C17 UNL     1      -6.215 -15.313  17.674  1.00  0.00     0.140 A 
HETATM   29  F1  UNL     1      -7.550 -15.330  17.882  1.00  0.00    -0.204 F 
HETATM   30  C18 UNL     1      -5.654 -15.676  16.454  1.00  0.00     0.073 A 
ENDBRANCH  21  23
ENDBRANCH   3  19
TORSDOF 4
ENDMDL
