MODEL 9
REMARK VINA RESULT: -8.503747282      2.343      3.525
REMARK  4 active torsions:
REMARK  status: ('A' for Active; 'I' for Inactive)
REMARK    1  A    between atoms: N3_4  and  C2_6 
REMARK    2  A    between atoms: C10_14  and  N4_15 
REMARK       I    between atoms: N4_15  and  C11_17 
REMARK    3  A    between atoms: C11_17  and  C12_19 
REMARK       I    between atoms: C12_19  and  N5_21 
REMARK    4  A    between atoms: N5_21  and  C13_23 
ROOT
HETATM    1  N4  UNL     1      27.694 -16.291  36.129  1.00  0.00    -0.342 N 
ATOM      2  H4  UNL     1      26.694 -16.486  36.078  1.00  0.00     0.163 HD
HETATM    3  C11 UNL     1      28.216 -15.875  37.373  1.00  0.00     0.310 C 
HETATM    4  O1  UNL     1      29.442 -15.632  37.447  1.00  0.00    -0.262 OA
ENDROOT
BRANCH   1   5
HETATM    5  C10 UNL     1      28.459 -16.461  34.936  1.00  0.00     0.141 C 
HETATM    6  C2  UNL     1      27.834 -17.490  33.981  1.00  0.00     0.115 C 
HETATM    7  C3  UNL     1      26.821 -16.650  33.243  1.00  0.00     0.066 C 
HETATM    8  C4  UNL     1      27.512 -15.353  33.071  1.00  0.00    -0.048 A 
HETATM    9  C5  UNL     1      27.327 -14.337  32.122  1.00  0.00     0.008 A 
HETATM   10  C9  UNL     1      28.456 -15.243  34.061  1.00  0.00    -0.027 A 
HETATM   11  C6  UNL     1      28.103 -13.203  32.180  1.00  0.00     0.001 A 
HETATM   12  C7  UNL     1      29.053 -13.090  33.175  1.00  0.00     0.001 A 
HETATM   13  C8  UNL     1      29.224 -14.100  34.104  1.00  0.00     0.010 A 
BRANCH   6  14
HETATM   14  N3  UNL     1      28.813 -17.950  33.034  1.00  0.00    -0.360 N 
HETATM   15  C1  UNL     1      28.713 -19.117  32.521  1.00  0.00     0.197 C 
HETATM   16  N1  UNL     1      29.654 -19.625  31.576  1.00  0.00    -0.067 NA
HETATM   17  N2  UNL     1      27.634 -19.945  32.891  1.00  0.00    -0.067 NA
ATOM     18  H3  UNL     1      29.590 -17.345  32.772  1.00  0.00     0.162 HD
ENDBRANCH   6  14
ENDBRANCH   1   5
BRANCH   3  19
HETATM   19  C12 UNL     1      27.392 -15.709  38.591  1.00  0.00     0.313 C 
HETATM   20  O2  UNL     1      26.172 -15.847  38.418  1.00  0.00    -0.262 OA
HETATM   21  N5  UNL     1      27.948 -15.423  39.825  1.00  0.00    -0.319 N 
ATOM     22  H5  UNL     1      28.963 -15.329  39.878  1.00  0.00     0.169 HD
BRANCH  21  23
HETATM   23  C13 UNL     1      27.210 -15.251  41.014  1.00  0.00     0.038 A 
HETATM   24  C14 UNL     1      27.653 -15.489  42.289  1.00  0.00     0.031 A 
HETATM   25  C15 UNL     1      26.848 -15.277  43.409  1.00  0.00     0.029 A 
HETATM   26  C16 UNL     1      25.571 -14.820  43.276  1.00  0.00     0.072 A 
HETATM   27 CL1  UNL     1      24.591 -14.567  44.701  1.00  0.00    -0.081 Cl
HETATM   28  C17 UNL     1      25.083 -14.568  42.002  1.00  0.00     0.140 A 
HETATM   29  F1  UNL     1      23.817 -14.115  41.868  1.00  0.00    -0.204 F 
HETATM   30  C18 UNL     1      25.891 -14.783  40.921  1.00  0.00     0.073 A 
ENDBRANCH  21  23
ENDBRANCH   3  19
TORSDOF 4
ENDMDL
