MODEL 17
REMARK VINA RESULT: -7.164599436      2.115      2.858
REMARK  4 active torsions:
REMARK  status: ('A' for Active; 'I' for Inactive)
REMARK    1  A    between atoms: N3_4  and  C2_6 
REMARK    2  A    between atoms: C10_14  and  N4_15 
REMARK       I    between atoms: N4_15  and  C11_17 
REMARK    3  A    between atoms: C11_17  and  C12_19 
REMARK       I    between atoms: C12_19  and  N5_21 
REMARK    4  A    between atoms: N5_21  and  C13_23 
ROOT
HETATM    1  N4  UNL     1      30.291 -15.641  36.220  1.00  0.00    -0.342 N 
ATOM      2  H4  UNL     1      30.600 -15.165  37.068  1.00  0.00     0.163 HD
HETATM    3  C11 UNL     1      28.997 -16.205  36.223  1.00  0.00     0.310 C 
HETATM    4  O1  UNL     1      28.608 -16.794  35.189  1.00  0.00    -0.262 OA
ENDROOT
BRANCH   1   5
HETATM    5  C10 UNL     1      31.202 -15.687  35.122  1.00  0.00     0.141 C 
HETATM    6  C2  UNL     1      32.035 -14.402  34.998  1.00  0.00     0.115 C 
HETATM    7  C3  UNL     1      33.155 -14.666  35.973  1.00  0.00     0.066 C 
HETATM    8  C4  UNL     1      33.432 -16.108  35.794  1.00  0.00    -0.048 A 
HETATM    9  C5  UNL     1      34.593 -16.855  36.043  1.00  0.00     0.008 A 
HETATM   10  C9  UNL     1      32.292 -16.700  35.309  1.00  0.00    -0.027 A 
HETATM   11  C6  UNL     1      34.596 -18.209  35.800  1.00  0.00     0.001 A 
HETATM   12  C7  UNL     1      33.451 -18.806  35.312  1.00  0.00     0.001 A 
HETATM   13  C8  UNL     1      32.314 -18.057  35.071  1.00  0.00     0.010 A 
BRANCH   6  14
HETATM   14  N3  UNL     1      32.598 -14.299  33.680  1.00  0.00    -0.360 N 
HETATM   15  C1  UNL     1      32.181 -13.403  32.869  1.00  0.00     0.197 C 
HETATM   16  N1  UNL     1      32.704 -13.254  31.550  1.00  0.00    -0.067 NA
HETATM   17  N2  UNL     1      31.163 -12.519  33.280  1.00  0.00    -0.067 NA
ATOM     18  H3  UNL     1      33.334 -14.943  33.390  1.00  0.00     0.162 HD
ENDBRANCH   6  14
ENDBRANCH   1   5
BRANCH   3  19
HETATM   19  C12 UNL     1      28.078 -16.139  37.381  1.00  0.00     0.313 C 
HETATM   20  O2  UNL     1      27.107 -16.908  37.320  1.00  0.00    -0.262 OA
HETATM   21  N5  UNL     1      28.293 -15.281  38.445  1.00  0.00    -0.319 N 
ATOM     22  H5  UNL     1      29.119 -14.684  38.415  1.00  0.00     0.169 HD
BRANCH  21  23
HETATM   23  C13 UNL     1      27.448 -15.176  39.569  1.00  0.00     0.038 A 
HETATM   24  C14 UNL     1      26.125 -14.819  39.563  1.00  0.00     0.031 A 
HETATM   25  C15 UNL     1      25.366 -14.754  40.732  1.00  0.00     0.029 A 
HETATM   26  C16 UNL     1      25.919 -15.046  41.943  1.00  0.00     0.072 A 
HETATM   27 CL1  UNL     1      24.937 -14.954  43.386  1.00  0.00    -0.081 Cl
HETATM   28  C17 UNL     1      27.256 -15.412  41.993  1.00  0.00     0.140 A 
HETATM   29  F1  UNL     1      27.807 -15.702  43.193  1.00  0.00    -0.204 F 
HETATM   30  C18 UNL     1      27.979 -15.468  40.835  1.00  0.00     0.073 A 
ENDBRANCH  21  23
ENDBRANCH   3  19
TORSDOF 4
ENDMDL
