MODEL 7
REMARK VINA RESULT: -8.608263012      2.492      3.736
REMARK  4 active torsions:
REMARK  status: ('A' for Active; 'I' for Inactive)
REMARK    1  A    between atoms: N3_4  and  C2_6 
REMARK    2  A    between atoms: C10_14  and  N4_15 
REMARK       I    between atoms: N4_15  and  C11_17 
REMARK    3  A    between atoms: C11_17  and  C12_19 
REMARK       I    between atoms: C12_19  and  N5_21 
REMARK    4  A    between atoms: N5_21  and  C13_23 
ROOT
HETATM    1  N4  UNL     1      27.612 -16.262  36.062  1.00  0.00    -0.342 N 
ATOM      2  H4  UNL     1      26.612 -16.456  36.006  1.00  0.00     0.163 HD
HETATM    3  C11 UNL     1      28.133 -15.873  37.316  1.00  0.00     0.310 C 
HETATM    4  O1  UNL     1      29.358 -15.631  37.396  1.00  0.00    -0.262 OA
ENDROOT
BRANCH   1   5
HETATM    5  C10 UNL     1      28.378 -16.403  34.866  1.00  0.00     0.141 C 
HETATM    6  C2  UNL     1      27.759 -17.415  33.890  1.00  0.00     0.115 C 
HETATM    7  C3  UNL     1      26.742 -16.565  33.170  1.00  0.00     0.066 C 
HETATM    8  C4  UNL     1      27.427 -15.262  33.024  1.00  0.00    -0.048 A 
HETATM    9  C5  UNL     1      27.236 -14.228  32.096  1.00  0.00     0.008 A 
HETATM   10  C9  UNL     1      28.369 -15.167  34.017  1.00  0.00    -0.027 A 
HETATM   11  C6  UNL     1      28.007 -13.091  32.177  1.00  0.00     0.001 A 
HETATM   12  C7  UNL     1      28.956 -12.994  33.175  1.00  0.00     0.001 A 
HETATM   13  C8  UNL     1      29.132 -14.022  34.083  1.00  0.00     0.010 A 
BRANCH   6  14
HETATM   14  N3  UNL     1      28.740 -17.852  32.935  1.00  0.00    -0.360 N 
HETATM   15  C1  UNL     1      28.683 -19.031  32.445  1.00  0.00     0.197 C 
HETATM   16  N1  UNL     1      29.628 -19.517  31.493  1.00  0.00    -0.067 NA
HETATM   17  N2  UNL     1      27.648 -19.898  32.851  1.00  0.00    -0.067 NA
ATOM     18  H3  UNL     1      29.486 -17.218  32.646  1.00  0.00     0.162 HD
ENDBRANCH   6  14
ENDBRANCH   1   5
BRANCH   3  19
HETATM   19  C12 UNL     1      27.308 -15.737  38.537  1.00  0.00     0.313 C 
HETATM   20  O2  UNL     1      26.098 -15.958  38.376  1.00  0.00    -0.262 OA
HETATM   21  N5  UNL     1      27.852 -15.388  39.760  1.00  0.00    -0.319 N 
ATOM     22  H5  UNL     1      28.858 -15.226  39.803  1.00  0.00     0.169 HD
BRANCH  21  23
HETATM   23  C13 UNL     1      27.112 -15.240  40.951  1.00  0.00     0.038 A 
HETATM   24  C14 UNL     1      25.902 -14.611  41.085  1.00  0.00     0.031 A 
HETATM   25  C15 UNL     1      25.239 -14.527  42.310  1.00  0.00     0.029 A 
HETATM   26  C16 UNL     1      25.776 -15.074  43.436  1.00  0.00     0.072 A 
HETATM   27 CL1  UNL     1      24.916 -14.949  44.953  1.00  0.00    -0.081 Cl
HETATM   28  C17 UNL     1      27.000 -15.720  43.343  1.00  0.00     0.140 A 
HETATM   29  F1  UNL     1      27.535 -16.264  44.459  1.00  0.00    -0.204 F 
HETATM   30  C18 UNL     1      27.630 -15.790  42.133  1.00  0.00     0.073 A 
ENDBRANCH  21  23
ENDBRANCH   3  19
TORSDOF 4
ENDMDL
