MODEL 20
REMARK VINA RESULT: -6.974592730      5.379      8.638
REMARK  4 active torsions:
REMARK  status: ('A' for Active; 'I' for Inactive)
REMARK    1  A    between atoms: N3_4  and  C2_6 
REMARK    2  A    between atoms: C10_14  and  N4_15 
REMARK       I    between atoms: N4_15  and  C11_17 
REMARK    3  A    between atoms: C11_17  and  C12_19 
REMARK       I    between atoms: C12_19  and  N5_21 
REMARK    4  A    between atoms: N5_21  and  C13_23 
ROOT
HETATM    1  N4  UNL     1      28.313 -13.638  36.328  1.00  0.00    -0.342 N 
ATOM      2  H4  UNL     1      27.332 -13.584  36.055  1.00  0.00     0.163 HD
HETATM    3  C11 UNL     1      29.239 -12.872  35.587  1.00  0.00     0.310 C 
HETATM    4  O1  UNL     1      30.447 -12.932  35.911  1.00  0.00    -0.262 OA
ENDROOT
BRANCH   1   5
HETATM    5  C10 UNL     1      28.645 -14.484  37.429  1.00  0.00     0.141 C 
HETATM    6  C2  UNL     1      27.404 -14.943  38.210  1.00  0.00     0.115 C 
HETATM    7  C3  UNL     1      26.952 -16.132  37.399  1.00  0.00     0.066 C 
HETATM    8  C4  UNL     1      28.223 -16.771  36.992  1.00  0.00    -0.048 A 
HETATM    9  C5  UNL     1      28.505 -18.097  36.632  1.00  0.00     0.008 A 
HETATM   10  C9  UNL     1      29.201 -15.809  37.001  1.00  0.00    -0.027 A 
HETATM   11  C6  UNL     1      29.788 -18.447  36.278  1.00  0.00     0.001 A 
HETATM   12  C7  UNL     1      30.774 -17.480  36.288  1.00  0.00     0.001 A 
HETATM   13  C8  UNL     1      30.480 -16.178  36.645  1.00  0.00     0.010 A 
BRANCH   6  14
HETATM   14  N3  UNL     1      27.780 -15.405  39.517  1.00  0.00    -0.360 N 
HETATM   15  C1  UNL     1      26.985 -15.256  40.507  1.00  0.00     0.197 C 
HETATM   16  N1  UNL     1      27.306 -15.697  41.826  1.00  0.00    -0.067 NA
HETATM   17  N2  UNL     1      25.736 -14.635  40.302  1.00  0.00    -0.067 NA
ATOM     18  H3  UNL     1      28.686 -15.854  39.657  1.00  0.00     0.162 HD
ENDBRANCH   6  14
ENDBRANCH   1   5
BRANCH   3  19
HETATM   19  C12 UNL     1      28.860 -12.006  34.450  1.00  0.00     0.313 C 
HETATM   20  O2  UNL     1      28.309 -12.594  33.507  1.00  0.00    -0.262 OA
HETATM   21  N5  UNL     1      29.105 -10.644  34.445  1.00  0.00    -0.319 N 
ATOM     22  H5  UNL     1      29.561 -10.241  35.264  1.00  0.00     0.169 HD
BRANCH  21  23
HETATM   23  C13 UNL     1      28.767  -9.775  33.388  1.00  0.00     0.038 A 
HETATM   24  C14 UNL     1      27.663  -8.966  33.319  1.00  0.00     0.031 A 
HETATM   25  C15 UNL     1      27.421  -8.127  32.230  1.00  0.00     0.029 A 
HETATM   26  C16 UNL     1      28.285  -8.080  31.177  1.00  0.00     0.072 A 
HETATM   27 CL1  UNL     1      27.949  -7.019  29.830  1.00  0.00    -0.081 Cl
HETATM   28  C17 UNL     1      29.415  -8.885  31.207  1.00  0.00     0.140 A 
HETATM   29  F1  UNL     1      30.273  -8.840  30.163  1.00  0.00    -0.204 F 
HETATM   30  C18 UNL     1      29.630  -9.697  32.284  1.00  0.00     0.073 A 
ENDBRANCH  21  23
ENDBRANCH   3  19
TORSDOF 4
ENDMDL
