MODEL 5
REMARK VINA RESULT: -8.147911107      4.356      7.382
REMARK  8 active torsions:
REMARK  status: ('A' for Active; 'I' for Inactive)
REMARK    1  A    between atoms: N1_1  and  C1_5 
REMARK    2  A    between atoms: C1_5  and  C2_6 
REMARK    3  A    between atoms: C1_5  and  C12_22 
REMARK    4  A    between atoms: C2_6  and  C3_7 
REMARK    5  A    between atoms: C6_11  and  N2_12 
REMARK    6  A    between atoms: C8_16  and  C9_17 
REMARK    7  A    between atoms: C9_17  and  C10_18 
REMARK    8  A    between atoms: C10_18  and  C11_19 
ROOT
HETATM    1  C3  UNL     1      -2.778  35.638  99.820  1.00  0.00    -0.044 A 
HETATM    2  C4  UNL     1      -3.489  35.512  98.647  1.00  0.00     0.034 A 
HETATM    3  C5  UNL     1      -4.865  35.311  98.636  1.00  0.00     0.067 A 
HETATM    4 CL1  UNL     1      -5.773  35.146  97.142  1.00  0.00    -0.082 Cl
HETATM    5  C6  UNL     1      -5.565  35.230  99.806  1.00  0.00     0.125 A 
HETATM    6  C7  UNL     1      -4.856  35.353 100.969  1.00  0.00     0.049 A 
HETATM    7  C8  UNL     1      -3.465  35.555 101.011  1.00  0.00    -0.031 A 
ENDROOT
BRANCH   1   8
HETATM    8  C2  UNL     1      -1.373  35.975  99.780  1.00  0.00     0.083 C 
BRANCH   8   9
HETATM    9  C1  UNL     1      -0.369  34.953  99.434  1.00  0.00     0.287 C 
BRANCH   9  10
HETATM   10  N1  UNL     1       0.782  34.969 100.289  1.00  0.00    -0.065 N 
ATOM     11  H13 UNL     1       1.638  34.864  99.744  1.00  0.00     0.275 HD
ATOM     12  H12 UNL     1       0.936  35.902 100.668  1.00  0.00     0.275 HD
ATOM     13  H11 UNL     1       0.743  34.277 101.037  1.00  0.00     0.275 HD
ENDBRANCH   9  10
BRANCH   9  14
HETATM   14  C12 UNL     1       0.050  35.174  98.026  1.00  0.00     0.204 C 
HETATM   15  O5  UNL     1       0.800  36.085  97.618  1.00  0.00    -0.646 OA
HETATM   16  O6  UNL     1      -0.452  34.275  97.090  1.00  0.00    -0.646 OA
ENDBRANCH   9  14
ENDBRANCH   8   9
ENDBRANCH   1   8
BRANCH   7  17
HETATM   17  C9  UNL     1      -2.742  35.569 102.272  1.00  0.00    -0.004 C 
BRANCH  17  18
HETATM   18  C10 UNL     1      -2.449  34.359 103.011  1.00  0.00     0.141 C 
BRANCH  18  19
HETATM   19  C11 UNL     1      -3.257  34.044 104.216  1.00  0.00     0.176 C 
HETATM   20  O3  UNL     1      -2.858  33.890 105.369  1.00  0.00    -0.648 OA
HETATM   21  O4  UNL     1      -4.672  33.904 104.044  1.00  0.00    -0.648 OA
ENDBRANCH  18  19
ENDBRANCH  17  18
ENDBRANCH   7  17
BRANCH   5  22
HETATM   22  N2  UNL     1      -6.990  35.032  99.793  1.00  0.00    -0.114 N 
HETATM   23  O1  UNL     1      -7.792  35.867 100.222  1.00  0.00    -0.532 OA
HETATM   24  O2  UNL     1      -7.518  33.862  99.280  1.00  0.00    -0.532 OA
ENDBRANCH   5  22
TORSDOF 8
ENDMDL
