MODEL 3
REMARK VINA RESULT: -8.302551858      3.809      6.652
REMARK  8 active torsions:
REMARK  status: ('A' for Active; 'I' for Inactive)
REMARK    1  A    between atoms: N1_1  and  C1_5 
REMARK    2  A    between atoms: C1_5  and  C2_6 
REMARK    3  A    between atoms: C1_5  and  C12_22 
REMARK    4  A    between atoms: C2_6  and  C3_7 
REMARK    5  A    between atoms: C6_11  and  N2_12 
REMARK    6  A    between atoms: C8_16  and  C9_17 
REMARK    7  A    between atoms: C9_17  and  C10_18 
REMARK    8  A    between atoms: C10_18  and  C11_19 
ROOT
HETATM    1  C3  UNL     1      -2.144  35.777 100.354  1.00  0.00    -0.044 A 
HETATM    2  C4  UNL     1      -2.186  35.771  98.978  1.00  0.00     0.034 A 
HETATM    3  C5  UNL     1      -3.367  35.552  98.275  1.00  0.00     0.067 A 
HETATM    4 CL1  UNL     1      -3.422  35.540  96.520  1.00  0.00    -0.082 Cl
HETATM    5  C6  UNL     1      -4.540  35.334  98.940  1.00  0.00     0.125 A 
HETATM    6  C7  UNL     1      -4.495  35.338 100.307  1.00  0.00     0.049 A 
HETATM    7  C8  UNL     1      -3.316  35.554 101.043  1.00  0.00    -0.031 A 
ENDROOT
BRANCH   1   8
HETATM    8  C2  UNL     1      -0.922  36.137 101.037  1.00  0.00     0.083 C 
BRANCH   8   9
HETATM    9  C1  UNL     1      -0.449  37.532 101.036  1.00  0.00     0.287 C 
BRANCH   9  10
HETATM   10  N1  UNL     1       0.979  37.653 100.993  1.00  0.00    -0.065 N 
ATOM     11  H13 UNL     1       1.423  36.811 101.360  1.00  0.00     0.275 HD
ATOM     12  H12 UNL     1       1.315  37.616 100.031  1.00  0.00     0.275 HD
ATOM     13  H11 UNL     1       1.332  38.484 101.467  1.00  0.00     0.275 HD
ENDBRANCH   9  10
BRANCH   9  14
HETATM   14  C12 UNL     1      -0.971  38.199 102.257  1.00  0.00     0.204 C 
HETATM   15  O5  UNL     1      -2.096  38.725 102.382  1.00  0.00    -0.646 OA
HETATM   16  O6  UNL     1      -0.110  38.232 103.351  1.00  0.00    -0.646 OA
ENDBRANCH   9  14
ENDBRANCH   8   9
ENDBRANCH   1   8
BRANCH   7  17
HETATM   17  C9  UNL     1      -3.299  35.440 102.492  1.00  0.00    -0.004 C 
BRANCH  17  18
HETATM   18  C10 UNL     1      -4.231  34.601 103.215  1.00  0.00     0.141 C 
BRANCH  18  19
HETATM   19  C11 UNL     1      -3.780  33.945 104.467  1.00  0.00     0.176 C 
HETATM   20  O3  UNL     1      -4.312  33.007 105.058  1.00  0.00    -0.648 OA
HETATM   21  O4  UNL     1      -2.583  34.439 105.077  1.00  0.00    -0.648 OA
ENDBRANCH  18  19
ENDBRANCH  17  18
ENDBRANCH   7  17
BRANCH   5  22
HETATM   22  N2  UNL     1      -5.762  35.118  98.214  1.00  0.00    -0.114 N 
HETATM   23  O1  UNL     1      -6.481  36.038  97.811  1.00  0.00    -0.532 OA
HETATM   24  O2  UNL     1      -6.180  33.829  97.934  1.00  0.00    -0.532 OA
ENDBRANCH   5  22
TORSDOF 8
ENDMDL
