MODEL 1
REMARK VINA RESULT: -8.679354975      0.000      0.000
REMARK  8 active torsions:
REMARK  status: ('A' for Active; 'I' for Inactive)
REMARK    1  A    between atoms: N1_1  and  C1_5 
REMARK    2  A    between atoms: C1_5  and  C2_6 
REMARK    3  A    between atoms: C1_5  and  C12_22 
REMARK    4  A    between atoms: C2_6  and  C3_7 
REMARK    5  A    between atoms: C6_11  and  N2_12 
REMARK    6  A    between atoms: C8_16  and  C9_17 
REMARK    7  A    between atoms: C9_17  and  C10_18 
REMARK    8  A    between atoms: C10_18  and  C11_19 
ROOT
HETATM    1  C3  UNL     1      -0.640  34.356 102.452  1.00  0.00    -0.044 A 
HETATM    2  C4  UNL     1       0.336  33.592 103.052  1.00  0.00     0.034 A 
HETATM    3  C5  UNL     1       1.691  33.809 102.823  1.00  0.00     0.067 A 
HETATM    4 CL1  UNL     1       2.936  32.833 103.583  1.00  0.00    -0.082 Cl
HETATM    5  C6  UNL     1       2.102  34.805 101.982  1.00  0.00     0.125 A 
HETATM    6  C7  UNL     1       1.130  35.561 101.386  1.00  0.00     0.049 A 
HETATM    7  C8  UNL     1      -0.246  35.363 101.598  1.00  0.00    -0.031 A 
ENDROOT
BRANCH   1   8
HETATM    8  C2  UNL     1      -2.026  34.177 102.821  1.00  0.00     0.083 C 
BRANCH   8   9
HETATM    9  C1  UNL     1      -2.520  34.660 104.122  1.00  0.00     0.287 C 
BRANCH   9  10
HETATM   10  N1  UNL     1      -1.715  34.240 105.232  1.00  0.00    -0.065 N 
ATOM     11  H13 UNL     1      -2.294  33.822 105.961  1.00  0.00     0.275 HD
ATOM     12  H12 UNL     1      -1.149  33.430 104.981  1.00  0.00     0.275 HD
ATOM     13  H11 UNL     1      -1.131  34.983 105.616  1.00  0.00     0.275 HD
ENDBRANCH   9  10
BRANCH   9  14
HETATM   14  C12 UNL     1      -3.911  34.169 104.300  1.00  0.00     0.204 C 
HETATM   15  O5  UNL     1      -4.332  33.486 105.257  1.00  0.00    -0.646 OA
HETATM   16  O6  UNL     1      -4.812  34.509 103.295  1.00  0.00    -0.646 OA
ENDBRANCH   9  14
ENDBRANCH   8   9
ENDBRANCH   1   8
BRANCH   7  17
HETATM   17  C9  UNL     1      -1.241  36.120 100.856  1.00  0.00    -0.004 C 
BRANCH  17  18
HETATM   18  C10 UNL     1      -1.426  37.544 101.038  1.00  0.00     0.141 C 
BRANCH  18  19
HETATM   19  C11 UNL     1      -1.331  38.108 102.407  1.00  0.00     0.176 C 
HETATM   20  O3  UNL     1      -2.214  38.160 103.261  1.00  0.00    -0.648 OA
HETATM   21  O4  UNL     1      -0.072  38.659 102.809  1.00  0.00    -0.648 OA
ENDBRANCH  18  19
ENDBRANCH  17  18
ENDBRANCH   7  17
BRANCH   5  22
HETATM   22  N2  UNL     1       3.502  35.036 101.753  1.00  0.00    -0.114 N 
HETATM   23  O1  UNL     1       4.301  34.136 101.476  1.00  0.00    -0.532 OA
HETATM   24  O2  UNL     1       4.012  36.320 101.838  1.00  0.00    -0.532 OA
ENDBRANCH   5  22
TORSDOF 8
ENDMDL
