MODEL 2
REMARK VINA RESULT: -8.356240323      4.102      6.853
REMARK  8 active torsions:
REMARK  status: ('A' for Active; 'I' for Inactive)
REMARK    1  A    between atoms: N1_1  and  C1_5 
REMARK    2  A    between atoms: C1_5  and  C2_6 
REMARK    3  A    between atoms: C1_5  and  C12_22 
REMARK    4  A    between atoms: C2_6  and  C3_7 
REMARK    5  A    between atoms: C6_11  and  N2_12 
REMARK    6  A    between atoms: C8_16  and  C9_17 
REMARK    7  A    between atoms: C9_17  and  C10_18 
REMARK    8  A    between atoms: C10_18  and  C11_19 
ROOT
HETATM    1  C3  UNL     1      -2.580  35.713 100.177  1.00  0.00    -0.044 A 
HETATM    2  C4  UNL     1      -3.484  35.815  99.143  1.00  0.00     0.034 A 
HETATM    3  C5  UNL     1      -4.854  35.683  99.344  1.00  0.00     0.067 A 
HETATM    4 CL1  UNL     1      -6.009  35.808  98.026  1.00  0.00    -0.082 Cl
HETATM    5  C6  UNL     1      -5.353  35.446 100.593  1.00  0.00     0.125 A 
HETATM    6  C7  UNL     1      -4.453  35.343 101.618  1.00  0.00     0.049 A 
HETATM    7  C8  UNL     1      -3.063  35.470 101.444  1.00  0.00    -0.031 A 
ENDROOT
BRANCH   1   8
HETATM    8  C2  UNL     1      -1.180  35.986  99.941  1.00  0.00     0.083 C 
BRANCH   8   9
HETATM    9  C1  UNL     1      -0.274  34.911  99.499  1.00  0.00     0.287 C 
BRANCH   9  10
HETATM   10  N1  UNL     1       1.003  34.936 100.149  1.00  0.00    -0.065 N 
ATOM     11  H13 UNL     1       1.738  35.194  99.491  1.00  0.00     0.275 HD
ATOM     12  H12 UNL     1       1.066  35.725 100.791  1.00  0.00     0.275 HD
ATOM     13  H11 UNL     1       1.235  34.064 100.626  1.00  0.00     0.275 HD
ENDBRANCH   9  10
BRANCH   9  14
HETATM   14  C12 UNL     1      -0.091  35.036  98.030  1.00  0.00     0.204 C 
HETATM   15  O5  UNL     1      -0.628  34.320  97.160  1.00  0.00    -0.646 OA
HETATM   16  O6  UNL     1       0.765  36.047  97.604  1.00  0.00    -0.646 OA
ENDBRANCH   9  14
ENDBRANCH   8   9
ENDBRANCH   1   8
BRANCH   7  17
HETATM   17  C9  UNL     1      -2.141  35.243 102.544  1.00  0.00    -0.004 C 
BRANCH  17  18
HETATM   18  C10 UNL     1      -1.949  36.207 103.607  1.00  0.00     0.141 C 
BRANCH  18  19
HETATM   19  C11 UNL     1      -1.565  37.596 103.252  1.00  0.00     0.176 C 
HETATM   20  O3  UNL     1      -2.284  38.480 102.792  1.00  0.00    -0.648 OA
HETATM   21  O4  UNL     1      -0.202  37.979 103.467  1.00  0.00    -0.648 OA
ENDBRANCH  18  19
ENDBRANCH  17  18
ENDBRANCH   7  17
BRANCH   5  22
HETATM   22  N2  UNL     1      -6.771  35.320 100.802  1.00  0.00    -0.114 N 
HETATM   23  O1  UNL     1      -7.444  34.395 100.338  1.00  0.00    -0.532 OA
HETATM   24  O2  UNL     1      -7.442  36.264 101.558  1.00  0.00    -0.532 OA
ENDBRANCH   5  22
TORSDOF 8
ENDMDL
