MODEL 2
REMARK VINA RESULT: -8.131764804      4.061      7.972
REMARK  8 active torsions:
REMARK  status: ('A' for Active; 'I' for Inactive)
REMARK    1  A    between atoms: N1_5  and  C4_6 
REMARK    2  A    between atoms: C5_8  and  C6_9 
REMARK    3  A    between atoms: C6_9  and  O3_10 
REMARK    4  A    between atoms: O3_10  and  P1_11 
REMARK    5  A    between atoms: P1_11  and  O6_14 
REMARK    6  A    between atoms: O6_14  and  P2_15 
REMARK    7  A    between atoms: C7_19  and  O10_20 
REMARK    8  A    between atoms: C8_22  and  O11_23 
ROOT
HETATM    1  C4  UNL     1      12.478  31.408  14.617  1.00  0.00     0.263 C 
HETATM    2  O2  UNL     1      12.045  30.160  15.037  1.00  0.00    -0.353 OA
HETATM    3  C5  UNL     1      11.753  30.234  16.376  1.00  0.00     0.180 C 
HETATM    4  C7  UNL     1      11.529  31.682  16.728  1.00  0.00     0.182 C 
HETATM    5  C8  UNL     1      11.472  32.318  15.335  1.00  0.00     0.198 C 
ENDROOT
BRANCH   3   6
HETATM    6  C6  UNL     1      10.469  29.482  16.622  1.00  0.00     0.216 C 
BRANCH   6   7
HETATM    7  O3  UNL     1       9.867  29.960  17.750  1.00  0.00    -0.287 OA
BRANCH   7   8
HETATM    8  P1  UNL     1       9.217  28.881  18.785  1.00  0.00     0.418 P 
HETATM    9  O4  UNL     1       8.932  29.877  19.896  1.00  0.00    -0.624 OA
HETATM   10  O5  UNL     1       7.531  28.589  18.680  1.00  0.00    -0.624 OA
BRANCH   8  11
HETATM   11  O6  UNL     1      10.119  27.900  19.707  1.00  0.00    -0.173 OA
BRANCH  11  12
HETATM   12  P2  UNL     1       9.800  26.444  20.002  1.00  0.00     0.431 P 
HETATM   13  O7  UNL     1      11.300  26.148  20.577  1.00  0.00    -0.616 OA
HETATM   14  O8  UNL     1       8.570  26.789  21.046  1.00  0.00    -0.616 OA
HETATM   15  O9  UNL     1       9.493  26.197  18.387  1.00  0.00    -0.616 OA
ENDBRANCH  11  12
ENDBRANCH   8  11
ENDBRANCH   7   8
ENDBRANCH   6   7
ENDBRANCH   3   6
BRANCH   4  16
HETATM   16  O10 UNL     1      12.643  32.159  17.400  1.00  0.00    -0.390 OA
ATOM     17  H10 UNL     1      12.792  33.062  17.147  1.00  0.00     0.210 HD
ENDBRANCH   4  16
BRANCH   1  18
HETATM   18  N1  UNL     1      12.331  31.595  13.195  1.00  0.00    -0.280 N 
HETATM   19  C3  UNL     1      11.338  31.060  12.475  1.00  0.00     0.104 A 
HETATM   20  C2  UNL     1      11.292  31.302  11.118  1.00  0.00     0.092 A 
HETATM   21  C1  UNL     1      12.239  32.082  10.468  1.00  0.00     0.250 A 
HETATM   22  O1  UNL     1      12.176  32.289   9.229  1.00  0.00    -0.268 OA
HETATM   23  N2  UNL     1      13.216  32.595  11.237  1.00  0.00    -0.275 N 
HETATM   24  C9  UNL     1      13.248  32.350  12.565  1.00  0.00     0.331 A 
ATOM     25  H2  UNL     1      13.940  33.175  10.814  1.00  0.00     0.173 HD
HETATM   26  O12 UNL     1      14.195  32.865  13.229  1.00  0.00    -0.246 OA
ENDBRANCH   1  18
BRANCH   5  27
HETATM   27  O11 UNL     1      11.871  33.630  15.346  1.00  0.00    -0.388 OA
ATOM     28  H11 UNL     1      11.781  34.028  16.204  1.00  0.00     0.210 HD
ENDBRANCH   5  27
TORSDOF 8
ENDMDL
