MODEL 9
REMARK VINA RESULT: -7.908408558      2.749      4.122
REMARK  8 active torsions:
REMARK  status: ('A' for Active; 'I' for Inactive)
REMARK    1  A    between atoms: N1_5  and  C4_6 
REMARK    2  A    between atoms: C5_8  and  C6_9 
REMARK    3  A    between atoms: C6_9  and  O3_10 
REMARK    4  A    between atoms: O3_10  and  P1_11 
REMARK    5  A    between atoms: P1_11  and  O6_14 
REMARK    6  A    between atoms: O6_14  and  P2_15 
REMARK    7  A    between atoms: C7_19  and  O10_20 
REMARK    8  A    between atoms: C8_22  and  O11_23 
ROOT
HETATM    1  C4  UNL     1       6.991  28.231  18.233  1.00  0.00     0.263 C 
HETATM    2  O2  UNL     1       7.718  28.822  17.211  1.00  0.00    -0.353 OA
HETATM    3  C5  UNL     1       8.803  29.453  17.765  1.00  0.00     0.180 C 
HETATM    4  C7  UNL     1       9.053  28.851  19.124  1.00  0.00     0.182 C 
HETATM    5  C8  UNL     1       8.121  27.635  19.083  1.00  0.00     0.198 C 
ENDROOT
BRANCH   3   6
HETATM    6  C6  UNL     1      10.005  29.178  16.896  1.00  0.00     0.216 C 
BRANCH   6   7
HETATM    7  O3  UNL     1      11.022  28.687  17.663  1.00  0.00    -0.287 OA
BRANCH   7   8
HETATM    8  P1  UNL     1      12.233  27.897  16.910  1.00  0.00     0.418 P 
HETATM    9  O4  UNL     1      12.484  26.892  18.022  1.00  0.00    -0.624 OA
HETATM   10  O5  UNL     1      11.816  26.587  15.886  1.00  0.00    -0.624 OA
BRANCH   8  11
HETATM   11  O6  UNL     1      13.755  28.453  16.880  1.00  0.00    -0.173 OA
BRANCH  11  12
HETATM   12  P2  UNL     1      14.461  28.996  15.650  1.00  0.00     0.431 P 
HETATM   13  O7  UNL     1      13.071  29.558  15.002  1.00  0.00    -0.616 OA
HETATM   14  O8  UNL     1      15.445  30.011  16.500  1.00  0.00    -0.616 OA
HETATM   15  O9  UNL     1      14.960  27.456  15.271  1.00  0.00    -0.616 OA
ENDBRANCH  11  12
ENDBRANCH   8  11
ENDBRANCH   7   8
ENDBRANCH   6   7
ENDBRANCH   3   6
BRANCH   4  16
HETATM   16  O10 UNL     1       8.606  29.734  20.095  1.00  0.00    -0.390 OA
ATOM     17  H10 UNL     1       7.933  29.307  20.612  1.00  0.00     0.210 HD
ENDBRANCH   4  16
BRANCH   1  18
HETATM   18  N1  UNL     1       6.154  27.154  17.765  1.00  0.00    -0.280 N 
HETATM   19  C3  UNL     1       6.455  26.384  16.712  1.00  0.00     0.104 A 
HETATM   20  C2  UNL     1       5.582  25.380  16.349  1.00  0.00     0.092 A 
HETATM   21  C1  UNL     1       4.399  25.136  17.035  1.00  0.00     0.250 A 
HETATM   22  O1  UNL     1       3.619  24.214  16.684  1.00  0.00    -0.268 OA
HETATM   23  N2  UNL     1       4.145  25.938  18.084  1.00  0.00    -0.275 N 
HETATM   24  C9  UNL     1       5.009  26.917  18.429  1.00  0.00     0.331 A 
ATOM     25  H2  UNL     1       3.290  25.806  18.625  1.00  0.00     0.173 HD
HETATM   26  O12 UNL     1       4.707  27.635  19.428  1.00  0.00    -0.246 OA
ENDBRANCH   1  18
BRANCH   5  27
HETATM   27  O11 UNL     1       7.694  27.265  20.333  1.00  0.00    -0.388 OA
ATOM     28  H11 UNL     1       7.505  28.014  20.886  1.00  0.00     0.210 HD
ENDBRANCH   5  27
TORSDOF 8
ENDMDL
