MODEL 14
REMARK VINA RESULT: -3.697963710      1.254      1.859
REMARK  2 active torsions:
REMARK  status: ('A' for Active; 'I' for Inactive)
REMARK    1  A    between atoms: O1_2  and  C2_3 
REMARK    2  A    between atoms: C5_6  and  C6_7 
ROOT
HETATM    1  C2  UNL     1       6.266 -14.706 -20.799  1.00  0.00     0.068 A 
HETATM    2  C3  UNL     1       5.397 -15.678 -20.401  1.00  0.00     0.038 A 
HETATM    3  C4  UNL     1       4.049 -15.664 -20.734  1.00  0.00     0.021 A 
HETATM    4  C5  UNL     1       3.549 -14.633 -21.499  1.00  0.00     0.041 A 
HETATM    5  C7  UNL     1       4.433 -13.654 -21.897  1.00  0.00     0.021 A 
HETATM    6  C8  UNL     1       5.774 -13.670 -21.564  1.00  0.00     0.038 A 
ENDROOT
BRANCH   4   7
HETATM    7  C6  UNL     1       2.138 -14.603 -21.856  1.00  0.00     0.209 C 
HETATM    8  O2  UNL     1       1.684 -13.626 -22.502  1.00  0.00    -0.644 OA
HETATM    9  O3  UNL     1       1.258 -15.617 -21.511  1.00  0.00    -0.644 OA
ENDBRANCH   4   7
BRANCH   1  10
HETATM   10  O1  UNL     1       7.611 -14.728 -20.462  1.00  0.00    -0.356 OA
HETATM   11  C1  UNL     1       8.366 -15.922 -20.676  1.00  0.00     0.210 C 
ENDBRANCH   1  10
TORSDOF 2
ENDMDL
