MODEL 3
REMARK VINA RESULT: -6.994622232      1.134      4.712
REMARK  2 active torsions:
REMARK  status: ('A' for Active; 'I' for Inactive)
REMARK    1  A    between atoms: O1_2  and  C2_3 
REMARK    2  A    between atoms: C5_6  and  C6_7 
ROOT
HETATM    1  C2  UNL     1       3.711 -14.443 -21.369  1.00  0.00     0.068 A 
HETATM    2  C3  UNL     1       4.725 -13.791 -22.004  1.00  0.00     0.038 A 
HETATM    3  C4  UNL     1       6.060 -13.961 -21.660  1.00  0.00     0.021 A 
HETATM    4  C5  UNL     1       6.393 -14.821 -20.637  1.00  0.00     0.041 A 
HETATM    5  C7  UNL     1       5.362 -15.476 -19.999  1.00  0.00     0.021 A 
HETATM    6  C8  UNL     1       4.034 -15.304 -20.343  1.00  0.00     0.038 A 
ENDROOT
BRANCH   4   7
HETATM    7  C6  UNL     1       7.787 -15.010 -20.263  1.00  0.00     0.209 C 
HETATM    8  O2  UNL     1       8.315 -16.143 -20.392  1.00  0.00    -0.644 OA
HETATM    9  O3  UNL     1       8.573 -13.983 -19.761  1.00  0.00    -0.644 OA
ENDBRANCH   4   7
BRANCH   1  10
HETATM   10  O1  UNL     1       2.380 -14.267 -21.720  1.00  0.00    -0.356 OA
HETATM   11  C1  UNL     1       1.916 -12.963 -22.075  1.00  0.00     0.210 C 
ENDBRANCH   1  10
TORSDOF 2
ENDMDL
