MODEL 5
REMARK VINA RESULT: -6.227370856      1.171      4.952
REMARK  2 active torsions:
REMARK  status: ('A' for Active; 'I' for Inactive)
REMARK    1  A    between atoms: O1_2  and  C2_3 
REMARK    2  A    between atoms: C5_6  and  C6_7 
ROOT
HETATM    1  C2  UNL     1       4.033 -14.200 -21.684  1.00  0.00     0.068 A 
HETATM    2  C3  UNL     1       4.201 -14.930 -20.545  1.00  0.00     0.038 A 
HETATM    3  C4  UNL     1       5.452 -15.221 -20.016  1.00  0.00     0.021 A 
HETATM    4  C5  UNL     1       6.582 -14.761 -20.654  1.00  0.00     0.041 A 
HETATM    5  C7  UNL     1       6.404 -14.023 -21.804  1.00  0.00     0.021 A 
HETATM    6  C8  UNL     1       5.159 -13.735 -22.329  1.00  0.00     0.038 A 
ENDROOT
BRANCH   4   7
HETATM    7  C6  UNL     1       7.901 -15.057 -20.113  1.00  0.00     0.209 C 
HETATM    8  O2  UNL     1       8.573 -14.138 -19.580  1.00  0.00    -0.644 OA
HETATM    9  O3  UNL     1       8.461 -16.325 -20.160  1.00  0.00    -0.644 OA
ENDBRANCH   4   7
BRANCH   1  10
HETATM   10  O1  UNL     1       2.780 -13.914 -22.205  1.00  0.00    -0.356 OA
HETATM   11  C1  UNL     1       1.973 -12.915 -21.578  1.00  0.00     0.210 C 
ENDBRANCH   1  10
TORSDOF 2
ENDMDL
