MODEL 1
REMARK VINA RESULT: -7.430425607      0.000      0.000
REMARK  2 active torsions:
REMARK  status: ('A' for Active; 'I' for Inactive)
REMARK    1  A    between atoms: O1_2  and  C2_3 
REMARK    2  A    between atoms: C5_6  and  C6_7 
ROOT
HETATM    1  C2  UNL     1       5.966 -15.265 -20.827  1.00  0.00     0.068 A 
HETATM    2  C3  UNL     1       6.070 -14.272 -21.754  1.00  0.00     0.038 A 
HETATM    3  C4  UNL     1       4.978 -13.529 -22.186  1.00  0.00     0.021 A 
HETATM    4  C5  UNL     1       3.730 -13.792 -21.666  1.00  0.00     0.041 A 
HETATM    5  C7  UNL     1       3.633 -14.798 -20.730  1.00  0.00     0.021 A 
HETATM    6  C8  UNL     1       4.720 -15.536 -20.302  1.00  0.00     0.038 A 
ENDROOT
BRANCH   4   7
HETATM    7  C6  UNL     1       2.575 -13.023 -22.108  1.00  0.00     0.209 C 
HETATM    8  O2  UNL     1       2.647 -12.350 -23.166  1.00  0.00    -0.644 OA
HETATM    9  O3  UNL     1       1.381 -12.998 -21.404  1.00  0.00    -0.644 OA
ENDBRANCH   4   7
BRANCH   1  10
HETATM   10  O1  UNL     1       7.061 -16.002 -20.401  1.00  0.00    -0.356 OA
HETATM   11  C1  UNL     1       8.213 -15.319 -19.902  1.00  0.00     0.210 C 
ENDBRANCH   1  10
TORSDOF 2
ENDMDL
