MODEL 11
REMARK VINA RESULT: -4.383431433      1.541      2.585
REMARK  2 active torsions:
REMARK  status: ('A' for Active; 'I' for Inactive)
REMARK    1  A    between atoms: O1_2  and  C2_3 
REMARK    2  A    between atoms: C5_6  and  C6_7 
ROOT
HETATM    1  C2  UNL     1       4.811 -13.838 -21.833  1.00  0.00     0.068 A 
HETATM    2  C3  UNL     1       3.928 -14.189 -20.855  1.00  0.00     0.038 A 
HETATM    3  C4  UNL     1       2.600 -13.784 -20.861  1.00  0.00     0.021 A 
HETATM    4  C5  UNL     1       2.135 -12.995 -21.890  1.00  0.00     0.041 A 
HETATM    5  C7  UNL     1       3.034 -12.644 -22.874  1.00  0.00     0.021 A 
HETATM    6  C8  UNL     1       4.355 -13.048 -22.866  1.00  0.00     0.038 A 
ENDROOT
BRANCH   4   7
HETATM    7  C6  UNL     1       0.746 -12.561 -21.911  1.00  0.00     0.209 C 
HETATM    8  O2  UNL     1       0.158 -12.312 -20.829  1.00  0.00    -0.644 OA
HETATM    9  O3  UNL     1       0.028 -12.408 -23.088  1.00  0.00    -0.644 OA
ENDBRANCH   4   7
BRANCH   1  10
HETATM   10  O1  UNL     1       6.136 -14.248 -21.819  1.00  0.00    -0.356 OA
HETATM   11  C1  UNL     1       6.502 -15.409 -21.070  1.00  0.00     0.210 C 
ENDBRANCH   1  10
TORSDOF 2
ENDMDL
