MODEL 9
REMARK VINA RESULT: -5.769135450      0.635      1.007
REMARK  2 active torsions:
REMARK  status: ('A' for Active; 'I' for Inactive)
REMARK    1  A    between atoms: O1_2  and  C2_3 
REMARK    2  A    between atoms: C5_6  and  C6_7 
ROOT
HETATM    1  C2  UNL     1       6.241 -15.399 -20.794  1.00  0.00     0.068 A 
HETATM    2  C3  UNL     1       6.149 -14.396 -21.713  1.00  0.00     0.038 A 
HETATM    3  C4  UNL     1       4.944 -13.789 -22.044  1.00  0.00     0.021 A 
HETATM    4  C5  UNL     1       3.783 -14.202 -21.429  1.00  0.00     0.041 A 
HETATM    5  C7  UNL     1       3.885 -15.216 -20.502  1.00  0.00     0.021 A 
HETATM    6  C8  UNL     1       5.084 -15.820 -20.175  1.00  0.00     0.038 A 
ENDROOT
BRANCH   4   7
HETATM    7  C6  UNL     1       2.513 -13.576 -21.765  1.00  0.00     0.209 C 
HETATM    8  O2  UNL     1       1.891 -12.926 -20.888  1.00  0.00    -0.644 OA
HETATM    9  O3  UNL     1       1.946 -13.666 -23.028  1.00  0.00    -0.644 OA
ENDBRANCH   4   7
BRANCH   1  10
HETATM   10  O1  UNL     1       7.448 -16.000 -20.469  1.00  0.00    -0.356 OA
HETATM   11  C1  UNL     1       8.526 -15.192 -19.994  1.00  0.00     0.210 C 
ENDBRANCH   1  10
TORSDOF 2
ENDMDL
