MODEL 4
REMARK VINA RESULT: -6.986443144      1.135      4.907
REMARK  2 active torsions:
REMARK  status: ('A' for Active; 'I' for Inactive)
REMARK    1  A    between atoms: O1_2  and  C2_3 
REMARK    2  A    between atoms: C5_6  and  C6_7 
ROOT
HETATM    1  C2  UNL     1       3.711 -14.451 -21.389  1.00  0.00     0.068 A 
HETATM    2  C3  UNL     1       4.071 -15.301 -20.387  1.00  0.00     0.038 A 
HETATM    3  C4  UNL     1       5.392 -15.495 -20.005  1.00  0.00     0.021 A 
HETATM    4  C5  UNL     1       6.395 -14.808 -20.652  1.00  0.00     0.041 A 
HETATM    5  C7  UNL     1       6.022 -13.950 -21.664  1.00  0.00     0.021 A 
HETATM    6  C8  UNL     1       4.707 -13.759 -22.044  1.00  0.00     0.038 A 
ENDROOT
BRANCH   4   7
HETATM    7  C6  UNL     1       7.785 -15.000 -20.264  1.00  0.00     0.209 C 
HETATM    8  O2  UNL     1       8.307 -16.138 -20.375  1.00  0.00    -0.644 OA
HETATM    9  O3  UNL     1       8.571 -13.971 -19.769  1.00  0.00    -0.644 OA
ENDBRANCH   4   7
BRANCH   1  10
HETATM   10  O1  UNL     1       2.389 -14.262 -21.764  1.00  0.00    -0.356 OA
HETATM   11  C1  UNL     1       1.930 -12.945 -22.072  1.00  0.00     0.210 C 
ENDBRANCH   1  10
TORSDOF 2
ENDMDL
