MODEL 2
REMARK VINA RESULT: -7.422849553      0.031      1.418
REMARK  2 active torsions:
REMARK  status: ('A' for Active; 'I' for Inactive)
REMARK    1  A    between atoms: O1_2  and  C2_3 
REMARK    2  A    between atoms: C5_6  and  C6_7 
ROOT
HETATM    1  C2  UNL     1       5.950 -15.288 -20.813  1.00  0.00     0.068 A 
HETATM    2  C3  UNL     1       4.696 -15.528 -20.334  1.00  0.00     0.038 A 
HETATM    3  C4  UNL     1       3.584 -14.803 -20.741  1.00  0.00     0.021 A 
HETATM    4  C5  UNL     1       3.733 -13.795 -21.668  1.00  0.00     0.041 A 
HETATM    5  C7  UNL     1       5.003 -13.559 -22.148  1.00  0.00     0.021 A 
HETATM    6  C8  UNL     1       6.109 -14.281 -21.740  1.00  0.00     0.038 A 
ENDROOT
BRANCH   4   7
HETATM    7  C6  UNL     1       2.578 -13.025 -22.106  1.00  0.00     0.209 C 
HETATM    8  O2  UNL     1       2.647 -12.353 -23.166  1.00  0.00    -0.644 OA
HETATM    9  O3  UNL     1       1.386 -12.997 -21.397  1.00  0.00    -0.644 OA
ENDBRANCH   4   7
BRANCH   1  10
HETATM   10  O1  UNL     1       7.055 -16.018 -20.401  1.00  0.00    -0.356 OA
HETATM   11  C1  UNL     1       8.209 -15.327 -19.917  1.00  0.00     0.210 C 
ENDBRANCH   1  10
TORSDOF 2
ENDMDL
