MODEL 4
REMARK VINA RESULT: -4.649200146      5.062      5.564
REMARK  5 active torsions:
REMARK  status: ('A' for Active; 'I' for Inactive)
REMARK       I    between atoms: C2_2  and  N1_4 
REMARK    1  A    between atoms: N1_4  and  C3_6 
REMARK    2  A    between atoms: C5_11  and  C6_12 
REMARK    3  A    between atoms: C6_12  and  O2_13 
REMARK    4  A    between atoms: C7_15  and  O3_16 
REMARK    5  A    between atoms: C8_18  and  O4_19 
ROOT
HETATM    1  C3  UNL     1      57.361  -6.318  23.091  1.00  0.00     0.141 C 
HETATM    2  C4  UNL     1      55.939  -6.735  23.390  1.00  0.00     0.260 C 
HETATM    3  N2  UNL     1      54.999  -5.685  23.051  1.00  0.00    -0.064 N 
ATOM      4  H21 UNL     1      54.042  -6.037  23.027  1.00  0.00     0.277 HD
ATOM      5  H22 UNL     1      55.091  -5.404  22.075  1.00  0.00     0.277 HD
HETATM    6  C5  UNL     1      55.120  -4.562  23.931  1.00  0.00     0.240 C 
HETATM    7  C7  UNL     1      56.567  -4.353  24.304  1.00  0.00     0.181 C 
HETATM    8  C8  UNL     1      57.474  -4.805  23.178  1.00  0.00     0.173 C 
ENDROOT
BRANCH   1   9
HETATM    9  N1  UNL     1      58.308  -6.876  24.001  1.00  0.00    -0.353 N 
HETATM   10  C2  UNL     1      59.540  -7.372  23.500  1.00  0.00     0.214 C 
HETATM   11  C1  UNL     1      60.580  -7.968  24.368  1.00  0.00     0.117 C 
HETATM   12  O1  UNL     1      59.804  -7.321  22.250  1.00  0.00    -0.274 OA
ATOM     13  H1  UNL     1      58.103  -6.919  24.999  1.00  0.00     0.163 HD
ENDBRANCH   1   9
BRANCH   8  14
HETATM   14  O4  UNL     1      57.131  -4.255  21.964  1.00  0.00    -0.391 OA
ATOM     15  H4  UNL     1      56.536  -4.842  21.512  1.00  0.00     0.210 HD
ENDBRANCH   8  14
BRANCH   7  16
HETATM   16  O3  UNL     1      56.860  -3.006  24.527  1.00  0.00    -0.391 OA
ATOM     17  H3  UNL     1      57.776  -2.871  24.739  1.00  0.00     0.210 HD
ENDBRANCH   7  16
BRANCH   6  18
HETATM   18  C6  UNL     1      54.588  -3.280  23.286  1.00  0.00     0.199 C 
BRANCH  18  19
HETATM   19  O2  UNL     1      54.521  -3.444  21.902  1.00  0.00    -0.399 OA
ATOM     20  H2  UNL     1      53.643  -3.242  21.599  1.00  0.00     0.209 HD
ENDBRANCH  18  19
ENDBRANCH   6  18
TORSDOF 5
ENDMDL
