MODEL 3
REMARK VINA RESULT: -4.719290123      4.011      6.055
REMARK  5 active torsions:
REMARK  status: ('A' for Active; 'I' for Inactive)
REMARK       I    between atoms: C2_2  and  N1_4 
REMARK    1  A    between atoms: N1_4  and  C3_6 
REMARK    2  A    between atoms: C5_11  and  C6_12 
REMARK    3  A    between atoms: C6_12  and  O2_13 
REMARK    4  A    between atoms: C7_15  and  O3_16 
REMARK    5  A    between atoms: C8_18  and  O4_19 
ROOT
HETATM    1  C3  UNL     1      56.320  -2.868  22.102  1.00  0.00     0.141 C 
HETATM    2  C4  UNL     1      54.868  -3.287  22.066  1.00  0.00     0.260 C 
HETATM    3  N2  UNL     1      54.352  -3.520  23.400  1.00  0.00    -0.064 N 
ATOM      4  H21 UNL     1      53.333  -3.570  23.401  1.00  0.00     0.277 HD
ATOM      5  H22 UNL     1      54.472  -2.699  23.993  1.00  0.00     0.277 HD
HETATM    6  C5  UNL     1      54.933  -4.684  23.997  1.00  0.00     0.240 C 
HETATM    7  C7  UNL     1      56.380  -4.807  23.585  1.00  0.00     0.181 C 
HETATM    8  C8  UNL     1      56.980  -3.436  23.346  1.00  0.00     0.173 C 
ENDROOT
BRANCH   1   9
HETATM    9  N1  UNL     1      57.060  -3.325  20.971  1.00  0.00    -0.353 N 
HETATM   10  C2  UNL     1      57.045  -2.558  19.777  1.00  0.00     0.214 C 
HETATM   11  C1  UNL     1      57.782  -2.955  18.557  1.00  0.00     0.117 C 
HETATM   12  O1  UNL     1      56.379  -1.469  19.710  1.00  0.00    -0.274 OA
ATOM     13  H1  UNL     1      57.594  -4.193  21.020  1.00  0.00     0.163 HD
ENDBRANCH   1   9
BRANCH   8  14
HETATM   14  O4  UNL     1      56.776  -2.575  24.400  1.00  0.00    -0.391 OA
ATOM     15  H4  UNL     1      57.611  -2.379  24.810  1.00  0.00     0.210 HD
ENDBRANCH   8  14
BRANCH   7  16
HETATM   16  O3  UNL     1      57.157  -5.408  24.578  1.00  0.00    -0.391 OA
ATOM     17  H3  UNL     1      57.687  -4.775  25.047  1.00  0.00     0.210 HD
ENDBRANCH   7  16
BRANCH   6  18
HETATM   18  C6  UNL     1      54.860  -4.631  25.525  1.00  0.00     0.199 C 
BRANCH  18  19
HETATM   19  O2  UNL     1      54.472  -3.354  25.932  1.00  0.00    -0.399 OA
ATOM     20  H2  UNL     1      54.160  -2.860  25.183  1.00  0.00     0.209 HD
ENDBRANCH  18  19
ENDBRANCH   6  18
TORSDOF 5
ENDMDL
