MODEL 2
REMARK VINA RESULT: -4.793046204      1.458      5.278
REMARK  5 active torsions:
REMARK  status: ('A' for Active; 'I' for Inactive)
REMARK       I    between atoms: C2_2  and  N1_4 
REMARK    1  A    between atoms: N1_4  and  C3_6 
REMARK    2  A    between atoms: C5_11  and  C6_12 
REMARK    3  A    between atoms: C6_12  and  O2_13 
REMARK    4  A    between atoms: C7_15  and  O3_16 
REMARK    5  A    between atoms: C8_18  and  O4_19 
ROOT
HETATM    1  C3  UNL     1      57.897  -4.709  17.807  1.00  0.00     0.141 C 
HETATM    2  C4  UNL     1      59.077  -4.181  17.024  1.00  0.00     0.260 C 
HETATM    3  N2  UNL     1      59.766  -5.246  16.324  1.00  0.00    -0.064 N 
ATOM      4  H21 UNL     1      60.404  -4.875  15.619  1.00  0.00     0.277 HD
ATOM      5  H22 UNL     1      59.132  -5.758  15.711  1.00  0.00     0.277 HD
HETATM    6  C5  UNL     1      60.441  -6.125  17.230  1.00  0.00     0.240 C 
HETATM    7  C7  UNL     1      59.627  -6.290  18.490  1.00  0.00     0.181 C 
HETATM    8  C8  UNL     1      58.149  -6.158  18.186  1.00  0.00     0.173 C 
ENDROOT
BRANCH   1   9
HETATM    9  N1  UNL     1      57.656  -3.981  19.010  1.00  0.00    -0.353 N 
HETATM   10  C2  UNL     1      57.257  -2.622  18.929  1.00  0.00     0.214 C 
HETATM   11  C1  UNL     1      56.986  -1.790  20.124  1.00  0.00     0.117 C 
HETATM   12  O1  UNL     1      57.114  -2.050  17.795  1.00  0.00    -0.274 OA
ATOM     13  H1  UNL     1      57.768  -4.433  19.918  1.00  0.00     0.163 HD
ENDBRANCH   1   9
BRANCH   8  14
HETATM   14  O4  UNL     1      57.742  -6.974  17.154  1.00  0.00    -0.391 OA
ATOM     15  H4  UNL     1      58.274  -7.761  17.150  1.00  0.00     0.210 HD
ENDBRANCH   8  14
BRANCH   7  16
HETATM   16  O3  UNL     1      59.800  -7.553  19.061  1.00  0.00    -0.391 OA
ATOM     17  H3  UNL     1      59.486  -7.584  19.957  1.00  0.00     0.210 HD
ENDBRANCH   7  16
BRANCH   6  18
HETATM   18  C6  UNL     1      60.672  -7.506  16.609  1.00  0.00     0.199 C 
BRANCH  18  19
HETATM   19  O2  UNL     1      61.765  -8.118  17.223  1.00  0.00    -0.399 OA
ATOM     20  H2  UNL     1      61.866  -7.782  18.106  1.00  0.00     0.209 HD
ENDBRANCH  18  19
ENDBRANCH   6  18
TORSDOF 5
ENDMDL
