MODEL 1
REMARK VINA RESULT: -5.294358095      0.000      0.000
REMARK  5 active torsions:
REMARK  status: ('A' for Active; 'I' for Inactive)
REMARK       I    between atoms: C2_2  and  N1_4 
REMARK    1  A    between atoms: N1_4  and  C3_6 
REMARK    2  A    between atoms: C5_11  and  C6_12 
REMARK    3  A    between atoms: C6_12  and  O2_13 
REMARK    4  A    between atoms: C7_15  and  O3_16 
REMARK    5  A    between atoms: C8_18  and  O4_19 
ROOT
HETATM    1  C3  UNL     1      58.362  -5.471  18.199  1.00  0.00     0.141 C 
HETATM    2  C4  UNL     1      58.771  -5.066  19.596  1.00  0.00     0.260 C 
HETATM    3  N2  UNL     1      57.835  -4.118  20.166  1.00  0.00    -0.064 N 
ATOM      4  H21 UNL     1      57.968  -4.023  21.173  1.00  0.00     0.277 HD
ATOM      5  H22 UNL     1      56.884  -4.488  20.166  1.00  0.00     0.277 HD
HETATM    6  C5  UNL     1      57.901  -2.848  19.509  1.00  0.00     0.240 C 
HETATM    7  C7  UNL     1      58.159  -3.043  18.036  1.00  0.00     0.181 C 
HETATM    8  C8  UNL     1      57.558  -4.351  17.562  1.00  0.00     0.173 C 
ENDROOT
BRANCH   1   9
HETATM    9  N1  UNL     1      59.476  -5.742  17.349  1.00  0.00    -0.353 N 
HETATM   10  C2  UNL     1      60.065  -7.033  17.371  1.00  0.00     0.214 C 
HETATM   11  C1  UNL     1      61.222  -7.404  16.525  1.00  0.00     0.117 C 
HETATM   12  O1  UNL     1      59.608  -7.946  18.139  1.00  0.00    -0.274 OA
ATOM     13  H1  UNL     1      59.844  -5.017  16.733  1.00  0.00     0.163 HD
ENDBRANCH   1   9
BRANCH   8  14
HETATM   14  O4  UNL     1      56.234  -4.487  17.914  1.00  0.00    -0.391 OA
ATOM     15  H4  UNL     1      55.814  -5.100  17.322  1.00  0.00     0.210 HD
ENDBRANCH   8  14
BRANCH   7  16
HETATM   16  O3  UNL     1      57.570  -2.038  17.264  1.00  0.00    -0.391 OA
ATOM     17  H3  UNL     1      58.219  -1.469  16.867  1.00  0.00     0.210 HD
ENDBRANCH   7  16
BRANCH   6  18
HETATM   18  C6  UNL     1      56.602  -2.055  19.681  1.00  0.00     0.199 C 
BRANCH  18  19
HETATM   19  O2  UNL     1      55.784  -2.691  20.616  1.00  0.00    -0.399 OA
ATOM     20  H2  UNL     1      55.742  -2.170  21.410  1.00  0.00     0.209 HD
ENDBRANCH  18  19
ENDBRANCH   6  18
TORSDOF 5
ENDMDL
