MODEL 1
REMARK VINA RESULT: -6.698057412      0.000      0.000
REMARK  5 active torsions:
REMARK  status: ('A' for Active; 'I' for Inactive)
REMARK    1  A    between atoms: O1_1  and  C1_3 
REMARK    2  A    between atoms: C1_3  and  C2_4 
REMARK    3  A    between atoms: C4_8  and  O2_9 
REMARK    4  A    between atoms: C5_11  and  O3_12 
REMARK    5  A    between atoms: C6_14  and  O4_15 
ROOT
HETATM    1  C2  UNL     1      59.589  -7.033  17.262  1.00  0.00     0.131 C 
HETATM    2  N1  UNL     1      59.864  -6.347  18.470  1.00  0.00    -0.410 N 
ATOM      3  H1  UNL     1      60.763  -6.438  18.944  1.00  0.00     0.153 HD
HETATM    4  C3  UNL     1      58.830  -5.528  18.988  1.00  0.00     0.148 C 
HETATM    5  C4  UNL     1      58.105  -4.711  17.952  1.00  0.00     0.166 C 
HETATM    6  C5  UNL     1      57.579  -5.736  16.938  1.00  0.00     0.179 C 
HETATM    7  C6  UNL     1      58.816  -6.236  16.245  1.00  0.00     0.173 C 
ENDROOT
BRANCH   1   8
HETATM    8  C1  UNL     1      60.916  -7.408  16.616  1.00  0.00     0.191 C 
BRANCH   8   9
HETATM    9  O1  UNL     1      61.916  -6.631  17.167  1.00  0.00    -0.399 OA
ATOM     10  H1  UNL     1      62.711  -6.748  16.659  1.00  0.00     0.209 HD
ENDBRANCH   8   9
ENDBRANCH   1   8
BRANCH   7  11
HETATM   11  O4  UNL     1      59.607  -5.129  15.908  1.00  0.00    -0.391 OA
ATOM     12  H4  UNL     1      60.211  -5.415  15.233  1.00  0.00     0.210 HD
ENDBRANCH   7  11
BRANCH   6  13
HETATM   13  O3  UNL     1      56.647  -5.195  16.091  1.00  0.00    -0.390 OA
ATOM     14  H3  UNL     1      56.266  -5.847  15.514  1.00  0.00     0.210 HD
ENDBRANCH   6  13
BRANCH   5  15
HETATM   15  O2  UNL     1      57.100  -3.981  18.518  1.00  0.00    -0.391 OA
ATOM     16  H2  UNL     1      56.266  -4.172  18.107  1.00  0.00     0.210 HD
ENDBRANCH   5  15
TORSDOF 5
ENDMDL
