MODEL 7
REMARK VINA RESULT: -4.420489204      1.674      1.796
REMARK  5 active torsions:
REMARK  status: ('A' for Active; 'I' for Inactive)
REMARK    1  A    between atoms: O1_1  and  C1_3 
REMARK    2  A    between atoms: C1_3  and  C2_4 
REMARK    3  A    between atoms: C4_8  and  O2_9 
REMARK    4  A    between atoms: C5_11  and  O3_12 
REMARK    5  A    between atoms: C6_14  and  O4_15 
ROOT
HETATM    1  C2  UNL     1      59.347  -7.497  18.266  1.00  0.00     0.131 C 
HETATM    2  N1  UNL     1      59.222  -6.443  19.204  1.00  0.00    -0.410 N 
ATOM      3  H1  UNL     1      59.677  -6.482  20.116  1.00  0.00     0.153 HD
HETATM    4  C3  UNL     1      58.433  -5.332  18.813  1.00  0.00     0.148 C 
HETATM    5  C4  UNL     1      58.646  -4.887  17.390  1.00  0.00     0.166 C 
HETATM    6  C5  UNL     1      58.358  -6.132  16.539  1.00  0.00     0.179 C 
HETATM    7  C6  UNL     1      59.506  -7.055  16.836  1.00  0.00     0.173 C 
ENDROOT
BRANCH   1   8
HETATM    8  C1  UNL     1      60.590  -8.304  18.622  1.00  0.00     0.191 C 
BRANCH   8   9
HETATM    9  O1  UNL     1      60.218  -9.365  19.424  1.00  0.00    -0.399 OA
ATOM     10  H1  UNL     1      60.297 -10.169  18.924  1.00  0.00     0.209 HD
ENDBRANCH   8   9
ENDBRANCH   1   8
BRANCH   7  11
HETATM   11  O4  UNL     1      60.694  -6.312  16.768  1.00  0.00    -0.391 OA
ATOM     12  H4  UNL     1      61.383  -6.860  17.126  1.00  0.00     0.210 HD
ENDBRANCH   7  11
BRANCH   6  13
HETATM   13  O3  UNL     1      58.216  -5.828  15.210  1.00  0.00    -0.390 OA
ATOM     14  H3  UNL     1      57.388  -6.134  14.859  1.00  0.00     0.210 HD
ENDBRANCH   6  13
BRANCH   5  15
HETATM   15  O2  UNL     1      57.827  -3.843  17.075  1.00  0.00    -0.391 OA
ATOM     16  H2  UNL     1      56.991  -3.918  17.521  1.00  0.00     0.210 HD
ENDBRANCH   5  15
TORSDOF 5
ENDMDL
