MODEL 14
REMARK VINA RESULT: -3.732419838      5.398      6.895
REMARK  5 active torsions:
REMARK  status: ('A' for Active; 'I' for Inactive)
REMARK    1  A    between atoms: O1_1  and  C1_3 
REMARK    2  A    between atoms: C1_3  and  C2_4 
REMARK    3  A    between atoms: C4_8  and  O2_9 
REMARK    4  A    between atoms: C5_11  and  O3_12 
REMARK    5  A    between atoms: C6_14  and  O4_15 
ROOT
HETATM    1  C2  UNL     1      57.312  -5.448  23.255  1.00  0.00     0.131 C 
HETATM    2  N1  UNL     1      57.334  -4.303  22.422  1.00  0.00    -0.410 N 
ATOM      3  H1  UNL     1      57.938  -4.250  21.602  1.00  0.00     0.153 HD
HETATM    4  C3  UNL     1      56.475  -3.235  22.783  1.00  0.00     0.148 C 
HETATM    5  C4  UNL     1      55.102  -3.664  23.228  1.00  0.00     0.166 C 
HETATM    6  C5  UNL     1      55.348  -4.630  24.395  1.00  0.00     0.179 C 
HETATM    7  C6  UNL     1      55.945  -5.847  23.745  1.00  0.00     0.173 C 
ENDROOT
BRANCH   1   8
HETATM    8  C1  UNL     1      57.858  -6.626  22.457  1.00  0.00     0.191 C 
BRANCH   8   9
HETATM    9  O1  UNL     1      58.010  -6.241  21.140  1.00  0.00    -0.399 OA
ATOM     10  H1  UNL     1      58.925  -6.040  20.982  1.00  0.00     0.209 HD
ENDBRANCH   8   9
ENDBRANCH   1   8
BRANCH   7  11
HETATM   11  O4  UNL     1      55.180  -6.158  22.612  1.00  0.00    -0.391 OA
ATOM     12  H4  UNL     1      54.659  -5.389  22.410  1.00  0.00     0.210 HD
ENDBRANCH   7  11
BRANCH   6  13
HETATM   13  O3  UNL     1      54.204  -4.883  25.106  1.00  0.00    -0.390 OA
ATOM     14  H3  UNL     1      54.282  -5.662  25.644  1.00  0.00     0.210 HD
ENDBRANCH   6  13
BRANCH   5  15
HETATM   15  O2  UNL     1      54.348  -2.588  23.597  1.00  0.00    -0.391 OA
ATOM     16  H2  UNL     1      53.782  -2.308  22.887  1.00  0.00     0.210 HD
ENDBRANCH   5  15
TORSDOF 5
ENDMDL
