MODEL 11
REMARK VINA RESULT: -4.093979420      5.829      7.122
REMARK  5 active torsions:
REMARK  status: ('A' for Active; 'I' for Inactive)
REMARK    1  A    between atoms: O1_1  and  C1_3 
REMARK    2  A    between atoms: C1_3  and  C2_4 
REMARK    3  A    between atoms: C4_8  and  O2_9 
REMARK    4  A    between atoms: C5_11  and  O3_12 
REMARK    5  A    between atoms: C6_14  and  O4_15 
ROOT
HETATM    1  C2  UNL     1      55.993  -4.653  23.572  1.00  0.00     0.131 C 
HETATM    2  N1  UNL     1      55.310  -5.804  23.108  1.00  0.00    -0.410 N 
ATOM      3  H1  UNL     1      54.342  -5.758  22.788  1.00  0.00     0.153 HD
HETATM    4  C3  UNL     1      56.036  -7.021  23.109  1.00  0.00     0.148 C 
HETATM    5  C4  UNL     1      57.458  -6.898  22.630  1.00  0.00     0.166 C 
HETATM    6  C5  UNL     1      58.094  -5.842  23.546  1.00  0.00     0.179 C 
HETATM    7  C6  UNL     1      57.432  -4.555  23.139  1.00  0.00     0.173 C 
ENDROOT
BRANCH   1   8
HETATM    8  C1  UNL     1      55.280  -3.424  23.023  1.00  0.00     0.191 C 
BRANCH   8   9
HETATM    9  O1  UNL     1      54.747  -3.732  21.787  1.00  0.00    -0.399 OA
ATOM     10  H1  UNL     1      53.889  -3.331  21.714  1.00  0.00     0.209 HD
ENDBRANCH   8   9
ENDBRANCH   1   8
BRANCH   7  11
HETATM   11  O4  UNL     1      57.432  -4.487  21.738  1.00  0.00    -0.391 OA
ATOM     12  H4  UNL     1      58.118  -3.878  21.491  1.00  0.00     0.210 HD
ENDBRANCH   7  11
BRANCH   6  13
HETATM   13  O3  UNL     1      59.460  -5.823  23.442  1.00  0.00    -0.390 OA
ATOM     14  H3  UNL     1      59.787  -4.975  23.166  1.00  0.00     0.210 HD
ENDBRANCH   6  13
BRANCH   5  15
HETATM   15  O2  UNL     1      58.104  -8.098  22.698  1.00  0.00    -0.391 OA
ATOM     16  H2  UNL     1      58.977  -7.996  23.058  1.00  0.00     0.210 HD
ENDBRANCH   5  15
TORSDOF 5
ENDMDL
