MODEL 6
REMARK VINA RESULT: -4.470042123      5.481      7.581
REMARK  5 active torsions:
REMARK  status: ('A' for Active; 'I' for Inactive)
REMARK    1  A    between atoms: O1_1  and  C1_3 
REMARK    2  A    between atoms: C1_3  and  C2_4 
REMARK    3  A    between atoms: C4_8  and  O2_9 
REMARK    4  A    between atoms: C5_11  and  O3_12 
REMARK    5  A    between atoms: C6_14  and  O4_15 
ROOT
HETATM    1  C2  UNL     1      55.868  -3.505  24.272  1.00  0.00     0.131 C 
HETATM    2  N1  UNL     1      56.694  -4.619  24.557  1.00  0.00    -0.410 N 
ATOM      3  H1  UNL     1      56.584  -5.162  25.414  1.00  0.00     0.153 HD
HETATM    4  C3  UNL     1      57.681  -4.944  23.592  1.00  0.00     0.148 C 
HETATM    5  C4  UNL     1      57.208  -4.858  22.165  1.00  0.00     0.166 C 
HETATM    6  C5  UNL     1      56.692  -3.421  22.005  1.00  0.00     0.179 C 
HETATM    7  C6  UNL     1      55.438  -3.387  22.834  1.00  0.00     0.173 C 
ENDROOT
BRANCH   1   8
HETATM    8  C1  UNL     1      54.598  -3.630  25.105  1.00  0.00     0.191 C 
BRANCH   8   9
HETATM    9  O1  UNL     1      53.692  -2.677  24.684  1.00  0.00    -0.399 OA
ATOM     10  H1  UNL     1      52.828  -3.072  24.642  1.00  0.00     0.209 HD
ENDBRANCH   8   9
ENDBRANCH   1   8
BRANCH   7  11
HETATM   11  O4  UNL     1      54.686  -4.532  22.538  1.00  0.00    -0.391 OA
ATOM     12  H4  UNL     1      55.301  -5.206  22.271  1.00  0.00     0.210 HD
ENDBRANCH   7  11
BRANCH   6  13
HETATM   13  O3  UNL     1      56.500  -3.084  20.691  1.00  0.00    -0.390 OA
ATOM     14  H3  UNL     1      55.777  -3.560  20.300  1.00  0.00     0.210 HD
ENDBRANCH   6  13
BRANCH   5  15
HETATM   15  O2  UNL     1      58.221  -5.144  21.296  1.00  0.00    -0.391 OA
ATOM     16  H2  UNL     1      57.889  -5.567  20.513  1.00  0.00     0.210 HD
ENDBRANCH   5  15
TORSDOF 5
ENDMDL
