MODEL 2
REMARK VINA RESULT: -4.956927159      1.238      1.322
REMARK  5 active torsions:
REMARK  status: ('A' for Active; 'I' for Inactive)
REMARK    1  A    between atoms: O1_1  and  C1_3 
REMARK    2  A    between atoms: C1_3  and  C2_4 
REMARK    3  A    between atoms: C4_8  and  O2_9 
REMARK    4  A    between atoms: C5_11  and  O3_12 
REMARK    5  A    between atoms: C6_14  and  O4_15 
ROOT
HETATM    1  C2  UNL     1      59.865  -7.379  17.978  1.00  0.00     0.131 C 
HETATM    2  N1  UNL     1      59.629  -6.381  18.955  1.00  0.00    -0.410 N 
ATOM      3  H1  UNL     1      60.170  -6.340  19.819  1.00  0.00     0.153 HD
HETATM    4  C3  UNL     1      58.605  -5.442  18.674  1.00  0.00     0.148 C 
HETATM    5  C4  UNL     1      58.587  -4.948  17.252  1.00  0.00     0.166 C 
HETATM    6  C5  UNL     1      58.464  -6.215  16.394  1.00  0.00     0.179 C 
HETATM    7  C6  UNL     1      59.794  -6.898  16.553  1.00  0.00     0.173 C 
ENDROOT
BRANCH   1   8
HETATM    8  C1  UNL     1      61.269  -7.930  18.191  1.00  0.00     0.191 C 
BRANCH   8   9
HETATM    9  O1  UNL     1      61.754  -8.394  16.984  1.00  0.00    -0.399 OA
ATOM     10  H1  UNL     1      62.132  -9.255  17.116  1.00  0.00     0.209 HD
ENDBRANCH   8   9
ENDBRANCH   1   8
BRANCH   7  11
HETATM   11  O4  UNL     1      60.802  -5.935  16.398  1.00  0.00    -0.391 OA
ATOM     12  H4  UNL     1      60.444  -5.109  16.700  1.00  0.00     0.210 HD
ENDBRANCH   7  11
BRANCH   6  13
HETATM   13  O3  UNL     1      58.137  -5.929  15.095  1.00  0.00    -0.390 OA
ATOM     14  H3  UNL     1      58.905  -5.818  14.547  1.00  0.00     0.210 HD
ENDBRANCH   6  13
BRANCH   5  15
HETATM   15  O2  UNL     1      57.553  -4.081  17.048  1.00  0.00    -0.391 OA
ATOM     16  H2  UNL     1      57.162  -4.212  16.192  1.00  0.00     0.210 HD
ENDBRANCH   5  15
TORSDOF 5
ENDMDL
