MODEL 4
REMARK VINA RESULT: -10.048291646      4.470      5.535
REMARK  12 active torsions:
REMARK  status: ('A' for Active; 'I' for Inactive)
REMARK    1  A    between atoms: N5_13  and  C6_14 
REMARK    2  A    between atoms: C7_16  and  C8_17 
REMARK    3  A    between atoms: C8_17  and  O2_18 
REMARK    4  A    between atoms: O2_18  and  P1_19 
REMARK    5  A    between atoms: P1_19  and  O5_22 
REMARK    6  A    between atoms: O5_22  and  C9_23 
REMARK    7  A    between atoms: C9_23  and  C10_24 
REMARK    8  A    between atoms: C11_25  and  C12_26 
REMARK    9  A    between atoms: C12_26  and  C13_27 
REMARK   10  A    between atoms: C13_27  and  C14_28 
REMARK   11  A    between atoms: C19_39  and  O7_40 
REMARK   12  A    between atoms: C20_42  and  O8_43 
ROOT
HETATM    1  C6  UNL     1      54.326  22.494  19.293  1.00  0.00     0.262 C 
HETATM    2  O1  UNL     1      53.971  21.319  19.561  1.00  0.00    -0.353 OA
HETATM    3  C7  UNL     1      55.128  20.556  18.947  1.00  0.00     0.180 C 
HETATM    4  C19 UNL     1      56.285  21.201  19.543  1.00  0.00     0.182 C 
HETATM    5  C20 UNL     1      55.763  22.507  20.043  1.00  0.00     0.198 C 
ENDROOT
BRANCH   3   6
HETATM    6  C8  UNL     1      54.803  19.140  19.508  1.00  0.00     0.216 C 
BRANCH   6   7
HETATM    7  O2  UNL     1      53.453  18.980  19.252  1.00  0.00    -0.287 OA
BRANCH   7   8
HETATM    8  P1  UNL     1      52.919  18.320  17.937  1.00  0.00     0.408 P 
HETATM    9  O3  UNL     1      51.864  19.169  16.965  1.00  0.00    -0.624 OA
HETATM   10  O4  UNL     1      53.832  17.088  17.114  1.00  0.00    -0.624 OA
BRANCH   8  11
HETATM   11  O5  UNL     1      51.994  17.329  18.281  1.00  0.00    -0.286 OA
BRANCH  11  12
HETATM   12  C9  UNL     1      50.696  17.103  18.176  1.00  0.00     0.208 C 
BRANCH  12  13
HETATM   13  C10 UNL     1      50.196  17.574  19.580  1.00  0.00    -0.004 C 
HETATM   14  C11 UNL     1      49.586  16.841  20.435  1.00  0.00    -0.028 C 
BRANCH  14  15
HETATM   15  C12 UNL     1      49.112  17.390  21.751  1.00  0.00     0.028 C 
BRANCH  15  16
HETATM   16  C13 UNL     1      49.000  16.110  22.661  1.00  0.00     0.021 C 
BRANCH  16  17
HETATM   17  C14 UNL     1      47.538  16.128  23.059  1.00  0.00     0.072 C 
HETATM   18  S1  UNL     1      47.262  17.254  24.458  1.00  0.00    -0.160 SA
HETATM   19  C15 UNL     1      46.230  16.180  25.479  1.00  0.00     0.101 C 
HETATM   20  C16 UNL     1      46.918  14.908  25.130  1.00  0.00     0.119 C 
HETATM   21  N6  UNL     1      48.287  14.863  25.624  1.00  0.00    -0.336 N 
HETATM   22  C18 UNL     1      47.093  14.791  23.643  1.00  0.00     0.123 C 
HETATM   23  C17 UNL     1      48.942  13.926  24.785  1.00  0.00     0.316 C 
ATOM     24  H6  UNL     1      48.686  15.389  26.402  1.00  0.00     0.164 HD
HETATM   25  O6  UNL     1      50.024  13.367  24.998  1.00  0.00    -0.247 OA
HETATM   26  N7  UNL     1      48.081  13.766  23.628  1.00  0.00    -0.335 N 
ATOM     27  H7  UNL     1      48.170  13.039  22.919  1.00  0.00     0.164 HD
ENDBRANCH  16  17
ENDBRANCH  15  16
ENDBRANCH  14  15
ENDBRANCH  12  13
ENDBRANCH  11  12
ENDBRANCH   8  11
ENDBRANCH   7   8
ENDBRANCH   6   7
ENDBRANCH   3   6
BRANCH   4  28
HETATM   28  O7  UNL     1      57.259  21.559  18.579  1.00  0.00    -0.390 OA
ATOM     29  H7  UNL     1      57.993  20.956  18.566  1.00  0.00     0.210 HD
ENDBRANCH   4  28
BRANCH   1  30
HETATM   30  N5  UNL     1      53.803  23.759  19.671  1.00  0.00    -0.297 N 
HETATM   31  C3  UNL     1      53.103  23.979  20.802  1.00  0.00     0.142 A 
HETATM   32  N3  UNL     1      52.926  23.356  21.976  1.00  0.00    -0.336 N 
HETATM   33  C4  UNL     1      52.406  25.163  20.641  1.00  0.00     0.119 A 
HETATM   34  C2  UNL     1      52.128  23.854  22.930  1.00  0.00     0.183 A 
ATOM     35  H3  UNL     1      53.414  22.476  22.148  1.00  0.00     0.168 HD
HETATM   36  N2  UNL     1      51.430  25.033  22.777  1.00  0.00    -0.339 N 
HETATM   37  C1  UNL     1      51.577  25.674  21.606  1.00  0.00     0.148 A 
ATOM     38  H2  UNL     1      50.832  25.401  23.516  1.00  0.00     0.167 HD
HETATM   39  N1  UNL     1      50.612  26.714  21.284  1.00  0.00    -0.080 NA
HETATM   40  N4  UNL     1      52.717  25.652  19.442  1.00  0.00    -0.346 N 
HETATM   41  C5  UNL     1      53.570  24.808  18.862  1.00  0.00     0.188 A 
ATOM     42  H4  UNL     1      52.365  26.520  19.039  1.00  0.00     0.167 HD
ENDBRANCH   1  30
BRANCH   5  43
HETATM   43  O8  UNL     1      56.429  23.626  19.631  1.00  0.00    -0.388 OA
ATOM     44  H8  UNL     1      57.269  23.636  20.075  1.00  0.00     0.210 HD
ENDBRANCH   5  43
TORSDOF 12
ENDMDL
