MODEL 1
REMARK VINA RESULT: -10.354687328      0.000      0.000
REMARK  12 active torsions:
REMARK  status: ('A' for Active; 'I' for Inactive)
REMARK    1  A    between atoms: N5_13  and  C6_14 
REMARK    2  A    between atoms: C7_16  and  C8_17 
REMARK    3  A    between atoms: C8_17  and  O2_18 
REMARK    4  A    between atoms: O2_18  and  P1_19 
REMARK    5  A    between atoms: P1_19  and  O5_22 
REMARK    6  A    between atoms: O5_22  and  C9_23 
REMARK    7  A    between atoms: C9_23  and  C10_24 
REMARK    8  A    between atoms: C11_25  and  C12_26 
REMARK    9  A    between atoms: C12_26  and  C13_27 
REMARK   10  A    between atoms: C13_27  and  C14_28 
REMARK   11  A    between atoms: C19_39  and  O7_40 
REMARK   12  A    between atoms: C20_42  and  O8_43 
ROOT
HETATM    1  C6  UNL     1      54.753  20.753  14.620  1.00  0.00     0.262 C 
HETATM    2  O1  UNL     1      54.136  19.841  15.225  1.00  0.00    -0.353 OA
HETATM    3  C7  UNL     1      53.243  19.351  14.103  1.00  0.00     0.180 C 
HETATM    4  C19 UNL     1      54.188  19.105  13.029  1.00  0.00     0.182 C 
HETATM    5  C20 UNL     1      55.404  19.876  13.423  1.00  0.00     0.198 C 
ENDROOT
BRANCH   3   6
HETATM    6  C8  UNL     1      52.681  18.070  14.791  1.00  0.00     0.216 C 
BRANCH   6   7
HETATM    7  O2  UNL     1      52.111  18.541  15.960  1.00  0.00    -0.287 OA
BRANCH   7   8
HETATM    8  P1  UNL     1      52.781  18.344  17.360  1.00  0.00     0.408 P 
HETATM    9  O3  UNL     1      53.952  17.174  17.551  1.00  0.00    -0.624 OA
HETATM   10  O4  UNL     1      52.868  19.650  18.507  1.00  0.00    -0.624 OA
BRANCH   8  11
HETATM   11  O5  UNL     1      51.857  17.729  18.213  1.00  0.00    -0.286 OA
BRANCH  11  12
HETATM   12  C9  UNL     1      50.610  17.294  18.177  1.00  0.00     0.208 C 
BRANCH  12  13
HETATM   13  C10 UNL     1      50.120  17.671  19.612  1.00  0.00    -0.004 C 
HETATM   14  C11 UNL     1      49.549  16.873  20.436  1.00  0.00    -0.028 C 
BRANCH  14  15
HETATM   15  C12 UNL     1      49.082  17.333  21.788  1.00  0.00     0.028 C 
BRANCH  15  16
HETATM   16  C13 UNL     1      48.963  15.994  22.607  1.00  0.00     0.021 C 
BRANCH  16  17
HETATM   17  C14 UNL     1      47.512  16.014  23.044  1.00  0.00     0.072 C 
HETATM   18  S1  UNL     1      47.266  17.178  24.418  1.00  0.00    -0.160 SA
HETATM   19  C15 UNL     1      46.269  16.126  25.496  1.00  0.00     0.101 C 
HETATM   20  C16 UNL     1      46.956  14.849  25.164  1.00  0.00     0.119 C 
HETATM   21  N6  UNL     1      48.339  14.827  25.623  1.00  0.00    -0.336 N 
HETATM   22  C18 UNL     1      47.092  14.691  23.677  1.00  0.00     0.123 C 
HETATM   23  C17 UNL     1      48.978  13.870  24.793  1.00  0.00     0.316 C 
ATOM     24  H6  UNL     1      48.755  15.377  26.374  1.00  0.00     0.164 HD
HETATM   25  O6  UNL     1      50.069  13.325  24.992  1.00  0.00    -0.247 OA
HETATM   26  N7  UNL     1      48.087  13.673  23.664  1.00  0.00    -0.335 N 
ATOM     27  H7  UNL     1      48.162  12.926  22.973  1.00  0.00     0.164 HD
ENDBRANCH  16  17
ENDBRANCH  15  16
ENDBRANCH  14  15
ENDBRANCH  12  13
ENDBRANCH  11  12
ENDBRANCH   8  11
ENDBRANCH   7   8
ENDBRANCH   6   7
ENDBRANCH   3   6
BRANCH   4  28
HETATM   28  O7  UNL     1      53.781  19.694  11.807  1.00  0.00    -0.390 OA
ATOM     29  H7  UNL     1      53.511  19.046  11.166  1.00  0.00     0.210 HD
ENDBRANCH   4  28
BRANCH   1  30
HETATM   30  N5  UNL     1      55.851  21.573  14.993  1.00  0.00    -0.297 N 
HETATM   31  C3  UNL     1      56.133  22.762  14.424  1.00  0.00     0.142 A 
HETATM   32  N3  UNL     1      55.477  23.669  13.684  1.00  0.00    -0.336 N 
HETATM   33  C4  UNL     1      57.453  23.063  14.709  1.00  0.00     0.119 A 
HETATM   34  C2  UNL     1      56.066  24.792  13.253  1.00  0.00     0.183 A 
ATOM     35  H3  UNL     1      54.501  23.497  13.441  1.00  0.00     0.168 HD
HETATM   36  N2  UNL     1      57.381  25.099  13.533  1.00  0.00    -0.339 N 
HETATM   37  C1  UNL     1      58.068  24.204  14.262  1.00  0.00     0.148 A 
ATOM     38  H2  UNL     1      57.811  25.962  13.203  1.00  0.00     0.167 HD
HETATM   39  N1  UNL     1      59.517  24.325  14.283  1.00  0.00    -0.080 NA
HETATM   40  N4  UNL     1      57.934  22.078  15.464  1.00  0.00    -0.346 N 
HETATM   41  C5  UNL     1      56.962  21.185  15.645  1.00  0.00     0.188 A 
ATOM     42  H4  UNL     1      58.882  22.018  15.839  1.00  0.00     0.167 HD
ENDBRANCH   1  30
BRANCH   5  43
HETATM   43  O8  UNL     1      55.896  20.750  12.496  1.00  0.00    -0.388 OA
ATOM     44  H8  UNL     1      55.216  21.388  12.317  1.00  0.00     0.210 HD
ENDBRANCH   5  43
TORSDOF 12
ENDMDL
