MODEL 2
REMARK VINA RESULT: -10.244643170      1.683      2.094
REMARK  12 active torsions:
REMARK  status: ('A' for Active; 'I' for Inactive)
REMARK    1  A    between atoms: N5_13  and  C6_14 
REMARK    2  A    between atoms: C7_16  and  C8_17 
REMARK    3  A    between atoms: C8_17  and  O2_18 
REMARK    4  A    between atoms: O2_18  and  P1_19 
REMARK    5  A    between atoms: P1_19  and  O5_22 
REMARK    6  A    between atoms: O5_22  and  C9_23 
REMARK    7  A    between atoms: C9_23  and  C10_24 
REMARK    8  A    between atoms: C11_25  and  C12_26 
REMARK    9  A    between atoms: C12_26  and  C13_27 
REMARK   10  A    between atoms: C13_27  and  C14_28 
REMARK   11  A    between atoms: C19_39  and  O7_40 
REMARK   12  A    between atoms: C20_42  and  O8_43 
ROOT
HETATM    1  C6  UNL     1      55.533  20.647  14.756  1.00  0.00     0.262 C 
HETATM    2  O1  UNL     1      55.069  19.492  14.925  1.00  0.00    -0.353 OA
HETATM    3  C7  UNL     1      53.593  19.779  14.727  1.00  0.00     0.180 C 
HETATM    4  C19 UNL     1      53.573  20.474  13.452  1.00  0.00     0.182 C 
HETATM    5  C20 UNL     1      54.980  20.932  13.259  1.00  0.00     0.198 C 
ENDROOT
BRANCH   3   6
HETATM    6  C8  UNL     1      53.071  18.312  14.684  1.00  0.00     0.216 C 
BRANCH   6   7
HETATM    7  O2  UNL     1      52.228  18.224  15.779  1.00  0.00    -0.287 OA
BRANCH   7   8
HETATM    8  P1  UNL     1      52.762  18.155  17.248  1.00  0.00     0.408 P 
HETATM    9  O3  UNL     1      54.076  17.191  17.597  1.00  0.00    -0.624 OA
HETATM   10  O4  UNL     1      52.514  19.473  18.357  1.00  0.00    -0.624 OA
BRANCH   8  11
HETATM   11  O5  UNL     1      51.860  17.410  18.015  1.00  0.00    -0.286 OA
BRANCH  11  12
HETATM   12  C9  UNL     1      50.574  17.106  18.016  1.00  0.00     0.208 C 
BRANCH  12  13
HETATM   13  C10 UNL     1      50.173  17.512  19.471  1.00  0.00    -0.004 C 
HETATM   14  C11 UNL     1      49.540  16.770  20.302  1.00  0.00    -0.028 C 
BRANCH  14  15
HETATM   15  C12 UNL     1      49.168  17.258  21.673  1.00  0.00     0.028 C 
BRANCH  15  16
HETATM   16  C13 UNL     1      49.009  15.929  22.502  1.00  0.00     0.021 C 
BRANCH  16  17
HETATM   17  C14 UNL     1      47.559  15.995  22.937  1.00  0.00     0.072 C 
HETATM   18  S1  UNL     1      47.336  17.217  24.263  1.00  0.00    -0.160 SA
HETATM   19  C15 UNL     1      46.319  16.229  25.382  1.00  0.00     0.101 C 
HETATM   20  C16 UNL     1      46.981  14.926  25.102  1.00  0.00     0.119 C 
HETATM   21  N6  UNL     1      48.362  14.896  25.562  1.00  0.00    -0.336 N 
HETATM   22  C18 UNL     1      47.113  14.707  23.622  1.00  0.00     0.123 C 
HETATM   23  C17 UNL     1      48.983  13.895  24.771  1.00  0.00     0.316 C 
ATOM     24  H6  UNL     1      48.789  15.468  26.290  1.00  0.00     0.164 HD
HETATM   25  O6  UNL     1      50.063  13.337  24.992  1.00  0.00    -0.247 OA
HETATM   26  N7  UNL     1      48.088  13.669  23.651  1.00  0.00    -0.335 N 
ATOM     27  H7  UNL     1      48.148  12.894  22.991  1.00  0.00     0.164 HD
ENDBRANCH  16  17
ENDBRANCH  15  16
ENDBRANCH  14  15
ENDBRANCH  12  13
ENDBRANCH  11  12
ENDBRANCH   8  11
ENDBRANCH   7   8
ENDBRANCH   6   7
ENDBRANCH   3   6
BRANCH   4  28
HETATM   28  O7  UNL     1      52.819  21.671  13.503  1.00  0.00    -0.390 OA
ATOM     29  H7  UNL     1      52.477  21.920  12.652  1.00  0.00     0.210 HD
ENDBRANCH   4  28
BRANCH   1  30
HETATM   30  N5  UNL     1      56.862  21.138  14.660  1.00  0.00    -0.297 N 
HETATM   31  C3  UNL     1      57.794  20.636  13.826  1.00  0.00     0.142 A 
HETATM   32  N3  UNL     1      57.805  19.875  12.720  1.00  0.00    -0.336 N 
HETATM   33  C4  UNL     1      59.033  21.039  14.288  1.00  0.00     0.119 A 
HETATM   34  C2  UNL     1      58.945  19.535  12.106  1.00  0.00     0.183 A 
ATOM     35  H3  UNL     1      56.918  19.547  12.337  1.00  0.00     0.168 HD
HETATM   36  N2  UNL     1      60.185  19.933  12.561  1.00  0.00    -0.339 N 
HETATM   37  C1  UNL     1      60.207  20.685  13.673  1.00  0.00     0.148 A 
ATOM     38  H2  UNL     1      61.042  19.669  12.076  1.00  0.00     0.167 HD
HETATM   39  N1  UNL     1      61.481  20.830  14.360  1.00  0.00    -0.080 NA
HETATM   40  N4  UNL     1      58.833  21.798  15.363  1.00  0.00    -0.346 N 
HETATM   41  C5  UNL     1      57.520  21.866  15.580  1.00  0.00     0.188 A 
ATOM     42  H4  UNL     1      59.558  22.248  15.923  1.00  0.00     0.167 HD
ENDBRANCH   1  30
BRANCH   5  43
HETATM   43  O8  UNL     1      55.157  22.262  13.004  1.00  0.00    -0.388 OA
ATOM     44  H8  UNL     1      54.332  22.699  13.184  1.00  0.00     0.210 HD
ENDBRANCH   5  43
TORSDOF 12
ENDMDL
