MODEL 3
REMARK VINA RESULT: -10.161170445      1.314      1.638
REMARK  12 active torsions:
REMARK  status: ('A' for Active; 'I' for Inactive)
REMARK    1  A    between atoms: N5_13  and  C6_14 
REMARK    2  A    between atoms: C7_16  and  C8_17 
REMARK    3  A    between atoms: C8_17  and  O2_18 
REMARK    4  A    between atoms: O2_18  and  P1_19 
REMARK    5  A    between atoms: P1_19  and  O5_22 
REMARK    6  A    between atoms: O5_22  and  C9_23 
REMARK    7  A    between atoms: C9_23  and  C10_24 
REMARK    8  A    between atoms: C11_25  and  C12_26 
REMARK    9  A    between atoms: C12_26  and  C13_27 
REMARK   10  A    between atoms: C13_27  and  C14_28 
REMARK   11  A    between atoms: C19_39  and  O7_40 
REMARK   12  A    between atoms: C20_42  and  O8_43 
ROOT
HETATM    1  C6  UNL     1      54.815  20.704  14.764  1.00  0.00     0.262 C 
HETATM    2  O1  UNL     1      54.188  19.789  15.353  1.00  0.00    -0.353 OA
HETATM    3  C7  UNL     1      53.208  19.408  14.260  1.00  0.00     0.180 C 
HETATM    4  C19 UNL     1      54.078  19.181  13.119  1.00  0.00     0.182 C 
HETATM    5  C20 UNL     1      55.352  19.869  13.483  1.00  0.00     0.198 C 
ENDROOT
BRANCH   3   6
HETATM    6  C8  UNL     1      52.622  18.117  14.907  1.00  0.00     0.216 C 
BRANCH   6   7
HETATM    7  O2  UNL     1      52.086  18.556  16.104  1.00  0.00    -0.287 OA
BRANCH   7   8
HETATM    8  P1  UNL     1      52.805  18.340  17.477  1.00  0.00     0.408 P 
HETATM    9  O3  UNL     1      54.005  17.191  17.601  1.00  0.00    -0.624 OA
HETATM   10  O4  UNL     1      52.904  19.621  18.652  1.00  0.00    -0.624 OA
BRANCH   8  11
HETATM   11  O5  UNL     1      51.923  17.687  18.343  1.00  0.00    -0.286 OA
BRANCH  11  12
HETATM   12  C9  UNL     1      50.746  17.088  18.295  1.00  0.00     0.208 C 
BRANCH  12  13
HETATM   13  C10 UNL     1      50.041  17.712  19.542  1.00  0.00    -0.004 C 
HETATM   14  C11 UNL     1      49.342  17.068  20.401  1.00  0.00    -0.028 C 
BRANCH  14  15
HETATM   15  C12 UNL     1      48.673  17.759  21.555  1.00  0.00     0.028 C 
BRANCH  15  16
HETATM   16  C13 UNL     1      47.744  16.641  22.160  1.00  0.00     0.021 C 
BRANCH  16  17
HETATM   17  C14 UNL     1      48.750  15.655  22.717  1.00  0.00     0.072 C 
HETATM   18  S1  UNL     1      48.158  13.948  22.526  1.00  0.00    -0.160 SA
HETATM   19  C15 UNL     1      48.527  13.340  24.187  1.00  0.00     0.101 C 
HETATM   20  C16 UNL     1      48.211  14.605  24.901  1.00  0.00     0.119 C 
HETATM   21  N6  UNL     1      46.797  14.949  24.822  1.00  0.00    -0.336 N 
HETATM   22  C18 UNL     1      48.879  15.772  24.233  1.00  0.00     0.123 C 
HETATM   23  C17 UNL     1      46.757  16.352  25.029  1.00  0.00     0.316 C 
ATOM     24  H6  UNL     1      46.012  14.321  24.656  1.00  0.00     0.164 HD
HETATM   25  O6  UNL     1      45.765  17.032  25.317  1.00  0.00    -0.247 OA
HETATM   26  N7  UNL     1      48.116  16.818  24.825  1.00  0.00    -0.335 N 
ATOM     27  H7  UNL     1      48.467  17.745  25.066  1.00  0.00     0.164 HD
ENDBRANCH  16  17
ENDBRANCH  15  16
ENDBRANCH  14  15
ENDBRANCH  12  13
ENDBRANCH  11  12
ENDBRANCH   8  11
ENDBRANCH   7   8
ENDBRANCH   6   7
ENDBRANCH   3   6
BRANCH   4  28
HETATM   28  O7  UNL     1      53.633  19.859  11.959  1.00  0.00    -0.390 OA
ATOM     29  H7  UNL     1      52.686  19.863  11.883  1.00  0.00     0.210 HD
ENDBRANCH   4  28
BRANCH   1  30
HETATM   30  N5  UNL     1      55.973  21.448  15.117  1.00  0.00    -0.297 N 
HETATM   31  C3  UNL     1      56.290  22.646  14.587  1.00  0.00     0.142 A 
HETATM   32  N3  UNL     1      55.649  23.619  13.921  1.00  0.00    -0.336 N 
HETATM   33  C4  UNL     1      57.636  22.864  14.817  1.00  0.00     0.119 A 
HETATM   34  C2  UNL     1      56.277  24.729  13.512  1.00  0.00     0.183 A 
ATOM     35  H3  UNL     1      54.655  23.509  13.721  1.00  0.00     0.168 HD
HETATM   36  N2  UNL     1      57.618  24.954  13.738  1.00  0.00    -0.339 N 
HETATM   37  C1  UNL     1      58.290  23.992  14.391  1.00  0.00     0.148 A 
ATOM     38  H2  UNL     1      58.078  25.808  13.424  1.00  0.00     0.167 HD
HETATM   39  N1  UNL     1      59.743  24.037  14.343  1.00  0.00    -0.080 NA
HETATM   40  N4  UNL     1      58.100  21.822  15.504  1.00  0.00    -0.346 N 
HETATM   41  C5  UNL     1      57.091  20.973  15.694  1.00  0.00     0.188 A 
ATOM     42  H4  UNL     1      59.059  21.696  15.827  1.00  0.00     0.167 HD
ENDBRANCH   1  30
BRANCH   5  43
HETATM   43  O8  UNL     1      55.835  20.772  12.580  1.00  0.00    -0.388 OA
ATOM     44  H8  UNL     1      56.686  21.059  12.891  1.00  0.00     0.210 HD
ENDBRANCH   5  43
TORSDOF 12
ENDMDL
