MODEL 5
REMARK VINA RESULT: -5.125343034      2.293      4.546
REMARK  3 active torsions:
REMARK  status: ('A' for Active; 'I' for Inactive)
REMARK    1  A    between atoms: C9_13  and  C10_14 
REMARK    2  A    between atoms: C10_14  and  C11_15 
REMARK    3  A    between atoms: C11_15  and  N2_16 
ROOT
HETATM    1  C1  UNL     1      24.858  17.922  10.923  1.00  0.00     0.068 C 
HETATM    2  C2  UNL     1      25.838  16.817  11.020  1.00  0.00     0.013 A 
HETATM    3  N1  UNL     1      27.092  16.920  11.484  1.00  0.00    -0.359 N 
ATOM      4  H1  UNL     1      27.521  17.780  11.826  1.00  0.00     0.166 HD
HETATM    5  C3  UNL     1      27.702  15.719  11.432  1.00  0.00     0.046 A 
HETATM    6  C4  UNL     1      28.968  15.301  11.782  1.00  0.00     0.054 A 
HETATM    7  C5  UNL     1      29.359  13.992  11.626  1.00  0.00     0.037 A 
HETATM    8 CL1  UNL     1      30.951  13.408  12.055  1.00  0.00    -0.084 Cl
HETATM    9  C6  UNL     1      28.467  13.084  11.111  1.00  0.00     0.048 A 
HETATM   10  C7  UNL     1      27.175  13.459  10.743  1.00  0.00     0.048 A 
HETATM   11 CL2  UNL     1      26.068  12.279  10.082  1.00  0.00    -0.083 Cl
HETATM   12  C8  UNL     1      26.821  14.774  10.914  1.00  0.00     0.021 A 
HETATM   13  C9  UNL     1      25.656  15.496  10.663  1.00  0.00    -0.020 A 
ENDROOT
BRANCH  13  14
HETATM   14  C10 UNL     1      24.423  14.950  10.092  1.00  0.00     0.068 C 
BRANCH  14  15
HETATM   15  C11 UNL     1      24.288  15.433   8.641  1.00  0.00     0.234 C 
BRANCH  15  16
HETATM   16  N2  UNL     1      24.474  14.310   7.738  1.00  0.00    -0.079 N 
ATOM     17  H23 UNL     1      25.130  14.522   6.987  1.00  0.00     0.274 HD
ATOM     18  H22 UNL     1      24.993  13.547   8.173  1.00  0.00     0.274 HD
ATOM     19  H21 UNL     1      23.567  14.006   7.384  1.00  0.00     0.274 HD
ENDBRANCH  15  16
ENDBRANCH  14  15
ENDBRANCH  13  14
TORSDOF 3
ENDMDL
