MODEL 2
REMARK VINA RESULT: -5.448157846      2.752      5.319
REMARK  3 active torsions:
REMARK  status: ('A' for Active; 'I' for Inactive)
REMARK    1  A    between atoms: C9_13  and  C10_14 
REMARK    2  A    between atoms: C10_14  and  C11_15 
REMARK    3  A    between atoms: C11_15  and  N2_16 
ROOT
HETATM    1  C1  UNL     1      23.893  15.043   8.608  1.00  0.00     0.068 C 
HETATM    2  C2  UNL     1      25.118  14.551   9.277  1.00  0.00     0.013 A 
HETATM    3  N1  UNL     1      25.615  13.309   9.187  1.00  0.00    -0.359 N 
ATOM      4  H1  UNL     1      25.203  12.551   8.642  1.00  0.00     0.166 HD
HETATM    5  C3  UNL     1      26.741  13.210   9.921  1.00  0.00     0.046 A 
HETATM    6  C4  UNL     1      27.611  12.167  10.157  1.00  0.00     0.054 A 
HETATM    7  C5  UNL     1      28.711  12.321  10.965  1.00  0.00     0.037 A 
HETATM    8 CL1  UNL     1      29.847  11.032  11.297  1.00  0.00    -0.084 Cl
HETATM    9  C6  UNL     1      28.948  13.541  11.550  1.00  0.00     0.048 A 
HETATM   10  C7  UNL     1      28.097  14.626  11.341  1.00  0.00     0.048 A 
HETATM   11 CL2  UNL     1      28.422  16.163  12.107  1.00  0.00    -0.083 Cl
HETATM   12  C8  UNL     1      27.008  14.434  10.527  1.00  0.00     0.021 A 
HETATM   13  C9  UNL     1      25.969  15.258  10.102  1.00  0.00    -0.020 A 
ENDROOT
BRANCH  13  14
HETATM   14  C10 UNL     1      25.785  16.661  10.482  1.00  0.00     0.068 C 
BRANCH  14  15
HETATM   15  C11 UNL     1      25.037  16.722  11.822  1.00  0.00     0.234 C 
BRANCH  15  16
HETATM   16  N2  UNL     1      23.612  16.865  11.573  1.00  0.00    -0.079 N 
ATOM     17  H23 UNL     1      23.089  17.057  12.427  1.00  0.00     0.274 HD
ATOM     18  H22 UNL     1      23.392  17.724  11.070  1.00  0.00     0.274 HD
ATOM     19  H21 UNL     1      23.268  16.036  11.089  1.00  0.00     0.274 HD
ENDBRANCH  15  16
ENDBRANCH  14  15
ENDBRANCH  13  14
TORSDOF 3
ENDMDL
