MODEL 4
REMARK VINA RESULT: -5.215968583      2.973      5.414
REMARK  3 active torsions:
REMARK  status: ('A' for Active; 'I' for Inactive)
REMARK    1  A    between atoms: C9_13  and  C10_14 
REMARK    2  A    between atoms: C10_14  and  C11_15 
REMARK    3  A    between atoms: C11_15  and  N2_16 
ROOT
HETATM    1  C1  UNL     1      23.315  15.368   8.716  1.00  0.00     0.068 C 
HETATM    2  C2  UNL     1      24.440  14.764   9.465  1.00  0.00     0.013 A 
HETATM    3  N1  UNL     1      25.292  13.843   8.993  1.00  0.00    -0.359 N 
ATOM      4  H1  UNL     1      25.262  13.446   8.053  1.00  0.00     0.166 HD
HETATM    5  C3  UNL     1      26.192  13.519   9.942  1.00  0.00     0.046 A 
HETATM    6  C4  UNL     1      27.253  12.639   9.958  1.00  0.00     0.054 A 
HETATM    7  C5  UNL     1      28.037  12.483  11.076  1.00  0.00     0.037 A 
HETATM    8 CL1  UNL     1      29.395  11.383  11.150  1.00  0.00    -0.084 Cl
HETATM    9  C6  UNL     1      27.756  13.221  12.199  1.00  0.00     0.048 A 
HETATM   10  C7  UNL     1      26.693  14.124  12.231  1.00  0.00     0.048 A 
HETATM   11 CL2  UNL     1      26.358  15.042  13.681  1.00  0.00    -0.083 Cl
HETATM   12  C8  UNL     1      25.933  14.253  11.096  1.00  0.00     0.021 A 
HETATM   13  C9  UNL     1      24.824  15.028  10.765  1.00  0.00    -0.020 A 
ENDROOT
BRANCH  13  14
HETATM   14  C10 UNL     1      24.147  15.971  11.658  1.00  0.00     0.068 C 
BRANCH  14  15
HETATM   15  C11 UNL     1      23.013  15.240  12.390  1.00  0.00     0.234 C 
BRANCH  15  16
HETATM   16  N2  UNL     1      21.744  15.871  12.068  1.00  0.00    -0.079 N 
ATOM     17  H23 UNL     1      21.338  15.504  11.207  1.00  0.00     0.274 HD
ATOM     18  H22 UNL     1      21.001  15.595  12.709  1.00  0.00     0.274 HD
ATOM     19  H21 UNL     1      21.868  16.883  12.034  1.00  0.00     0.274 HD
ENDBRANCH  15  16
ENDBRANCH  14  15
ENDBRANCH  13  14
TORSDOF 3
ENDMDL
