MODEL 14
REMARK VINA RESULT: -4.051745067      4.953      6.001
REMARK  0 active torsions:
REMARK  status: ('A' for Active; 'I' for Inactive)
ROOT
HETATM    1  C1  UNL     1      20.864  15.105  14.681  1.00  0.00     0.002 A 
HETATM    2  C2  UNL     1      21.471  14.051  14.040  1.00  0.00     0.002 A 
HETATM    3  C3  UNL     1      20.897  12.798  14.113  1.00  0.00     0.032 A 
HETATM    4  C4  UNL     1      19.712  12.571  14.824  1.00  0.00     0.060 A 
HETATM    5  N1  UNL     1      18.961  11.479  15.050  1.00  0.00    -0.351 N 
ATOM      6  H1  UNL     1      19.163  10.544  14.697  1.00  0.00     0.166 HD
HETATM    7  C5  UNL     1      17.904  11.807  15.809  1.00  0.00     0.181 A 
HETATM    8  N2  UNL     1      18.015  13.123  16.050  1.00  0.00    -0.351 N 
ATOM      9  H2  UNL     1      17.354  13.666  16.606  1.00  0.00     0.166 HD
HETATM   10  C6  UNL     1      19.107  13.628  15.465  1.00  0.00     0.060 A 
HETATM   11  C7  UNL     1      19.698  14.875  15.379  1.00  0.00     0.032 A 
ENDROOT
TORSDOF 0
ENDMDL
