MODEL 3
REMARK VINA RESULT: -4.707269252      1.093      2.177
REMARK  0 active torsions:
REMARK  status: ('A' for Active; 'I' for Inactive)
ROOT
HETATM    1  C1  UNL     1      24.006  13.533   9.460  1.00  0.00     0.002 A 
HETATM    2  C2  UNL     1      22.862  14.294   9.499  1.00  0.00     0.002 A 
HETATM    3  C3  UNL     1      22.118  14.331  10.660  1.00  0.00     0.032 A 
HETATM    4  C4  UNL     1      22.496  13.613  11.802  1.00  0.00     0.060 A 
HETATM    5  N1  UNL     1      21.967  13.477  13.030  1.00  0.00    -0.351 N 
ATOM      6  H1  UNL     1      21.111  13.928  13.354  1.00  0.00     0.166 HD
HETATM    7  C5  UNL     1      22.736  12.659  13.766  1.00  0.00     0.181 A 
HETATM    8  N2  UNL     1      23.752  12.291  12.969  1.00  0.00    -0.351 N 
ATOM      9  H2  UNL     1      24.507  11.664  13.249  1.00  0.00     0.166 HD
HETATM   10  C6  UNL     1      23.643  12.853  11.760  1.00  0.00     0.060 A 
HETATM   11  C7  UNL     1      24.374  12.829  10.587  1.00  0.00     0.032 A 
ENDROOT
TORSDOF 0
ENDMDL
