MODEL 2
REMARK VINA RESULT: -4.937924157      0.163      1.874
REMARK  0 active torsions:
REMARK  status: ('A' for Active; 'I' for Inactive)
ROOT
HETATM    1  C1  UNL     1      22.869  14.215   9.217  1.00  0.00     0.002 A 
HETATM    2  C2  UNL     1      21.927  14.545  10.163  1.00  0.00     0.002 A 
HETATM    3  C3  UNL     1      22.139  14.185  11.479  1.00  0.00     0.032 A 
HETATM    4  C4  UNL     1      23.288  13.490  11.877  1.00  0.00     0.060 A 
HETATM    5  N1  UNL     1      23.730  13.030  13.060  1.00  0.00    -0.351 N 
ATOM      6  H1  UNL     1      23.240  13.128  13.949  1.00  0.00     0.166 HD
HETATM    7  C5  UNL     1      24.915  12.421  12.894  1.00  0.00     0.181 A 
HETATM    8  N2  UNL     1      25.198  12.514  11.585  1.00  0.00    -0.351 N 
ATOM      9  H2  UNL     1      26.041  12.139  11.149  1.00  0.00     0.166 HD
HETATM   10  C6  UNL     1      24.229  13.161  10.927  1.00  0.00     0.060 A 
HETATM   11  C7  UNL     1      23.998  13.530   9.616  1.00  0.00     0.032 A 
ENDROOT
TORSDOF 0
ENDMDL
