MODEL 9
REMARK VINA RESULT: -4.483295411      1.064      2.140
REMARK  0 active torsions:
REMARK  status: ('A' for Active; 'I' for Inactive)
ROOT
HETATM    1  C1  UNL     1      22.679  14.184   9.694  1.00  0.00     0.002 A 
HETATM    2  C2  UNL     1      21.866  14.530  10.747  1.00  0.00     0.002 A 
HETATM    3  C3  UNL     1      22.393  14.557  12.023  1.00  0.00     0.032 A 
HETATM    4  C4  UNL     1      23.734  14.240  12.274  1.00  0.00     0.060 A 
HETATM    5  N1  UNL     1      24.481  14.188  13.389  1.00  0.00    -0.351 N 
ATOM      6  H1  UNL     1      24.147  14.396  14.331  1.00  0.00     0.166 HD
HETATM    7  C5  UNL     1      25.734  13.822  13.078  1.00  0.00     0.181 A 
HETATM    8  N2  UNL     1      25.748  13.648  11.747  1.00  0.00    -0.351 N 
ATOM      9  H2  UNL     1      26.568  13.364  11.210  1.00  0.00     0.166 HD
HETATM   10  C6  UNL     1      24.545  13.894  11.217  1.00  0.00     0.060 A 
HETATM   11  C7  UNL     1      23.998  13.872   9.947  1.00  0.00     0.032 A 
ENDROOT
TORSDOF 0
ENDMDL
