MODEL 13
REMARK VINA RESULT: -4.059487423      4.913      6.199
REMARK  0 active torsions:
REMARK  status: ('A' for Active; 'I' for Inactive)
ROOT
HETATM    1  C1  UNL     1      21.491  14.079  14.001  1.00  0.00     0.002 A 
HETATM    2  C2  UNL     1      20.880  15.127  14.648  1.00  0.00     0.002 A 
HETATM    3  C3  UNL     1      19.717  14.896  15.354  1.00  0.00     0.032 A 
HETATM    4  C4  UNL     1      19.139  13.622  15.427  1.00  0.00     0.060 A 
HETATM    5  N1  UNL     1      18.041  13.135  16.029  1.00  0.00    -0.351 N 
ATOM      6  H1  UNL     1      17.385  13.683  16.587  1.00  0.00     0.166 HD
HETATM    7  C5  UNL     1      17.936  11.820  15.784  1.00  0.00     0.181 A 
HETATM    8  N2  UNL     1      18.992  11.502  15.019  1.00  0.00    -0.351 N 
ATOM      9  H2  UNL     1      19.188  10.564  14.667  1.00  0.00     0.166 HD
HETATM   10  C6  UNL     1      19.753  12.575  14.778  1.00  0.00     0.060 A 
HETATM   11  C7  UNL     1      20.918  12.827  14.077  1.00  0.00     0.032 A 
ENDROOT
TORSDOF 0
ENDMDL
