MODEL 1
REMARK VINA RESULT: -4.943503433      0.000      0.000
REMARK  0 active torsions:
REMARK  status: ('A' for Active; 'I' for Inactive)
ROOT
HETATM    1  C1  UNL     1      22.087  14.495   9.976  1.00  0.00     0.002 A 
HETATM    2  C2  UNL     1      23.071  14.102   9.100  1.00  0.00     0.002 A 
HETATM    3  C3  UNL     1      24.164  13.411   9.581  1.00  0.00     0.032 A 
HETATM    4  C4  UNL     1      24.300  13.101  10.940  1.00  0.00     0.060 A 
HETATM    5  N1  UNL     1      25.238  12.456  11.655  1.00  0.00    -0.351 N 
ATOM      6  H1  UNL     1      26.091  12.049  11.273  1.00  0.00     0.166 HD
HETATM    7  C5  UNL     1      24.881  12.429  12.949  1.00  0.00     0.181 A 
HETATM    8  N2  UNL     1      23.704  13.070  13.021  1.00  0.00    -0.351 N 
ATOM      9  H2  UNL     1      23.177  13.214  13.883  1.00  0.00     0.166 HD
HETATM   10  C6  UNL     1      23.313  13.496  11.815  1.00  0.00     0.060 A 
HETATM   11  C7  UNL     1      22.226  14.187  11.312  1.00  0.00     0.032 A 
ENDROOT
TORSDOF 0
ENDMDL
