MODEL 4
REMARK VINA RESULT: -4.699101540      1.044      1.514
REMARK  0 active torsions:
REMARK  status: ('A' for Active; 'I' for Inactive)
ROOT
HETATM    1  C1  UNL     1      22.892  14.244   9.345  1.00  0.00     0.002 A 
HETATM    2  C2  UNL     1      24.038  13.487   9.407  1.00  0.00     0.002 A 
HETATM    3  C3  UNL     1      24.370  12.864  10.594  1.00  0.00     0.032 A 
HETATM    4  C4  UNL     1      23.572  12.984  11.738  1.00  0.00     0.060 A 
HETATM    5  N1  UNL     1      23.661  12.496  12.987  1.00  0.00    -0.351 N 
ATOM      6  H1  UNL     1      24.411  11.895  13.330  1.00  0.00     0.166 HD
HETATM    7  C5  UNL     1      22.615  12.918  13.714  1.00  0.00     0.181 A 
HETATM    8  N2  UNL     1      21.875  13.677  12.890  1.00  0.00    -0.351 N 
ATOM      9  H2  UNL     1      21.008  14.143  13.158  1.00  0.00     0.166 HD
HETATM   10  C6  UNL     1      22.425  13.743  11.672  1.00  0.00     0.060 A 
HETATM   11  C7  UNL     1      22.110  14.358  10.475  1.00  0.00     0.032 A 
ENDROOT
TORSDOF 0
ENDMDL
