MODEL 3
REMARK VINA RESULT: -5.324517715     10.912     12.005
REMARK  2 active torsions:
REMARK  status: ('A' for Active; 'I' for Inactive)
REMARK    1  A    between atoms: C1_2  and  C2_4 
REMARK    2  A    between atoms: C5_9  and  C6_10 
ROOT
HETATM    1  C2  UNL     1     -65.964  34.492 -45.447  1.00  0.00     0.057 A 
HETATM    2  C3  UNL     1     -66.110  34.832 -46.773  1.00  0.00     0.106 A 
HETATM    3  N1  UNL     1     -65.644  36.032 -47.167  1.00  0.00    -0.373 N 
ATOM      4  H1  UNL     1     -65.750  36.287 -48.148  1.00  0.00     0.164 HD
HETATM    5  C4  UNL     1     -65.050  36.909 -46.350  1.00  0.00     0.100 A 
HETATM    6  C5  UNL     1     -64.877  36.618 -44.999  1.00  0.00    -0.009 A 
HETATM    7  C12 UNL     1     -65.349  35.392 -44.578  1.00  0.00     0.033 A 
ENDROOT
BRANCH   6   8
HETATM    8  C6  UNL     1     -64.237  37.559 -44.108  1.00  0.00    -0.025 A 
HETATM    9  C7  UNL     1     -64.216  38.908 -44.382  1.00  0.00     0.012 A 
HETATM   10  C8  UNL     1     -63.608  39.819 -43.538  1.00  0.00     0.001 A 
HETATM   11  C9  UNL     1     -63.003  39.358 -42.387  1.00  0.00     0.000 A 
HETATM   12  C10 UNL     1     -63.003  37.998 -42.073  1.00  0.00     0.001 A 
HETATM   13  C11 UNL     1     -63.626  37.134 -42.953  1.00  0.00     0.012 A 
ENDBRANCH   6   8
BRANCH   1  14
HETATM   14  C1  UNL     1     -66.456  33.207 -44.990  1.00  0.00     0.210 C 
HETATM   15  O1  UNL     1     -65.704  32.211 -44.924  1.00  0.00    -0.644 OA
HETATM   16  O2  UNL     1     -67.775  33.077 -44.621  1.00  0.00    -0.644 OA
ENDBRANCH   1  14
TORSDOF 2
ENDMDL
