MODEL 1
REMARK VINA RESULT: -5.341755647      0.000      0.000
REMARK  2 active torsions:
REMARK  status: ('A' for Active; 'I' for Inactive)
REMARK    1  A    between atoms: C1_2  and  C2_4 
REMARK    2  A    between atoms: C5_9  and  C6_10 
ROOT
HETATM    1  C2  UNL     1     -71.960  29.062 -50.636  1.00  0.00     0.057 A 
HETATM    2  C3  UNL     1     -71.927  30.417 -50.878  1.00  0.00     0.106 A 
HETATM    3  N1  UNL     1     -70.783  30.941 -51.354  1.00  0.00    -0.373 N 
ATOM      4  H1  UNL     1     -70.754  31.944 -51.534  1.00  0.00     0.164 HD
HETATM    5  C4  UNL     1     -69.680  30.227 -51.605  1.00  0.00     0.100 A 
HETATM    6  C5  UNL     1     -69.657  28.853 -51.379  1.00  0.00    -0.009 A 
HETATM    7  C12 UNL     1     -70.822  28.299 -50.890  1.00  0.00     0.033 A 
ENDROOT
BRANCH   6   8
HETATM    8  C6  UNL     1     -68.470  28.071 -51.647  1.00  0.00    -0.025 A 
HETATM    9  C7  UNL     1     -68.530  26.705 -51.802  1.00  0.00     0.012 A 
HETATM   10  C8  UNL     1     -67.403  25.946 -52.060  1.00  0.00     0.001 A 
HETATM   11  C9  UNL     1     -66.183  26.580 -52.163  1.00  0.00     0.000 A 
HETATM   12  C10 UNL     1     -66.081  27.964 -52.013  1.00  0.00     0.001 A 
HETATM   13  C11 UNL     1     -67.239  28.672 -51.757  1.00  0.00     0.012 A 
ENDBRANCH   6   8
BRANCH   1  14
HETATM   14  C1  UNL     1     -73.178  28.466 -50.122  1.00  0.00     0.210 C 
HETATM   15  O1  UNL     1     -73.532  27.317 -50.464  1.00  0.00    -0.644 OA
HETATM   16  O2  UNL     1     -73.962  29.176 -49.242  1.00  0.00    -0.644 OA
ENDBRANCH   1  14
TORSDOF 2
ENDMDL
