MODEL 2
REMARK VINA RESULT: -5.338601006      0.027      1.231
REMARK  2 active torsions:
REMARK  status: ('A' for Active; 'I' for Inactive)
REMARK    1  A    between atoms: C1_2  and  C2_4 
REMARK    2  A    between atoms: C5_9  and  C6_10 
ROOT
HETATM    1  C2  UNL     1     -71.973  29.070 -50.637  1.00  0.00     0.057 A 
HETATM    2  C3  UNL     1     -71.952  30.424 -50.884  1.00  0.00     0.106 A 
HETATM    3  N1  UNL     1     -70.811  30.956 -51.361  1.00  0.00    -0.373 N 
ATOM      4  H1  UNL     1     -70.791  31.959 -51.544  1.00  0.00     0.164 HD
HETATM    5  C4  UNL     1     -69.702  30.250 -51.608  1.00  0.00     0.100 A 
HETATM    6  C5  UNL     1     -69.668  28.877 -51.377  1.00  0.00    -0.009 A 
HETATM    7  C12 UNL     1     -70.829  28.315 -50.888  1.00  0.00     0.033 A 
ENDROOT
BRANCH   6   8
HETATM    8  C6  UNL     1     -68.475  28.105 -51.641  1.00  0.00    -0.025 A 
HETATM    9  C7  UNL     1     -67.239  28.703 -51.741  1.00  0.00     0.012 A 
HETATM   10  C8  UNL     1     -66.090  27.976 -51.992  1.00  0.00     0.001 A 
HETATM   11  C9  UNL     1     -66.188  26.609 -52.149  1.00  0.00     0.000 A 
HETATM   12  C10 UNL     1     -67.423  25.965 -52.055  1.00  0.00     0.001 A 
HETATM   13  C11 UNL     1     -68.537  26.741 -51.802  1.00  0.00     0.012 A 
ENDBRANCH   6   8
BRANCH   1  14
HETATM   14  C1  UNL     1     -73.187  28.466 -50.123  1.00  0.00     0.210 C 
HETATM   15  O1  UNL     1     -73.531  27.312 -50.460  1.00  0.00    -0.644 OA
HETATM   16  O2  UNL     1     -73.979  29.173 -49.248  1.00  0.00    -0.644 OA
ENDBRANCH   1  14
TORSDOF 2
ENDMDL
