MODEL 4
REMARK VINA RESULT: -8.015268669      6.541      8.868
REMARK  6 active torsions:
REMARK  status: ('A' for Active; 'I' for Inactive)
REMARK    1  A    between atoms: C2_2  and  C3_3 
REMARK       I    between atoms: C3_3  and  N1_5 
REMARK    2  A    between atoms: N1_5  and  C4_7 
REMARK    3  A    between atoms: C7_12  and  C8_13 
REMARK    4  A    between atoms: C10_16  and  N3_17 
REMARK    5  A    between atoms: N3_17  and  C11_19 
REMARK    6  A    between atoms: C14_22  and  C15_23 
ROOT
HETATM    1  C8  UNL     1       2.021   3.219  35.776  1.00  0.00     0.060 A 
HETATM    2  C9  UNL     1       2.347   3.467  34.460  1.00  0.00     0.084 A 
HETATM    3  S1  UNL     1       1.377   2.316  33.664  1.00  0.00    -0.063 SA
HETATM    4  C10 UNL     1       0.630   1.602  35.021  1.00  0.00     0.149 A 
HETATM    5  N4  UNL     1       1.172   2.294  36.026  1.00  0.00    -0.335 N 
ATOM      6  H4  UNL     1       0.909   2.086  36.989  1.00  0.00     0.168 HD
ENDROOT
BRANCH   1   7
HETATM    7  C7  UNL     1       2.656   4.030  36.856  1.00  0.00     0.058 A 
HETATM    8  C5  UNL     1       2.953   3.676  38.142  1.00  0.00     0.027 A 
HETATM    9  N2  UNL     1       3.510   4.571  38.896  1.00  0.00    -0.339 N 
HETATM   10  C6  UNL     1       2.634   2.282  38.647  1.00  0.00     0.070 C 
HETATM   11  C4  UNL     1       3.768   5.776  38.409  1.00  0.00     0.152 A 
ATOM     12  H2  UNL     1       3.749   4.349  39.862  1.00  0.00     0.168 HD
HETATM   13  S2  UNL     1       3.195   5.641  36.798  1.00  0.00    -0.050 SA
BRANCH  11  14
HETATM   14  N1  UNL     1       4.373   6.902  39.065  1.00  0.00    -0.307 N 
HETATM   15  C3  UNL     1       5.542   7.449  38.492  1.00  0.00     0.223 C 
HETATM   16  O1  UNL     1       5.996   6.929  37.446  1.00  0.00    -0.273 OA
ATOM     17  H1  UNL     1       3.970   7.294  39.916  1.00  0.00     0.171 HD
BRANCH  15  18
HETATM   18  C2  UNL     1       6.244   8.601  39.079  1.00  0.00     0.099 C 
HETATM   19  C1  UNL     1       7.687   8.297  39.402  1.00  0.00     0.014 C 
ENDBRANCH  15  18
ENDBRANCH  11  14
ENDBRANCH   1   7
BRANCH   4  20
HETATM   20  N3  UNL     1      -0.324   0.562  35.134  1.00  0.00    -0.337 N 
ATOM     21  H3  UNL     1      -1.087   0.539  34.458  1.00  0.00     0.168 HD
BRANCH  20  22
HETATM   22  C11 UNL     1      -0.287  -0.442  36.117  1.00  0.00     0.034 A 
HETATM   23  C12 UNL     1       0.352  -0.371  37.325  1.00  0.00     0.030 A 
HETATM   24  C13 UNL     1       0.373  -1.424  38.249  1.00  0.00     0.020 A 
HETATM   25  C14 UNL     1      -0.264  -2.599  37.975  1.00  0.00     0.041 A 
HETATM   26  C16 UNL     1      -0.914  -2.690  36.762  1.00  0.00     0.020 A 
HETATM   27  C17 UNL     1      -0.938  -1.666  35.857  1.00  0.00     0.030 A 
BRANCH  25  28
HETATM   28  C15 UNL     1      -0.284  -3.736  38.885  1.00  0.00     0.209 C 
HETATM   29  O2  UNL     1      -0.114  -3.537  40.119  1.00  0.00    -0.644 OA
HETATM   30  O3  UNL     1      -0.482  -5.026  38.473  1.00  0.00    -0.644 OA
ENDBRANCH  25  28
ENDBRANCH  20  22
ENDBRANCH   4  20
TORSDOF 6
ENDMDL
