MODEL 3
REMARK VINA RESULT: -8.186993716      3.994      9.543
REMARK  6 active torsions:
REMARK  status: ('A' for Active; 'I' for Inactive)
REMARK    1  A    between atoms: C2_2  and  C3_3 
REMARK       I    between atoms: C3_3  and  N1_5 
REMARK    2  A    between atoms: N1_5  and  C4_7 
REMARK    3  A    between atoms: C7_12  and  C8_13 
REMARK    4  A    between atoms: C10_16  and  N3_17 
REMARK    5  A    between atoms: N3_17  and  C11_19 
REMARK    6  A    between atoms: C14_22  and  C15_23 
ROOT
HETATM    1  C8  UNL     1       1.956   3.084  36.076  1.00  0.00     0.060 A 
HETATM    2  C9  UNL     1       1.466   1.854  36.453  1.00  0.00     0.084 A 
HETATM    3  S1  UNL     1       0.852   1.281  34.972  1.00  0.00    -0.063 SA
HETATM    4  C10 UNL     1       1.247   2.611  33.980  1.00  0.00     0.149 A 
HETATM    5  N4  UNL     1       1.836   3.435  34.850  1.00  0.00    -0.335 N 
ATOM      6  H4  UNL     1       2.189   4.339  34.539  1.00  0.00     0.168 HD
ENDROOT
BRANCH   1   7
HETATM    7  C7  UNL     1       2.610   3.959  37.093  1.00  0.00     0.058 A 
HETATM    8  C5  UNL     1       2.958   3.674  38.384  1.00  0.00     0.027 A 
HETATM    9  N2  UNL     1       3.522   4.615  39.074  1.00  0.00    -0.339 N 
HETATM   10  C6  UNL     1       2.684   2.301  38.966  1.00  0.00     0.070 C 
HETATM   11  C4  UNL     1       3.739   5.799  38.520  1.00  0.00     0.152 A 
ATOM     12  H2  UNL     1       3.797   4.445  40.040  1.00  0.00     0.168 HD
HETATM   13  S2  UNL     1       3.114   5.574  36.939  1.00  0.00    -0.050 SA
BRANCH  11  14
HETATM   14  N1  UNL     1       4.342   6.967  39.100  1.00  0.00    -0.307 N 
HETATM   15  C3  UNL     1       5.531   7.454  38.513  1.00  0.00     0.223 C 
HETATM   16  O1  UNL     1       6.002   6.849  37.522  1.00  0.00    -0.273 OA
ATOM     17  H1  UNL     1       3.926   7.429  39.907  1.00  0.00     0.171 HD
BRANCH  15  18
HETATM   18  C2  UNL     1       6.234   8.642  39.024  1.00  0.00     0.099 C 
HETATM   19  C1  UNL     1       7.670   8.353  39.387  1.00  0.00     0.014 C 
ENDBRANCH  15  18
ENDBRANCH  11  14
ENDBRANCH   1   7
BRANCH   4  20
HETATM   20  N3  UNL     1       1.047   2.850  32.599  1.00  0.00    -0.337 N 
ATOM     21  H3  UNL     1       1.243   2.088  31.950  1.00  0.00     0.168 HD
BRANCH  20  22
HETATM   22  C11 UNL     1       0.597   4.069  32.064  1.00  0.00     0.034 A 
HETATM   23  C12 UNL     1       1.229   5.278  32.157  1.00  0.00     0.030 A 
HETATM   24  C13 UNL     1       0.707   6.464  31.622  1.00  0.00     0.020 A 
HETATM   25  C14 UNL     1      -0.490   6.461  30.966  1.00  0.00     0.041 A 
HETATM   26  C16 UNL     1      -1.142   5.250  30.862  1.00  0.00     0.020 A 
HETATM   27  C17 UNL     1      -0.638   4.090  31.381  1.00  0.00     0.030 A 
BRANCH  25  28
HETATM   28  C15 UNL     1      -1.094   7.652  30.387  1.00  0.00     0.209 C 
HETATM   29  O2  UNL     1      -1.392   8.618  31.141  1.00  0.00    -0.644 OA
HETATM   30  O3  UNL     1      -1.361   7.786  29.051  1.00  0.00    -0.644 OA
ENDBRANCH  25  28
ENDBRANCH  20  22
ENDBRANCH   4  20
TORSDOF 6
ENDMDL
