MODEL 2
REMARK VINA RESULT: -8.302221410      3.259      9.604
REMARK  6 active torsions:
REMARK  status: ('A' for Active; 'I' for Inactive)
REMARK    1  A    between atoms: C2_2  and  C3_3 
REMARK       I    between atoms: C3_3  and  N1_5 
REMARK    2  A    between atoms: N1_5  and  C4_7 
REMARK    3  A    between atoms: C7_12  and  C8_13 
REMARK    4  A    between atoms: C10_16  and  N3_17 
REMARK    5  A    between atoms: N3_17  and  C11_19 
REMARK    6  A    between atoms: C14_22  and  C15_23 
ROOT
HETATM    1  C8  UNL     1       2.303   4.223  34.712  1.00  0.00     0.060 A 
HETATM    2  C9  UNL     1       1.933   2.909  34.903  1.00  0.00     0.084 A 
HETATM    3  S1  UNL     1       1.014   2.624  33.499  1.00  0.00    -0.063 SA
HETATM    4  C10 UNL     1       1.152   4.158  32.765  1.00  0.00     0.149 A 
HETATM    5  N4  UNL     1       1.905   4.816  33.649  1.00  0.00    -0.335 N 
ATOM      6  H4  UNL     1       2.162   5.788  33.479  1.00  0.00     0.168 HD
ENDROOT
BRANCH   1   7
HETATM    7  C7  UNL     1       3.151   4.904  35.733  1.00  0.00     0.058 A 
HETATM    8  C5  UNL     1       3.091   4.829  37.097  1.00  0.00     0.027 A 
HETATM    9  N2  UNL     1       3.950   5.526  37.773  1.00  0.00    -0.339 N 
HETATM   10  C6  UNL     1       2.049   3.958  37.772  1.00  0.00     0.070 C 
HETATM   11  C4  UNL     1       4.841   6.273  37.137  1.00  0.00     0.152 A 
ATOM     12  H2  UNL     1       3.940   5.499  38.792  1.00  0.00     0.168 HD
HETATM   13  S2  UNL     1       4.446   5.977  35.494  1.00  0.00    -0.050 SA
BRANCH  11  14
HETATM   14  N1  UNL     1       5.869   7.112  37.687  1.00  0.00    -0.307 N 
HETATM   15  C3  UNL     1       5.516   7.981  38.742  1.00  0.00     0.223 C 
HETATM   16  O1  UNL     1       4.330   7.981  39.147  1.00  0.00    -0.273 OA
ATOM     17  H1  UNL     1       6.822   7.081  37.326  1.00  0.00     0.171 HD
BRANCH  15  18
HETATM   18  C2  UNL     1       6.487   8.884  39.379  1.00  0.00     0.099 C 
HETATM   19  C1  UNL     1       7.880   8.305  39.415  1.00  0.00     0.014 C 
ENDBRANCH  15  18
ENDBRANCH  11  14
ENDBRANCH   1   7
BRANCH   4  20
HETATM   20  N3  UNL     1       0.644   4.670  31.547  1.00  0.00    -0.337 N 
ATOM     21  H3  UNL     1       1.099   4.380  30.681  1.00  0.00     0.168 HD
BRANCH  20  22
HETATM   22  C11 UNL     1      -0.447   5.551  31.453  1.00  0.00     0.034 A 
HETATM   23  C12 UNL     1      -1.172   5.826  30.326  1.00  0.00     0.030 A 
HETATM   24  C13 UNL     1      -2.233   6.741  30.298  1.00  0.00     0.020 A 
HETATM   25  C14 UNL     1      -2.598   7.416  31.426  1.00  0.00     0.041 A 
HETATM   26  C16 UNL     1      -1.879   7.152  32.572  1.00  0.00     0.020 A 
HETATM   27  C17 UNL     1      -0.843   6.260  32.607  1.00  0.00     0.030 A 
BRANCH  25  28
HETATM   28  C15 UNL     1      -3.688   8.381  31.471  1.00  0.00     0.209 C 
HETATM   29  O2  UNL     1      -4.612   8.304  30.616  1.00  0.00    -0.644 OA
HETATM   30  O3  UNL     1      -3.770   9.380  32.403  1.00  0.00    -0.644 OA
ENDBRANCH  25  28
ENDBRANCH  20  22
ENDBRANCH   4  20
TORSDOF 6
ENDMDL
