MODEL 1
REMARK VINA RESULT: -8.521595334      0.000      0.000
REMARK  6 active torsions:
REMARK  status: ('A' for Active; 'I' for Inactive)
REMARK    1  A    between atoms: C2_2  and  C3_3 
REMARK       I    between atoms: C3_3  and  N1_5 
REMARK    2  A    between atoms: N1_5  and  C4_7 
REMARK    3  A    between atoms: C7_12  and  C8_13 
REMARK    4  A    between atoms: C10_16  and  N3_17 
REMARK    5  A    between atoms: N3_17  and  C11_19 
REMARK    6  A    between atoms: C14_22  and  C15_23 
ROOT
HETATM    1  C8  UNL     1      -0.097   6.020  32.187  1.00  0.00     0.060 A 
HETATM    2  C9  UNL     1       1.126   6.402  31.681  1.00  0.00     0.084 A 
HETATM    3  S1  UNL     1       2.147   5.239  32.391  1.00  0.00    -0.063 SA
HETATM    4  C10 UNL     1       0.984   4.354  33.271  1.00  0.00     0.149 A 
HETATM    5  N4  UNL     1      -0.140   5.007  32.969  1.00  0.00    -0.335 N 
ATOM      6  H4  UNL     1      -1.030   4.700  33.360  1.00  0.00     0.168 HD
ENDROOT
BRANCH   1   7
HETATM    7  C7  UNL     1      -1.321   6.786  31.809  1.00  0.00     0.058 A 
HETATM    8  C5  UNL     1      -2.191   7.475  32.606  1.00  0.00     0.027 A 
HETATM    9  N2  UNL     1      -3.191   8.065  32.031  1.00  0.00    -0.339 N 
HETATM   10  C6  UNL     1      -1.975   7.533  34.106  1.00  0.00     0.070 C 
HETATM   11  C4  UNL     1      -3.338   7.985  30.716  1.00  0.00     0.152 A 
ATOM     12  H2  UNL     1      -3.864   8.590  32.589  1.00  0.00     0.168 HD
HETATM   13  S2  UNL     1      -1.991   7.024  30.265  1.00  0.00    -0.050 SA
BRANCH  11  14
HETATM   14  N1  UNL     1      -4.363   8.556  29.888  1.00  0.00    -0.307 N 
HETATM   15  C3  UNL     1      -5.612   8.834  30.483  1.00  0.00     0.223 C 
HETATM   16  O1  UNL     1      -5.769   8.571  31.698  1.00  0.00    -0.273 OA
ATOM     17  H1  UNL     1      -4.193   8.754  28.902  1.00  0.00     0.171 HD
BRANCH  15  18
HETATM   18  C2  UNL     1      -6.734   9.419  29.730  1.00  0.00     0.099 C 
HETATM   19  C1  UNL     1      -6.290  10.501  28.778  1.00  0.00     0.014 C 
ENDBRANCH  15  18
ENDBRANCH  11  14
ENDBRANCH   1   7
BRANCH   4  20
HETATM   20  N3  UNL     1       1.099   3.219  34.108  1.00  0.00    -0.337 N 
ATOM     21  H3  UNL     1       0.796   2.319  33.736  1.00  0.00     0.168 HD
BRANCH  20  22
HETATM   22  C11 UNL     1       1.602   3.251  35.420  1.00  0.00     0.034 A 
HETATM   23  C12 UNL     1       1.824   4.368  36.177  1.00  0.00     0.030 A 
HETATM   24  C13 UNL     1       2.357   4.329  37.472  1.00  0.00     0.020 A 
HETATM   25  C14 UNL     1       2.688   3.138  38.050  1.00  0.00     0.041 A 
HETATM   26  C16 UNL     1       2.472   2.000  37.302  1.00  0.00     0.020 A 
HETATM   27  C17 UNL     1       1.951   2.031  36.039  1.00  0.00     0.030 A 
BRANCH  25  28
HETATM   28  C15 UNL     1       3.247   3.020  39.390  1.00  0.00     0.209 C 
HETATM   29  O2  UNL     1       4.118   3.850  39.767  1.00  0.00    -0.644 OA
HETATM   30  O3  UNL     1       2.875   2.045  40.276  1.00  0.00    -0.644 OA
ENDBRANCH  25  28
ENDBRANCH  20  22
ENDBRANCH   4  20
TORSDOF 6
ENDMDL
