MODEL 16
REMARK VINA RESULT: -7.518297504      7.206      9.515
REMARK  6 active torsions:
REMARK  status: ('A' for Active; 'I' for Inactive)
REMARK    1  A    between atoms: C2_2  and  C3_3 
REMARK       I    between atoms: C3_3  and  N1_5 
REMARK    2  A    between atoms: N1_5  and  C4_7 
REMARK    3  A    between atoms: C7_12  and  C8_13 
REMARK    4  A    between atoms: C10_16  and  N3_17 
REMARK    5  A    between atoms: N3_17  and  C11_19 
REMARK    6  A    between atoms: C14_22  and  C15_23 
ROOT
HETATM    1  C8  UNL     1       1.903   2.527  36.634  1.00  0.00     0.060 A 
HETATM    2  C9  UNL     1       2.321   2.346  35.334  1.00  0.00     0.084 A 
HETATM    3  S1  UNL     1       1.285   1.093  34.831  1.00  0.00    -0.063 SA
HETATM    4  C10 UNL     1       0.397   0.877  36.272  1.00  0.00     0.149 A 
HETATM    5  N4  UNL     1       0.952   1.790  37.072  1.00  0.00    -0.335 N 
ATOM      6  H4  UNL     1       0.619   1.900  38.030  1.00  0.00     0.168 HD
ENDROOT
BRANCH   1   7
HETATM    7  C7  UNL     1       2.557   3.568  37.479  1.00  0.00     0.058 A 
HETATM    8  C5  UNL     1       2.996   3.483  38.770  1.00  0.00     0.027 A 
HETATM    9  N2  UNL     1       3.538   4.541  39.289  1.00  0.00    -0.339 N 
HETATM   10  C6  UNL     1       2.845   2.190  39.548  1.00  0.00     0.070 C 
HETATM   11  C4  UNL     1       3.647   5.648  38.569  1.00  0.00     0.152 A 
ATOM     12  H2  UNL     1       3.879   4.520  40.249  1.00  0.00     0.168 HD
HETATM   13  S2  UNL     1       2.947   5.173  37.077  1.00  0.00    -0.050 SA
BRANCH  11  14
HETATM   14  N1  UNL     1       4.207   6.916  38.945  1.00  0.00    -0.307 N 
HETATM   15  C3  UNL     1       5.434   7.294  38.359  1.00  0.00     0.223 C 
HETATM   16  O1  UNL     1       5.975   6.511  37.544  1.00  0.00    -0.273 OA
ATOM     17  H1  UNL     1       3.733   7.523  39.614  1.00  0.00     0.171 HD
BRANCH  15  18
HETATM   18  C2  UNL     1       6.099   8.569  38.671  1.00  0.00     0.099 C 
HETATM   19  C1  UNL     1       7.368   8.381  39.465  1.00  0.00     0.014 C 
ENDBRANCH  15  18
ENDBRANCH  11  14
ENDBRANCH   1   7
BRANCH   4  20
HETATM   20  N3  UNL     1      -0.661  -0.002  36.605  1.00  0.00    -0.337 N 
ATOM     21  H3  UNL     1      -1.557   0.408  36.869  1.00  0.00     0.168 HD
BRANCH  20  22
HETATM   22  C11 UNL     1      -0.558  -1.404  36.596  1.00  0.00     0.034 A 
HETATM   23  C12 UNL     1      -0.770  -2.225  35.523  1.00  0.00     0.030 A 
HETATM   24  C13 UNL     1      -0.678  -3.622  35.591  1.00  0.00     0.020 A 
HETATM   25  C14 UNL     1      -0.363  -4.239  36.767  1.00  0.00     0.041 A 
HETATM   26  C16 UNL     1      -0.146  -3.427  37.860  1.00  0.00     0.020 A 
HETATM   27  C17 UNL     1      -0.233  -2.064  37.800  1.00  0.00     0.030 A 
BRANCH  25  28
HETATM   28  C15 UNL     1      -0.250  -5.684  36.914  1.00  0.00     0.209 C 
HETATM   29  O2  UNL     1      -1.300  -6.370  37.055  1.00  0.00    -0.644 OA
HETATM   30  O3  UNL     1       0.945  -6.349  36.907  1.00  0.00    -0.644 OA
ENDBRANCH  25  28
ENDBRANCH  20  22
ENDBRANCH   4  20
TORSDOF 6
ENDMDL
