MODEL 2
REMARK VINA RESULT: -9.275848253      0.603      1.085
REMARK  13 active torsions:
REMARK  status: ('A' for Active; 'I' for Inactive)
REMARK    1  A    between atoms: O1_2  and  C2_3 
REMARK    2  A    between atoms: C2_3  and  C3_4 
REMARK    3  A    between atoms: C2_3  and  C17_27 
REMARK    4  A    between atoms: C3_4  and  C4_5 
REMARK    5  A    between atoms: C4_5  and  C5_6 
REMARK    6  A    between atoms: C4_5  and  C16_21 
REMARK    7  A    between atoms: C5_6  and  C6_7 
REMARK    8  A    between atoms: C6_7  and  C7_8 
REMARK    9  A    between atoms: C7_8  and  C8_9 
REMARK   10  A    between atoms: C8_9  and  N1_10 
REMARK   11  A    between atoms: N1_10  and  C9_13 
REMARK   12  A    between atoms: C9_13  and  C10_14 
REMARK       I    between atoms: C16_21  and  N2_23 
REMARK   13  A    between atoms: N2_23  and  O3_25 
ROOT
HETATM    1  C4  UNL     1      17.670  18.917  26.358  1.00  0.00     0.082 C 
ENDROOT
BRANCH   1   2
HETATM    2  C3  UNL     1      18.493  17.686  26.198  1.00  0.00     0.051 C 
BRANCH   2   3
HETATM    3  C2  UNL     1      18.849  16.928  27.413  1.00  0.00     0.154 C 
BRANCH   3   4
HETATM    4  O1  UNL     1      19.076  15.582  27.006  1.00  0.00    -0.386 OA
HETATM    5  C1  UNL     1      18.761  14.692  28.021  1.00  0.00     0.202 C 
ENDBRANCH   3   4
BRANCH   3   6
HETATM    6  C17 UNL     1      20.086  17.324  28.093  1.00  0.00    -0.029 A 
HETATM    7  C18 UNL     1      21.263  17.433  27.376  1.00  0.00     0.013 A 
HETATM    8  C19 UNL     1      22.427  17.788  27.984  1.00  0.00     0.043 A 
HETATM    9  C20 UNL     1      22.425  18.044  29.349  1.00  0.00     0.116 A 
HETATM   10  F2  UNL     1      23.562  18.396  29.975  1.00  0.00    -0.206 F 
HETATM   11  C21 UNL     1      21.267  17.940  30.074  1.00  0.00     0.043 A 
HETATM   12  C22 UNL     1      20.112  17.584  29.450  1.00  0.00     0.013 A 
ENDBRANCH   3   6
ENDBRANCH   2   3
ENDBRANCH   1   2
BRANCH   1  13
HETATM   13  C5  UNL     1      18.635  20.062  26.686  1.00  0.00     0.014 C 
BRANCH  13  14
HETATM   14  C6  UNL     1      19.601  20.381  25.600  1.00  0.00     0.002 C 
BRANCH  14  15
HETATM   15  C7  UNL     1      20.876  20.859  26.310  1.00  0.00     0.027 C 
BRANCH  15  16
HETATM   16  C8  UNL     1      22.115  20.590  25.491  1.00  0.00     0.232 C 
BRANCH  16  17
HETATM   17  N1  UNL     1      22.316  21.710  24.603  1.00  0.00    -0.071 N 
ATOM     18  H12 UNL     1      22.081  21.482  23.637  1.00  0.00     0.277 HD
ATOM     19  H11 UNL     1      21.628  22.447  24.751  1.00  0.00     0.277 HD
BRANCH  17  20
HETATM   20  C9  UNL     1      23.659  22.193  24.732  1.00  0.00     0.270 C 
BRANCH  20  21
HETATM   21  C10 UNL     1      23.818  23.000  25.960  1.00  0.00    -0.033 A 
HETATM   22  C11 UNL     1      23.083  24.169  26.121  1.00  0.00     0.012 A 
HETATM   23  C12 UNL     1      23.194  24.956  27.253  1.00  0.00     0.043 A 
HETATM   24  C13 UNL     1      24.055  24.567  28.238  1.00  0.00     0.116 A 
HETATM   25  F1  UNL     1      24.176  25.325  29.350  1.00  0.00    -0.206 F 
HETATM   26  C14 UNL     1      24.811  23.419  28.136  1.00  0.00     0.043 A 
HETATM   27  C15 UNL     1      24.676  22.653  26.991  1.00  0.00     0.012 A 
ENDBRANCH  20  21
ENDBRANCH  17  20
ENDBRANCH  16  17
ENDBRANCH  15  16
ENDBRANCH  14  15
ENDBRANCH  13  14
ENDBRANCH   1  13
BRANCH   1  28
HETATM   28  C16 UNL     1      16.833  18.825  27.596  1.00  0.00     0.245 C 
HETATM   29  O2  UNL     1      17.136  19.302  28.703  1.00  0.00    -0.271 OA
HETATM   30  N2  UNL     1      15.559  18.143  27.558  1.00  0.00    -0.237 N 
ATOM     31  H2  UNL     1      15.241  17.723  26.685  1.00  0.00     0.197 HD
BRANCH  30  32
HETATM   32  O3  UNL     1      14.783  18.051  28.661  1.00  0.00    -0.287 OA
ATOM     33  H3  UNL     1      15.154  18.144  29.531  1.00  0.00     0.244 HD
ENDBRANCH  30  32
ENDBRANCH   1  28
TORSDOF 13
ENDMDL
