MODEL 3
REMARK VINA RESULT: -9.084563503      2.409      4.491
REMARK  13 active torsions:
REMARK  status: ('A' for Active; 'I' for Inactive)
REMARK    1  A    between atoms: O1_2  and  C2_3 
REMARK    2  A    between atoms: C2_3  and  C3_4 
REMARK    3  A    between atoms: C2_3  and  C17_27 
REMARK    4  A    between atoms: C3_4  and  C4_5 
REMARK    5  A    between atoms: C4_5  and  C5_6 
REMARK    6  A    between atoms: C4_5  and  C16_21 
REMARK    7  A    between atoms: C5_6  and  C6_7 
REMARK    8  A    between atoms: C6_7  and  C7_8 
REMARK    9  A    between atoms: C7_8  and  C8_9 
REMARK   10  A    between atoms: C8_9  and  N1_10 
REMARK   11  A    between atoms: N1_10  and  C9_13 
REMARK   12  A    between atoms: C9_13  and  C10_14 
REMARK       I    between atoms: C16_21  and  N2_23 
REMARK   13  A    between atoms: N2_23  and  O3_25 
ROOT
HETATM    1  C4  UNL     1      17.755  18.956  26.334  1.00  0.00     0.082 C 
ENDROOT
BRANCH   1   2
HETATM    2  C3  UNL     1      18.616  17.752  26.172  1.00  0.00     0.051 C 
BRANCH   2   3
HETATM    3  C2  UNL     1      18.959  16.978  27.381  1.00  0.00     0.154 C 
BRANCH   3   4
HETATM    4  O1  UNL     1      19.142  15.628  26.966  1.00  0.00    -0.386 OA
HETATM    5  C1  UNL     1      18.736  14.742  27.952  1.00  0.00     0.202 C 
ENDBRANCH   3   4
BRANCH   3   6
HETATM    6  C17 UNL     1      20.212  17.335  28.053  1.00  0.00    -0.029 A 
HETATM    7  C18 UNL     1      20.209  17.639  29.401  1.00  0.00     0.013 A 
HETATM    8  C19 UNL     1      21.357  17.985  30.047  1.00  0.00     0.043 A 
HETATM    9  C20 UNL     1      22.546  18.031  29.332  1.00  0.00     0.116 A 
HETATM   10  F2  UNL     1      23.694  18.369  29.945  1.00  0.00    -0.206 F 
HETATM   11  C21 UNL     1      22.566  17.732  27.995  1.00  0.00     0.043 A 
HETATM   12  C22 UNL     1      21.410  17.389  27.365  1.00  0.00     0.013 A 
ENDBRANCH   3   6
ENDBRANCH   2   3
ENDBRANCH   1   2
BRANCH   1  13
HETATM   13  C5  UNL     1      18.683  20.132  26.661  1.00  0.00     0.014 C 
BRANCH  13  14
HETATM   14  C6  UNL     1      19.862  20.251  25.761  1.00  0.00     0.002 C 
BRANCH  14  15
HETATM   15  C7  UNL     1      21.009  20.755  26.650  1.00  0.00     0.027 C 
BRANCH  15  16
HETATM   16  C8  UNL     1      21.863  21.781  25.944  1.00  0.00     0.232 C 
BRANCH  16  17
HETATM   17  N1  UNL     1      23.076  21.131  25.509  1.00  0.00    -0.071 N 
ATOM     18  H12 UNL     1      23.894  21.463  26.020  1.00  0.00     0.277 HD
ATOM     19  H11 UNL     1      23.112  20.153  25.794  1.00  0.00     0.277 HD
BRANCH  17  20
HETATM   20  C9  UNL     1      23.225  21.286  24.093  1.00  0.00     0.270 C 
BRANCH  20  21
HETATM   21  C10 UNL     1      22.802  20.064  23.377  1.00  0.00    -0.033 A 
HETATM   22  C11 UNL     1      22.293  20.158  22.087  1.00  0.00     0.012 A 
HETATM   23  C12 UNL     1      21.888  19.044  21.375  1.00  0.00     0.043 A 
HETATM   24  C13 UNL     1      21.992  17.817  21.964  1.00  0.00     0.116 A 
HETATM   25  F1  UNL     1      21.599  16.718  21.283  1.00  0.00    -0.206 F 
HETATM   26  C14 UNL     1      22.488  17.660  23.241  1.00  0.00     0.043 A 
HETATM   27  C15 UNL     1      22.886  18.795  23.926  1.00  0.00     0.012 A 
ENDBRANCH  20  21
ENDBRANCH  17  20
ENDBRANCH  16  17
ENDBRANCH  15  16
ENDBRANCH  14  15
ENDBRANCH  13  14
ENDBRANCH   1  13
BRANCH   1  28
HETATM   28  C16 UNL     1      16.923  18.837  27.573  1.00  0.00     0.245 C 
HETATM   29  O2  UNL     1      17.227  19.297  28.687  1.00  0.00    -0.271 OA
HETATM   30  N2  UNL     1      15.653  18.149  27.527  1.00  0.00    -0.237 N 
ATOM     31  H2  UNL     1      15.334  17.744  26.648  1.00  0.00     0.197 HD
BRANCH  30  32
HETATM   32  O3  UNL     1      14.881  18.033  28.631  1.00  0.00    -0.287 OA
ATOM     33  H3  UNL     1      14.058  17.559  28.607  1.00  0.00     0.244 HD
ENDBRANCH  30  32
ENDBRANCH   1  28
TORSDOF 13
ENDMDL
