MODEL 6
REMARK VINA RESULT: -8.888184695      5.535      8.863
REMARK  13 active torsions:
REMARK  status: ('A' for Active; 'I' for Inactive)
REMARK    1  A    between atoms: O1_2  and  C2_3 
REMARK    2  A    between atoms: C2_3  and  C3_4 
REMARK    3  A    between atoms: C2_3  and  C17_27 
REMARK    4  A    between atoms: C3_4  and  C4_5 
REMARK    5  A    between atoms: C4_5  and  C5_6 
REMARK    6  A    between atoms: C4_5  and  C16_21 
REMARK    7  A    between atoms: C5_6  and  C6_7 
REMARK    8  A    between atoms: C6_7  and  C7_8 
REMARK    9  A    between atoms: C7_8  and  C8_9 
REMARK   10  A    between atoms: C8_9  and  N1_10 
REMARK   11  A    between atoms: N1_10  and  C9_13 
REMARK   12  A    between atoms: C9_13  and  C10_14 
REMARK       I    between atoms: C16_21  and  N2_23 
REMARK   13  A    between atoms: N2_23  and  O3_25 
ROOT
HETATM    1  C4  UNL     1      16.938  19.336  26.171  1.00  0.00     0.082 C 
ENDROOT
BRANCH   1   2
HETATM    2  C3  UNL     1      18.216  20.046  26.455  1.00  0.00     0.051 C 
BRANCH   2   3
HETATM    3  C2  UNL     1      19.477  19.302  26.268  1.00  0.00     0.154 C 
BRANCH   3   4
HETATM    4  O1  UNL     1      20.382  20.185  25.612  1.00  0.00    -0.386 OA
HETATM    5  C1  UNL     1      20.404  19.955  24.245  1.00  0.00     0.202 C 
ENDBRANCH   3   4
BRANCH   3   6
HETATM    6  C17 UNL     1      20.179  18.889  27.487  1.00  0.00    -0.029 A 
HETATM    7  C18 UNL     1      21.434  19.398  27.766  1.00  0.00     0.013 A 
HETATM    8  C19 UNL     1      22.113  19.021  28.885  1.00  0.00     0.043 A 
HETATM    9  C20 UNL     1      21.529  18.111  29.755  1.00  0.00     0.116 A 
HETATM   10  F2  UNL     1      22.177  17.722  30.868  1.00  0.00    -0.206 F 
HETATM   11  C21 UNL     1      20.285  17.598  29.492  1.00  0.00     0.043 A 
HETATM   12  C22 UNL     1      19.621  17.984  28.370  1.00  0.00     0.013 A 
ENDBRANCH   3   6
ENDBRANCH   2   3
ENDBRANCH   1   2
BRANCH   1  13
HETATM   13  C5  UNL     1      16.054  20.303  25.376  1.00  0.00     0.014 C 
BRANCH  13  14
HETATM   14  C6  UNL     1      16.338  21.742  25.627  1.00  0.00     0.002 C 
BRANCH  14  15
HETATM   15  C7  UNL     1      15.056  22.490  25.233  1.00  0.00     0.027 C 
BRANCH  15  16
HETATM   16  C8  UNL     1      13.827  21.868  25.850  1.00  0.00     0.232 C 
BRANCH  16  17
HETATM   17  N1  UNL     1      12.666  22.529  25.301  1.00  0.00    -0.071 N 
ATOM     18  H12 UNL     1      12.816  23.531  25.182  1.00  0.00     0.277 HD
ATOM     19  H11 UNL     1      12.513  22.286  24.323  1.00  0.00     0.277 HD
BRANCH  17  20
HETATM   20  C9  UNL     1      11.521  22.247  26.113  1.00  0.00     0.270 C 
BRANCH  20  21
HETATM   21  C10 UNL     1      10.496  21.507  25.347  1.00  0.00    -0.033 A 
HETATM   22  C11 UNL     1      10.404  21.676  23.970  1.00  0.00     0.012 A 
HETATM   23  C12 UNL     1       9.465  21.003  23.209  1.00  0.00     0.043 A 
HETATM   24  C13 UNL     1       8.604  20.150  23.836  1.00  0.00     0.116 A 
HETATM   25  F1  UNL     1       7.679  19.486  23.107  1.00  0.00    -0.206 F 
HETATM   26  C14 UNL     1       8.645  19.942  25.198  1.00  0.00     0.043 A 
HETATM   27  C15 UNL     1       9.598  20.629  25.931  1.00  0.00     0.012 A 
ENDBRANCH  20  21
ENDBRANCH  17  20
ENDBRANCH  16  17
ENDBRANCH  15  16
ENDBRANCH  14  15
ENDBRANCH  13  14
ENDBRANCH   1  13
BRANCH   1  28
HETATM   28  C16 UNL     1      16.161  19.139  27.435  1.00  0.00     0.245 C 
HETATM   29  O2  UNL     1      16.543  19.471  28.570  1.00  0.00    -0.271 OA
HETATM   30  N2  UNL     1      14.854  18.523  27.391  1.00  0.00    -0.237 N 
ATOM     31  H2  UNL     1      14.471  18.222  26.495  1.00  0.00     0.197 HD
BRANCH  30  32
HETATM   32  O3  UNL     1      14.130  18.340  28.518  1.00  0.00    -0.287 OA
ATOM     33  H3  UNL     1      13.260  18.709  28.608  1.00  0.00     0.244 HD
ENDBRANCH  30  32
ENDBRANCH   1  28
TORSDOF 13
ENDMDL
