MODEL 4
REMARK VINA RESULT: -8.974645021      5.499      8.771
REMARK  13 active torsions:
REMARK  status: ('A' for Active; 'I' for Inactive)
REMARK    1  A    between atoms: O1_2  and  C2_3 
REMARK    2  A    between atoms: C2_3  and  C3_4 
REMARK    3  A    between atoms: C2_3  and  C17_27 
REMARK    4  A    between atoms: C3_4  and  C4_5 
REMARK    5  A    between atoms: C4_5  and  C5_6 
REMARK    6  A    between atoms: C4_5  and  C16_21 
REMARK    7  A    between atoms: C5_6  and  C6_7 
REMARK    8  A    between atoms: C6_7  and  C7_8 
REMARK    9  A    between atoms: C7_8  and  C8_9 
REMARK   10  A    between atoms: C8_9  and  N1_10 
REMARK   11  A    between atoms: N1_10  and  C9_13 
REMARK   12  A    between atoms: C9_13  and  C10_14 
REMARK       I    between atoms: C16_21  and  N2_23 
REMARK   13  A    between atoms: N2_23  and  O3_25 
ROOT
HETATM    1  C4  UNL     1      17.099  19.263  26.336  1.00  0.00     0.082 C 
ENDROOT
BRANCH   1   2
HETATM    2  C3  UNL     1      18.496  19.218  26.851  1.00  0.00     0.051 C 
BRANCH   2   3
HETATM    3  C2  UNL     1      18.897  18.052  27.663  1.00  0.00     0.154 C 
BRANCH   3   4
HETATM    4  O1  UNL     1      19.198  17.000  26.751  1.00  0.00    -0.386 OA
HETATM    5  C1  UNL     1      19.017  15.759  27.340  1.00  0.00     0.202 C 
ENDBRANCH   3   4
BRANCH   3   6
HETATM    6  C17 UNL     1      20.111  18.203  28.470  1.00  0.00    -0.029 A 
HETATM    7  C18 UNL     1      21.180  18.929  27.978  1.00  0.00     0.013 A 
HETATM    8  C19 UNL     1      22.323  19.075  28.702  1.00  0.00     0.043 A 
HETATM    9  C20 UNL     1      22.410  18.483  29.954  1.00  0.00     0.116 A 
HETATM   10  F2  UNL     1      23.529  18.612  30.691  1.00  0.00    -0.206 F 
HETATM   11  C21 UNL     1      21.359  17.760  30.457  1.00  0.00     0.043 A 
HETATM   12  C22 UNL     1      20.224  17.624  29.720  1.00  0.00     0.013 A 
ENDBRANCH   3   6
ENDBRANCH   2   3
ENDBRANCH   1   2
BRANCH   1  13
HETATM   13  C5  UNL     1      16.883  20.661  25.746  1.00  0.00     0.014 C 
BRANCH  13  14
HETATM   14  C6  UNL     1      15.622  20.811  24.970  1.00  0.00     0.002 C 
BRANCH  14  15
HETATM   15  C7  UNL     1      14.982  22.114  25.472  1.00  0.00     0.027 C 
BRANCH  15  16
HETATM   16  C8  UNL     1      13.659  21.867  26.155  1.00  0.00     0.232 C 
BRANCH  16  17
HETATM   17  N1  UNL     1      12.610  22.344  25.285  1.00  0.00    -0.071 N 
ATOM     18  H12 UNL     1      12.821  23.264  24.897  1.00  0.00     0.277 HD
ATOM     19  H11 UNL     1      12.569  21.822  24.411  1.00  0.00     0.277 HD
BRANCH  17  20
HETATM   20  C9  UNL     1      11.359  22.327  25.983  1.00  0.00     0.270 C 
BRANCH  20  21
HETATM   21  C10 UNL     1      10.353  21.529  25.251  1.00  0.00    -0.033 A 
HETATM   22  C11 UNL     1      10.271  21.619  23.866  1.00  0.00     0.012 A 
HETATM   23  C12 UNL     1       9.350  20.891  23.136  1.00  0.00     0.043 A 
HETATM   24  C13 UNL     1       8.496  20.060  23.803  1.00  0.00     0.116 A 
HETATM   25  F1  UNL     1       7.589  19.341  23.105  1.00  0.00    -0.206 F 
HETATM   26  C14 UNL     1       8.529  19.928  25.175  1.00  0.00     0.043 A 
HETATM   27  C15 UNL     1       9.464  20.670  25.876  1.00  0.00     0.012 A 
ENDBRANCH  20  21
ENDBRANCH  17  20
ENDBRANCH  16  17
ENDBRANCH  15  16
ENDBRANCH  14  15
ENDBRANCH  13  14
ENDBRANCH   1  13
BRANCH   1  28
HETATM   28  C16 UNL     1      16.124  19.228  27.472  1.00  0.00     0.245 C 
HETATM   29  O2  UNL     1      16.102  20.030  28.421  1.00  0.00    -0.271 OA
HETATM   30  N2  UNL     1      15.102  18.207  27.517  1.00  0.00    -0.237 N 
ATOM     31  H2  UNL     1      15.056  17.511  26.773  1.00  0.00     0.197 HD
BRANCH  30  32
HETATM   32  O3  UNL     1      14.208  18.158  28.529  1.00  0.00    -0.287 OA
ATOM     33  H3  UNL     1      13.797  18.949  28.859  1.00  0.00     0.244 HD
ENDBRANCH  30  32
ENDBRANCH   1  28
TORSDOF 13
ENDMDL
