MODEL 1
REMARK VINA RESULT: -9.300998571      0.000      0.000
REMARK  13 active torsions:
REMARK  status: ('A' for Active; 'I' for Inactive)
REMARK    1  A    between atoms: O1_2  and  C2_3 
REMARK    2  A    between atoms: C2_3  and  C3_4 
REMARK    3  A    between atoms: C2_3  and  C17_27 
REMARK    4  A    between atoms: C3_4  and  C4_5 
REMARK    5  A    between atoms: C4_5  and  C5_6 
REMARK    6  A    between atoms: C4_5  and  C16_21 
REMARK    7  A    between atoms: C5_6  and  C6_7 
REMARK    8  A    between atoms: C6_7  and  C7_8 
REMARK    9  A    between atoms: C7_8  and  C8_9 
REMARK   10  A    between atoms: C8_9  and  N1_10 
REMARK   11  A    between atoms: N1_10  and  C9_13 
REMARK   12  A    between atoms: C9_13  and  C10_14 
REMARK       I    between atoms: C16_21  and  N2_23 
REMARK   13  A    between atoms: N2_23  and  O3_25 
ROOT
HETATM    1  C4  UNL     1      17.713  18.870  26.367  1.00  0.00     0.082 C 
ENDROOT
BRANCH   1   2
HETATM    2  C3  UNL     1      18.504  17.618  26.210  1.00  0.00     0.051 C 
BRANCH   2   3
HETATM    3  C2  UNL     1      18.874  16.876  27.431  1.00  0.00     0.154 C 
BRANCH   3   4
HETATM    4  O1  UNL     1      19.126  15.531  27.035  1.00  0.00    -0.386 OA
HETATM    5  C1  UNL     1      18.781  14.640  28.039  1.00  0.00     0.202 C 
ENDBRANCH   3   4
BRANCH   3   6
HETATM    6  C17 UNL     1      20.103  17.300  28.107  1.00  0.00    -0.029 A 
HETATM    7  C18 UNL     1      21.285  17.394  27.396  1.00  0.00     0.013 A 
HETATM    8  C19 UNL     1      22.443  17.775  28.002  1.00  0.00     0.043 A 
HETATM    9  C20 UNL     1      22.430  18.072  29.357  1.00  0.00     0.116 A 
HETATM   10  F2  UNL     1      23.560  18.450  29.981  1.00  0.00    -0.206 F 
HETATM   11  C21 UNL     1      21.267  17.983  30.078  1.00  0.00     0.043 A 
HETATM   12  C22 UNL     1      20.118  17.602  29.457  1.00  0.00     0.013 A 
ENDBRANCH   3   6
ENDBRANCH   2   3
ENDBRANCH   1   2
BRANCH   1  13
HETATM   13  C5  UNL     1      18.705  19.990  26.698  1.00  0.00     0.014 C 
BRANCH  13  14
HETATM   14  C6  UNL     1      19.701  20.264  25.626  1.00  0.00     0.002 C 
BRANCH  14  15
HETATM   15  C7  UNL     1      20.930  20.842  26.344  1.00  0.00     0.027 C 
BRANCH  15  16
HETATM   16  C8  UNL     1      22.191  20.672  25.533  1.00  0.00     0.232 C 
BRANCH  16  17
HETATM   17  N1  UNL     1      23.316  20.994  26.379  1.00  0.00    -0.071 N 
ATOM     18  H12 UNL     1      23.040  21.118  27.353  1.00  0.00     0.277 HD
ATOM     19  H11 UNL     1      23.942  20.199  26.504  1.00  0.00     0.277 HD
BRANCH  17  20
HETATM   20  C9  UNL     1      23.997  22.142  25.860  1.00  0.00     0.270 C 
BRANCH  20  21
HETATM   21  C10 UNL     1      23.956  23.264  26.821  1.00  0.00    -0.033 A 
HETATM   22  C11 UNL     1      24.817  23.272  27.913  1.00  0.00     0.012 A 
HETATM   23  C12 UNL     1      24.819  24.300  28.838  1.00  0.00     0.043 A 
HETATM   24  C13 UNL     1      23.946  25.335  28.667  1.00  0.00     0.116 A 
HETATM   25  F1  UNL     1      23.934  26.348  29.563  1.00  0.00    -0.206 F 
HETATM   26  C14 UNL     1      23.068  25.383  27.606  1.00  0.00     0.043 A 
HETATM   27  C15 UNL     1      23.092  24.338  26.697  1.00  0.00     0.012 A 
ENDBRANCH  20  21
ENDBRANCH  17  20
ENDBRANCH  16  17
ENDBRANCH  15  16
ENDBRANCH  14  15
ENDBRANCH  13  14
ENDBRANCH   1  13
BRANCH   1  28
HETATM   28  C16 UNL     1      16.868  18.801  27.602  1.00  0.00     0.245 C 
HETATM   29  O2  UNL     1      17.166  19.298  28.701  1.00  0.00    -0.271 OA
HETATM   30  N2  UNL     1      15.595  18.118  27.569  1.00  0.00    -0.237 N 
ATOM     31  H2  UNL     1      15.281  17.684  26.701  1.00  0.00     0.197 HD
BRANCH  30  32
HETATM   32  O3  UNL     1      14.812  18.047  28.668  1.00  0.00    -0.287 OA
ATOM     33  H3  UNL     1      14.017  17.526  28.672  1.00  0.00     0.244 HD
ENDBRANCH  30  32
ENDBRANCH   1  28
TORSDOF 13
ENDMDL
