MODEL 2
REMARK VINA RESULT: -7.464439423      2.896      6.679
REMARK  5 active torsions:
REMARK  status: ('A' for Active; 'I' for Inactive)
REMARK    1  A    between atoms: C1_2  and  C2_4 
REMARK    2  A    between atoms: C2_4  and  C3_5 
REMARK    3  A    between atoms: C3_5  and  C4_6 
REMARK    4  A    between atoms: C4_6  and  C5_7 
REMARK    5  A    between atoms: C5_7  and  C6_8 
ROOT
HETATM    1  C6  UNL     1      45.277 -47.081  66.220  1.00  0.00     0.072 C 
HETATM    2  S1  UNL     1      46.954 -46.336  66.313  1.00  0.00    -0.160 SA
HETATM    3  C7  UNL     1      47.089 -45.804  64.562  1.00  0.00     0.101 C 
HETATM    4  C8  UNL     1      45.909 -46.472  63.951  1.00  0.00     0.119 C 
HETATM    5  N1  UNL     1      45.370 -45.548  62.943  1.00  0.00    -0.336 N 
ATOM      6  H1  UNL     1      45.493 -45.587  61.931  1.00  0.00     0.164 HD
HETATM    7  C9  UNL     1      44.637 -44.589  63.695  1.00  0.00     0.316 C 
HETATM    8  O3  UNL     1      44.273 -43.466  63.241  1.00  0.00    -0.247 OA
HETATM    9  N2  UNL     1      44.400 -45.119  65.014  1.00  0.00    -0.335 N 
ATOM     10  H2  UNL     1      44.035 -44.620  65.825  1.00  0.00     0.164 HD
HETATM   11  C10 UNL     1      44.787 -46.495  64.942  1.00  0.00     0.123 C 
ENDROOT
BRANCH   1  12
HETATM   12  C5  UNL     1      44.466 -46.725  67.414  1.00  0.00     0.017 C 
BRANCH  12  13
HETATM   13  C4  UNL     1      45.399 -46.278  68.512  1.00  0.00     0.002 C 
BRANCH  13  14
HETATM   14  C3  UNL     1      45.334 -47.155  69.727  1.00  0.00     0.010 C 
BRANCH  14  15
HETATM   15  C2  UNL     1      45.712 -46.407  70.980  1.00  0.00     0.113 C 
BRANCH  15  16
HETATM   16  C1  UNL     1      44.620 -45.557  71.482  1.00  0.00     0.172 C 
HETATM   17  O1  UNL     1      43.502 -46.027  71.774  1.00  0.00    -0.648 OA
HETATM   18  O2  UNL     1      44.829 -44.208  71.638  1.00  0.00    -0.648 OA
ENDBRANCH  15  16
ENDBRANCH  14  15
ENDBRANCH  13  14
ENDBRANCH  12  13
ENDBRANCH   1  12
TORSDOF 5
ENDMDL
