MODEL 4
REMARK VINA RESULT: -7.151222821      3.185      6.690
REMARK  5 active torsions:
REMARK  status: ('A' for Active; 'I' for Inactive)
REMARK    1  A    between atoms: C1_2  and  C2_4 
REMARK    2  A    between atoms: C2_4  and  C3_5 
REMARK    3  A    between atoms: C3_5  and  C4_6 
REMARK    4  A    between atoms: C4_6  and  C5_7 
REMARK    5  A    between atoms: C5_7  and  C6_8 
ROOT
HETATM    1  C6  UNL     1      45.402 -46.184  66.603  1.00  0.00     0.072 C 
HETATM    2  S1  UNL     1      44.229 -46.932  65.404  1.00  0.00    -0.160 SA
HETATM    3  C7  UNL     1      44.917 -46.179  63.878  1.00  0.00     0.101 C 
HETATM    4  C8  UNL     1      45.871 -45.183  64.436  1.00  0.00     0.119 C 
HETATM    5  N1  UNL     1      47.037 -45.161  63.540  1.00  0.00    -0.336 N 
ATOM      6  H1  UNL     1      47.260 -44.472  62.823  1.00  0.00     0.164 HD
HETATM    7  C9  UNL     1      47.784 -46.316  63.901  1.00  0.00     0.316 C 
HETATM    8  O3  UNL     1      48.690 -46.824  63.178  1.00  0.00    -0.247 OA
HETATM    9  N2  UNL     1      47.331 -46.777  65.188  1.00  0.00    -0.335 N 
ATOM     10  H2  UNL     1      47.563 -47.658  65.648  1.00  0.00     0.164 HD
HETATM   11  C10 UNL     1      46.486 -45.735  65.685  1.00  0.00     0.123 C 
ENDROOT
BRANCH   1  12
HETATM   12  C5  UNL     1      45.830 -47.177  67.624  1.00  0.00     0.017 C 
BRANCH  12  13
HETATM   13  C4  UNL     1      45.069 -46.913  68.899  1.00  0.00     0.002 C 
BRANCH  13  14
HETATM   14  C3  UNL     1      45.961 -46.805  70.100  1.00  0.00     0.010 C 
BRANCH  14  15
HETATM   15  C2  UNL     1      45.194 -46.975  71.386  1.00  0.00     0.113 C 
BRANCH  15  16
HETATM   16  C1  UNL     1      44.220 -45.893  71.611  1.00  0.00     0.172 C 
HETATM   17  O1  UNL     1      42.997 -46.120  71.710  1.00  0.00    -0.648 OA
HETATM   18  O2  UNL     1      44.661 -44.596  71.716  1.00  0.00    -0.648 OA
ENDBRANCH  15  16
ENDBRANCH  14  15
ENDBRANCH  13  14
ENDBRANCH  12  13
ENDBRANCH   1  12
TORSDOF 5
ENDMDL
