MODEL 1
REMARK VINA RESULT: -7.710177854      0.000      0.000
REMARK  5 active torsions:
REMARK  status: ('A' for Active; 'I' for Inactive)
REMARK    1  A    between atoms: C1_2  and  C2_4 
REMARK    2  A    between atoms: C2_4  and  C3_5 
REMARK    3  A    between atoms: C3_5  and  C4_6 
REMARK    4  A    between atoms: C4_6  and  C5_7 
REMARK    5  A    between atoms: C5_7  and  C6_8 
ROOT
HETATM    1  C6  UNL     1      45.325 -47.152  69.256  1.00  0.00     0.072 C 
HETATM    2  S1  UNL     1      43.614 -46.492  69.152  1.00  0.00    -0.160 SA
HETATM    3  C7  UNL     1      43.478 -45.875  70.875  1.00  0.00     0.101 C 
HETATM    4  C8  UNL     1      44.697 -46.455  71.502  1.00  0.00     0.119 C 
HETATM    5  N1  UNL     1      45.206 -45.455  72.452  1.00  0.00    -0.336 N 
ATOM      6  H1  UNL     1      45.098 -45.446  73.466  1.00  0.00     0.164 HD
HETATM    7  C9  UNL     1      45.882 -44.504  71.639  1.00  0.00     0.316 C 
HETATM    8  O3  UNL     1      46.198 -43.343  72.028  1.00  0.00    -0.247 OA
HETATM    9  N2  UNL     1      46.125 -45.091  70.346  1.00  0.00    -0.335 N 
ATOM     10  H2  UNL     1      46.455 -44.618  69.503  1.00  0.00     0.164 HD
HETATM   11  C10 UNL     1      45.805 -46.477  70.495  1.00  0.00     0.123 C 
ENDROOT
BRANCH   1  12
HETATM   12  C5  UNL     1      46.102 -46.821  68.033  1.00  0.00     0.017 C 
BRANCH  12  13
HETATM   13  C4  UNL     1      45.148 -46.729  66.869  1.00  0.00     0.002 C 
BRANCH  13  14
HETATM   14  C3  UNL     1      45.714 -45.968  65.707  1.00  0.00     0.010 C 
BRANCH  14  15
HETATM   15  C2  UNL     1      44.666 -45.673  64.664  1.00  0.00     0.113 C 
BRANCH  15  16
HETATM   16  C1  UNL     1      45.051 -44.564  63.775  1.00  0.00     0.172 C 
HETATM   17  O1  UNL     1      46.139 -44.558  63.165  1.00  0.00    -0.648 OA
HETATM   18  O2  UNL     1      44.194 -43.504  63.606  1.00  0.00    -0.648 OA
ENDBRANCH  15  16
ENDBRANCH  14  15
ENDBRANCH  13  14
ENDBRANCH  12  13
ENDBRANCH   1  12
TORSDOF 5
ENDMDL
