MODEL 3
REMARK VINA RESULT: -7.151848879      3.892      7.225
REMARK  5 active torsions:
REMARK  status: ('A' for Active; 'I' for Inactive)
REMARK    1  A    between atoms: C1_2  and  C2_4 
REMARK    2  A    between atoms: C2_4  and  C3_5 
REMARK    3  A    between atoms: C3_5  and  C4_6 
REMARK    4  A    between atoms: C4_6  and  C5_7 
REMARK    5  A    between atoms: C5_7  and  C6_8 
ROOT
HETATM    1  C6  UNL     1      46.075 -45.509  65.322  1.00  0.00     0.072 C 
HETATM    2  S1  UNL     1      44.608 -46.074  64.371  1.00  0.00    -0.160 SA
HETATM    3  C7  UNL     1      45.119 -45.445  62.724  1.00  0.00     0.101 C 
HETATM    4  C8  UNL     1      46.296 -44.605  63.073  1.00  0.00     0.119 C 
HETATM    5  N1  UNL     1      47.274 -44.767  61.988  1.00  0.00    -0.336 N 
ATOM      6  H1  UNL     1      47.467 -44.125  61.220  1.00  0.00     0.164 HD
HETATM    7  C9  UNL     1      47.891 -46.021  62.250  1.00  0.00     0.316 C 
HETATM    8  O3  UNL     1      48.567 -46.666  61.397  1.00  0.00    -0.247 OA
HETATM    9  N2  UNL     1      47.610 -46.399  63.612  1.00  0.00    -0.335 N 
ATOM     10  H2  UNL     1      47.785 -47.303  64.052  1.00  0.00     0.164 HD
HETATM   11  C10 UNL     1      47.033 -45.237  64.213  1.00  0.00     0.123 C 
ENDROOT
BRANCH   1  12
HETATM   12  C5  UNL     1      46.523 -46.549  66.284  1.00  0.00     0.017 C 
BRANCH  12  13
HETATM   13  C4  UNL     1      46.142 -46.112  67.676  1.00  0.00     0.002 C 
BRANCH  13  14
HETATM   14  C3  UNL     1      44.895 -46.777  68.177  1.00  0.00     0.010 C 
BRANCH  14  15
HETATM   15  C2  UNL     1      44.886 -46.896  69.679  1.00  0.00     0.113 C 
BRANCH  15  16
HETATM   16  C1  UNL     1      43.600 -46.490  70.271  1.00  0.00     0.172 C 
HETATM   17  O1  UNL     1      42.513 -46.722  69.703  1.00  0.00    -0.648 OA
HETATM   18  O2  UNL     1      43.586 -45.840  71.481  1.00  0.00    -0.648 OA
ENDBRANCH  15  16
ENDBRANCH  14  15
ENDBRANCH  13  14
ENDBRANCH  12  13
ENDBRANCH   1  12
TORSDOF 5
ENDMDL
