MODEL 11
REMARK VINA RESULT: -5.754940550      3.282      5.098
REMARK  3 active torsions:
REMARK  status: ('A' for Active; 'I' for Inactive)
REMARK    1  A    between atoms: C1_2  and  C2_4 
REMARK    2  A    between atoms: C2_4  and  C3_6 
REMARK    3  A    between atoms: C3_6  and  C4_7 
ROOT
HETATM    1  C4  UNL     1      -8.743 -31.584  16.418  1.00  0.00    -0.056 A 
HETATM    2  C5  UNL     1      -8.979 -30.283  16.019  1.00  0.00     0.007 A 
HETATM    3  C6  UNL     1      -8.543 -29.779  14.823  1.00  0.00     0.001 A 
HETATM    4  C7  UNL     1      -7.841 -30.575  13.969  1.00  0.00     0.000 A 
HETATM    5  C8  UNL     1      -7.592 -31.884  14.347  1.00  0.00     0.001 A 
HETATM    6  C9  UNL     1      -8.035 -32.385  15.553  1.00  0.00     0.007 A 
ENDROOT
BRANCH   1   7
HETATM    7  C3  UNL     1      -9.259 -32.004  17.715  1.00  0.00     0.069 C 
BRANCH   7   8
HETATM    8  C2  UNL     1      -8.299 -31.850  18.855  1.00  0.00     0.187 C 
HETATM    9 CL1  UNL     1      -6.609 -32.024  18.337  1.00  0.00    -0.113 Cl
BRANCH   8  10
HETATM   10  C1  UNL     1      -8.580 -32.955  19.818  1.00  0.00     0.192 C 
HETATM   11  O1  UNL     1      -8.088 -34.100  19.701  1.00  0.00    -0.647 OA
HETATM   12  O2  UNL     1      -9.425 -32.759  20.922  1.00  0.00    -0.647 OA
ENDBRANCH   8  10
ENDBRANCH   7   8
ENDBRANCH   1   7
TORSDOF 3
ENDMDL
