MODEL 3
REMARK VINA RESULT: -6.755653782      0.912      1.642
REMARK  3 active torsions:
REMARK  status: ('A' for Active; 'I' for Inactive)
REMARK    1  A    between atoms: C1_2  and  C2_4 
REMARK    2  A    between atoms: C2_4  and  C3_6 
REMARK    3  A    between atoms: C3_6  and  C4_7 
ROOT
HETATM    1  C4  UNL     1      -8.624 -32.500  17.928  1.00  0.00    -0.056 A 
HETATM    2  C5  UNL     1      -9.500 -31.498  18.300  1.00  0.00     0.007 A 
HETATM    3  C6  UNL     1      -9.869 -31.275  19.599  1.00  0.00     0.001 A 
HETATM    4  C7  UNL     1      -9.366 -32.063  20.590  1.00  0.00     0.000 A 
HETATM    5  C8  UNL     1      -8.486 -33.074  20.242  1.00  0.00     0.001 A 
HETATM    6  C9  UNL     1      -8.118 -33.292  18.931  1.00  0.00     0.007 A 
ENDROOT
BRANCH   1   7
HETATM    7  C3  UNL     1      -8.307 -32.638  16.512  1.00  0.00     0.069 C 
BRANCH   7   8
HETATM    8  C2  UNL     1      -8.406 -31.372  15.717  1.00  0.00     0.187 C 
HETATM    9 CL1  UNL     1     -10.085 -30.820  15.541  1.00  0.00    -0.113 Cl
BRANCH   8  10
HETATM   10  C1  UNL     1      -7.896 -31.671  14.347  1.00  0.00     0.192 C 
HETATM   11  O1  UNL     1      -7.010 -32.527  14.124  1.00  0.00    -0.647 OA
HETATM   12  O2  UNL     1      -8.395 -30.994  13.222  1.00  0.00    -0.647 OA
ENDBRANCH   8  10
ENDBRANCH   7   8
ENDBRANCH   1   7
TORSDOF 3
ENDMDL
