MODEL 8
REMARK VINA RESULT: -6.264944431      3.595      5.041
REMARK  3 active torsions:
REMARK  status: ('A' for Active; 'I' for Inactive)
REMARK    1  A    between atoms: C1_2  and  C2_4 
REMARK    2  A    between atoms: C2_4  and  C3_6 
REMARK    3  A    between atoms: C3_6  and  C4_7 
ROOT
HETATM    1  C4  UNL     1      -8.853 -31.726  16.334  1.00  0.00    -0.056 A 
HETATM    2  C5  UNL     1      -7.996 -32.445  15.522  1.00  0.00     0.007 A 
HETATM    3  C6  UNL     1      -7.471 -31.942  14.362  1.00  0.00     0.001 A 
HETATM    4  C7  UNL     1      -7.791 -30.679  13.965  1.00  0.00     0.000 A 
HETATM    5  C8  UNL     1      -8.648 -29.938  14.763  1.00  0.00     0.001 A 
HETATM    6  C9  UNL     1      -9.173 -30.450  15.930  1.00  0.00     0.007 A 
ENDROOT
BRANCH   1   7
HETATM    7  C3  UNL     1      -9.346 -32.370  17.544  1.00  0.00     0.069 C 
BRANCH   7   8
HETATM    8  C2  UNL     1      -8.651 -31.959  18.806  1.00  0.00     0.187 C 
HETATM    9 CL1  UNL     1      -8.106 -33.356  19.757  1.00  0.00    -0.113 Cl
BRANCH   8  10
HETATM   10  C1  UNL     1      -9.647 -31.222  19.637  1.00  0.00     0.192 C 
HETATM   11  O1  UNL     1     -10.203 -31.727  20.639  1.00  0.00    -0.647 OA
HETATM   12  O2  UNL     1     -10.016 -29.902  19.330  1.00  0.00    -0.647 OA
ENDBRANCH   8  10
ENDBRANCH   7   8
ENDBRANCH   1   7
TORSDOF 3
ENDMDL
