MODEL 7
REMARK VINA RESULT: -6.322259449      3.600      5.217
REMARK  3 active torsions:
REMARK  status: ('A' for Active; 'I' for Inactive)
REMARK    1  A    between atoms: C1_2  and  C2_4 
REMARK    2  A    between atoms: C2_4  and  C3_6 
REMARK    3  A    between atoms: C3_6  and  C4_7 
ROOT
HETATM    1  C4  UNL     1      -8.802 -31.818  16.312  1.00  0.00    -0.056 A 
HETATM    2  C5  UNL     1      -9.153 -30.537  15.933  1.00  0.00     0.007 A 
HETATM    3  C6  UNL     1      -8.669 -29.935  14.802  1.00  0.00     0.001 A 
HETATM    4  C7  UNL     1      -7.801 -30.607  13.996  1.00  0.00     0.000 A 
HETATM    5  C8  UNL     1      -7.435 -31.894  14.355  1.00  0.00     0.001 A 
HETATM    6  C9  UNL     1      -7.926 -32.494  15.495  1.00  0.00     0.007 A 
ENDROOT
BRANCH   1   7
HETATM    7  C3  UNL     1      -9.384 -32.350  17.538  1.00  0.00     0.069 C 
BRANCH   7   8
HETATM    8  C2  UNL     1      -8.670 -31.959  18.796  1.00  0.00     0.187 C 
HETATM    9 CL1  UNL     1      -8.129 -33.372  19.726  1.00  0.00    -0.113 Cl
BRANCH   8  10
HETATM   10  C1  UNL     1      -9.649 -31.221  19.646  1.00  0.00     0.192 C 
HETATM   11  O1  UNL     1     -10.202 -31.733  20.646  1.00  0.00    -0.647 OA
HETATM   12  O2  UNL     1     -10.003 -29.893  19.360  1.00  0.00    -0.647 OA
ENDBRANCH   8  10
ENDBRANCH   7   8
ENDBRANCH   1   7
TORSDOF 3
ENDMDL
