MODEL 5
REMARK VINA RESULT: -6.709059979      1.311      1.500
REMARK  3 active torsions:
REMARK  status: ('A' for Active; 'I' for Inactive)
REMARK    1  A    between atoms: C1_2  and  C2_4 
REMARK    2  A    between atoms: C2_4  and  C3_6 
REMARK    3  A    between atoms: C3_6  and  C4_7 
ROOT
HETATM    1  C4  UNL     1      -9.103 -32.419  17.647  1.00  0.00    -0.056 A 
HETATM    2  C5  UNL     1      -8.354 -33.283  18.423  1.00  0.00     0.007 A 
HETATM    3  C6  UNL     1      -8.269 -33.179  19.785  1.00  0.00     0.001 A 
HETATM    4  C7  UNL     1      -8.942 -32.187  20.431  1.00  0.00     0.000 A 
HETATM    5  C8  UNL     1      -9.699 -31.307  19.675  1.00  0.00     0.001 A 
HETATM    6  C9  UNL     1      -9.781 -31.418  18.303  1.00  0.00     0.007 A 
ENDROOT
BRANCH   1   7
HETATM    7  C3  UNL     1      -9.114 -32.632  16.205  1.00  0.00     0.069 C 
BRANCH   7   8
HETATM    8  C2  UNL     1      -7.913 -32.107  15.480  1.00  0.00     0.187 C 
HETATM    9 CL1  UNL     1      -6.699 -31.438  16.590  1.00  0.00    -0.113 Cl
BRANCH   8  10
HETATM   10  C1  UNL     1      -8.379 -30.988  14.611  1.00  0.00     0.192 C 
HETATM   11  O1  UNL     1      -8.720 -29.872  15.064  1.00  0.00    -0.647 OA
HETATM   12  O2  UNL     1      -8.458 -31.136  13.216  1.00  0.00    -0.647 OA
ENDBRANCH   8  10
ENDBRANCH   7   8
ENDBRANCH   1   7
TORSDOF 3
ENDMDL
