MODEL 4
REMARK VINA RESULT: -6.723304647      1.144      1.911
REMARK  3 active torsions:
REMARK  status: ('A' for Active; 'I' for Inactive)
REMARK    1  A    between atoms: C1_2  and  C2_4 
REMARK    2  A    between atoms: C2_4  and  C3_6 
REMARK    3  A    between atoms: C3_6  and  C4_7 
ROOT
HETATM    1  C4  UNL     1      -9.088 -32.207  17.516  1.00  0.00    -0.056 A 
HETATM    2  C5  UNL     1      -9.780 -31.308  18.305  1.00  0.00     0.007 A 
HETATM    3  C6  UNL     1      -9.717 -31.314  19.673  1.00  0.00     0.001 A 
HETATM    4  C7  UNL     1      -8.944 -32.236  20.311  1.00  0.00     0.000 A 
HETATM    5  C8  UNL     1      -8.240 -33.148  19.541  1.00  0.00     0.001 A 
HETATM    6  C9  UNL     1      -8.309 -33.137  18.164  1.00  0.00     0.007 A 
ENDROOT
BRANCH   1   7
HETATM    7  C3  UNL     1      -9.237 -32.101  16.070  1.00  0.00     0.069 C 
BRANCH   7   8
HETATM    8  C2  UNL     1      -7.955 -31.927  15.316  1.00  0.00     0.187 C 
HETATM    9 CL1  UNL     1      -6.659 -31.270  16.337  1.00  0.00    -0.113 Cl
BRANCH   8  10
HETATM   10  C1  UNL     1      -8.212 -30.930  14.235  1.00  0.00     0.192 C 
HETATM   11  O1  UNL     1      -8.348 -29.706  14.458  1.00  0.00    -0.647 OA
HETATM   12  O2  UNL     1      -8.316 -31.326  12.892  1.00  0.00    -0.647 OA
ENDBRANCH   8  10
ENDBRANCH   7   8
ENDBRANCH   1   7
TORSDOF 3
ENDMDL
