MODEL 2
REMARK VINA RESULT: -7.668806926      0.106      1.643
REMARK  3 active torsions:
REMARK  status: ('A' for Active; 'I' for Inactive)
REMARK    1  A    between atoms: C1_2  and  C2_4 
REMARK    2  A    between atoms: C2_4  and  C3_6 
REMARK    3  A    between atoms: C3_6  and  C4_7 
ROOT
HETATM    1  C4  UNL     1      -8.938 -32.100  17.326  1.00  0.00    -0.056 A 
HETATM    2  C5  UNL     1      -9.705 -31.300  18.152  1.00  0.00     0.007 A 
HETATM    3  C6  UNL     1      -9.661 -31.379  19.518  1.00  0.00     0.001 A 
HETATM    4  C7  UNL     1      -8.832 -32.279  20.117  1.00  0.00     0.000 A 
HETATM    5  C8  UNL     1      -8.052 -33.092  19.310  1.00  0.00     0.001 A 
HETATM    6  C9  UNL     1      -8.102 -33.006  17.935  1.00  0.00     0.007 A 
ENDROOT
BRANCH   1   7
HETATM    7  C3  UNL     1      -9.074 -31.922  15.887  1.00  0.00     0.069 C 
BRANCH   7   8
HETATM    8  C2  UNL     1      -7.996 -31.102  15.248  1.00  0.00     0.187 C 
HETATM    9 CL1  UNL     1      -8.463 -29.397  15.075  1.00  0.00    -0.113 Cl
BRANCH   8  10
HETATM   10  C1  UNL     1      -7.788 -31.642  13.872  1.00  0.00     0.192 C 
HETATM   11  O1  UNL     1      -8.406 -31.212  12.873  1.00  0.00    -0.647 OA
HETATM   12  O2  UNL     1      -6.872 -32.679  13.630  1.00  0.00    -0.647 OA
ENDBRANCH   8  10
ENDBRANCH   7   8
ENDBRANCH   1   7
TORSDOF 3
ENDMDL
