MODEL 1
REMARK VINA RESULT: -7.698343668      0.000      0.000
REMARK  3 active torsions:
REMARK  status: ('A' for Active; 'I' for Inactive)
REMARK    1  A    between atoms: C1_2  and  C2_4 
REMARK    2  A    between atoms: C2_4  and  C3_6 
REMARK    3  A    between atoms: C3_6  and  C4_7 
ROOT
HETATM    1  C4  UNL     1      -9.063 -31.981  17.320  1.00  0.00    -0.056 A 
HETATM    2  C5  UNL     1      -8.211 -32.911  17.885  1.00  0.00     0.007 A 
HETATM    3  C6  UNL     1      -8.089 -33.086  19.238  1.00  0.00     0.001 A 
HETATM    4  C7  UNL     1      -8.828 -32.321  20.088  1.00  0.00     0.000 A 
HETATM    5  C8  UNL     1      -9.688 -31.381  19.546  1.00  0.00     0.001 A 
HETATM    6  C9  UNL     1      -9.807 -31.210  18.183  1.00  0.00     0.007 A 
ENDROOT
BRANCH   1   7
HETATM    7  C3  UNL     1      -9.104 -31.889  15.867  1.00  0.00     0.069 C 
BRANCH   7   8
HETATM    8  C2  UNL     1      -7.975 -31.122  15.251  1.00  0.00     0.187 C 
HETATM    9 CL1  UNL     1      -8.386 -29.413  14.995  1.00  0.00    -0.113 Cl
BRANCH   8  10
HETATM   10  C1  UNL     1      -7.719 -31.718  13.907  1.00  0.00     0.192 C 
HETATM   11  O1  UNL     1      -6.905 -32.650  13.721  1.00  0.00    -0.647 OA
HETATM   12  O2  UNL     1      -8.392 -31.253  12.766  1.00  0.00    -0.647 OA
ENDBRANCH   8  10
ENDBRANCH   7   8
ENDBRANCH   1   7
TORSDOF 3
ENDMDL
