MODEL 13
REMARK VINA RESULT: -6.518206134      3.531      4.781
REMARK  4 active torsions:
REMARK  status: ('A' for Active; 'I' for Inactive)
REMARK    1  A    between atoms: C2_2  and  C4_4 
REMARK    2  A    between atoms: C6_9  and  C7_10 
REMARK    3  A    between atoms: C8_13  and  C9_14 
REMARK    4  A    between atoms: C9_14  and  C10_15 
ROOT
HETATM    1  C4  UNL     1       0.468  35.675 103.133  1.00  0.00     0.046 C 
HETATM    2  C5  UNL     1      -0.082  34.444 103.775  1.00  0.00     0.242 C 
HETATM    3  N1  UNL     1       0.512  33.297 103.162  1.00  0.00    -0.060 N 
ATOM      4  H11 UNL     1      -0.175  32.621 102.831  1.00  0.00     0.278 HD
ATOM      5  H12 UNL     1       0.986  32.689 103.830  1.00  0.00     0.278 HD
HETATM    6  C6  UNL     1       1.373  33.769 102.129  1.00  0.00     0.291 C 
HETATM    7  C8  UNL     1       0.795  35.119 101.747  1.00  0.00     0.046 C 
ENDROOT
BRANCH   7   8
HETATM    8  C9  UNL     1      -0.442  34.892 100.942  1.00  0.00     0.121 C 
BRANCH   8   9
HETATM    9  C10 UNL     1      -0.126  34.850  99.494  1.00  0.00     0.172 C 
HETATM   10  O3  UNL     1      -1.025  34.487  98.700  1.00  0.00    -0.648 OA
HETATM   11  O4  UNL     1       1.117  35.195  98.996  1.00  0.00    -0.648 OA
ENDBRANCH   8   9
ENDBRANCH   7   8
BRANCH   1  12
HETATM   12  C2  UNL     1      -0.416  36.838 103.115  1.00  0.00    -0.087 C 
HETATM   13  C1  UNL     1      -1.571  36.846 103.727  1.00  0.00     0.014 C 
HETATM   14  C3  UNL     1      -0.005  38.073 102.361  1.00  0.00     0.043 C 
ENDBRANCH   1  12
BRANCH   6  15
HETATM   15  C7  UNL     1       2.750  33.895 102.656  1.00  0.00     0.205 C 
HETATM   16  O1  UNL     1       3.626  34.572 102.049  1.00  0.00    -0.646 OA
HETATM   17  O2  UNL     1       3.085  33.266 103.824  1.00  0.00    -0.646 OA
ENDBRANCH   6  15
TORSDOF 4
ENDMDL
