MODEL 14
REMARK VINA RESULT: -6.514818564      2.698      4.415
REMARK  4 active torsions:
REMARK  status: ('A' for Active; 'I' for Inactive)
REMARK    1  A    between atoms: C2_2  and  C4_4 
REMARK    2  A    between atoms: C6_9  and  C7_10 
REMARK    3  A    between atoms: C8_13  and  C9_14 
REMARK    4  A    between atoms: C9_14  and  C10_15 
ROOT
HETATM    1  C4  UNL     1       0.178  36.744 101.774  1.00  0.00     0.046 C 
HETATM    2  C5  UNL     1       1.502  36.110 102.050  1.00  0.00     0.242 C 
HETATM    3  N1  UNL     1       1.451  34.738 101.652  1.00  0.00    -0.060 N 
ATOM      4  H11 UNL     1       1.746  34.097 102.388  1.00  0.00     0.278 HD
ATOM      5  H12 UNL     1       2.169  34.494 100.969  1.00  0.00     0.278 HD
HETATM    6  C6  UNL     1       0.129  34.483 101.186  1.00  0.00     0.291 C 
HETATM    7  C8  UNL     1      -0.725  35.516 101.896  1.00  0.00     0.046 C 
ENDROOT
BRANCH   7   8
HETATM    8  C9  UNL     1      -0.889  35.095 103.319  1.00  0.00     0.121 C 
BRANCH   8   9
HETATM    9  C10 UNL     1      -2.323  34.959 103.666  1.00  0.00     0.172 C 
HETATM   10  O3  UNL     1      -3.142  34.757 102.738  1.00  0.00    -0.648 OA
HETATM   11  O4  UNL     1      -2.784  35.045 104.966  1.00  0.00    -0.648 OA
ENDBRANCH   8   9
ENDBRANCH   7   8
BRANCH   1  12
HETATM   12  C2  UNL     1      -0.198  37.849 102.651  1.00  0.00    -0.087 C 
HETATM   13  C1  UNL     1      -1.351  38.456 102.553  1.00  0.00     0.014 C 
HETATM   14  C3  UNL     1       0.769  38.328 103.701  1.00  0.00     0.043 C 
ENDBRANCH   1  12
BRANCH   6  15
HETATM   15  C7  UNL     1       0.084  34.655  99.716  1.00  0.00     0.205 C 
HETATM   16  O1  UNL     1      -1.014  34.735  99.098  1.00  0.00    -0.646 OA
HETATM   17  O2  UNL     1       1.253  34.730  99.010  1.00  0.00    -0.646 OA
ENDBRANCH   6  15
TORSDOF 4
ENDMDL
