MODEL 5
REMARK VINA RESULT: -6.854451949      1.293      1.792
REMARK  4 active torsions:
REMARK  status: ('A' for Active; 'I' for Inactive)
REMARK    1  A    between atoms: C2_2  and  C4_4 
REMARK    2  A    between atoms: C6_9  and  C7_10 
REMARK    3  A    between atoms: C8_13  and  C9_14 
REMARK    4  A    between atoms: C9_14  and  C10_15 
ROOT
HETATM    1  C4  UNL     1      -1.221  34.828 101.668  1.00  0.00     0.046 C 
HETATM    2  C5  UNL     1      -0.017  34.335 102.401  1.00  0.00     0.242 C 
HETATM    3  N1  UNL     1       0.006  34.921 103.704  1.00  0.00    -0.060 N 
ATOM      4  H11 UNL     1       0.891  35.378 103.921  1.00  0.00     0.278 HD
ATOM      5  H12 UNL     1       0.027  34.229 104.453  1.00  0.00     0.278 HD
HETATM    6  C6  UNL     1      -1.111  35.802 103.790  1.00  0.00     0.291 C 
HETATM    7  C8  UNL     1      -1.399  36.185 102.351  1.00  0.00     0.046 C 
ENDROOT
BRANCH   7   8
HETATM    8  C9  UNL     1      -0.360  37.162 101.907  1.00  0.00     0.121 C 
BRANCH   8   9
HETATM    9  C10 UNL     1      -0.620  38.503 102.482  1.00  0.00     0.172 C 
HETATM   10  O3  UNL     1       0.245  39.004 103.238  1.00  0.00    -0.648 OA
HETATM   11  O4  UNL     1      -1.774  39.215 102.212  1.00  0.00    -0.648 OA
ENDBRANCH   8   9
ENDBRANCH   7   8
BRANCH   1  12
HETATM   12  C2  UNL     1      -1.100  34.904 100.215  1.00  0.00    -0.087 C 
HETATM   13  C1  UNL     1      -2.132  35.104  99.439  1.00  0.00     0.014 C 
HETATM   14  C3  UNL     1       0.249  34.736  99.571  1.00  0.00     0.043 C 
ENDBRANCH   1  12
BRANCH   6  15
HETATM   15  C7  UNL     1      -2.254  35.086 104.402  1.00  0.00     0.205 C 
HETATM   16  O1  UNL     1      -2.076  34.104 105.175  1.00  0.00    -0.646 OA
HETATM   17  O2  UNL     1      -3.530  35.494 104.127  1.00  0.00    -0.646 OA
ENDBRANCH   6  15
TORSDOF 4
ENDMDL
