MODEL 4
REMARK VINA RESULT: -7.123877432      3.313      4.880
REMARK  4 active torsions:
REMARK  status: ('A' for Active; 'I' for Inactive)
REMARK    1  A    between atoms: C2_2  and  C4_4 
REMARK    2  A    between atoms: C6_9  and  C7_10 
REMARK    3  A    between atoms: C8_13  and  C9_14 
REMARK    4  A    between atoms: C9_14  and  C10_15 
ROOT
HETATM    1  C4  UNL     1      -0.319  36.835 101.740  1.00  0.00     0.046 C 
HETATM    2  C5  UNL     1      -1.154  37.373 102.856  1.00  0.00     0.242 C 
HETATM    3  N1  UNL     1      -0.332  38.180 103.702  1.00  0.00    -0.060 N 
ATOM      4  H11 UNL     1      -0.388  37.913 104.685  1.00  0.00     0.278 HD
ATOM      5  H12 UNL     1      -0.678  39.134 103.804  1.00  0.00     0.278 HD
HETATM    6  C6  UNL     1       0.994  38.121 103.184  1.00  0.00     0.291 C 
HETATM    7  C8  UNL     1       1.044  36.804 102.431  1.00  0.00     0.046 C 
ENDROOT
BRANCH   7   8
HETATM    8  C9  UNL     1       1.129  35.695 103.428  1.00  0.00     0.121 C 
BRANCH   8   9
HETATM    9  C10 UNL     1       2.517  35.186 103.532  1.00  0.00     0.172 C 
HETATM   10  O3  UNL     1       2.753  34.262 104.345  1.00  0.00    -0.648 OA
HETATM   11  O4  UNL     1       3.551  35.692 102.767  1.00  0.00    -0.648 OA
ENDBRANCH   8   9
ENDBRANCH   7   8
BRANCH   1  12
HETATM   12  C2  UNL     1      -0.738  35.549 101.191  1.00  0.00    -0.087 C 
HETATM   13  C1  UNL     1      -1.803  34.922 101.615  1.00  0.00     0.014 C 
HETATM   14  C3  UNL     1       0.081  34.902 100.106  1.00  0.00     0.043 C 
ENDBRANCH   1  12
BRANCH   6  15
HETATM   15  C7  UNL     1       1.221  39.273 102.282  1.00  0.00     0.205 C 
HETATM   16  O1  UNL     1       2.334  39.453 101.715  1.00  0.00    -0.646 OA
HETATM   17  O2  UNL     1       0.207  40.162 102.056  1.00  0.00    -0.646 OA
ENDBRANCH   6  15
TORSDOF 4
ENDMDL
