MODEL 1
REMARK VINA RESULT: -8.341274720      0.000      0.000
REMARK  4 active torsions:
REMARK  status: ('A' for Active; 'I' for Inactive)
REMARK    1  A    between atoms: C2_2  and  C4_4 
REMARK    2  A    between atoms: C6_9  and  C7_10 
REMARK    3  A    between atoms: C8_13  and  C9_14 
REMARK    4  A    between atoms: C9_14  and  C10_15 
ROOT
HETATM    1  C4  UNL     1      -1.101  34.305 102.548  1.00  0.00     0.046 C 
HETATM    2  C5  UNL     1      -0.395  33.639 103.683  1.00  0.00     0.242 C 
HETATM    3  N1  UNL     1      -0.995  34.056 104.912  1.00  0.00    -0.060 N 
ATOM      4  H11 UNL     1      -0.319  34.418 105.584  1.00  0.00     0.278 HD
ATOM      5  H12 UNL     1      -1.337  33.277 105.474  1.00  0.00     0.278 HD
HETATM    6  C6  UNL     1      -2.014  34.997 104.586  1.00  0.00     0.291 C 
HETATM    7  C8  UNL     1      -1.578  35.576 103.253  1.00  0.00     0.046 C 
ENDROOT
BRANCH   7   8
HETATM    8  C9  UNL     1      -0.449  36.523 103.498  1.00  0.00     0.121 C 
BRANCH   8   9
HETATM    9  C10 UNL     1      -0.939  37.920 103.564  1.00  0.00     0.172 C 
HETATM   10  O3  UNL     1      -1.976  38.155 104.228  1.00  0.00    -0.648 OA
HETATM   11  O4  UNL     1      -0.296  38.963 102.925  1.00  0.00    -0.648 OA
ENDBRANCH   8   9
ENDBRANCH   7   8
BRANCH   1  12
HETATM   12  C2  UNL     1      -0.301  34.552 101.352  1.00  0.00    -0.087 C 
HETATM   13  C1  UNL     1      -0.811  35.068 100.266  1.00  0.00     0.014 C 
HETATM   14  C3  UNL     1       1.161  34.194 101.349  1.00  0.00     0.043 C 
ENDBRANCH   1  12
BRANCH   6  15
HETATM   15  C7  UNL     1      -3.313  34.296 104.476  1.00  0.00     0.205 C 
HETATM   16  O1  UNL     1      -4.252  34.761 103.771  1.00  0.00    -0.646 OA
HETATM   17  O2  UNL     1      -3.505  33.121 105.150  1.00  0.00    -0.646 OA
ENDBRANCH   6  15
TORSDOF 4
ENDMDL
