MODEL 17
REMARK VINA RESULT: -7.971663523      5.782      8.153
REMARK  6 active torsions:
REMARK  status: ('A' for Active; 'I' for Inactive)
REMARK    1  A    between atoms: O1_2  and  C2_3 
REMARK    2  A    between atoms: C5_6  and  N1_7 
REMARK    3  A    between atoms: N1_7  and  C6_9 
REMARK    4  A    between atoms: C9_12  and  N2_13 
REMARK       I    between atoms: N2_13  and  C10_15 
REMARK    5  A    between atoms: C10_15  and  C11_17 
REMARK    6  A    between atoms: C22_32  and  O3_33 
ROOT
HETATM    1  N1  UNL     1      26.824   6.216  94.338  1.00  0.00    -0.342 N 
ATOM      2  H1  UNL     1      26.950   7.219  94.202  1.00  0.00     0.167 HD
ENDROOT
BRANCH   1   3
HETATM    3  C5  UNL     1      25.940   5.537  93.475  1.00  0.00     0.119 A 
HETATM    4  C4  UNL     1      26.358   4.705  92.449  1.00  0.00     0.038 A 
HETATM    5  C3  UNL     1      27.699   4.525  92.204  1.00  0.00     0.057 A 
HETATM    6  C20 UNL     1      25.426   4.032  91.640  1.00  0.00     0.050 A 
HETATM    7  C2  UNL     1      28.102   3.689  91.173  1.00  0.00     0.102 A 
HETATM    8  C22 UNL     1      27.173   3.043  90.396  1.00  0.00     0.101 A 
HETATM    9  C21 UNL     1      25.835   3.208  90.622  1.00  0.00     0.070 A 
HETATM   10  N4  UNL     1      24.132   4.233  91.906  1.00  0.00    -0.351 N 
HETATM   11  C19 UNL     1      23.688   5.028  92.887  1.00  0.00     0.182 A 
ATOM     12  H4  UNL     1      23.442   3.752  91.328  1.00  0.00     0.166 HD
HETATM   13  N3  UNL     1      24.613   5.642  93.624  1.00  0.00    -0.338 N 
ATOM     14  H3  UNL     1      24.279   6.249  94.373  1.00  0.00     0.168 HD
BRANCH   7  15
HETATM   15  O1  UNL     1      29.470   3.543  90.969  1.00  0.00    -0.353 OA
HETATM   16  C1  UNL     1      30.267   2.779  91.837  1.00  0.00     0.210 C 
ENDBRANCH   7  15
BRANCH   8  17
HETATM   17  O3  UNL     1      27.643   2.216  89.373  1.00  0.00    -0.358 OA
ATOM     18  H3  UNL     1      28.435   2.479  88.920  1.00  0.00     0.217 HD
ENDBRANCH   8  17
ENDBRANCH   1   3
BRANCH   1  19
HETATM   19  C6  UNL     1      27.544   5.593  95.376  1.00  0.00     0.033 A 
HETATM   20  C7  UNL     1      28.861   5.765  95.611  1.00  0.00     0.032 A 
HETATM   21  C8  UNL     1      29.526   5.129  96.687  1.00  0.00     0.032 A 
HETATM   22  C9  UNL     1      28.849   4.311  97.534  1.00  0.00     0.035 A 
HETATM   23  C17 UNL     1      27.482   4.129  97.297  1.00  0.00     0.032 A 
HETATM   24  C18 UNL     1      26.860   4.749  96.255  1.00  0.00     0.032 A 
BRANCH  22  25
HETATM   25  N2  UNL     1      29.476   3.672  98.618  1.00  0.00    -0.323 N 
HETATM   26  C10 UNL     1      29.963   2.372  98.738  1.00  0.00     0.256 C 
HETATM   27  O2  UNL     1      29.852   1.611  97.749  1.00  0.00    -0.267 OA
ATOM     28  H2  UNL     1      29.593   4.251  99.449  1.00  0.00     0.169 HD
BRANCH  26  29
HETATM   29  C11 UNL     1      30.594   1.815  99.918  1.00  0.00     0.032 A 
HETATM   30  C12 UNL     1      31.196   2.596 100.868  1.00  0.00     0.017 A 
HETATM   31  C13 UNL     1      31.802   2.029 102.005  1.00  0.00     0.001 A 
HETATM   32  C14 UNL     1      31.784   0.677 102.155  1.00  0.00     0.000 A 
HETATM   33  C15 UNL     1      31.191  -0.143 101.226  1.00  0.00     0.001 A 
HETATM   34  C16 UNL     1      30.601   0.456 100.115  1.00  0.00     0.017 A 
ENDBRANCH  26  29
ENDBRANCH  22  25
ENDBRANCH   1  19
TORSDOF 6
ENDMDL
