MODEL 15
REMARK VINA RESULT: -8.002381203      3.566      4.625
REMARK  6 active torsions:
REMARK  status: ('A' for Active; 'I' for Inactive)
REMARK    1  A    between atoms: O1_2  and  C2_3 
REMARK    2  A    between atoms: C5_6  and  N1_7 
REMARK    3  A    between atoms: N1_7  and  C6_9 
REMARK    4  A    between atoms: C9_12  and  N2_13 
REMARK       I    between atoms: N2_13  and  C10_15 
REMARK    5  A    between atoms: C10_15  and  C11_17 
REMARK    6  A    between atoms: C22_32  and  O3_33 
ROOT
HETATM    1  N1  UNL     1      27.511   4.244  91.338  1.00  0.00    -0.342 N 
ATOM      2  H1  UNL     1      27.738   4.881  90.576  1.00  0.00     0.167 HD
ENDROOT
BRANCH   1   3
HETATM    3  C5  UNL     1      28.475   3.286  91.711  1.00  0.00     0.119 A 
HETATM    4  C4  UNL     1      29.046   3.222  92.972  1.00  0.00     0.038 A 
HETATM    5  C3  UNL     1      28.702   4.140  93.936  1.00  0.00     0.057 A 
HETATM    6  C20 UNL     1      29.982   2.223  93.291  1.00  0.00     0.050 A 
HETATM    7  C2  UNL     1      29.282   4.064  95.194  1.00  0.00     0.102 A 
HETATM    8  C22 UNL     1      30.195   3.080  95.482  1.00  0.00     0.101 A 
HETATM    9  C21 UNL     1      30.550   2.157  94.539  1.00  0.00     0.070 A 
HETATM   10  N4  UNL     1      30.292   1.349  92.329  1.00  0.00    -0.351 N 
HETATM   11  C19 UNL     1      29.764   1.378  91.099  1.00  0.00     0.182 A 
ATOM     12  H4  UNL     1      30.970   0.618  92.545  1.00  0.00     0.166 HD
HETATM   13  N3  UNL     1      28.881   2.345  90.849  1.00  0.00    -0.338 N 
ATOM     14  H3  UNL     1      28.476   2.369  89.913  1.00  0.00     0.168 HD
BRANCH   7  15
HETATM   15  O1  UNL     1      28.900   5.018  96.130  1.00  0.00    -0.353 OA
HETATM   16  C1  UNL     1      29.461   6.306  96.143  1.00  0.00     0.210 C 
ENDBRANCH   7  15
BRANCH   8  17
HETATM   17  O3  UNL     1      30.743   3.057  96.766  1.00  0.00    -0.358 OA
ATOM     18  H3  UNL     1      31.556   3.527  96.909  1.00  0.00     0.217 HD
ENDBRANCH   8  17
ENDBRANCH   1   3
BRANCH   1  19
HETATM   19  C6  UNL     1      26.252   4.374  91.956  1.00  0.00     0.033 A 
HETATM   20  C7  UNL     1      25.642   5.548  92.221  1.00  0.00     0.032 A 
HETATM   21  C8  UNL     1      24.362   5.615  92.824  1.00  0.00     0.032 A 
HETATM   22  C9  UNL     1      23.694   4.482  93.161  1.00  0.00     0.035 A 
HETATM   23  C17 UNL     1      24.321   3.260  92.887  1.00  0.00     0.032 A 
HETATM   24  C18 UNL     1      25.553   3.216  92.308  1.00  0.00     0.032 A 
BRANCH  22  25
HETATM   25  N2  UNL     1      22.418   4.512  93.752  1.00  0.00    -0.323 N 
HETATM   26  C10 UNL     1      22.046   4.691  95.081  1.00  0.00     0.256 C 
HETATM   27  O2  UNL     1      22.955   4.859  95.927  1.00  0.00    -0.267 OA
ATOM     28  H2  UNL     1      21.642   4.382  93.103  1.00  0.00     0.169 HD
BRANCH  26  29
HETATM   29  C11 UNL     1      20.685   4.700  95.581  1.00  0.00     0.032 A 
HETATM   30  C12 UNL     1      19.634   4.203  94.859  1.00  0.00     0.017 A 
HETATM   31  C13 UNL     1      18.321   4.225  95.367  1.00  0.00     0.001 A 
HETATM   32  C14 UNL     1      18.103   4.752  96.602  1.00  0.00     0.000 A 
HETATM   33  C15 UNL     1      19.130   5.261  97.360  1.00  0.00     0.001 A 
HETATM   34  C16 UNL     1      20.414   5.221  96.822  1.00  0.00     0.017 A 
ENDBRANCH  26  29
ENDBRANCH  22  25
ENDBRANCH   1  19
TORSDOF 6
ENDMDL
