MODEL 1
REMARK VINA RESULT: -10.127309407      0.000      0.000
REMARK  6 active torsions:
REMARK  status: ('A' for Active; 'I' for Inactive)
REMARK    1  A    between atoms: O1_2  and  C2_3 
REMARK    2  A    between atoms: C5_6  and  N1_7 
REMARK    3  A    between atoms: N1_7  and  C6_9 
REMARK    4  A    between atoms: C9_12  and  N2_13 
REMARK       I    between atoms: N2_13  and  C10_15 
REMARK    5  A    between atoms: C10_15  and  C11_17 
REMARK    6  A    between atoms: C22_32  and  O3_33 
ROOT
HETATM    1  N1  UNL     1      26.813   3.589  89.731  1.00  0.00    -0.342 N 
ATOM      2  H1  UNL     1      26.630   3.361  88.754  1.00  0.00     0.167 HD
ENDROOT
BRANCH   1   3
HETATM    3  C5  UNL     1      28.155   3.658  90.155  1.00  0.00     0.119 A 
HETATM    4  C4  UNL     1      29.233   3.707  89.285  1.00  0.00     0.038 A 
HETATM    5  C3  UNL     1      29.030   3.659  87.926  1.00  0.00     0.057 A 
HETATM    6  C20 UNL     1      30.548   3.805  89.770  1.00  0.00     0.050 A 
HETATM    7  C2  UNL     1      30.118   3.708  87.068  1.00  0.00     0.102 A 
HETATM    8  C22 UNL     1      31.394   3.803  87.565  1.00  0.00     0.101 A 
HETATM    9  C21 UNL     1      31.618   3.852  88.912  1.00  0.00     0.070 A 
HETATM   10  N4  UNL     1      30.707   3.848  91.096  1.00  0.00    -0.351 N 
HETATM   11  C19 UNL     1      29.693   3.803  91.969  1.00  0.00     0.182 A 
ATOM     12  H4  UNL     1      31.655   3.919  91.465  1.00  0.00     0.166 HD
HETATM   13  N3  UNL     1      28.466   3.710  91.457  1.00  0.00    -0.338 N 
ATOM     14  H3  UNL     1      27.690   3.676  92.119  1.00  0.00     0.168 HD
BRANCH   7  15
HETATM   15  O1  UNL     1      29.856   3.656  85.703  1.00  0.00    -0.353 OA
HETATM   16  C1  UNL     1      28.896   2.781  85.169  1.00  0.00     0.210 C 
ENDBRANCH   7  15
BRANCH   8  17
HETATM   17  O3  UNL     1      32.448   3.849  86.649  1.00  0.00    -0.358 OA
ATOM     18  H3  UNL     1      33.291   4.155  86.960  1.00  0.00     0.217 HD
ENDBRANCH   8  17
ENDBRANCH   1   3
BRANCH   1  19
HETATM   19  C6  UNL     1      25.708   3.817  90.575  1.00  0.00     0.033 A 
HETATM   20  C7  UNL     1      25.201   5.032  90.868  1.00  0.00     0.032 A 
HETATM   21  C8  UNL     1      24.071   5.196  91.707  1.00  0.00     0.032 A 
HETATM   22  C9  UNL     1      23.449   4.119  92.251  1.00  0.00     0.035 A 
HETATM   23  C17 UNL     1      23.970   2.855  91.950  1.00  0.00     0.032 A 
HETATM   24  C18 UNL     1      25.059   2.717  91.143  1.00  0.00     0.032 A 
BRANCH  22  25
HETATM   25  N2  UNL     1      22.320   4.246  93.080  1.00  0.00    -0.323 N 
HETATM   26  C10 UNL     1      22.229   4.505  94.445  1.00  0.00     0.256 C 
HETATM   27  O2  UNL     1      23.295   4.661  95.084  1.00  0.00    -0.267 OA
ATOM     28  H2  UNL     1      21.425   4.129  92.605  1.00  0.00     0.169 HD
BRANCH  26  29
HETATM   29  C11 UNL     1      20.997   4.611  95.202  1.00  0.00     0.032 A 
HETATM   30  C12 UNL     1      19.800   4.148  94.725  1.00  0.00     0.017 A 
HETATM   31  C13 UNL     1      18.618   4.265  95.480  1.00  0.00     0.001 A 
HETATM   32  C14 UNL     1      18.676   4.849  96.708  1.00  0.00     0.000 A 
HETATM   33  C15 UNL     1      19.857   5.326  97.223  1.00  0.00     0.001 A 
HETATM   34  C16 UNL     1      21.005   5.192  96.445  1.00  0.00     0.017 A 
ENDBRANCH  26  29
ENDBRANCH  22  25
ENDBRANCH   1  19
TORSDOF 6
ENDMDL
