MODEL 10
REMARK VINA RESULT: -8.441824849      1.617      1.628
REMARK  6 active torsions:
REMARK  status: ('A' for Active; 'I' for Inactive)
REMARK    1  A    between atoms: O1_2  and  C2_3 
REMARK    2  A    between atoms: C5_6  and  N1_7 
REMARK    3  A    between atoms: N1_7  and  C6_9 
REMARK    4  A    between atoms: C9_12  and  N2_13 
REMARK       I    between atoms: N2_13  and  C10_15 
REMARK    5  A    between atoms: C10_15  and  C11_17 
REMARK    6  A    between atoms: C22_32  and  O3_33 
ROOT
HETATM    1  N1  UNL     1      26.693   3.176  89.876  1.00  0.00    -0.342 N 
ATOM      2  H1  UNL     1      26.534   2.948  88.895  1.00  0.00     0.167 HD
ENDROOT
BRANCH   1   3
HETATM    3  C5  UNL     1      28.022   3.195  90.345  1.00  0.00     0.119 A 
HETATM    4  C4  UNL     1      29.058   2.501  89.740  1.00  0.00     0.038 A 
HETATM    5  C3  UNL     1      28.816   1.717  88.637  1.00  0.00     0.057 A 
HETATM    6  C20 UNL     1      30.369   2.584  90.238  1.00  0.00     0.050 A 
HETATM    7  C2  UNL     1      29.864   1.028  88.043  1.00  0.00     0.102 A 
HETATM    8  C22 UNL     1      31.136   1.124  88.548  1.00  0.00     0.101 A 
HETATM    9  C21 UNL     1      31.398   1.898  89.643  1.00  0.00     0.070 A 
HETATM   10  N4  UNL     1      30.565   3.355  91.312  1.00  0.00    -0.351 N 
HETATM   11  C19 UNL     1      29.592   4.040  91.924  1.00  0.00     0.182 A 
ATOM     12  H4  UNL     1      31.512   3.426  91.686  1.00  0.00     0.166 HD
HETATM   13  N3  UNL     1      28.367   3.927  91.412  1.00  0.00    -0.338 N 
ATOM     14  H3  UNL     1      27.622   4.447  91.876  1.00  0.00     0.168 HD
BRANCH   7  15
HETATM   15  O1  UNL     1      29.564   0.248  86.931  1.00  0.00    -0.353 OA
HETATM   16  C1  UNL     1      29.395  -1.142  87.029  1.00  0.00     0.210 C 
ENDBRANCH   7  15
BRANCH   8  17
HETATM   17  O3  UNL     1      32.147   0.405  87.905  1.00  0.00    -0.358 OA
ATOM     18  H3  UNL     1      32.861   0.897  87.518  1.00  0.00     0.217 HD
ENDBRANCH   8  17
ENDBRANCH   1   3
BRANCH   1  19
HETATM   19  C6  UNL     1      25.570   3.454  90.681  1.00  0.00     0.033 A 
HETATM   20  C7  UNL     1      24.900   4.625  90.691  1.00  0.00     0.032 A 
HETATM   21  C8  UNL     1      23.762   4.837  91.507  1.00  0.00     0.032 A 
HETATM   22  C9  UNL     1      23.298   3.853  92.319  1.00  0.00     0.035 A 
HETATM   23  C17 UNL     1      23.988   2.635  92.313  1.00  0.00     0.032 A 
HETATM   24  C18 UNL     1      25.082   2.450  91.522  1.00  0.00     0.032 A 
BRANCH  22  25
HETATM   25  N2  UNL     1      22.165   4.026  93.134  1.00  0.00    -0.323 N 
HETATM   26  C10 UNL     1      22.064   4.458  94.454  1.00  0.00     0.256 C 
HETATM   27  O2  UNL     1      23.120   4.754  95.057  1.00  0.00    -0.267 OA
ATOM     28  H2  UNL     1      21.277   3.800  92.687  1.00  0.00     0.169 HD
BRANCH  26  29
HETATM   29  C11 UNL     1      20.829   4.596  95.202  1.00  0.00     0.032 A 
HETATM   30  C12 UNL     1      19.619   4.191  94.705  1.00  0.00     0.017 A 
HETATM   31  C13 UNL     1      18.436   4.338  95.452  1.00  0.00     0.001 A 
HETATM   32  C14 UNL     1      18.505   4.893  96.692  1.00  0.00     0.000 A 
HETATM   33  C15 UNL     1      19.698   5.312  97.228  1.00  0.00     0.001 A 
HETATM   34  C16 UNL     1      20.847   5.150  96.458  1.00  0.00     0.017 A 
ENDBRANCH  26  29
ENDBRANCH  22  25
ENDBRANCH   1  19
TORSDOF 6
ENDMDL
