MODEL 2
REMARK VINA RESULT: -10.042924393      0.141      1.245
REMARK  6 active torsions:
REMARK  status: ('A' for Active; 'I' for Inactive)
REMARK    1  A    between atoms: O1_2  and  C2_3 
REMARK    2  A    between atoms: C5_6  and  N1_7 
REMARK    3  A    between atoms: N1_7  and  C6_9 
REMARK    4  A    between atoms: C9_12  and  N2_13 
REMARK       I    between atoms: N2_13  and  C10_15 
REMARK    5  A    between atoms: C10_15  and  C11_17 
REMARK    6  A    between atoms: C22_32  and  O3_33 
ROOT
HETATM    1  N1  UNL     1      26.890   3.668  89.652  1.00  0.00    -0.342 N 
ATOM      2  H1  UNL     1      26.737   3.599  88.647  1.00  0.00     0.167 HD
ENDROOT
BRANCH   1   3
HETATM    3  C5  UNL     1      28.220   3.694  90.119  1.00  0.00     0.119 A 
HETATM    4  C4  UNL     1      29.325   3.710  89.283  1.00  0.00     0.038 A 
HETATM    5  C3  UNL     1      29.164   3.671  87.919  1.00  0.00     0.057 A 
HETATM    6  C20 UNL     1      30.627   3.765  89.810  1.00  0.00     0.050 A 
HETATM    7  C2  UNL     1      30.280   3.686  87.095  1.00  0.00     0.102 A 
HETATM    8  C22 UNL     1      31.542   3.740  87.633  1.00  0.00     0.101 A 
HETATM    9  C21 UNL     1      31.725   3.779  88.986  1.00  0.00     0.070 A 
HETATM   10  N4  UNL     1      30.745   3.800  91.141  1.00  0.00    -0.351 N 
HETATM   11  C19 UNL     1      29.703   3.785  91.980  1.00  0.00     0.182 A 
ATOM     12  H4  UNL     1      31.683   3.840  91.539  1.00  0.00     0.166 HD
HETATM   13  N3  UNL     1      28.490   3.733  91.430  1.00  0.00    -0.338 N 
ATOM     14  H3  UNL     1      27.694   3.722  92.066  1.00  0.00     0.168 HD
BRANCH   7  15
HETATM   15  O1  UNL     1      30.060   3.645  85.722  1.00  0.00    -0.353 OA
HETATM   16  C1  UNL     1      28.938   3.002  85.175  1.00  0.00     0.210 C 
ENDBRANCH   7  15
BRANCH   8  17
HETATM   17  O3  UNL     1      32.625   3.753  86.750  1.00  0.00    -0.358 OA
ATOM     18  H3  UNL     1      33.291   3.085  86.858  1.00  0.00     0.217 HD
ENDBRANCH   8  17
ENDBRANCH   1   3
BRANCH   1  19
HETATM   19  C6  UNL     1      25.760   3.733  90.491  1.00  0.00     0.033 A 
HETATM   20  C7  UNL     1      25.184   2.669  91.089  1.00  0.00     0.032 A 
HETATM   21  C8  UNL     1      24.061   2.799  91.942  1.00  0.00     0.032 A 
HETATM   22  C9  UNL     1      23.518   4.019  92.193  1.00  0.00     0.035 A 
HETATM   23  C17 UNL     1      24.112   5.126  91.577  1.00  0.00     0.032 A 
HETATM   24  C18 UNL     1      25.191   4.981  90.758  1.00  0.00     0.032 A 
BRANCH  22  25
HETATM   25  N2  UNL     1      22.410   4.185  93.043  1.00  0.00    -0.323 N 
HETATM   26  C10 UNL     1      22.355   4.474  94.404  1.00  0.00     0.256 C 
HETATM   27  O2  UNL     1      23.437   4.622  95.016  1.00  0.00    -0.267 OA
ATOM     28  H2  UNL     1      21.503   4.076  92.590  1.00  0.00     0.169 HD
BRANCH  26  29
HETATM   29  C11 UNL     1      21.142   4.620  95.185  1.00  0.00     0.032 A 
HETATM   30  C12 UNL     1      21.126   5.234  96.409  1.00  0.00     0.017 A 
HETATM   31  C13 UNL     1      19.934   5.362  97.147  1.00  0.00     0.001 A 
HETATM   32  C14 UNL     1      18.780   4.864  96.625  1.00  0.00     0.000 A 
HETATM   33  C15 UNL     1      18.753   4.241  95.401  1.00  0.00     0.001 A 
HETATM   34  C16 UNL     1      19.953   4.134  94.701  1.00  0.00     0.017 A 
ENDBRANCH  26  29
ENDBRANCH  22  25
ENDBRANCH   1  19
TORSDOF 6
ENDMDL
