MODEL 3
REMARK VINA RESULT: -9.039799551      1.024      1.480
REMARK  6 active torsions:
REMARK  status: ('A' for Active; 'I' for Inactive)
REMARK    1  A    between atoms: O1_2  and  C2_3 
REMARK    2  A    between atoms: C5_6  and  N1_7 
REMARK    3  A    between atoms: N1_7  and  C6_9 
REMARK    4  A    between atoms: C9_12  and  N2_13 
REMARK       I    between atoms: N2_13  and  C10_15 
REMARK    5  A    between atoms: C10_15  and  C11_17 
REMARK    6  A    between atoms: C22_32  and  O3_33 
ROOT
HETATM    1  N1  UNL     1      27.469   4.067  90.510  1.00  0.00    -0.342 N 
ATOM      2  H1  UNL     1      27.525   4.401  89.549  1.00  0.00     0.167 HD
ENDROOT
BRANCH   1   3
HETATM    3  C5  UNL     1      28.644   3.570  91.109  1.00  0.00     0.119 A 
HETATM    4  C4  UNL     1      29.860   3.476  90.450  1.00  0.00     0.038 A 
HETATM    5  C3  UNL     1      29.964   3.849  89.131  1.00  0.00     0.057 A 
HETATM    6  C20 UNL     1      31.004   2.999  91.111  1.00  0.00     0.050 A 
HETATM    7  C2  UNL     1      31.187   3.748  88.484  1.00  0.00     0.102 A 
HETATM    8  C22 UNL     1      32.291   3.278  89.151  1.00  0.00     0.101 A 
HETATM    9  C21 UNL     1      32.209   2.903  90.462  1.00  0.00     0.070 A 
HETATM   10  N4  UNL     1      30.864   2.645  92.392  1.00  0.00    -0.351 N 
HETATM   11  C19 UNL     1      29.708   2.721  93.063  1.00  0.00     0.182 A 
ATOM     12  H4  UNL     1      31.686   2.297  92.887  1.00  0.00     0.166 HD
HETATM   13  N3  UNL     1      28.654   3.180  92.390  1.00  0.00    -0.338 N 
ATOM     14  H3  UNL     1      27.771   3.239  92.898  1.00  0.00     0.168 HD
BRANCH   7  15
HETATM   15  O1  UNL     1      31.237   4.138  87.150  1.00  0.00    -0.353 OA
HETATM   16  C1  UNL     1      30.236   3.769  86.236  1.00  0.00     0.210 C 
ENDBRANCH   7  15
BRANCH   8  17
HETATM   17  O3  UNL     1      33.494   3.201  88.444  1.00  0.00    -0.358 OA
ATOM     18  H3  UNL     1      34.230   3.706  88.768  1.00  0.00     0.217 HD
ENDBRANCH   8  17
ENDBRANCH   1   3
BRANCH   1  19
HETATM   19  C6  UNL     1      26.221   4.130  91.160  1.00  0.00     0.033 A 
HETATM   20  C7  UNL     1      25.295   3.149  91.146  1.00  0.00     0.032 A 
HETATM   21  C8  UNL     1      24.065   3.260  91.840  1.00  0.00     0.032 A 
HETATM   22  C9  UNL     1      23.771   4.377  92.555  1.00  0.00     0.035 A 
HETATM   23  C17 UNL     1      24.728   5.399  92.574  1.00  0.00     0.032 A 
HETATM   24  C18 UNL     1      25.905   5.273  91.899  1.00  0.00     0.032 A 
BRANCH  22  25
HETATM   25  N2  UNL     1      22.564   4.517  93.263  1.00  0.00    -0.323 N 
HETATM   26  C10 UNL     1      22.312   4.464  94.631  1.00  0.00     0.256 C 
HETATM   27  O2  UNL     1      23.281   4.266  95.399  1.00  0.00    -0.267 OA
ATOM     28  H2  UNL     1      21.743   4.683  92.681  1.00  0.00     0.169 HD
BRANCH  26  29
HETATM   29  C11 UNL     1      21.012   4.621  95.254  1.00  0.00     0.032 A 
HETATM   30  C12 UNL     1      19.862   4.143  94.685  1.00  0.00     0.017 A 
HETATM   31  C13 UNL     1      18.612   4.309  95.311  1.00  0.00     0.001 A 
HETATM   32  C14 UNL     1      18.556   4.957  96.505  1.00  0.00     0.000 A 
HETATM   33  C15 UNL     1      19.685   5.452  97.111  1.00  0.00     0.001 A 
HETATM   34  C16 UNL     1      20.903   5.267  96.460  1.00  0.00     0.017 A 
ENDBRANCH  26  29
ENDBRANCH  22  25
ENDBRANCH   1  19
TORSDOF 6
ENDMDL
