MODEL 12
REMARK VINA RESULT: -8.042615103      2.381      9.474
REMARK  6 active torsions:
REMARK  status: ('A' for Active; 'I' for Inactive)
REMARK    1  A    between atoms: O1_2  and  C2_3 
REMARK    2  A    between atoms: C5_6  and  N1_7 
REMARK    3  A    between atoms: N1_7  and  C6_9 
REMARK    4  A    between atoms: C9_12  and  N2_13 
REMARK       I    between atoms: N2_13  and  C10_15 
REMARK    5  A    between atoms: C10_15  and  C11_17 
REMARK    6  A    between atoms: C22_32  and  O3_33 
ROOT
HETATM    1  N1  UNL     1      22.415   3.766  92.788  1.00  0.00    -0.342 N 
ATOM      2  H1  UNL     1      21.577   3.397  92.339  1.00  0.00     0.167 HD
ENDROOT
BRANCH   1   3
HETATM    3  C5  UNL     1      22.330   4.136  94.145  1.00  0.00     0.119 A 
HETATM    4  C4  UNL     1      23.176   3.647  95.128  1.00  0.00     0.038 A 
HETATM    5  C3  UNL     1      24.147   2.726  94.812  1.00  0.00     0.057 A 
HETATM    6  C20 UNL     1      23.060   4.078  96.460  1.00  0.00     0.050 A 
HETATM    7  C2  UNL     1      24.986   2.245  95.806  1.00  0.00     0.102 A 
HETATM    8  C22 UNL     1      24.852   2.681  97.101  1.00  0.00     0.101 A 
HETATM    9  C21 UNL     1      23.894   3.595  97.437  1.00  0.00     0.070 A 
HETATM   10  N4  UNL     1      22.104   4.973  96.730  1.00  0.00    -0.351 N 
HETATM   11  C19 UNL     1      21.268   5.468  95.809  1.00  0.00     0.182 A 
ATOM     12  H4  UNL     1      22.007   5.296  97.692  1.00  0.00     0.166 HD
HETATM   13  N3  UNL     1      21.421   5.027  94.561  1.00  0.00    -0.338 N 
ATOM     14  H3  UNL     1      20.786   5.402  93.857  1.00  0.00     0.168 HD
BRANCH   7  15
HETATM   15  O1  UNL     1      25.950   1.315  95.432  1.00  0.00    -0.353 OA
HETATM   16  C1  UNL     1      26.540   1.337  94.158  1.00  0.00     0.210 C 
ENDBRANCH   7  15
BRANCH   8  17
HETATM   17  O3  UNL     1      25.728   2.158  98.057  1.00  0.00    -0.358 OA
ATOM     18  H3  UNL     1      26.093   1.296  97.896  1.00  0.00     0.217 HD
ENDBRANCH   8  17
ENDBRANCH   1   3
BRANCH   1  19
HETATM   19  C6  UNL     1      23.587   3.875  92.014  1.00  0.00     0.033 A 
HETATM   20  C7  UNL     1      24.289   5.013  91.835  1.00  0.00     0.032 A 
HETATM   21  C8  UNL     1      25.475   5.056  91.063  1.00  0.00     0.032 A 
HETATM   22  C9  UNL     1      25.955   3.934  90.467  1.00  0.00     0.035 A 
HETATM   23  C17 UNL     1      25.232   2.749  90.649  1.00  0.00     0.032 A 
HETATM   24  C18 UNL     1      24.092   2.728  91.394  1.00  0.00     0.032 A 
BRANCH  22  25
HETATM   25  N2  UNL     1      27.135   3.939  89.702  1.00  0.00    -0.323 N 
HETATM   26  C10 UNL     1      28.466   3.840  90.099  1.00  0.00     0.256 C 
HETATM   27  O2  UNL     1      28.706   3.724  91.323  1.00  0.00    -0.267 OA
ATOM     28  H2  UNL     1      26.993   4.029  88.696  1.00  0.00     0.169 HD
BRANCH  26  29
HETATM   29  C11 UNL     1      29.613   3.860  89.213  1.00  0.00     0.032 A 
HETATM   30  C12 UNL     1      30.898   3.740  89.670  1.00  0.00     0.017 A 
HETATM   31  C13 UNL     1      31.994   3.764  88.788  1.00  0.00     0.001 A 
HETATM   32  C14 UNL     1      31.763   3.908  87.455  1.00  0.00     0.000 A 
HETATM   33  C15 UNL     1      30.490   4.031  86.954  1.00  0.00     0.001 A 
HETATM   34  C16 UNL     1      29.431   4.003  87.860  1.00  0.00     0.017 A 
ENDBRANCH  26  29
ENDBRANCH  22  25
ENDBRANCH   1  19
TORSDOF 6
ENDMDL
