MODEL 6
REMARK VINA RESULT: -8.597454116      1.349      1.685
REMARK  6 active torsions:
REMARK  status: ('A' for Active; 'I' for Inactive)
REMARK    1  A    between atoms: O1_2  and  C2_3 
REMARK    2  A    between atoms: C5_6  and  N1_7 
REMARK    3  A    between atoms: N1_7  and  C6_9 
REMARK    4  A    between atoms: C9_12  and  N2_13 
REMARK       I    between atoms: N2_13  and  C10_15 
REMARK    5  A    between atoms: C10_15  and  C11_17 
REMARK    6  A    between atoms: C22_32  and  O3_33 
ROOT
HETATM    1  N1  UNL     1      28.043   2.483  90.149  1.00  0.00    -0.342 N 
ATOM      2  H1  UNL     1      27.780   2.015  89.283  1.00  0.00     0.167 HD
ENDROOT
BRANCH   1   3
HETATM    3  C5  UNL     1      29.416   2.651  90.421  1.00  0.00     0.119 A 
HETATM    4  C4  UNL     1      30.335   3.093  89.482  1.00  0.00     0.038 A 
HETATM    5  C3  UNL     1      29.935   3.369  88.196  1.00  0.00     0.057 A 
HETATM    6  C20 UNL     1      31.687   3.268  89.823  1.00  0.00     0.050 A 
HETATM    7  C2  UNL     1      30.867   3.810  87.268  1.00  0.00     0.102 A 
HETATM    8  C22 UNL     1      32.182   3.973  87.624  1.00  0.00     0.101 A 
HETATM    9  C21 UNL     1      32.601   3.705  88.897  1.00  0.00     0.070 A 
HETATM   10  N4  UNL     1      32.039   2.989  91.082  1.00  0.00    -0.351 N 
HETATM   11  C19 UNL     1      31.182   2.559  92.016  1.00  0.00     0.182 A 
ATOM     12  H4  UNL     1      33.017   3.111  91.346  1.00  0.00     0.166 HD
HETATM   13  N3  UNL     1      29.912   2.411  91.641  1.00  0.00    -0.338 N 
ATOM     14  H3  UNL     1      29.256   2.084  92.351  1.00  0.00     0.168 HD
BRANCH   7  15
HETATM   15  O1  UNL     1      30.409   4.074  85.981  1.00  0.00    -0.353 OA
HETATM   16  C1  UNL     1      29.112   3.720  85.574  1.00  0.00     0.210 C 
ENDBRANCH   7  15
BRANCH   8  17
HETATM   17  O3  UNL     1      33.071   4.420  86.644  1.00  0.00    -0.358 OA
ATOM     18  H3  UNL     1      33.632   5.156  86.858  1.00  0.00     0.217 HD
ENDBRANCH   8  17
ENDBRANCH   1   3
BRANCH   1  19
HETATM   19  C6  UNL     1      27.013   2.924  91.002  1.00  0.00     0.033 A 
HETATM   20  C7  UNL     1      26.538   4.186  91.048  1.00  0.00     0.032 A 
HETATM   21  C8  UNL     1      25.482   4.565  91.912  1.00  0.00     0.032 A 
HETATM   22  C9  UNL     1      24.901   3.656  92.737  1.00  0.00     0.035 A 
HETATM   23  C17 UNL     1      25.388   2.345  92.694  1.00  0.00     0.032 A 
HETATM   24  C18 UNL     1      26.406   2.000  91.857  1.00  0.00     0.032 A 
BRANCH  22  25
HETATM   25  N2  UNL     1      23.844   3.996  93.600  1.00  0.00    -0.323 N 
HETATM   26  C10 UNL     1      22.467   3.877  93.428  1.00  0.00     0.256 C 
HETATM   27  O2  UNL     1      22.051   3.394  92.350  1.00  0.00    -0.267 OA
ATOM     28  H2  UNL     1      24.132   4.392  94.495  1.00  0.00     0.169 HD
BRANCH  26  29
HETATM   29  C11 UNL     1      21.461   4.268  94.396  1.00  0.00     0.032 A 
HETATM   30  C12 UNL     1      21.732   5.117  95.436  1.00  0.00     0.017 A 
HETATM   31  C13 UNL     1      20.736   5.479  96.362  1.00  0.00     0.001 A 
HETATM   32  C14 UNL     1      19.482   4.973  96.212  1.00  0.00     0.000 A 
HETATM   33  C15 UNL     1      19.168   4.119  95.183  1.00  0.00     0.001 A 
HETATM   34  C16 UNL     1      20.181   3.784  94.287  1.00  0.00     0.017 A 
ENDBRANCH  26  29
ENDBRANCH  22  25
ENDBRANCH   1  19
TORSDOF 6
ENDMDL
