MODEL 2
REMARK VINA RESULT: -5.647280825      0.370      1.255
REMARK  5 active torsions:
REMARK  status: ('A' for Active; 'I' for Inactive)
REMARK    1  A    between atoms: C5_5  and  C6_6 
REMARK    2  A    between atoms: C7_7  and  C8_8 
REMARK    3  A    between atoms: C8_8  and  O1_9 
REMARK    4  A    between atoms: C8_8  and  C13_14 
REMARK    5  A    between atoms: O1_9  and  C9_10 
ROOT
HETATM    1  C6  UNL     1      35.656   7.847  -6.438  1.00  0.00     0.002 A 
HETATM    2  C7  UNL     1      34.467   7.730  -7.153  1.00  0.00     0.038 A 
HETATM    3  C14 UNL     1      34.213   6.472  -7.628  1.00  0.00     0.020 A 
HETATM    4  C15 UNL     1      33.015   6.218  -8.478  1.00  0.00     0.069 C 
HETATM    5  N1  UNL     1      35.040   5.397  -7.427  1.00  0.00    -0.358 N 
ATOM      6  H1  UNL     1      34.796   4.481  -7.803  1.00  0.00     0.166 HD
HETATM    7  C16 UNL     1      36.170   5.565  -6.730  1.00  0.00     0.043 A 
HETATM    8  C17 UNL     1      37.042   4.500  -6.500  1.00  0.00     0.030 A 
HETATM    9  C18 UNL     1      38.203   4.692  -5.781  1.00  0.00     0.002 A 
HETATM   10  C19 UNL     1      38.553   5.920  -5.261  1.00  0.00     0.001 A 
HETATM   11  C20 UNL     1      37.705   6.970  -5.480  1.00  0.00     0.014 A 
HETATM   12  C21 UNL     1      36.535   6.781  -6.205  1.00  0.00     0.003 A 
ENDROOT
BRANCH   2  13
HETATM   13  C8  UNL     1      33.603   8.878  -7.392  1.00  0.00     0.159 C 
BRANCH  13  14
HETATM   14  O1  UNL     1      32.392   8.985  -6.825  1.00  0.00    -0.334 OA
BRANCH  14  15
HETATM   15  C9  UNL     1      32.162   9.999  -5.951  1.00  0.00     0.057 C 
HETATM   16  C10 UNL     1      33.004  11.233  -6.158  1.00  0.00     0.045 C 
HETATM   17  C11 UNL     1      32.274   9.490  -4.542  1.00  0.00     0.045 C 
HETATM   18  C12 UNL     1      30.734  10.463  -6.173  1.00  0.00     0.045 C 
ENDBRANCH  14  15
ENDBRANCH  13  14
BRANCH  13  19
HETATM   19  C13 UNL     1      33.548   9.412  -8.771  1.00  0.00     0.234 C 
HETATM   20  O2  UNL     1      34.494   9.746  -9.499  1.00  0.00    -0.642 OA
HETATM   21  O3  UNL     1      32.300   9.596  -9.420  1.00  0.00    -0.642 OA
ENDBRANCH  13  19
ENDBRANCH   2  13
BRANCH   1  22
HETATM   22  C5  UNL     1      36.054   9.120  -5.901  1.00  0.00    -0.024 A 
HETATM   23  C4  UNL     1      35.816   9.448  -4.607  1.00  0.00     0.013 A 
HETATM   24  C3  UNL     1      36.191  10.674  -4.109  1.00  0.00     0.008 A 
HETATM   25  C2  UNL     1      36.818  11.587  -4.929  1.00  0.00    -0.056 A 
HETATM   26  C1  UNL     1      37.221  12.915  -4.370  1.00  0.00     0.049 C 
HETATM   27  C23 UNL     1      37.069  11.273  -6.245  1.00  0.00    -0.055 A 
HETATM   28  C22 UNL     1      36.673  10.032  -6.696  1.00  0.00     0.019 A 
HETATM   29  C24 UNL     1      37.750  12.278  -7.110  1.00  0.00     0.049 C 
ENDBRANCH   1  22
TORSDOF 5
ENDMDL
