MODEL 1
REMARK VINA RESULT: -5.666865148      0.000      0.000
REMARK  5 active torsions:
REMARK  status: ('A' for Active; 'I' for Inactive)
REMARK    1  A    between atoms: C5_5  and  C6_6 
REMARK    2  A    between atoms: C7_7  and  C8_8 
REMARK    3  A    between atoms: C8_8  and  O1_9 
REMARK    4  A    between atoms: C8_8  and  C13_14 
REMARK    5  A    between atoms: O1_9  and  C9_10 
ROOT
HETATM    1  C6  UNL     1      35.638   7.968  -6.582  1.00  0.00     0.002 A 
HETATM    2  C7  UNL     1      34.412   7.823  -7.226  1.00  0.00     0.038 A 
HETATM    3  C14 UNL     1      34.104   6.536  -7.575  1.00  0.00     0.020 A 
HETATM    4  C15 UNL     1      32.859   6.244  -8.341  1.00  0.00     0.069 C 
HETATM    5  N1  UNL     1      34.914   5.460  -7.320  1.00  0.00    -0.358 N 
ATOM      6  H1  UNL     1      34.629   4.522  -7.602  1.00  0.00     0.166 HD
HETATM    7  C16 UNL     1      36.082   5.656  -6.696  1.00  0.00     0.043 A 
HETATM    8  C17 UNL     1      36.938   4.591  -6.415  1.00  0.00     0.030 A 
HETATM    9  C18 UNL     1      38.138   4.811  -5.773  1.00  0.00     0.002 A 
HETATM   10  C19 UNL     1      38.544   6.070  -5.382  1.00  0.00     0.001 A 
HETATM   11  C20 UNL     1      37.712   7.120  -5.652  1.00  0.00     0.014 A 
HETATM   12  C21 UNL     1      36.502   6.902  -6.299  1.00  0.00     0.003 A 
ENDROOT
BRANCH   2  13
HETATM   13  C8  UNL     1      33.565   8.970  -7.524  1.00  0.00     0.159 C 
BRANCH  13  14
HETATM   14  O1  UNL     1      32.376   9.147  -6.930  1.00  0.00    -0.334 OA
BRANCH  14  15
HETATM   15  C9  UNL     1      32.227  10.169  -6.048  1.00  0.00     0.057 C 
HETATM   16  C10 UNL     1      33.096  11.375  -6.303  1.00  0.00     0.045 C 
HETATM   17  C11 UNL     1      32.398   9.658  -4.645  1.00  0.00     0.045 C 
HETATM   18  C12 UNL     1      30.805  10.680  -6.193  1.00  0.00     0.045 C 
ENDBRANCH  14  15
ENDBRANCH  13  14
BRANCH  13  19
HETATM   19  C13 UNL     1      33.477   9.402  -8.936  1.00  0.00     0.234 C 
HETATM   20  O2  UNL     1      34.404   9.575  -9.742  1.00  0.00    -0.642 OA
HETATM   21  O3  UNL     1      32.215   9.672  -9.528  1.00  0.00    -0.642 OA
ENDBRANCH  13  19
ENDBRANCH   2  13
BRANCH   1  22
HETATM   22  C5  UNL     1      36.093   9.271  -6.181  1.00  0.00    -0.024 A 
HETATM   23  C4  UNL     1      36.631  10.139  -7.073  1.00  0.00     0.013 A 
HETATM   24  C3  UNL     1      37.074  11.379  -6.674  1.00  0.00     0.008 A 
HETATM   25  C2  UNL     1      36.973  11.752  -5.351  1.00  0.00    -0.056 A 
HETATM   26  C1  UNL     1      37.457  13.105  -4.935  1.00  0.00     0.049 C 
HETATM   27  C23 UNL     1      36.430  10.886  -4.430  1.00  0.00    -0.055 A 
HETATM   28  C22 UNL     1      36.001   9.656  -4.881  1.00  0.00     0.019 A 
HETATM   29  C24 UNL     1      36.331  11.315  -3.006  1.00  0.00     0.049 C 
ENDBRANCH   1  22
TORSDOF 5
ENDMDL
