MODEL 3
REMARK VINA RESULT: -5.294070328      1.230      2.539
REMARK  5 active torsions:
REMARK  status: ('A' for Active; 'I' for Inactive)
REMARK    1  A    between atoms: C5_5  and  C6_6 
REMARK    2  A    between atoms: C7_7  and  C8_8 
REMARK    3  A    between atoms: C8_8  and  O1_9 
REMARK    4  A    between atoms: C8_8  and  C13_14 
REMARK    5  A    between atoms: O1_9  and  C9_10 
ROOT
HETATM    1  C6  UNL     1      35.519   8.321  -6.154  1.00  0.00     0.002 A 
HETATM    2  C7  UNL     1      34.272   8.297  -6.771  1.00  0.00     0.038 A 
HETATM    3  C14 UNL     1      33.955   7.104  -7.361  1.00  0.00     0.020 A 
HETATM    4  C15 UNL     1      32.684   6.959  -8.128  1.00  0.00     0.069 C 
HETATM    5  N1  UNL     1      34.776   6.006  -7.356  1.00  0.00    -0.358 N 
ATOM      6  H1  UNL     1      34.484   5.141  -7.811  1.00  0.00     0.166 HD
HETATM    7  C16 UNL     1      35.965   6.083  -6.746  1.00  0.00     0.043 A 
HETATM    8  C17 UNL     1      36.833   4.992  -6.714  1.00  0.00     0.030 A 
HETATM    9  C18 UNL     1      38.055   5.090  -6.082  1.00  0.00     0.002 A 
HETATM   10  C19 UNL     1      38.471   6.248  -5.459  1.00  0.00     0.001 A 
HETATM   11  C20 UNL     1      37.627   7.323  -5.484  1.00  0.00     0.014 A 
HETATM   12  C21 UNL     1      36.396   7.229  -6.120  1.00  0.00     0.003 A 
ENDROOT
BRANCH   2  13
HETATM   13  C8  UNL     1      33.412   9.472  -6.803  1.00  0.00     0.159 C 
BRANCH  13  14
HETATM   14  O1  UNL     1      33.837  10.650  -7.283  1.00  0.00    -0.334 OA
BRANCH  14  15
HETATM   15  C9  UNL     1      33.574  10.965  -8.577  1.00  0.00     0.057 C 
HETATM   16  C10 UNL     1      32.243  10.488  -9.101  1.00  0.00     0.045 C 
HETATM   17  C11 UNL     1      34.704  10.502  -9.452  1.00  0.00     0.045 C 
HETATM   18  C12 UNL     1      33.502  12.479  -8.662  1.00  0.00     0.045 C 
ENDBRANCH  14  15
ENDBRANCH  13  14
BRANCH  13  19
HETATM   19  C13 UNL     1      32.539   9.706  -5.631  1.00  0.00     0.234 C 
HETATM   20  O2  UNL     1      31.686   8.946  -5.149  1.00  0.00    -0.642 OA
HETATM   21  O3  UNL     1      32.619  10.924  -4.907  1.00  0.00    -0.642 OA
ENDBRANCH  13  19
ENDBRANCH   2  13
BRANCH   1  22
HETATM   22  C5  UNL     1      35.985   9.521  -5.513  1.00  0.00    -0.024 A 
HETATM   23  C4  UNL     1      35.813   9.727  -4.184  1.00  0.00     0.013 A 
HETATM   24  C3  UNL     1      36.253  10.884  -3.585  1.00  0.00     0.008 A 
HETATM   25  C2  UNL     1      36.878  11.854  -4.339  1.00  0.00    -0.056 A 
HETATM   26  C1  UNL     1      37.352  13.106  -3.671  1.00  0.00     0.049 C 
HETATM   27  C23 UNL     1      37.063  11.664  -5.690  1.00  0.00    -0.055 A 
HETATM   28  C22 UNL     1      36.604  10.487  -6.242  1.00  0.00     0.019 A 
HETATM   29  C24 UNL     1      37.743  12.728  -6.482  1.00  0.00     0.049 C 
ENDBRANCH   1  22
TORSDOF 5
ENDMDL
