MODEL 3
REMARK VINA RESULT: -4.742810900      0.962      2.039
REMARK  4 active torsions:
REMARK  status: ('A' for Active; 'I' for Inactive)
REMARK    1  A    between atoms: C20_24  and  C21_25 
REMARK    2  A    between atoms: C21_25  and  O2_26 
REMARK    3  A    between atoms: C21_25  and  C26_31 
REMARK    4  A    between atoms: O2_26  and  C22_27 
ROOT
HETATM    1  C1  UNL     1      -2.378  36.559 -15.786  1.00  0.00     0.069 C 
HETATM    2  C2  UNL     1      -3.605  36.327 -15.006  1.00  0.00     0.016 A 
HETATM    3  N1  UNL     1      -3.557  35.872 -13.732  1.00  0.00    -0.359 N 
ATOM      4  H1  UNL     1      -2.645  35.649 -13.335  1.00  0.00     0.166 HD
HETATM    5  C3  UNL     1      -4.644  35.697 -12.962  1.00  0.00     0.043 A 
HETATM    6  C4  UNL     1      -4.583  35.235 -11.672  1.00  0.00     0.030 A 
HETATM    7  C5  UNL     1      -5.721  35.078 -10.940  1.00  0.00     0.002 A 
HETATM    8  C6  UNL     1      -6.975  35.368 -11.439  1.00  0.00     0.001 A 
HETATM    9  C7  UNL     1      -7.030  35.836 -12.747  1.00  0.00     0.014 A 
HETATM   10  C8  UNL     1      -5.884  35.993 -13.484  1.00  0.00     0.002 A 
HETATM   11  C9  UNL     1      -5.987  36.460 -14.778  1.00  0.00    -0.002 A 
HETATM   12  C10 UNL     1      -7.315  36.695 -15.294  1.00  0.00    -0.015 A 
HETATM   13  C11 UNL     1      -8.022  35.738 -15.995  1.00  0.00     0.058 A 
HETATM   14  C12 UNL     1      -9.290  36.048 -16.411  1.00  0.00     0.151 A 
HETATM   15  F1  UNL     1      -9.995  35.124 -17.096  1.00  0.00    -0.203 F 
HETATM   16  C13 UNL     1      -9.894  37.287 -16.154  1.00  0.00     0.114 A 
HETATM   17  C14 UNL     1      -9.192  38.238 -15.458  1.00  0.00    -0.015 A 
HETATM   18  C15 UNL     1      -7.898  37.924 -15.035  1.00  0.00    -0.042 A 
HETATM   19  C16 UNL     1      -7.183  38.979 -14.266  1.00  0.00     0.049 C 
HETATM   20  C17 UNL     1      -9.813  39.535 -15.163  1.00  0.00     0.044 C 
HETATM   21  C18 UNL     1     -10.793  39.889 -16.246  1.00  0.00     0.031 C 
HETATM   22  C19 UNL     1     -11.816  38.776 -16.349  1.00  0.00     0.176 C 
HETATM   23  O1  UNL     1     -11.189  37.533 -16.603  1.00  0.00    -0.347 OA
HETATM   24  C20 UNL     1      -4.853  36.626 -15.540  1.00  0.00     0.015 A 
ENDROOT
BRANCH  24  25
HETATM   25  C21 UNL     1      -4.959  36.984 -16.949  1.00  0.00     0.259 C 
BRANCH  25  26
HETATM   26  O2  UNL     1      -5.879  37.989 -17.173  1.00  0.00    -0.360 OA
BRANCH  26  27
HETATM   27  C22 UNL     1      -5.249  39.200 -17.454  1.00  0.00     0.051 C 
HETATM   28  C23 UNL     1      -6.297  40.233 -17.747  1.00  0.00     0.045 C 
HETATM   29  C24 UNL     1      -4.450  39.081 -18.771  1.00  0.00     0.045 C 
HETATM   30  C25 UNL     1      -4.314  39.701 -16.422  1.00  0.00     0.045 C 
ENDBRANCH  26  27
ENDBRANCH  25  26
BRANCH  25  31
HETATM   31  C26 UNL     1      -5.291  35.860 -17.869  1.00  0.00     0.208 C 
HETATM   32  O3  UNL     1      -6.164  36.064 -18.794  1.00  0.00    -0.646 OA
HETATM   33  O4  UNL     1      -4.776  34.591 -17.862  1.00  0.00    -0.646 OA
ENDBRANCH  25  31
ENDBRANCH  24  25
TORSDOF 4
ENDMDL
