MODEL 1
REMARK VINA RESULT: -4.914340228      0.000      0.000
REMARK  4 active torsions:
REMARK  status: ('A' for Active; 'I' for Inactive)
REMARK    1  A    between atoms: C20_24  and  C21_25 
REMARK    2  A    between atoms: C21_25  and  O2_26 
REMARK    3  A    between atoms: C21_25  and  C26_31 
REMARK    4  A    between atoms: O2_26  and  C22_27 
ROOT
HETATM    1  C1  UNL     1      -2.473  36.949 -15.693  1.00  0.00     0.069 C 
HETATM    2  C2  UNL     1      -3.711  36.622 -14.968  1.00  0.00     0.016 A 
HETATM    3  N1  UNL     1      -3.683  36.115 -13.714  1.00  0.00    -0.359 N 
ATOM      4  H1  UNL     1      -2.774  35.922 -13.293  1.00  0.00     0.166 HD
HETATM    5  C3  UNL     1      -4.784  35.852 -12.991  1.00  0.00     0.043 A 
HETATM    6  C4  UNL     1      -4.743  35.339 -11.720  1.00  0.00     0.030 A 
HETATM    7  C5  UNL     1      -5.895  35.093 -11.036  1.00  0.00     0.002 A 
HETATM    8  C6  UNL     1      -7.145  35.340 -11.568  1.00  0.00     0.001 A 
HETATM    9  C7  UNL     1      -7.181  35.860 -12.857  1.00  0.00     0.014 A 
HETATM   10  C8  UNL     1      -6.020  36.107 -13.545  1.00  0.00     0.002 A 
HETATM   11  C9  UNL     1      -6.103  36.623 -14.821  1.00  0.00    -0.002 A 
HETATM   12  C10 UNL     1      -7.423  36.812 -15.375  1.00  0.00    -0.015 A 
HETATM   13  C11 UNL     1      -8.056  35.852 -16.140  1.00  0.00     0.058 A 
HETATM   14  C12 UNL     1      -9.323  36.114 -16.587  1.00  0.00     0.151 A 
HETATM   15  F1  UNL     1      -9.955  35.186 -17.336  1.00  0.00    -0.203 F 
HETATM   16  C13 UNL     1      -9.999  37.309 -16.302  1.00  0.00     0.114 A 
HETATM   17  C14 UNL     1      -9.372  38.263 -15.543  1.00  0.00    -0.015 A 
HETATM   18  C15 UNL     1      -8.078  37.998 -15.087  1.00  0.00    -0.042 A 
HETATM   19  C16 UNL     1      -7.446  39.054 -14.249  1.00  0.00     0.049 C 
HETATM   20  C17 UNL     1     -10.070  39.513 -15.217  1.00  0.00     0.044 C 
HETATM   21  C18 UNL     1     -11.029  39.864 -16.319  1.00  0.00     0.031 C 
HETATM   22  C19 UNL     1     -11.989  38.705 -16.504  1.00  0.00     0.176 C 
HETATM   23  O1  UNL     1     -11.289  37.508 -16.787  1.00  0.00    -0.347 OA
HETATM   24  C20 UNL     1      -4.954  36.879 -15.534  1.00  0.00     0.015 A 
ENDROOT
BRANCH  24  25
HETATM   25  C21 UNL     1      -5.031  37.292 -16.930  1.00  0.00     0.259 C 
BRANCH  25  26
HETATM   26  O2  UNL     1      -4.377  36.422 -17.778  1.00  0.00    -0.360 OA
BRANCH  26  27
HETATM   27  C22 UNL     1      -5.211  35.992 -18.808  1.00  0.00     0.051 C 
HETATM   28  C23 UNL     1      -5.660  34.591 -18.514  1.00  0.00     0.045 C 
HETATM   29  C24 UNL     1      -4.404  35.867 -20.118  1.00  0.00     0.045 C 
HETATM   30  C25 UNL     1      -6.380  36.852 -19.098  1.00  0.00     0.045 C 
ENDBRANCH  26  27
ENDBRANCH  25  26
BRANCH  25  31
HETATM   31  C26 UNL     1      -4.525  38.664 -17.218  1.00  0.00     0.208 C 
HETATM   32  O3  UNL     1      -4.891  39.626 -16.444  1.00  0.00    -0.646 OA
HETATM   33  O4  UNL     1      -3.693  39.054 -18.233  1.00  0.00    -0.646 OA
ENDBRANCH  25  31
ENDBRANCH  24  25
TORSDOF 4
ENDMDL
