MODEL 2
REMARK VINA RESULT: -4.795929752      5.025      7.481
REMARK  4 active torsions:
REMARK  status: ('A' for Active; 'I' for Inactive)
REMARK    1  A    between atoms: C20_24  and  C21_25 
REMARK    2  A    between atoms: C21_25  and  O2_26 
REMARK    3  A    between atoms: C21_25  and  C26_31 
REMARK    4  A    between atoms: O2_26  and  C22_27 
ROOT
HETATM    1  C1  UNL     1     -12.071  34.593 -20.298  1.00  0.00     0.069 C 
HETATM    2  C2  UNL     1     -11.726  35.374 -19.099  1.00  0.00     0.016 A 
HETATM    3  N1  UNL     1     -10.938  34.863 -18.125  1.00  0.00    -0.359 N 
ATOM      4  H1  UNL     1     -10.620  33.899 -18.220  1.00  0.00     0.166 HD
HETATM    5  C3  UNL     1     -10.552  35.554 -17.040  1.00  0.00     0.043 A 
HETATM    6  C4  UNL     1      -9.752  35.025 -16.059  1.00  0.00     0.030 A 
HETATM    7  C5  UNL     1      -9.393  35.776 -14.981  1.00  0.00     0.002 A 
HETATM    8  C6  UNL     1      -9.800  37.084 -14.813  1.00  0.00     0.001 A 
HETATM    9  C7  UNL     1     -10.610  37.615 -15.811  1.00  0.00     0.014 A 
HETATM   10  C8  UNL     1     -10.972  36.858 -16.896  1.00  0.00     0.002 A 
HETATM   11  C9  UNL     1     -11.778  37.426 -17.861  1.00  0.00    -0.002 A 
HETATM   12  C10 UNL     1     -12.240  38.774 -17.630  1.00  0.00    -0.015 A 
HETATM   13  C11 UNL     1     -13.443  39.054 -17.013  1.00  0.00     0.058 A 
HETATM   14  C12 UNL     1     -13.773  40.367 -16.807  1.00  0.00     0.151 A 
HETATM   15  F1  UNL     1     -14.946  40.658 -16.206  1.00  0.00    -0.203 F 
HETATM   16  C13 UNL     1     -12.944  41.430 -17.193  1.00  0.00     0.114 A 
HETATM   17  C14 UNL     1     -11.749  41.153 -17.806  1.00  0.00    -0.015 A 
HETATM   18  C15 UNL     1     -11.412  39.814 -18.018  1.00  0.00    -0.042 A 
HETATM   19  C16 UNL     1     -10.096  39.562 -18.667  1.00  0.00     0.049 C 
HETATM   20  C17 UNL     1     -10.858  42.251 -18.200  1.00  0.00     0.044 C 
HETATM   21  C18 UNL     1     -11.670  43.472 -18.533  1.00  0.00     0.031 C 
HETATM   22  C19 UNL     1     -12.515  43.828 -17.326  1.00  0.00     0.176 C 
HETATM   23  O1  UNL     1     -13.341  42.742 -16.949  1.00  0.00    -0.347 OA
HETATM   24  C20 UNL     1     -12.157  36.689 -18.960  1.00  0.00     0.015 A 
ENDROOT
BRANCH  24  25
HETATM   25  C21 UNL     1     -13.117  37.230 -19.913  1.00  0.00     0.259 C 
BRANCH  25  26
HETATM   26  O2  UNL     1     -13.983  36.271 -20.397  1.00  0.00    -0.360 OA
BRANCH  26  27
HETATM   27  C22 UNL     1     -15.275  36.462 -19.911  1.00  0.00     0.051 C 
HETATM   28  C23 UNL     1     -15.600  35.356 -18.950  1.00  0.00     0.045 C 
HETATM   29  C24 UNL     1     -16.297  36.284 -21.057  1.00  0.00     0.045 C 
HETATM   30  C25 UNL     1     -15.547  37.776 -19.287  1.00  0.00     0.045 C 
ENDBRANCH  26  27
ENDBRANCH  25  26
BRANCH  25  31
HETATM   31  C26 UNL     1     -12.524  37.930 -21.087  1.00  0.00     0.208 C 
HETATM   32  O3  UNL     1     -13.279  38.711 -21.780  1.00  0.00    -0.646 OA
HETATM   33  O4  UNL     1     -11.237  37.851 -21.548  1.00  0.00    -0.646 OA
ENDBRANCH  25  31
ENDBRANCH  24  25
TORSDOF 4
ENDMDL
