MODEL 2
REMARK VINA RESULT: -5.370936244      0.101      1.492
REMARK  2 active torsions:
REMARK  status: ('A' for Active; 'I' for Inactive)
REMARK    1  A    between atoms: C1_2  and  C2_4 
REMARK    2  A    between atoms: C5_7  and  O3_8 
ROOT
HETATM    1  C2  UNL     1      16.200   2.260  15.372  1.00  0.00     0.041 A 
HETATM    2  C3  UNL     1      15.008   2.890  15.093  1.00  0.00     0.021 A 
HETATM    3  C4  UNL     1      14.986   4.165  14.543  1.00  0.00     0.037 A 
HETATM    4  C5  UNL     1      16.157   4.835  14.264  1.00  0.00     0.065 A 
HETATM    5  C6  UNL     1      17.348   4.204  14.544  1.00  0.00     0.037 A 
HETATM    6  C7  UNL     1      17.357   2.942  15.088  1.00  0.00     0.021 A 
ENDROOT
BRANCH   1   7
HETATM    7  C1  UNL     1      16.191   0.920  15.949  1.00  0.00     0.209 C 
HETATM    8  O1  UNL     1      17.236   0.233  16.045  1.00  0.00    -0.644 OA
HETATM    9  O2  UNL     1      15.014   0.353  16.419  1.00  0.00    -0.644 OA
ENDBRANCH   1   7
BRANCH   4  10
HETATM   10  O3  UNL     1      16.093   6.107  13.716  1.00  0.00    -0.361 OA
ATOM     11  H3  UNL     1      15.816   6.208  12.813  1.00  0.00     0.217 HD
ENDBRANCH   4  10
TORSDOF 2
ENDMDL
