MODEL 4
REMARK VINA RESULT: -5.182802992      1.515      4.514
REMARK  2 active torsions:
REMARK  status: ('A' for Active; 'I' for Inactive)
REMARK    1  A    between atoms: C1_2  and  C2_4 
REMARK    2  A    between atoms: C5_7  and  O3_8 
ROOT
HETATM    1  C2  UNL     1      15.425   2.808  14.964  1.00  0.00     0.041 A 
HETATM    2  C3  UNL     1      14.378   2.693  15.851  1.00  0.00     0.021 A 
HETATM    3  C4  UNL     1      14.335   1.661  16.778  1.00  0.00     0.037 A 
HETATM    4  C5  UNL     1      15.341   0.719  16.834  1.00  0.00     0.065 A 
HETATM    5  C6  UNL     1      16.387   0.835  15.946  1.00  0.00     0.037 A 
HETATM    6  C7  UNL     1      16.417   1.862  15.035  1.00  0.00     0.021 A 
ENDROOT
BRANCH   1   7
HETATM    7  C1  UNL     1      15.440   3.904  14.003  1.00  0.00     0.209 C 
HETATM    8  O1  UNL     1      14.727   4.925  14.151  1.00  0.00    -0.644 OA
HETATM    9  O2  UNL     1      16.253   3.857  12.878  1.00  0.00    -0.644 OA
ENDBRANCH   1   7
BRANCH   4  10
HETATM   10  O3  UNL     1      15.262  -0.297  17.774  1.00  0.00    -0.361 OA
ATOM     11  H3  UNL     1      14.642  -1.004  17.639  1.00  0.00     0.217 HD
ENDBRANCH   4  10
TORSDOF 2
ENDMDL
