MODEL 5
REMARK VINA RESULT: -5.177109762      1.508      4.306
REMARK  2 active torsions:
REMARK  status: ('A' for Active; 'I' for Inactive)
REMARK    1  A    between atoms: C1_2  and  C2_4 
REMARK    2  A    between atoms: C5_7  and  O3_8 
ROOT
HETATM    1  C2  UNL     1      15.357   2.827  15.005  1.00  0.00     0.041 A 
HETATM    2  C3  UNL     1      16.371   1.898  15.058  1.00  0.00     0.021 A 
HETATM    3  C4  UNL     1      16.341   0.858  15.978  1.00  0.00     0.037 A 
HETATM    4  C5  UNL     1      15.295   0.729  16.866  1.00  0.00     0.065 A 
HETATM    5  C6  UNL     1      14.282   1.660  16.813  1.00  0.00     0.037 A 
HETATM    6  C7  UNL     1      14.323   2.683  15.897  1.00  0.00     0.021 A 
ENDROOT
BRANCH   1   7
HETATM    7  C1  UNL     1      15.417   3.908  14.028  1.00  0.00     0.209 C 
HETATM    8  O1  UNL     1      14.719   4.943  14.142  1.00  0.00    -0.644 OA
HETATM    9  O2  UNL     1      16.257   3.828  12.926  1.00  0.00    -0.644 OA
ENDBRANCH   1   7
BRANCH   4  10
HETATM   10  O3  UNL     1      15.302  -0.322  17.769  1.00  0.00    -0.361 OA
ATOM     11  H3  UNL     1      15.449  -0.140  18.689  1.00  0.00     0.217 HD
ENDBRANCH   4  10
TORSDOF 2
ENDMDL
