MODEL 9
REMARK VINA RESULT: -4.849775535      4.878      6.356
REMARK  2 active torsions:
REMARK  status: ('A' for Active; 'I' for Inactive)
REMARK    1  A    between atoms: C1_2  and  C2_4 
REMARK    2  A    between atoms: C5_7  and  O3_8 
ROOT
HETATM    1  C2  UNL     1      17.421   1.420  10.948  1.00  0.00     0.041 A 
HETATM    2  C3  UNL     1      18.704   1.009  10.662  1.00  0.00     0.021 A 
HETATM    3  C4  UNL     1      19.061  -0.330  10.751  1.00  0.00     0.037 A 
HETATM    4  C5  UNL     1      18.141  -1.284  11.128  1.00  0.00     0.065 A 
HETATM    5  C6  UNL     1      16.859  -0.871  11.414  1.00  0.00     0.037 A 
HETATM    6  C7  UNL     1      16.518   0.457  11.322  1.00  0.00     0.021 A 
ENDROOT
BRANCH   1   7
HETATM    7  C1  UNL     1      17.077   2.834  10.846  1.00  0.00     0.209 C 
HETATM    8  O1  UNL     1      16.566   3.462  11.805  1.00  0.00    -0.644 OA
HETATM    9  O2  UNL     1      17.305   3.542   9.674  1.00  0.00    -0.644 OA
ENDBRANCH   1   7
BRANCH   4  10
HETATM   10  O3  UNL     1      18.537  -2.611  11.205  1.00  0.00    -0.361 OA
ATOM     11  H3  UNL     1      18.373  -3.185  10.466  1.00  0.00     0.217 HD
ENDBRANCH   4  10
TORSDOF 2
ENDMDL
