MODEL 3
REMARK VINA RESULT: -5.262374831      0.076      1.800
REMARK  2 active torsions:
REMARK  status: ('A' for Active; 'I' for Inactive)
REMARK    1  A    between atoms: C1_2  and  C2_4 
REMARK    2  A    between atoms: C5_7  and  O3_8 
ROOT
HETATM    1  C2  UNL     1      16.157   2.267  15.364  1.00  0.00     0.041 A 
HETATM    2  C3  UNL     1      14.992   2.932  15.054  1.00  0.00     0.021 A 
HETATM    3  C4  UNL     1      15.021   4.214  14.522  1.00  0.00     0.037 A 
HETATM    4  C5  UNL     1      16.219   4.856  14.289  1.00  0.00     0.065 A 
HETATM    5  C6  UNL     1      17.383   4.189  14.600  1.00  0.00     0.037 A 
HETATM    6  C7  UNL     1      17.340   2.921  15.126  1.00  0.00     0.021 A 
ENDROOT
BRANCH   1   7
HETATM    7  C1  UNL     1      16.093   0.921  15.923  1.00  0.00     0.209 C 
HETATM    8  O1  UNL     1      15.018   0.428  16.342  1.00  0.00    -0.644 OA
HETATM    9  O2  UNL     1      17.230   0.129  16.011  1.00  0.00    -0.644 OA
ENDBRANCH   1   7
BRANCH   4  10
HETATM   10  O3  UNL     1      16.206   6.136  13.756  1.00  0.00    -0.361 OA
ATOM     11  H3  UNL     1      16.979   6.680  13.843  1.00  0.00     0.217 HD
ENDBRANCH   4  10
TORSDOF 2
ENDMDL
