MODEL 1
REMARK VINA RESULT: -5.394617522      0.000      0.000
REMARK  2 active torsions:
REMARK  status: ('A' for Active; 'I' for Inactive)
REMARK    1  A    between atoms: C1_2  and  C2_4 
REMARK    2  A    between atoms: C5_7  and  O3_8 
ROOT
HETATM    1  C2  UNL     1      16.185   2.274  15.360  1.00  0.00     0.041 A 
HETATM    2  C3  UNL     1      17.381   2.920  15.142  1.00  0.00     0.021 A 
HETATM    3  C4  UNL     1      17.416   4.199  14.604  1.00  0.00     0.037 A 
HETATM    4  C5  UNL     1      16.252   4.858  14.272  1.00  0.00     0.065 A 
HETATM    5  C6  UNL     1      15.056   4.211  14.490  1.00  0.00     0.037 A 
HETATM    6  C7  UNL     1      15.036   2.945  15.023  1.00  0.00     0.021 A 
ENDROOT
BRANCH   1   7
HETATM    7  C1  UNL     1      16.181   0.930  15.926  1.00  0.00     0.209 C 
HETATM    8  O1  UNL     1      17.232   0.254  16.032  1.00  0.00    -0.644 OA
HETATM    9  O2  UNL     1      15.004   0.346  16.372  1.00  0.00    -0.644 OA
ENDBRANCH   1   7
BRANCH   4  10
HETATM   10  O3  UNL     1      16.328   6.135  13.737  1.00  0.00    -0.361 OA
ATOM     11  H3  UNL     1      15.527   6.580  13.487  1.00  0.00     0.217 HD
ENDBRANCH   4  10
TORSDOF 2
ENDMDL
