MODEL 2
REMARK VINA RESULT: -9.143022704      0.892      1.094
REMARK  2 active torsions:
REMARK  status: ('A' for Active; 'I' for Inactive)
REMARK    1  A    between atoms: C2_2  and  N1_3 
REMARK    2  A    between atoms: N5_20  and  S1_21 
ROOT
HETATM    1  N1  UNL     1     -13.447  29.248  -0.841  1.00  0.00    -0.331 N 
HETATM    2  C3  UNL     1     -12.231  29.834  -0.642  1.00  0.00     0.184 A 
HETATM    3  N2  UNL     1     -11.409  29.032   0.038  1.00  0.00    -0.349 N 
ATOM      4  H2  UNL     1     -10.449  29.242   0.310  1.00  0.00     0.166 HD
HETATM    5  C4  UNL     1     -12.073  27.905   0.296  1.00  0.00     0.076 A 
HETATM    6  C5  UNL     1     -11.755  26.719   0.957  1.00  0.00     0.121 A 
HETATM    7  N3  UNL     1     -12.631  25.713   1.079  1.00  0.00    -0.349 N 
ATOM      8  H3  UNL     1     -12.368  24.858   1.569  1.00  0.00     0.167 HD
HETATM    9  C6  UNL     1     -13.871  25.842   0.546  1.00  0.00     0.117 A 
HETATM   10  N4  UNL     1     -14.907  24.982   0.540  1.00  0.00    -0.352 N 
ATOM     11  H4  UNL     1     -14.933  24.049   0.953  1.00  0.00     0.166 HD
HETATM   12  C7  UNL     1     -15.891  25.596  -0.117  1.00  0.00     0.090 A 
HETATM   13  C8  UNL     1     -15.492  26.866  -0.541  1.00  0.00     0.034 A 
HETATM   14  C9  UNL     1     -14.217  27.015  -0.119  1.00  0.00     0.038 A 
HETATM   15  C10 UNL     1     -13.330  28.056  -0.253  1.00  0.00     0.078 A 
ENDROOT
BRANCH   1  16
HETATM   16  C2  UNL     1     -14.532  29.878  -1.541  1.00  0.00     0.037 C 
HETATM   17  C1  UNL     1     -15.054  29.100  -2.721  1.00  0.00     0.039 C 
HETATM   18  C11 UNL     1     -13.979  31.153  -2.221  1.00  0.00     0.046 C 
HETATM   19  C12 UNL     1     -15.121  31.866  -2.906  1.00  0.00     0.109 C 
HETATM   20  N5  UNL     1     -15.911  32.493  -1.876  1.00  0.00    -0.211 NA
HETATM   21  C14 UNL     1     -15.616  31.947  -0.573  1.00  0.00     0.109 C 
HETATM   22  C15 UNL     1     -15.608  30.438  -0.639  1.00  0.00     0.046 C 
BRANCH  20  23
HETATM   23  S1  UNL     1     -15.834  34.189  -1.920  1.00  0.00     0.207 S 
HETATM   24  C13 UNL     1     -14.224  34.833  -1.588  1.00  0.00     0.180 C 
HETATM   25  O1  UNL     1     -16.333  34.677  -3.251  1.00  0.00    -0.212 OA
HETATM   26  O2  UNL     1     -16.767  34.741  -0.873  1.00  0.00    -0.212 OA
ENDBRANCH  20  23
ENDBRANCH   1  16
TORSDOF 2
ENDMDL
