MODEL 3
REMARK VINA RESULT: -8.904754919      1.254      1.721
REMARK  2 active torsions:
REMARK  status: ('A' for Active; 'I' for Inactive)
REMARK    1  A    between atoms: C2_2  and  N1_3 
REMARK    2  A    between atoms: N5_20  and  S1_21 
ROOT
HETATM    1  N1  UNL     1     -14.069  28.957  -1.087  1.00  0.00    -0.331 N 
HETATM    2  C3  UNL     1     -12.862  29.283  -0.540  1.00  0.00     0.184 A 
HETATM    3  N2  UNL     1     -12.404  28.307   0.247  1.00  0.00    -0.349 N 
ATOM      4  H2  UNL     1     -11.527  28.313   0.768  1.00  0.00     0.166 HD
HETATM    5  C4  UNL     1     -13.305  27.324   0.229  1.00  0.00     0.076 A 
HETATM    6  C5  UNL     1     -13.389  26.072   0.839  1.00  0.00     0.121 A 
HETATM    7  N3  UNL     1     -14.432  25.255   0.647  1.00  0.00    -0.349 N 
ATOM      8  H3  UNL     1     -14.465  24.345   1.108  1.00  0.00     0.167 HD
HETATM    9  C6  UNL     1     -15.445  25.647  -0.163  1.00  0.00     0.117 A 
HETATM   10  N4  UNL     1     -16.581  25.009  -0.504  1.00  0.00    -0.352 N 
ATOM     11  H4  UNL     1     -16.881  24.084  -0.197  1.00  0.00     0.166 HD
HETATM   12  C7  UNL     1     -17.232  25.832  -1.326  1.00  0.00     0.090 A 
HETATM   13  C8  UNL     1     -16.515  27.014  -1.521  1.00  0.00     0.034 A 
HETATM   14  C9  UNL     1     -15.389  26.891  -0.784  1.00  0.00     0.038 A 
HETATM   15  C10 UNL     1     -14.326  27.742  -0.599  1.00  0.00     0.078 A 
ENDROOT
BRANCH   1  16
HETATM   16  C2  UNL     1     -14.802  29.817  -1.974  1.00  0.00     0.037 C 
HETATM   17  C1  UNL     1     -14.966  29.282  -3.374  1.00  0.00     0.039 C 
HETATM   18  C11 UNL     1     -13.948  31.083  -2.217  1.00  0.00     0.046 C 
HETATM   19  C12 UNL     1     -14.732  32.031  -3.095  1.00  0.00     0.109 C 
HETATM   20  N5  UNL     1     -15.763  32.616  -2.275  1.00  0.00    -0.211 NA
HETATM   21  C14 UNL     1     -15.966  31.866  -1.059  1.00  0.00     0.109 C 
HETATM   22  C15 UNL     1     -16.065  30.392  -1.375  1.00  0.00     0.046 C 
BRANCH  20  23
HETATM   23  S1  UNL     1     -15.532  34.277  -2.002  1.00  0.00     0.207 S 
HETATM   24  C13 UNL     1     -13.893  34.688  -1.491  1.00  0.00     0.180 C 
HETATM   25  O1  UNL     1     -15.907  35.043  -3.239  1.00  0.00    -0.212 OA
HETATM   26  O2  UNL     1     -16.471  34.721  -0.910  1.00  0.00    -0.212 OA
ENDBRANCH  20  23
ENDBRANCH   1  16
TORSDOF 2
ENDMDL
