MODEL 10
REMARK VINA RESULT: -6.716763824      3.796      6.368
REMARK  2 active torsions:
REMARK  status: ('A' for Active; 'I' for Inactive)
REMARK    1  A    between atoms: C2_2  and  N1_3 
REMARK    2  A    between atoms: N5_20  and  S1_21 
ROOT
HETATM    1  N1  UNL     1     -14.515  31.694  -2.041  1.00  0.00    -0.331 N 
HETATM    2  C3  UNL     1     -15.704  32.348  -2.192  1.00  0.00     0.184 A 
HETATM    3  N2  UNL     1     -15.573  33.656  -1.959  1.00  0.00    -0.349 N 
ATOM      4  H2  UNL     1     -16.316  34.354  -2.007  1.00  0.00     0.166 HD
HETATM    5  C4  UNL     1     -14.296  33.882  -1.651  1.00  0.00     0.076 A 
HETATM    6  C5  UNL     1     -13.565  35.021  -1.316  1.00  0.00     0.121 A 
HETATM    7  N3  UNL     1     -12.254  34.972  -1.045  1.00  0.00    -0.349 N 
ATOM      8  H3  UNL     1     -11.746  35.824  -0.803  1.00  0.00     0.167 HD
HETATM    9  C6  UNL     1     -11.608  33.782  -1.094  1.00  0.00     0.117 A 
HETATM   10  N4  UNL     1     -10.314  33.486  -0.865  1.00  0.00    -0.352 N 
ATOM     11  H4  UNL     1      -9.572  34.137  -0.606  1.00  0.00     0.166 HD
HETATM   12  C7  UNL     1     -10.200  32.171  -1.048  1.00  0.00     0.090 A 
HETATM   13  C8  UNL     1     -11.428  31.607  -1.398  1.00  0.00     0.034 A 
HETATM   14  C9  UNL     1     -12.312  32.628  -1.425  1.00  0.00     0.038 A 
HETATM   15  C10 UNL     1     -13.657  32.660  -1.706  1.00  0.00     0.078 A 
ENDROOT
BRANCH   1  16
HETATM   16  C2  UNL     1     -14.352  30.279  -2.227  1.00  0.00     0.037 C 
HETATM   17  C1  UNL     1     -13.686  29.889  -3.521  1.00  0.00     0.039 C 
HETATM   18  C11 UNL     1     -15.759  29.660  -2.395  1.00  0.00     0.046 C 
HETATM   19  C12 UNL     1     -15.613  28.162  -2.524  1.00  0.00     0.109 C 
HETATM   20  N5  UNL     1     -15.304  27.650  -1.212  1.00  0.00    -0.211 NA
HETATM   21  C14 UNL     1     -14.863  28.697  -0.323  1.00  0.00     0.109 C 
HETATM   22  C15 UNL     1     -13.826  29.552  -1.010  1.00  0.00     0.046 C 
BRANCH  20  23
HETATM   23  S1  UNL     1     -16.553  26.702  -0.558  1.00  0.00     0.207 S 
HETATM   24  C13 UNL     1     -17.718  26.141  -1.759  1.00  0.00     0.180 C 
HETATM   25  O1  UNL     1     -15.960  25.539   0.185  1.00  0.00    -0.212 OA
HETATM   26  O2  UNL     1     -17.307  27.529   0.451  1.00  0.00    -0.212 OA
ENDBRANCH  20  23
ENDBRANCH   1  16
TORSDOF 2
ENDMDL
