MODEL 8
REMARK VINA RESULT: -7.225617329      3.457      4.841
REMARK  2 active torsions:
REMARK  status: ('A' for Active; 'I' for Inactive)
REMARK    1  A    between atoms: C2_2  and  N1_3 
REMARK    2  A    between atoms: N5_20  and  S1_21 
ROOT
HETATM    1  N1  UNL     1     -13.663  31.745  -1.975  1.00  0.00    -0.331 N 
HETATM    2  C3  UNL     1     -13.329  33.008  -2.370  1.00  0.00     0.184 A 
HETATM    3  N2  UNL     1     -12.063  33.296  -2.060  1.00  0.00    -0.349 N 
ATOM      4  H2  UNL     1     -11.581  34.175  -2.249  1.00  0.00     0.166 HD
HETATM    5  C4  UNL     1     -11.546  32.226  -1.456  1.00  0.00     0.076 A 
HETATM    6  C5  UNL     1     -10.296  31.926  -0.914  1.00  0.00     0.121 A 
HETATM    7  N3  UNL     1     -10.030  30.741  -0.349  1.00  0.00    -0.349 N 
ATOM      8  H3  UNL     1      -9.106  30.551   0.038  1.00  0.00     0.167 HD
HETATM    9  C6  UNL     1     -11.000  29.796  -0.297  1.00  0.00     0.117 A 
HETATM   10  N4  UNL     1     -10.972  28.549   0.212  1.00  0.00    -0.352 N 
ATOM     11  H4  UNL     1     -10.181  28.088   0.662  1.00  0.00     0.166 HD
HETATM   12  C7  UNL     1     -12.186  28.040   0.007  1.00  0.00     0.090 A 
HETATM   13  C8  UNL     1     -13.011  28.962  -0.640  1.00  0.00     0.034 A 
HETATM   14  C9  UNL     1     -12.258  30.068  -0.828  1.00  0.00     0.038 A 
HETATM   15  C10 UNL     1     -12.547  31.278  -1.412  1.00  0.00     0.078 A 
ENDROOT
BRANCH   1  16
HETATM   16  C2  UNL     1     -14.961  31.162  -2.176  1.00  0.00     0.037 C 
HETATM   17  C1  UNL     1     -16.084  32.158  -2.298  1.00  0.00     0.039 C 
HETATM   18  C11 UNL     1     -15.345  30.408  -0.881  1.00  0.00     0.046 C 
HETATM   19  C12 UNL     1     -16.678  29.730  -1.098  1.00  0.00     0.109 C 
HETATM   20  N5  UNL     1     -16.444  28.593  -1.952  1.00  0.00    -0.211 NA
HETATM   21  C14 UNL     1     -15.167  28.681  -2.616  1.00  0.00     0.109 C 
HETATM   22  C15 UNL     1     -14.990  30.059  -3.209  1.00  0.00     0.046 C 
BRANCH  20  23
HETATM   23  S1  UNL     1     -16.683  27.108  -1.161  1.00  0.00     0.207 S 
HETATM   24  C13 UNL     1     -17.880  26.075  -1.944  1.00  0.00     0.180 C 
HETATM   25  O1  UNL     1     -15.367  26.392  -1.037  1.00  0.00    -0.212 OA
HETATM   26  O2  UNL     1     -17.167  27.381   0.240  1.00  0.00    -0.212 OA
ENDBRANCH  20  23
ENDBRANCH   1  16
TORSDOF 2
ENDMDL
