MODEL 14
REMARK VINA RESULT: -6.447552553      3.922      5.885
REMARK  2 active torsions:
REMARK  status: ('A' for Active; 'I' for Inactive)
REMARK    1  A    between atoms: C2_2  and  N1_3 
REMARK    2  A    between atoms: N5_20  and  S1_21 
ROOT
HETATM    1  N1  UNL     1     -15.167  31.020  -1.929  1.00  0.00    -0.331 N 
HETATM    2  C3  UNL     1     -15.686  32.193  -2.396  1.00  0.00     0.184 A 
HETATM    3  N2  UNL     1     -14.761  33.155  -2.429  1.00  0.00    -0.349 N 
ATOM      4  H2  UNL     1     -14.903  34.118  -2.737  1.00  0.00     0.166 HD
HETATM    5  C4  UNL     1     -13.620  32.629  -1.984  1.00  0.00     0.076 A 
HETATM    6  C5  UNL     1     -12.331  33.126  -1.791  1.00  0.00     0.121 A 
HETATM    7  N3  UNL     1     -11.337  32.364  -1.318  1.00  0.00    -0.349 N 
ATOM      8  H3  UNL     1     -10.404  32.757  -1.188  1.00  0.00     0.167 HD
HETATM    9  C6  UNL     1     -11.580  31.066  -1.014  1.00  0.00     0.117 A 
HETATM   10  N4  UNL     1     -10.754  30.117  -0.533  1.00  0.00    -0.352 N 
ATOM     11  H4  UNL     1      -9.765  30.222  -0.307  1.00  0.00     0.166 HD
HETATM   12  C7  UNL     1     -11.492  29.014  -0.412  1.00  0.00     0.090 A 
HETATM   13  C8  UNL     1     -12.808  29.246  -0.818  1.00  0.00     0.034 A 
HETATM   14  C9  UNL     1     -12.857  30.542  -1.195  1.00  0.00     0.038 A 
HETATM   15  C10 UNL     1     -13.889  31.311  -1.680  1.00  0.00     0.078 A 
ENDROOT
BRANCH   1  16
HETATM   16  C2  UNL     1     -15.929  29.812  -1.782  1.00  0.00     0.037 C 
HETATM   17  C1  UNL     1     -17.423  30.009  -1.770  1.00  0.00     0.039 C 
HETATM   18  C11 UNL     1     -15.671  29.260  -0.360  1.00  0.00     0.046 C 
HETATM   19  C12 UNL     1     -16.411  27.951  -0.211  1.00  0.00     0.109 C 
HETATM   20  N5  UNL     1     -15.684  26.962  -0.966  1.00  0.00    -0.211 NA
HETATM   21  C14 UNL     1     -14.763  27.571  -1.894  1.00  0.00     0.109 C 
HETATM   22  C15 UNL     1     -15.458  28.673  -2.658  1.00  0.00     0.046 C 
BRANCH  20  23
HETATM   23  S1  UNL     1     -14.957  25.781   0.015  1.00  0.00     0.207 S 
HETATM   24  C13 UNL     1     -13.404  26.281   0.691  1.00  0.00     0.180 C 
HETATM   25  O1  UNL     1     -15.907  25.388   1.112  1.00  0.00    -0.212 OA
HETATM   26  O2  UNL     1     -14.712  24.548  -0.815  1.00  0.00    -0.212 OA
ENDBRANCH  20  23
ENDBRANCH   1  16
TORSDOF 2
ENDMDL
