MODEL 2
REMARK VINA RESULT: -8.588466347      2.554      4.467
REMARK  4 active torsions:
REMARK  status: ('A' for Active; 'I' for Inactive)
REMARK    1  A    between atoms: C2_2  and  O1_5 
REMARK    2  A    between atoms: O1_5  and  C5_6 
REMARK       I    between atoms: C5_6  and  N1_8 
REMARK    3  A    between atoms: N1_8  and  C6_10 
REMARK    4  A    between atoms: C9_13  and  N2_14 
ROOT
HETATM    1  N2  UNL     1       5.950  57.408   1.186  1.00  0.00    -0.335 N 
HETATM    2  C10 UNL     1       4.875  58.060   1.678  1.00  0.00     0.184 A 
HETATM    3  N3  UNL     1       4.947  59.363   1.390  1.00  0.00    -0.349 N 
ATOM      4  H3  UNL     1       4.259  60.070   1.650  1.00  0.00     0.166 HD
HETATM    5  C11 UNL     1       6.075  59.586   0.700  1.00  0.00     0.076 A 
HETATM    6  C12 UNL     1       6.675  60.696   0.147  1.00  0.00     0.121 A 
HETATM    7  N4  UNL     1       7.841  60.562  -0.496  1.00  0.00    -0.349 N 
ATOM      8  H4  UNL     1       8.276  61.390  -0.904  1.00  0.00     0.167 HD
HETATM    9  C13 UNL     1       8.459  59.374  -0.624  1.00  0.00     0.117 A 
HETATM   10  N5  UNL     1       9.616  58.978  -1.211  1.00  0.00    -0.352 N 
ATOM     11  H5  UNL     1      10.265  59.595  -1.700  1.00  0.00     0.166 HD
HETATM   12  C14 UNL     1       9.781  57.652  -1.053  1.00  0.00     0.090 A 
HETATM   13  C15 UNL     1       8.704  57.145  -0.340  1.00  0.00     0.034 A 
HETATM   14  C16 UNL     1       7.899  58.227  -0.086  1.00  0.00     0.038 A 
HETATM   15  C17 UNL     1       6.697  58.336   0.581  1.00  0.00     0.078 A 
ENDROOT
BRANCH   1  16
HETATM   16  C9  UNL     1       6.182  56.006   1.319  1.00  0.00     0.093 C 
HETATM   17  C8  UNL     1       5.083  55.223   1.961  1.00  0.00     0.028 C 
HETATM   18  C7  UNL     1       5.791  53.901   2.260  1.00  0.00     0.027 C 
HETATM   19  C6  UNL     1       7.227  54.241   2.588  1.00  0.00     0.088 C 
HETATM   20  C18 UNL     1       7.304  55.757   2.357  1.00  0.00     0.051 C 
BRANCH  19  21
HETATM   21  N1  UNL     1       8.153  53.622   1.658  1.00  0.00    -0.332 N 
HETATM   22  C5  UNL     1       8.887  52.443   1.955  1.00  0.00     0.361 C 
HETATM   23  O2  UNL     1       8.754  51.891   3.053  1.00  0.00    -0.238 OA
ATOM     24  H1  UNL     1       8.283  54.055   0.744  1.00  0.00     0.165 HD
BRANCH  22  25
HETATM   25  O1  UNL     1       9.741  51.923   1.021  1.00  0.00    -0.294 OA
BRANCH  25  26
HETATM   26  C2  UNL     1      11.109  52.201   1.011  1.00  0.00     0.061 C 
HETATM   27  C1  UNL     1      11.490  53.412   1.802  1.00  0.00     0.046 C 
HETATM   28  C3  UNL     1      11.655  52.357  -0.402  1.00  0.00     0.046 C 
HETATM   29  C4  UNL     1      11.823  50.989   1.604  1.00  0.00     0.046 C 
ENDBRANCH  25  26
ENDBRANCH  22  25
ENDBRANCH  19  21
ENDBRANCH   1  16
TORSDOF 4
ENDMDL
