MODEL 3
REMARK VINA RESULT: -8.520436091      1.030      1.093
REMARK  4 active torsions:
REMARK  status: ('A' for Active; 'I' for Inactive)
REMARK    1  A    between atoms: C2_2  and  O1_5 
REMARK    2  A    between atoms: O1_5  and  C5_6 
REMARK       I    between atoms: C5_6  and  N1_8 
REMARK    3  A    between atoms: N1_8  and  C6_10 
REMARK    4  A    between atoms: C9_13  and  N2_14 
ROOT
HETATM    1  N2  UNL     1       7.567  56.830   0.790  1.00  0.00    -0.335 N 
HETATM    2  C10 UNL     1       8.737  56.712   0.127  1.00  0.00     0.184 A 
HETATM    3  N3  UNL     1       9.039  57.856  -0.496  1.00  0.00    -0.349 N 
ATOM      4  H3  UNL     1       9.869  58.023  -1.064  1.00  0.00     0.166 HD
HETATM    5  C11 UNL     1       8.068  58.746  -0.248  1.00  0.00     0.076 A 
HETATM    6  C12 UNL     1       7.831  60.054  -0.608  1.00  0.00     0.121 A 
HETATM    7  N4  UNL     1       6.724  60.667  -0.171  1.00  0.00    -0.349 N 
ATOM      8  H4  UNL     1       6.559  61.637  -0.442  1.00  0.00     0.167 HD
HETATM    9  C13 UNL     1       5.822  60.050   0.612  1.00  0.00     0.117 A 
HETATM   10  N5  UNL     1       4.649  60.434   1.175  1.00  0.00    -0.352 N 
ATOM     11  H5  UNL     1       4.228  61.358   1.075  1.00  0.00     0.166 HD
HETATM   12  C14 UNL     1       4.124  59.418   1.882  1.00  0.00     0.090 A 
HETATM   13  C15 UNL     1       4.968  58.321   1.792  1.00  0.00     0.034 A 
HETATM   14  C16 UNL     1       6.012  58.734   1.003  1.00  0.00     0.038 A 
HETATM   15  C17 UNL     1       7.144  58.078   0.568  1.00  0.00     0.078 A 
ENDROOT
BRANCH   1  16
HETATM   16  C9  UNL     1       6.959  55.793   1.558  1.00  0.00     0.093 C 
HETATM   17  C8  UNL     1       7.168  55.871   3.036  1.00  0.00     0.028 C 
HETATM   18  C7  UNL     1       6.719  54.477   3.477  1.00  0.00     0.027 C 
HETATM   19  C6  UNL     1       7.104  53.525   2.366  1.00  0.00     0.088 C 
HETATM   20  C18 UNL     1       7.671  54.446   1.277  1.00  0.00     0.051 C 
BRANCH  19  21
HETATM   21  N1  UNL     1       5.945  52.861   1.800  1.00  0.00    -0.332 N 
HETATM   22  C5  UNL     1       5.388  51.670   2.336  1.00  0.00     0.361 C 
HETATM   23  O2  UNL     1       5.893  51.145   3.336  1.00  0.00    -0.238 OA
ATOM     24  H1  UNL     1       5.507  53.271   0.976  1.00  0.00     0.165 HD
BRANCH  22  25
HETATM   25  O1  UNL     1       4.292  51.106   1.741  1.00  0.00    -0.294 OA
BRANCH  25  26
HETATM   26  C2  UNL     1       4.345  49.888   1.062  1.00  0.00     0.061 C 
HETATM   27  C1  UNL     1       3.851  48.724   1.859  1.00  0.00     0.046 C 
HETATM   28  C3  UNL     1       5.746  49.569   0.560  1.00  0.00     0.046 C 
HETATM   29  C4  UNL     1       3.475  50.027  -0.185  1.00  0.00     0.046 C 
ENDBRANCH  25  26
ENDBRANCH  22  25
ENDBRANCH  19  21
ENDBRANCH   1  16
TORSDOF 4
ENDMDL
