MODEL 6
REMARK VINA RESULT: -8.134965899      6.762     10.777
REMARK  4 active torsions:
REMARK  status: ('A' for Active; 'I' for Inactive)
REMARK    1  A    between atoms: C2_2  and  O1_5 
REMARK    2  A    between atoms: O1_5  and  C5_6 
REMARK       I    between atoms: C5_6  and  N1_8 
REMARK    3  A    between atoms: N1_8  and  C6_10 
REMARK    4  A    between atoms: C9_13  and  N2_14 
ROOT
HETATM    1  N2  UNL     1       0.498  46.624   3.674  1.00  0.00    -0.335 N 
HETATM    2  C10 UNL     1       0.262  46.077   4.886  1.00  0.00     0.184 A 
HETATM    3  N3  UNL     1      -0.919  46.487   5.361  1.00  0.00    -0.349 N 
ATOM      4  H3  UNL     1      -1.326  46.217   6.256  1.00  0.00     0.166 HD
HETATM    5  C11 UNL     1      -1.477  47.312   4.464  1.00  0.00     0.076 A 
HETATM    6  C12 UNL     1      -2.653  48.026   4.398  1.00  0.00     0.121 A 
HETATM    7  N4  UNL     1      -2.907  48.777   3.320  1.00  0.00    -0.349 N 
ATOM      8  H4  UNL     1      -3.782  49.301   3.280  1.00  0.00     0.167 HD
HETATM    9  C13 UNL     1      -2.049  48.867   2.288  1.00  0.00     0.117 A 
HETATM   10  N5  UNL     1      -2.066  49.540   1.110  1.00  0.00    -0.352 N 
ATOM     11  H5  UNL     1      -2.821  50.151   0.796  1.00  0.00     0.166 HD
HETATM   12  C14 UNL     1      -0.941  49.285   0.419  1.00  0.00     0.090 A 
HETATM   13  C15 UNL     1      -0.147  48.415   1.153  1.00  0.00     0.034 A 
HETATM   14  C16 UNL     1      -0.852  48.169   2.304  1.00  0.00     0.038 A 
HETATM   15  C17 UNL     1      -0.565  47.387   3.402  1.00  0.00     0.078 A 
ENDROOT
BRANCH   1  16
HETATM   16  C9  UNL     1       1.668  46.392   2.890  1.00  0.00     0.093 C 
HETATM   17  C8  UNL     1       2.081  44.963   2.747  1.00  0.00     0.028 C 
HETATM   18  C7  UNL     1       3.498  45.114   2.192  1.00  0.00     0.027 C 
HETATM   19  C6  UNL     1       4.078  46.363   2.818  1.00  0.00     0.088 C 
HETATM   20  C18 UNL     1       2.913  46.937   3.635  1.00  0.00     0.051 C 
BRANCH  19  21
HETATM   21  N1  UNL     1       4.425  47.355   1.817  1.00  0.00    -0.332 N 
HETATM   22  C5  UNL     1       5.556  48.207   1.921  1.00  0.00     0.361 C 
HETATM   23  O2  UNL     1       6.304  48.127   2.903  1.00  0.00    -0.238 OA
ATOM     24  H1  UNL     1       3.827  47.444   0.996  1.00  0.00     0.165 HD
BRANCH  22  25
HETATM   25  O1  UNL     1       5.813  49.117   0.932  1.00  0.00    -0.294 OA
BRANCH  25  26
HETATM   26  C2  UNL     1       5.059  50.280   0.762  1.00  0.00     0.061 C 
HETATM   27  C1  UNL     1       4.261  50.670   1.965  1.00  0.00     0.046 C 
HETATM   28  C3  UNL     1       4.117  50.186  -0.431  1.00  0.00     0.046 C 
HETATM   29  C4  UNL     1       6.034  51.409   0.439  1.00  0.00     0.046 C 
ENDBRANCH  25  26
ENDBRANCH  22  25
ENDBRANCH  19  21
ENDBRANCH   1  16
TORSDOF 4
ENDMDL
