MODEL 5
REMARK VINA RESULT: -8.236664489      2.943      4.889
REMARK  4 active torsions:
REMARK  status: ('A' for Active; 'I' for Inactive)
REMARK    1  A    between atoms: C2_2  and  O1_5 
REMARK    2  A    between atoms: O1_5  and  C5_6 
REMARK       I    between atoms: C5_6  and  N1_8 
REMARK    3  A    between atoms: N1_8  and  C6_10 
REMARK    4  A    between atoms: C9_13  and  N2_14 
ROOT
HETATM    1  N2  UNL     1       6.432  56.983   0.942  1.00  0.00    -0.335 N 
HETATM    2  C10 UNL     1       5.289  57.299   1.587  1.00  0.00     0.184 A 
HETATM    3  N3  UNL     1       5.064  58.616   1.519  1.00  0.00    -0.349 N 
ATOM      4  H3  UNL     1       4.268  59.105   1.927  1.00  0.00     0.166 HD
HETATM    5  C11 UNL     1       6.061  59.184   0.826  1.00  0.00     0.076 A 
HETATM    6  C12 UNL     1       6.369  60.470   0.440  1.00  0.00     0.121 A 
HETATM    7  N4  UNL     1       7.481  60.696  -0.270  1.00  0.00    -0.349 N 
ATOM      8  H4  UNL     1       7.700  61.652  -0.551  1.00  0.00     0.167 HD
HETATM    9  C13 UNL     1       8.320  59.707  -0.625  1.00  0.00     0.117 A 
HETATM   10  N5  UNL     1       9.483  59.669  -1.323  1.00  0.00    -0.352 N 
ATOM     11  H5  UNL     1       9.948  60.481  -1.730  1.00  0.00     0.166 HD
HETATM   12  C14 UNL     1       9.932  58.403  -1.399  1.00  0.00     0.090 A 
HETATM   13  C15 UNL     1       9.046  57.569  -0.733  1.00  0.00     0.034 A 
HETATM   14  C16 UNL     1       8.057  58.395  -0.263  1.00  0.00     0.038 A 
HETATM   15  C17 UNL     1       6.918  58.134   0.469  1.00  0.00     0.078 A 
ENDROOT
BRANCH   1  16
HETATM   16  C9  UNL     1       6.961  55.662   0.825  1.00  0.00     0.093 C 
HETATM   17  C8  UNL     1       6.127  54.574   1.418  1.00  0.00     0.028 C 
HETATM   18  C7  UNL     1       7.121  53.411   1.439  1.00  0.00     0.027 C 
HETATM   19  C6  UNL     1       8.484  54.010   1.700  1.00  0.00     0.088 C 
HETATM   20  C18 UNL     1       8.222  55.522   1.715  1.00  0.00     0.051 C 
BRANCH  19  21
HETATM   21  N1  UNL     1       9.406  53.749   0.610  1.00  0.00    -0.332 N 
HETATM   22  C5  UNL     1      10.814  53.681   0.776  1.00  0.00     0.361 C 
HETATM   23  O2  UNL     1      11.315  53.851   1.894  1.00  0.00    -0.238 OA
ATOM     24  H1  UNL     1       9.022  53.605  -0.324  1.00  0.00     0.165 HD
BRANCH  22  25
HETATM   25  O1  UNL     1      11.613  53.430  -0.306  1.00  0.00    -0.294 OA
BRANCH  25  26
HETATM   26  C2  UNL     1      12.007  52.141  -0.671  1.00  0.00     0.061 C 
HETATM   27  C1  UNL     1      10.872  51.180  -0.828  1.00  0.00     0.046 C 
HETATM   28  C3  UNL     1      13.010  51.546   0.307  1.00  0.00     0.046 C 
HETATM   29  C4  UNL     1      12.737  52.252  -2.007  1.00  0.00     0.046 C 
ENDBRANCH  25  26
ENDBRANCH  22  25
ENDBRANCH  19  21
ENDBRANCH   1  16
TORSDOF 4
ENDMDL
