MODEL 1
REMARK VINA RESULT: -8.704356687      0.000      0.000
REMARK  4 active torsions:
REMARK  status: ('A' for Active; 'I' for Inactive)
REMARK    1  A    between atoms: C2_2  and  O1_5 
REMARK    2  A    between atoms: O1_5  and  C5_6 
REMARK       I    between atoms: C5_6  and  N1_8 
REMARK    3  A    between atoms: N1_8  and  C6_10 
REMARK    4  A    between atoms: C9_13  and  N2_14 
ROOT
HETATM    1  N2  UNL     1       7.818  56.714   0.507  1.00  0.00    -0.335 N 
HETATM    2  C10 UNL     1       8.994  56.781  -0.153  1.00  0.00     0.184 A 
HETATM    3  N3  UNL     1       9.197  58.018  -0.620  1.00  0.00    -0.349 N 
ATOM      4  H3  UNL     1      10.010  58.327  -1.152  1.00  0.00     0.166 HD
HETATM    5  C11 UNL     1       8.153  58.783  -0.271  1.00  0.00     0.076 A 
HETATM    6  C12 UNL     1       7.806  60.102  -0.463  1.00  0.00     0.121 A 
HETATM    7  N4  UNL     1       6.650  60.557   0.036  1.00  0.00    -0.349 N 
ATOM      8  H4  UNL     1       6.402  61.536  -0.110  1.00  0.00     0.167 HD
HETATM    9  C13 UNL     1       5.804  59.769   0.723  1.00  0.00     0.117 A 
HETATM   10  N5  UNL     1       4.602  59.977   1.316  1.00  0.00    -0.352 N 
ATOM     11  H5  UNL     1       4.102  60.867   1.331  1.00  0.00     0.166 HD
HETATM   12  C14 UNL     1       4.165  58.838   1.882  1.00  0.00     0.090 A 
HETATM   13  C15 UNL     1       5.100  57.837   1.662  1.00  0.00     0.034 A 
HETATM   14  C16 UNL     1       6.105  58.435   0.944  1.00  0.00     0.038 A 
HETATM   15  C17 UNL     1       7.290  57.939   0.442  1.00  0.00     0.078 A 
ENDROOT
BRANCH   1  16
HETATM   16  C9  UNL     1       7.300  55.538   1.128  1.00  0.00     0.093 C 
HETATM   17  C8  UNL     1       7.622  55.375   2.579  1.00  0.00     0.028 C 
HETATM   18  C7  UNL     1       7.247  53.909   2.806  1.00  0.00     0.027 C 
HETATM   19  C6  UNL     1       7.571  53.175   1.525  1.00  0.00     0.088 C 
HETATM   20  C18 UNL     1       8.025  54.288   0.571  1.00  0.00     0.051 C 
BRANCH  19  21
HETATM   21  N1  UNL     1       6.390  52.569   0.939  1.00  0.00    -0.332 N 
HETATM   22  C5  UNL     1       6.314  51.198   0.575  1.00  0.00     0.361 C 
HETATM   23  O2  UNL     1       7.286  50.456   0.752  1.00  0.00    -0.238 OA
ATOM     24  H1  UNL     1       5.572  53.157   0.781  1.00  0.00     0.165 HD
BRANCH  22  25
HETATM   25  O1  UNL     1       5.161  50.705   0.027  1.00  0.00    -0.294 OA
BRANCH  25  26
HETATM   26  C2  UNL     1       4.220  49.987   0.767  1.00  0.00     0.061 C 
HETATM   27  C1  UNL     1       4.022  50.497   2.159  1.00  0.00     0.046 C 
HETATM   28  C3  UNL     1       4.555  48.504   0.841  1.00  0.00     0.046 C 
HETATM   29  C4  UNL     1       2.890  50.081   0.023  1.00  0.00     0.046 C 
ENDBRANCH  25  26
ENDBRANCH  22  25
ENDBRANCH  19  21
ENDBRANCH   1  16
TORSDOF 4
ENDMDL
