MODEL 4
REMARK VINA RESULT: -7.126965114      3.761      5.672
REMARK  3 active torsions:
REMARK  status: ('A' for Active; 'I' for Inactive)
REMARK    1  A    between atoms: C2_2  and  N1_4 
REMARK    2  A    between atoms: C7_8  and  C8_9 
REMARK       I    between atoms: C8_9  and  N2_11 
REMARK    3  A    between atoms: C11_14  and  N3_15 
ROOT
HETATM    1  C8  UNL     1       7.004  53.351   1.869  1.00  0.00     0.253 C 
HETATM    2  O1  UNL     1       5.906  52.731   2.057  1.00  0.00    -0.271 OA
HETATM    3  N2  UNL     1       8.108  52.620   1.432  1.00  0.00    -0.350 N 
HETATM    4  C9  UNL     1       9.411  53.188   1.158  1.00  0.00     0.128 C 
HETATM    5  C10 UNL     1      10.435  52.159   1.583  1.00  0.00     0.045 C 
HETATM    6  C11 UNL     1      10.398  50.911   0.690  1.00  0.00     0.094 C 
HETATM    7  C20 UNL     1       9.018  50.852   0.119  1.00  0.00     0.045 C 
HETATM    8  C21 UNL     1       8.012  51.177   1.219  1.00  0.00     0.128 C 
ENDROOT
BRANCH   6   9
HETATM    9  N3  UNL     1      11.408  51.032  -0.343  1.00  0.00    -0.335 N 
HETATM   10  C12 UNL     1      11.162  51.494  -1.592  1.00  0.00     0.184 A 
HETATM   11  N4  UNL     1      12.291  51.487  -2.312  1.00  0.00    -0.349 N 
HETATM   12  C13 UNL     1      13.270  51.021  -1.536  1.00  0.00     0.076 A 
ATOM     13  H4  UNL     1      12.385  51.785  -3.283  1.00  0.00     0.166 HD
HETATM   14  C14 UNL     1      14.626  50.814  -1.797  1.00  0.00     0.121 A 
HETATM   15  C19 UNL     1      12.712  50.738  -0.307  1.00  0.00     0.078 A 
HETATM   16  N5  UNL     1      15.393  50.324  -0.811  1.00  0.00    -0.349 N 
HETATM   17  C15 UNL     1      14.894  50.035   0.400  1.00  0.00     0.117 A 
ATOM     18  H5  UNL     1      16.385  50.168  -0.988  1.00  0.00     0.167 HD
HETATM   19  N6  UNL     1      15.446  49.541   1.539  1.00  0.00    -0.352 N 
HETATM   20  C18 UNL     1      13.542  50.235   0.681  1.00  0.00     0.038 A 
HETATM   21  C16 UNL     1      14.498  49.436   2.478  1.00  0.00     0.090 A 
ATOM     22  H6  UNL     1      16.427  49.289   1.660  1.00  0.00     0.166 HD
HETATM   23  C17 UNL     1      13.292  49.865   1.969  1.00  0.00     0.034 A 
ENDBRANCH   6   9
BRANCH   1  24
HETATM   24  C7  UNL     1       7.022  54.828   2.136  1.00  0.00     0.314 C 
HETATM   25  N1  UNL     1       7.141  55.528   0.923  1.00  0.00     0.106 N 
HETATM   26  C4  UNL     1       5.796  55.610   0.401  1.00  0.00     0.274 C 
HETATM   27  C5  UNL     1       4.995  55.992   1.623  1.00  0.00     0.033 C 
HETATM   28  C6  UNL     1       5.692  55.185   2.707  1.00  0.00     0.047 C 
BRANCH  25  29
HETATM   29  C2  UNL     1       7.834  56.771   0.911  1.00  0.00     0.216 C 
HETATM   30  C1  UNL     1       7.242  57.664  -0.188  1.00  0.00     0.042 C 
HETATM   31  C3  UNL     1       9.303  56.762   0.799  1.00  0.00     0.042 C 
ENDBRANCH  25  29
ENDBRANCH   1  24
TORSDOF 3
ENDMDL
