MODEL 3
REMARK VINA RESULT: -7.157092145      5.078      7.659
REMARK  3 active torsions:
REMARK  status: ('A' for Active; 'I' for Inactive)
REMARK    1  A    between atoms: C2_2  and  N1_4 
REMARK    2  A    between atoms: C7_8  and  C8_9 
REMARK       I    between atoms: C8_9  and  N2_11 
REMARK    3  A    between atoms: C11_14  and  N3_15 
ROOT
HETATM    1  C8  UNL     1      13.464  51.972  -1.573  1.00  0.00     0.253 C 
HETATM    2  O1  UNL     1      14.597  51.735  -1.039  1.00  0.00    -0.271 OA
HETATM    3  N2  UNL     1      12.404  52.324  -0.739  1.00  0.00    -0.350 N 
HETATM    4  C9  UNL     1      11.068  52.639  -1.199  1.00  0.00     0.128 C 
HETATM    5  C10 UNL     1      10.109  52.106  -0.160  1.00  0.00     0.045 C 
HETATM    6  C11 UNL     1      10.216  52.872   1.166  1.00  0.00     0.094 C 
HETATM    7  C20 UNL     1      11.595  53.448   1.200  1.00  0.00     0.045 C 
HETATM    8  C21 UNL     1      12.584  52.395   0.711  1.00  0.00     0.128 C 
ENDROOT
BRANCH   6   9
HETATM    9  N3  UNL     1       9.196  53.901   1.207  1.00  0.00    -0.335 N 
HETATM   10  C12 UNL     1       9.426  55.206   0.923  1.00  0.00     0.184 A 
HETATM   11  N4  UNL     1       8.292  55.907   1.048  1.00  0.00    -0.349 N 
HETATM   12  C13 UNL     1       7.326  55.063   1.413  1.00  0.00     0.076 A 
ATOM     13  H4  UNL     1       8.186  56.909   0.892  1.00  0.00     0.166 HD
HETATM   14  C14 UNL     1       5.971  55.280   1.673  1.00  0.00     0.121 A 
HETATM   15  C19 UNL     1       7.897  53.812   1.510  1.00  0.00     0.078 A 
HETATM   16  N5  UNL     1       5.219  54.227   2.028  1.00  0.00    -0.349 N 
HETATM   17  C15 UNL     1       5.731  52.991   2.136  1.00  0.00     0.117 A 
ATOM     18  H5  UNL     1       4.227  54.370   2.222  1.00  0.00     0.167 HD
HETATM   19  N6  UNL     1       5.196  51.788   2.471  1.00  0.00    -0.352 N 
HETATM   20  C18 UNL     1       7.082  52.755   1.880  1.00  0.00     0.038 A 
HETATM   21  C16 UNL     1       6.151  50.853   2.428  1.00  0.00     0.090 A 
ATOM     22  H6  UNL     1       4.219  51.624   2.716  1.00  0.00     0.166 HD
HETATM   23  C17 UNL     1       7.347  51.429   2.060  1.00  0.00     0.034 A 
ENDBRANCH   6   9
BRANCH   1  24
HETATM   24  C7  UNL     1      13.359  51.851  -3.065  1.00  0.00     0.314 C 
HETATM   25  N1  UNL     1      13.142  53.120  -3.630  1.00  0.00     0.106 N 
HETATM   26  C4  UNL     1      14.454  53.714  -3.740  1.00  0.00     0.274 C 
HETATM   27  C5  UNL     1      15.281  52.578  -4.293  1.00  0.00     0.033 C 
HETATM   28  C6  UNL     1      14.687  51.386  -3.559  1.00  0.00     0.047 C 
BRANCH  25  29
HETATM   29  C2  UNL     1      12.368  53.219  -4.820  1.00  0.00     0.216 C 
HETATM   30  C1  UNL     1      11.596  54.546  -4.805  1.00  0.00     0.042 C 
HETATM   31  C3  UNL     1      11.448  52.121  -5.160  1.00  0.00     0.042 C 
ENDBRANCH  25  29
ENDBRANCH   1  24
TORSDOF 3
ENDMDL
