MODEL 1
REMARK VINA RESULT: -7.967792452      0.000      0.000
REMARK  3 active torsions:
REMARK  status: ('A' for Active; 'I' for Inactive)
REMARK    1  A    between atoms: C2_2  and  N1_4 
REMARK    2  A    between atoms: C7_8  and  C8_9 
REMARK       I    between atoms: C8_9  and  N2_11 
REMARK    3  A    between atoms: C11_14  and  N3_15 
ROOT
HETATM    1  C8  UNL     1       5.032  57.620   1.264  1.00  0.00     0.253 C 
HETATM    2  O1  UNL     1       3.797  57.798   1.004  1.00  0.00    -0.271 OA
HETATM    3  N2  UNL     1       5.465  56.325   1.549  1.00  0.00    -0.350 N 
HETATM    4  C9  UNL     1       6.836  55.965   1.843  1.00  0.00     0.128 C 
HETATM    5  C10 UNL     1       6.788  54.868   2.882  1.00  0.00     0.045 C 
HETATM    6  C11 UNL     1       6.195  53.570   2.317  1.00  0.00     0.094 C 
HETATM    7  C20 UNL     1       5.325  53.977   1.172  1.00  0.00     0.045 C 
HETATM    8  C21 UNL     1       4.521  55.209   1.574  1.00  0.00     0.128 C 
ENDROOT
BRANCH   6   9
HETATM    9  N3  UNL     1       7.272  52.695   1.897  1.00  0.00    -0.335 N 
HETATM   10  C12 UNL     1       8.330  53.101   1.154  1.00  0.00     0.184 A 
HETATM   11  N4  UNL     1       9.151  52.067   0.928  1.00  0.00    -0.349 N 
HETATM   12  C13 UNL     1       8.631  50.992   1.521  1.00  0.00     0.076 A 
ATOM     13  H4  UNL     1      10.021  52.097   0.396  1.00  0.00     0.166 HD
HETATM   14  C14 UNL     1       9.087  49.674   1.590  1.00  0.00     0.121 A 
HETATM   15  C19 UNL     1       7.458  51.391   2.124  1.00  0.00     0.078 A 
HETATM   16  N5  UNL     1       8.347  48.783   2.267  1.00  0.00    -0.349 N 
HETATM   17  C15 UNL     1       7.198  49.125   2.870  1.00  0.00     0.117 A 
ATOM     18  H5  UNL     1       8.668  47.816   2.325  1.00  0.00     0.167 HD
HETATM   19  N6  UNL     1       6.287  48.429   3.599  1.00  0.00    -0.352 N 
HETATM   20  C18 UNL     1       6.726  50.437   2.812  1.00  0.00     0.038 A 
HETATM   21  C16 UNL     1       5.302  49.253   3.976  1.00  0.00     0.090 A 
ATOM     22  H6  UNL     1       6.344  47.435   3.823  1.00  0.00     0.166 HD
HETATM   23  C17 UNL     1       5.550  50.521   3.498  1.00  0.00     0.034 A 
ENDBRANCH   6   9
BRANCH   1  24
HETATM   24  C7  UNL     1       5.928  58.823   1.242  1.00  0.00     0.314 C 
HETATM   25  N1  UNL     1       6.583  58.905   0.001  1.00  0.00     0.106 N 
HETATM   26  C4  UNL     1       5.641  59.555  -0.882  1.00  0.00     0.274 C 
HETATM   27  C5  UNL     1       5.120  60.685  -0.027  1.00  0.00     0.033 C 
HETATM   28  C6  UNL     1       5.049  60.024   1.341  1.00  0.00     0.047 C 
BRANCH  25  29
HETATM   29  C2  UNL     1       7.892  59.463  -0.051  1.00  0.00     0.216 C 
HETATM   30  C1  UNL     1       8.019  60.323  -1.316  1.00  0.00     0.042 C 
HETATM   31  C3  UNL     1       9.051  58.561   0.048  1.00  0.00     0.042 C 
ENDBRANCH  25  29
ENDBRANCH   1  24
TORSDOF 3
ENDMDL
