MODEL 8
REMARK VINA RESULT: -8.163864585      2.744      5.234
REMARK  2 active torsions:
REMARK  status: ('A' for Active; 'I' for Inactive)
REMARK    1  A    between atoms: C2_3  and  C3_4 
REMARK       I    between atoms: C3_4  and  N2_6 
REMARK    2  A    between atoms: C7_10  and  N3_11 
ROOT
HETATM    1  N1  UNL     1       0.503 -43.856 -26.141  1.00  0.00    -0.197 NA
HETATM    2  C1  UNL     1       0.674 -44.583 -25.236  1.00  0.00     0.068 C 
HETATM    3  C2  UNL     1       0.888 -45.496 -24.120  1.00  0.00     0.226 C 
ENDROOT
BRANCH   3   4
HETATM    4  C3  UNL     1       0.031 -45.058 -22.986  1.00  0.00     0.233 C 
HETATM    5  O1  UNL     1      -0.403 -43.896 -22.896  1.00  0.00    -0.272 OA
HETATM    6  N2  UNL     1      -0.293 -45.983 -21.993  1.00  0.00    -0.346 N 
HETATM    7  C4  UNL     1       0.115 -47.371 -21.924  1.00  0.00     0.126 C 
HETATM    8  C16 UNL     1      -1.145 -45.605 -20.834  1.00  0.00     0.178 C 
HETATM    9  C5  UNL     1      -0.116 -47.950 -20.542  1.00  0.00     0.026 C 
HETATM   10  C6  UNL     1      -1.563 -47.890 -20.093  1.00  0.00     0.056 C 
HETATM   11  C7  UNL     1      -2.182 -46.680 -20.715  1.00  0.00     0.013 C 
BRANCH  11  12
HETATM   12  N3  UNL     1      -3.499 -46.330 -20.336  1.00  0.00    -0.311 N 
HETATM   13  C8  UNL     1      -4.057 -46.664 -19.124  1.00  0.00     0.189 A 
HETATM   14  N4  UNL     1      -5.301 -46.234 -19.003  1.00  0.00    -0.349 N 
HETATM   15  C9  UNL     1      -5.625 -45.597 -20.124  1.00  0.00     0.077 A 
ATOM     16  H4  UNL     1      -5.906 -46.367 -18.193  1.00  0.00     0.167 HD
HETATM   17  C10 UNL     1      -6.775 -44.961 -20.541  1.00  0.00     0.121 A 
HETATM   18  C15 UNL     1      -4.494 -45.662 -20.949  1.00  0.00     0.082 A 
HETATM   19  N5  UNL     1      -6.804 -44.399 -21.755  1.00  0.00    -0.349 N 
HETATM   20  C11 UNL     1      -5.713 -44.451 -22.575  1.00  0.00     0.117 A 
ATOM     21  H5  UNL     1      -7.650 -43.928 -22.072  1.00  0.00     0.167 HD
HETATM   22  N6  UNL     1      -5.489 -43.973 -23.813  1.00  0.00    -0.352 N 
HETATM   23  C14 UNL     1      -4.545 -45.080 -22.187  1.00  0.00     0.039 A 
HETATM   24  C12 UNL     1      -4.250 -44.270 -24.213  1.00  0.00     0.090 A 
ATOM     25  H6  UNL     1      -6.171 -43.456 -24.369  1.00  0.00     0.166 HD
HETATM   26  C13 UNL     1      -3.627 -44.982 -23.178  1.00  0.00     0.034 A 
ENDBRANCH  11  12
ENDBRANCH   3   4
TORSDOF 2
ENDMDL
