MODEL 4
REMARK VINA RESULT: -8.395234433      2.070      4.437
REMARK  2 active torsions:
REMARK  status: ('A' for Active; 'I' for Inactive)
REMARK    1  A    between atoms: C2_3  and  C3_4 
REMARK       I    between atoms: C3_4  and  N2_6 
REMARK    2  A    between atoms: C7_10  and  N3_11 
ROOT
HETATM    1  N1  UNL     1       4.263 -44.969 -22.991  1.00  0.00    -0.197 NA
HETATM    2  C1  UNL     1       3.444 -45.777 -22.762  1.00  0.00     0.068 C 
HETATM    3  C2  UNL     1       2.428 -46.786 -22.488  1.00  0.00     0.226 C 
ENDROOT
BRANCH   3   4
HETATM    4  C3  UNL     1       1.366 -46.167 -21.652  1.00  0.00     0.233 C 
HETATM    5  O1  UNL     1       1.017 -44.982 -21.797  1.00  0.00    -0.272 OA
HETATM    6  N2  UNL     1       0.743 -46.943 -20.673  1.00  0.00    -0.346 N 
HETATM    7  C4  UNL     1       1.011 -48.331 -20.357  1.00  0.00     0.126 C 
HETATM    8  C16 UNL     1      -0.325 -46.380 -19.805  1.00  0.00     0.178 C 
HETATM    9  C5  UNL     1       0.415 -48.720 -19.019  1.00  0.00     0.026 C 
HETATM   10  C6  UNL     1      -1.088 -48.530 -18.945  1.00  0.00     0.056 C 
HETATM   11  C7  UNL     1      -1.444 -47.376 -19.827  1.00  0.00     0.013 C 
BRANCH  11  12
HETATM   12  N3  UNL     1      -2.780 -46.914 -19.821  1.00  0.00    -0.311 N 
HETATM   13  C8  UNL     1      -3.641 -47.087 -18.763  1.00  0.00     0.189 A 
HETATM   14  N4  UNL     1      -4.839 -46.577 -18.994  1.00  0.00    -0.349 N 
HETATM   15  C9  UNL     1      -4.828 -46.043 -20.212  1.00  0.00     0.077 A 
ATOM     16  H4  UNL     1      -5.631 -46.590 -18.352  1.00  0.00     0.167 HD
HETATM   17  C10 UNL     1      -5.786 -45.391 -20.957  1.00  0.00     0.121 A 
HETATM   18  C15 UNL     1      -3.539 -46.259 -20.720  1.00  0.00     0.082 A 
HETATM   19  N5  UNL     1      -5.474 -44.959 -22.184  1.00  0.00    -0.349 N 
HETATM   20  C11 UNL     1      -4.224 -45.158 -22.698  1.00  0.00     0.117 A 
ATOM     21  H5  UNL     1      -6.177 -44.476 -22.743  1.00  0.00     0.167 HD
HETATM   22  N6  UNL     1      -3.668 -44.826 -23.878  1.00  0.00    -0.352 N 
HETATM   23  C14 UNL     1      -3.240 -45.808 -21.977  1.00  0.00     0.039 A 
HETATM   24  C12 UNL     1      -2.397 -45.233 -23.928  1.00  0.00     0.090 A 
ATOM     25  H6  UNL     1      -4.151 -44.332 -24.629  1.00  0.00     0.166 HD
HETATM   26  C13 UNL     1      -2.104 -45.867 -22.712  1.00  0.00     0.034 A 
ENDBRANCH  11  12
ENDBRANCH   3   4
TORSDOF 2
ENDMDL
