MODEL 9
REMARK VINA RESULT: -8.073037964      1.960      5.771
REMARK  2 active torsions:
REMARK  status: ('A' for Active; 'I' for Inactive)
REMARK    1  A    between atoms: C2_3  and  C3_4 
REMARK       I    between atoms: C3_4  and  N2_6 
REMARK    2  A    between atoms: C7_10  and  N3_11 
ROOT
HETATM    1  N1  UNL     1      -6.473 -44.947 -20.016  1.00  0.00    -0.197 NA
HETATM    2  C1  UNL     1      -5.672 -45.463 -20.699  1.00  0.00     0.068 C 
HETATM    3  C2  UNL     1      -4.682 -46.113 -21.550  1.00  0.00     0.226 C 
ENDROOT
BRANCH   3   4
HETATM    4  C3  UNL     1      -3.328 -45.701 -21.093  1.00  0.00     0.233 C 
HETATM    5  O1  UNL     1      -3.030 -45.631 -19.888  1.00  0.00    -0.272 OA
HETATM    6  N2  UNL     1      -2.364 -45.383 -22.050  1.00  0.00    -0.346 N 
HETATM    7  C4  UNL     1      -2.521 -45.404 -23.489  1.00  0.00     0.126 C 
HETATM    8  C16 UNL     1      -0.992 -44.964 -21.655  1.00  0.00     0.178 C 
HETATM    9  C5  UNL     1      -1.398 -44.657 -24.182  1.00  0.00     0.026 C 
HETATM   10  C6  UNL     1      -0.021 -45.213 -23.878  1.00  0.00     0.056 C 
HETATM   11  C7  UNL     1      -0.054 -45.777 -22.493  1.00  0.00     0.013 C 
BRANCH  11  12
HETATM   12  N3  UNL     1       1.158 -46.235 -21.926  1.00  0.00    -0.311 N 
HETATM   13  C8  UNL     1       2.390 -45.711 -22.237  1.00  0.00     0.189 A 
HETATM   14  N4  UNL     1       3.375 -46.307 -21.586  1.00  0.00    -0.349 N 
HETATM   15  C9  UNL     1       2.842 -47.252 -20.816  1.00  0.00     0.077 A 
ATOM     16  H4  UNL     1       4.367 -46.083 -21.661  1.00  0.00     0.167 HD
HETATM   17  C10 UNL     1       3.390 -48.166 -19.942  1.00  0.00     0.121 A 
HETATM   18  C15 UNL     1       1.459 -47.199 -21.035  1.00  0.00     0.082 A 
HETATM   19  N5  UNL     1       2.581 -49.013 -19.295  1.00  0.00    -0.349 N 
HETATM   20  C11 UNL     1       1.230 -48.978 -19.494  1.00  0.00     0.117 A 
ATOM     21  H5  UNL     1       2.977 -49.693 -18.647  1.00  0.00     0.167 HD
HETATM   22  N6  UNL     1       0.221 -49.703 -18.976  1.00  0.00    -0.352 N 
HETATM   23  C14 UNL     1       0.649 -48.074 -20.363  1.00  0.00     0.039 A 
HETATM   24  C12 UNL     1      -0.950 -49.299 -19.475  1.00  0.00     0.090 A 
ATOM     25  H6  UNL     1       0.335 -50.456 -18.298  1.00  0.00     0.166 HD
HETATM   26  C13 UNL     1      -0.694 -48.250 -20.370  1.00  0.00     0.034 A 
ENDBRANCH  11  12
ENDBRANCH   3   4
TORSDOF 2
ENDMDL
