MODEL 7
REMARK VINA RESULT: -9.042970292      1.540      2.984
REMARK  3 active torsions:
REMARK  status: ('A' for Active; 'I' for Inactive)
REMARK    1  A    between atoms: C4_4  and  C5_5 
REMARK    2  A    between atoms: C5_5  and  N1_6 
REMARK    3  A    between atoms: C8_9  and  N2_10 
ROOT
HETATM    1  N2  UNL     1      12.674  28.431   9.108  1.00  0.00    -0.335 N 
HETATM    2  C9  UNL     1      12.654  29.112   7.925  1.00  0.00     0.184 A 
HETATM    3  N3  UNL     1      12.720  30.437   8.170  1.00  0.00    -0.349 N 
ATOM      4  H3  UNL     1      12.724  31.183   7.475  1.00  0.00     0.166 HD
HETATM    5  C10 UNL     1      12.780  30.588   9.510  1.00  0.00     0.076 A 
HETATM    6  C11 UNL     1      12.860  31.696  10.306  1.00  0.00     0.121 A 
HETATM    7  N4  UNL     1      12.909  31.560  11.641  1.00  0.00    -0.349 N 
ATOM      8  H4  UNL     1      12.967  32.404  12.211  1.00  0.00     0.167 HD
HETATM    9  C12 UNL     1      12.885  30.365  12.272  1.00  0.00     0.117 A 
HETATM   10  N5  UNL     1      12.924  30.006  13.571  1.00  0.00    -0.352 N 
ATOM     11  H5  UNL     1      12.983  30.635  14.372  1.00  0.00     0.166 HD
HETATM   12  C13 UNL     1      12.870  28.668  13.612  1.00  0.00     0.090 A 
HETATM   13  C14 UNL     1      12.794  28.165  12.318  1.00  0.00     0.034 A 
HETATM   14  C15 UNL     1      12.803  29.219  11.460  1.00  0.00     0.038 A 
HETATM   15  C16 UNL     1      12.751  29.342  10.089  1.00  0.00     0.078 A 
ENDROOT
BRANCH   1  16
HETATM   16  C8  UNL     1      12.617  27.011   9.204  1.00  0.00     0.094 C 
HETATM   17  C7  UNL     1      13.102  26.303   7.962  1.00  0.00     0.056 C 
HETATM   18  C6  UNL     1      12.506  24.906   8.004  1.00  0.00     0.275 C 
HETATM   19  N1  UNL     1      11.154  24.995   7.507  1.00  0.00     0.092 N 
HETATM   20  C18 UNL     1      10.496  26.080   8.206  1.00  0.00     0.275 C 
HETATM   21  C17 UNL     1      11.197  26.525   9.434  1.00  0.00     0.056 C 
BRANCH  19  22
HETATM   22  C5  UNL     1      10.438  23.757   7.667  1.00  0.00     0.311 C 
BRANCH  22  23
HETATM   23  C4  UNL     1       9.887  23.173   6.451  1.00  0.00    -0.030 A 
HETATM   24  C3  UNL     1       9.367  24.073   5.512  1.00  0.00     0.009 A 
HETATM   25  C2  UNL     1       8.820  23.659   4.327  1.00  0.00     0.001 A 
HETATM   26  C1  UNL     1       8.758  22.318   4.008  1.00  0.00     0.000 A 
HETATM   27  C20 UNL     1       9.270  21.427   4.933  1.00  0.00     0.001 A 
HETATM   28  C19 UNL     1       9.819  21.857   6.123  1.00  0.00     0.009 A 
ENDBRANCH  22  23
ENDBRANCH  19  22
ENDBRANCH   1  16
TORSDOF 3
ENDMDL
