MODEL 5
REMARK VINA RESULT: -9.093817829      2.498      8.519
REMARK  3 active torsions:
REMARK  status: ('A' for Active; 'I' for Inactive)
REMARK    1  A    between atoms: C4_4  and  C5_5 
REMARK    2  A    between atoms: C5_5  and  N1_6 
REMARK    3  A    between atoms: C8_9  and  N2_10 
ROOT
HETATM    1  N2  UNL     1      10.676  24.393   6.596  1.00  0.00    -0.335 N 
HETATM    2  C9  UNL     1      10.590  23.432   7.562  1.00  0.00     0.184 A 
HETATM    3  N3  UNL     1       9.942  22.358   7.067  1.00  0.00    -0.349 N 
ATOM      4  H3  UNL     1       9.735  21.492   7.565  1.00  0.00     0.166 HD
HETATM    5  C10 UNL     1       9.619  22.645   5.788  1.00  0.00     0.076 A 
HETATM    6  C11 UNL     1       8.966  21.931   4.824  1.00  0.00     0.121 A 
HETATM    7  N4  UNL     1       8.777  22.465   3.606  1.00  0.00    -0.349 N 
ATOM      8  H4  UNL     1       8.285  21.910   2.906  1.00  0.00     0.167 HD
HETATM    9  C12 UNL     1       9.201  23.700   3.259  1.00  0.00     0.117 A 
HETATM   10  N5  UNL     1       9.120  24.417   2.119  1.00  0.00    -0.352 N 
ATOM     11  H5  UNL     1       8.683  24.121   1.247  1.00  0.00     0.166 HD
HETATM   12  C13 UNL     1       9.721  25.593   2.350  1.00  0.00     0.090 A 
HETATM   13  C14 UNL     1      10.192  25.626   3.658  1.00  0.00     0.034 A 
HETATM   14  C15 UNL     1       9.875  24.443   4.246  1.00  0.00     0.038 A 
HETATM   15  C16 UNL     1      10.077  23.908   5.499  1.00  0.00     0.078 A 
ENDROOT
BRANCH   1  16
HETATM   16  C8  UNL     1      11.303  25.657   6.792  1.00  0.00     0.094 C 
HETATM   17  C7  UNL     1      12.698  25.557   7.360  1.00  0.00     0.056 C 
HETATM   18  C6  UNL     1      13.005  26.907   7.986  1.00  0.00     0.275 C 
HETATM   19  N1  UNL     1      12.399  26.927   9.296  1.00  0.00     0.092 N 
HETATM   20  C18 UNL     1      11.023  26.495   9.154  1.00  0.00     0.275 C 
HETATM   21  C17 UNL     1      10.518  26.523   7.761  1.00  0.00     0.056 C 
BRANCH  19  22
HETATM   22  C5  UNL     1      12.479  28.227   9.908  1.00  0.00     0.311 C 
BRANCH  22  23
HETATM   23  C4  UNL     1      12.548  28.248  11.363  1.00  0.00    -0.030 A 
HETATM   24  C3  UNL     1      12.947  29.457  11.947  1.00  0.00     0.009 A 
HETATM   25  C2  UNL     1      13.053  29.615  13.303  1.00  0.00     0.001 A 
HETATM   26  C1  UNL     1      12.768  28.572  14.160  1.00  0.00     0.000 A 
HETATM   27  C20 UNL     1      12.374  27.377  13.586  1.00  0.00     0.001 A 
HETATM   28  C19 UNL     1      12.270  27.231  12.219  1.00  0.00     0.009 A 
ENDBRANCH  22  23
ENDBRANCH  19  22
ENDBRANCH   1  16
TORSDOF 3
ENDMDL
