MODEL 8
REMARK VINA RESULT: -8.946929999      1.829      3.154
REMARK  3 active torsions:
REMARK  status: ('A' for Active; 'I' for Inactive)
REMARK    1  A    between atoms: C4_4  and  C5_5 
REMARK    2  A    between atoms: C5_5  and  N1_6 
REMARK    3  A    between atoms: C8_9  and  N2_10 
ROOT
HETATM    1  N2  UNL     1      12.631  28.029   9.730  1.00  0.00    -0.335 N 
HETATM    2  C9  UNL     1      12.742  29.011   8.789  1.00  0.00     0.184 A 
HETATM    3  N3  UNL     1      12.871  30.206   9.403  1.00  0.00    -0.349 N 
ATOM      4  H3  UNL     1      12.973  31.113   8.949  1.00  0.00     0.166 HD
HETATM    5  C10 UNL     1      12.840  29.973  10.732  1.00  0.00     0.076 A 
HETATM    6  C11 UNL     1      12.928  30.805  11.812  1.00  0.00     0.121 A 
HETATM    7  N4  UNL     1      12.869  30.299  13.055  1.00  0.00    -0.349 N 
ATOM      8  H4  UNL     1      12.937  30.944  13.843  1.00  0.00     0.167 HD
HETATM    9  C12 UNL     1      12.725  28.982  13.319  1.00  0.00     0.117 A 
HETATM   10  N5  UNL     1      12.645  28.273  14.464  1.00  0.00    -0.352 N 
ATOM     11  H5  UNL     1      12.682  28.647  15.412  1.00  0.00     0.166 HD
HETATM   12  C13 UNL     1      12.506  26.985  14.121  1.00  0.00     0.090 A 
HETATM   13  C14 UNL     1      12.496  26.871  12.735  1.00  0.00     0.034 A 
HETATM   14  C15 UNL     1      12.633  28.118  12.212  1.00  0.00     0.038 A 
HETATM   15  C16 UNL     1      12.692  28.621  10.932  1.00  0.00     0.078 A 
ENDROOT
BRANCH   1  16
HETATM   16  C8  UNL     1      12.480  26.647   9.417  1.00  0.00     0.094 C 
HETATM   17  C7  UNL     1      13.019  26.276   8.057  1.00  0.00     0.056 C 
HETATM   18  C6  UNL     1      12.337  24.975   7.666  1.00  0.00     0.275 C 
HETATM   19  N1  UNL     1      11.036  25.308   7.136  1.00  0.00     0.092 N 
HETATM   20  C18 UNL     1      10.393  26.206   8.074  1.00  0.00     0.275 C 
HETATM   21  C17 UNL     1      11.019  26.234   9.416  1.00  0.00     0.056 C 
BRANCH  19  22
HETATM   22  C5  UNL     1      10.235  24.137   6.897  1.00  0.00     0.311 C 
BRANCH  22  23
HETATM   23  C4  UNL     1       9.823  23.912   5.517  1.00  0.00    -0.030 A 
HETATM   24  C3  UNL     1      10.127  24.932   4.606  1.00  0.00     0.009 A 
HETATM   25  C2  UNL     1       9.797  24.851   3.280  1.00  0.00     0.001 A 
HETATM   26  C1  UNL     1       9.141  23.744   2.782  1.00  0.00     0.000 A 
HETATM   27  C20 UNL     1       8.839  22.736   3.679  1.00  0.00     0.001 A 
HETATM   28  C19 UNL     1       9.178  22.830   5.013  1.00  0.00     0.009 A 
ENDBRANCH  22  23
ENDBRANCH  19  22
ENDBRANCH   1  16
TORSDOF 3
ENDMDL
