MODEL 14
REMARK VINA RESULT: -8.565086138      2.637      9.121
REMARK  3 active torsions:
REMARK  status: ('A' for Active; 'I' for Inactive)
REMARK    1  A    between atoms: C4_4  and  C5_5 
REMARK    2  A    between atoms: C5_5  and  N1_6 
REMARK    3  A    between atoms: C8_9  and  N2_10 
ROOT
HETATM    1  N2  UNL     1       9.734  23.773   5.455  1.00  0.00    -0.335 N 
HETATM    2  C9  UNL     1       9.899  24.801   4.574  1.00  0.00     0.184 A 
HETATM    3  N3  UNL     1       9.553  24.389   3.336  1.00  0.00    -0.349 N 
ATOM      4  H3  UNL     1       9.576  24.947   2.483  1.00  0.00     0.166 HD
HETATM    5  C10 UNL     1       9.171  23.099   3.441  1.00  0.00     0.076 A 
HETATM    6  C11 UNL     1       8.727  22.195   2.519  1.00  0.00     0.121 A 
HETATM    7  N4  UNL     1       8.406  20.948   2.902  1.00  0.00    -0.349 N 
ATOM      8  H4  UNL     1       8.077  20.294   2.191  1.00  0.00     0.167 HD
HETATM    9  C12 UNL     1       8.494  20.513   4.178  1.00  0.00     0.117 A 
HETATM   10  N5  UNL     1       8.228  19.331   4.770  1.00  0.00    -0.352 N 
ATOM     11  H5  UNL     1       7.885  18.487   4.312  1.00  0.00     0.166 HD
HETATM   12  C13 UNL     1       8.501  19.474   6.075  1.00  0.00     0.090 A 
HETATM   13  C14 UNL     1       8.948  20.768   6.317  1.00  0.00     0.034 A 
HETATM   14  C15 UNL     1       8.950  21.438   5.135  1.00  0.00     0.038 A 
HETATM   15  C16 UNL     1       9.284  22.719   4.758  1.00  0.00     0.078 A 
ENDROOT
BRANCH   1  16
HETATM   16  C8  UNL     1      10.011  23.874   6.849  1.00  0.00     0.094 C 
HETATM   17  C7  UNL     1       9.909  25.282   7.383  1.00  0.00     0.056 C 
HETATM   18  C6  UNL     1      10.714  25.312   8.672  1.00  0.00     0.275 C 
HETATM   19  N1  UNL     1      12.103  25.476   8.313  1.00  0.00     0.092 N 
HETATM   20  C18 UNL     1      12.414  24.497   7.292  1.00  0.00     0.275 C 
HETATM   21  C17 UNL     1      11.419  23.405   7.172  1.00  0.00     0.056 C 
BRANCH  19  22
HETATM   22  C5  UNL     1      12.972  25.341   9.452  1.00  0.00     0.311 C 
BRANCH  22  23
HETATM   23  C4  UNL     1      12.573  26.064  10.653  1.00  0.00    -0.030 A 
HETATM   24  C3  UNL     1      12.447  27.453  10.527  1.00  0.00     0.009 A 
HETATM   25  C2  UNL     1      12.079  28.253  11.575  1.00  0.00     0.001 A 
HETATM   26  C1  UNL     1      11.815  27.712  12.817  1.00  0.00     0.000 A 
HETATM   27  C20 UNL     1      11.938  26.341  12.944  1.00  0.00     0.001 A 
HETATM   28  C19 UNL     1      12.309  25.546  11.880  1.00  0.00     0.009 A 
ENDBRANCH  22  23
ENDBRANCH  19  22
ENDBRANCH   1  16
TORSDOF 3
ENDMDL
