MODEL 2
REMARK VINA RESULT: -9.373921043      1.184      2.958
REMARK  3 active torsions:
REMARK  status: ('A' for Active; 'I' for Inactive)
REMARK    1  A    between atoms: C4_4  and  C5_5 
REMARK    2  A    between atoms: C5_5  and  N1_6 
REMARK    3  A    between atoms: C8_9  and  N2_10 
ROOT
HETATM    1  N2  UNL     1      11.878  27.663   9.965  1.00  0.00    -0.335 N 
HETATM    2  C9  UNL     1      12.054  28.780   9.201  1.00  0.00     0.184 A 
HETATM    3  N3  UNL     1      12.499  29.788   9.979  1.00  0.00    -0.349 N 
ATOM      4  H3  UNL     1      12.717  30.737   9.676  1.00  0.00     0.166 HD
HETATM    5  C10 UNL     1      12.602  29.304  11.234  1.00  0.00     0.076 A 
HETATM    6  C11 UNL     1      12.998  29.876  12.410  1.00  0.00     0.121 A 
HETATM    7  N4  UNL     1      13.008  29.149  13.540  1.00  0.00    -0.349 N 
ATOM      8  H4  UNL     1      13.308  29.603  14.403  1.00  0.00     0.167 HD
HETATM    9  C12 UNL     1      12.641  27.850  13.595  1.00  0.00     0.117 A 
HETATM   10  N5  UNL     1      12.577  26.951  14.598  1.00  0.00    -0.352 N 
ATOM     11  H5  UNL     1      12.815  27.116  15.576  1.00  0.00     0.166 HD
HETATM   12  C13 UNL     1      12.140  25.800  14.069  1.00  0.00     0.090 A 
HETATM   13  C14 UNL     1      11.921  25.968  12.706  1.00  0.00     0.034 A 
HETATM   14  C15 UNL     1      12.232  27.253  12.389  1.00  0.00     0.038 A 
HETATM   15  C16 UNL     1      12.216  27.984  11.222  1.00  0.00     0.078 A 
ENDROOT
BRANCH   1  16
HETATM   16  C8  UNL     1      11.415  26.418   9.450  1.00  0.00     0.094 C 
HETATM   17  C7  UNL     1      12.522  25.430   9.174  1.00  0.00     0.056 C 
HETATM   18  C6  UNL     1      11.963  24.424   8.183  1.00  0.00     0.275 C 
HETATM   19  N1  UNL     1      12.064  25.009   6.866  1.00  0.00     0.092 N 
HETATM   20  C18 UNL     1      11.505  26.344   6.931  1.00  0.00     0.275 C 
HETATM   21  C17 UNL     1      10.678  26.599   8.135  1.00  0.00     0.056 C 
BRANCH  19  22
HETATM   22  C5  UNL     1      11.401  24.211   5.870  1.00  0.00     0.311 C 
BRANCH  22  23
HETATM   23  C4  UNL     1      10.115  23.644   6.254  1.00  0.00    -0.030 A 
HETATM   24  C3  UNL     1      10.100  22.271   6.528  1.00  0.00     0.009 A 
HETATM   25  C2  UNL     1       8.959  21.610   6.900  1.00  0.00     0.001 A 
HETATM   26  C1  UNL     1       7.761  22.284   7.020  1.00  0.00     0.000 A 
HETATM   27  C20 UNL     1       7.773  23.640   6.749  1.00  0.00     0.001 A 
HETATM   28  C19 UNL     1       8.929  24.293   6.376  1.00  0.00     0.009 A 
ENDBRANCH  22  23
ENDBRANCH  19  22
ENDBRANCH   1  16
TORSDOF 3
ENDMDL
