MODEL 3
REMARK VINA RESULT: -9.311191756      2.463      8.522
REMARK  3 active torsions:
REMARK  status: ('A' for Active; 'I' for Inactive)
REMARK    1  A    between atoms: C4_4  and  C5_5 
REMARK    2  A    between atoms: C5_5  and  N1_6 
REMARK    3  A    between atoms: C8_9  and  N2_10 
ROOT
HETATM    1  N2  UNL     1      10.880  24.279   6.598  1.00  0.00    -0.335 N 
HETATM    2  C9  UNL     1      10.674  23.313   7.541  1.00  0.00     0.184 A 
HETATM    3  N3  UNL     1       9.880  22.350   7.029  1.00  0.00    -0.349 N 
ATOM      4  H3  UNL     1       9.563  21.508   7.508  1.00  0.00     0.166 HD
HETATM    5  C10 UNL     1       9.585  22.712   5.763  1.00  0.00     0.076 A 
HETATM    6  C11 UNL     1       8.830  22.120   4.790  1.00  0.00     0.121 A 
HETATM    7  N4  UNL     1       8.701  22.708   3.590  1.00  0.00    -0.349 N 
ATOM      8  H4  UNL     1       8.131  22.243   2.883  1.00  0.00     0.167 HD
HETATM    9  C12 UNL     1       9.286  23.882   3.267  1.00  0.00     0.117 A 
HETATM   10  N5  UNL     1       9.291  24.634   2.147  1.00  0.00    -0.352 N 
ATOM     11  H5  UNL     1       8.807  24.423   1.274  1.00  0.00     0.166 HD
HETATM   12  C13 UNL     1      10.049  25.710   2.397  1.00  0.00     0.090 A 
HETATM   13  C14 UNL     1      10.535  25.644   3.699  1.00  0.00     0.034 A 
HETATM   14  C15 UNL     1      10.065  24.500   4.262  1.00  0.00     0.038 A 
HETATM   15  C16 UNL     1      10.207  23.909   5.498  1.00  0.00     0.078 A 
ENDROOT
BRANCH   1  16
HETATM   16  C8  UNL     1      11.675  25.441   6.816  1.00  0.00     0.094 C 
HETATM   17  C7  UNL     1      12.745  25.251   7.863  1.00  0.00     0.056 C 
HETATM   18  C6  UNL     1      13.125  26.640   8.346  1.00  0.00     0.275 C 
HETATM   19  N1  UNL     1      12.144  27.044   9.325  1.00  0.00     0.092 N 
HETATM   20  C18 UNL     1      10.831  26.812   8.757  1.00  0.00     0.275 C 
HETATM   21  C17 UNL     1      10.831  26.611   7.289  1.00  0.00     0.056 C 
BRANCH  19  22
HETATM   22  C5  UNL     1      12.310  28.418   9.720  1.00  0.00     0.311 C 
BRANCH  22  23
HETATM   23  C4  UNL     1      12.494  28.657  11.145  1.00  0.00    -0.030 A 
HETATM   24  C3  UNL     1      12.215  27.580  11.996  1.00  0.00     0.009 A 
HETATM   25  C2  UNL     1      12.346  27.668  13.356  1.00  0.00     0.001 A 
HETATM   26  C1  UNL     1      12.765  28.840  13.950  1.00  0.00     0.000 A 
HETATM   27  C20 UNL     1      13.041  29.906  13.114  1.00  0.00     0.001 A 
HETATM   28  C19 UNL     1      12.905  29.804  11.745  1.00  0.00     0.009 A 
ENDBRANCH  22  23
ENDBRANCH  19  22
ENDBRANCH   1  16
TORSDOF 3
ENDMDL
