MODEL 5
REMARK VINA RESULT: -5.276573683      1.487      5.543
REMARK  5 active torsions:
REMARK  status: ('A' for Active; 'I' for Inactive)
REMARK    1  A    between atoms: O1_2  and  C2_3 
REMARK    2  A    between atoms: C4_5  and  C5_6 
REMARK    3  A    between atoms: C6_7  and  C7_8 
REMARK    4  A    between atoms: C7_8  and  O2_9 
REMARK    5  A    between atoms: C10_13  and  O3_14 
ROOT
HETATM    1  C2  UNL     1      14.404 -17.759 -45.514  1.00  0.00     0.102 A 
HETATM    2  C3  UNL     1      14.482 -17.630 -44.148  1.00  0.00     0.051 A 
HETATM    3  C4  UNL     1      13.667 -18.339 -43.260  1.00  0.00    -0.034 A 
HETATM    4  C8  UNL     1      12.761 -19.194 -43.833  1.00  0.00     0.014 A 
HETATM    5  C9  UNL     1      12.652 -19.352 -45.211  1.00  0.00     0.040 A 
HETATM    6  C10 UNL     1      13.476 -18.631 -46.053  1.00  0.00     0.099 A 
ENDROOT
BRANCH   3   7
HETATM    7  C5  UNL     1      13.818 -18.141 -41.840  1.00  0.00     0.009 C 
HETATM    8  C6  UNL     1      13.157 -18.826 -40.955  1.00  0.00    -0.000 C 
BRANCH   8   9
HETATM    9  C7  UNL     1      13.375 -18.555 -39.512  1.00  0.00     0.191 C 
BRANCH   9  10
HETATM   10  O2  UNL     1      12.324 -19.029 -38.732  1.00  0.00    -0.397 OA
ATOM     11  H2  UNL     1      12.194 -18.499 -37.954  1.00  0.00     0.209 HD
ENDBRANCH   9  10
ENDBRANCH   8   9
ENDBRANCH   3   7
BRANCH   1  12
HETATM   12  O1  UNL     1      15.217 -17.050 -46.389  1.00  0.00    -0.353 OA
HETATM   13  C1  UNL     1      16.301 -17.714 -46.979  1.00  0.00     0.210 C 
ENDBRANCH   1  12
BRANCH   6  14
HETATM   14  O3  UNL     1      13.369 -18.787 -47.424  1.00  0.00    -0.358 OA
ATOM     15  H3  UNL     1      12.516 -18.811 -47.843  1.00  0.00     0.217 HD
ENDBRANCH   6  14
TORSDOF 5
ENDMDL
