MODEL 3
REMARK VINA RESULT: -5.787724488      1.496      5.389
REMARK  5 active torsions:
REMARK  status: ('A' for Active; 'I' for Inactive)
REMARK    1  A    between atoms: O1_2  and  C2_3 
REMARK    2  A    between atoms: C4_5  and  C5_6 
REMARK    3  A    between atoms: C6_7  and  C7_8 
REMARK    4  A    between atoms: C7_8  and  O2_9 
REMARK    5  A    between atoms: C10_13  and  O3_14 
ROOT
HETATM    1  C2  UNL     1      14.279 -17.693 -45.254  1.00  0.00     0.102 A 
HETATM    2  C3  UNL     1      14.510 -17.361 -43.941  1.00  0.00     0.051 A 
HETATM    3  C4  UNL     1      13.867 -17.984 -42.865  1.00  0.00    -0.034 A 
HETATM    4  C8  UNL     1      12.971 -18.968 -43.193  1.00  0.00     0.014 A 
HETATM    5  C9  UNL     1      12.711 -19.332 -44.510  1.00  0.00     0.040 A 
HETATM    6  C10 UNL     1      13.366 -18.691 -45.542  1.00  0.00     0.099 A 
ENDROOT
BRANCH   3   7
HETATM    7  C5  UNL     1      14.171 -17.572 -41.517  1.00  0.00     0.009 C 
HETATM    8  C6  UNL     1      15.377 -17.299 -41.114  1.00  0.00    -0.000 C 
BRANCH   8   9
HETATM    9  C7  UNL     1      15.598 -16.881 -39.708  1.00  0.00     0.191 C 
BRANCH   9  10
HETATM   10  O2  UNL     1      14.428 -16.416 -39.115  1.00  0.00    -0.397 OA
ATOM     11  H2  UNL     1      14.603 -15.740 -38.472  1.00  0.00     0.209 HD
ENDBRANCH   9  10
ENDBRANCH   8   9
ENDBRANCH   3   7
BRANCH   1  12
HETATM   12  O1  UNL     1      14.921 -17.069 -46.316  1.00  0.00    -0.353 OA
HETATM   13  C1  UNL     1      16.040 -17.696 -46.880  1.00  0.00     0.210 C 
ENDBRANCH   1  12
BRANCH   6  14
HETATM   14  O3  UNL     1      13.108 -19.052 -46.854  1.00  0.00    -0.358 OA
ATOM     15  H3  UNL     1      13.813 -19.100 -47.490  1.00  0.00     0.217 HD
ENDBRANCH   6  14
TORSDOF 5
ENDMDL
