MODEL 1
REMARK VINA RESULT: -7.101702937      0.000      0.000
REMARK  5 active torsions:
REMARK  status: ('A' for Active; 'I' for Inactive)
REMARK    1  A    between atoms: O1_2  and  C2_3 
REMARK    2  A    between atoms: C4_5  and  C5_6 
REMARK    3  A    between atoms: C6_7  and  C7_8 
REMARK    4  A    between atoms: C7_8  and  O2_9 
REMARK    5  A    between atoms: C10_13  and  O3_14 
ROOT
HETATM    1  C2  UNL     1      13.978 -18.029 -40.643  1.00  0.00     0.102 A 
HETATM    2  C3  UNL     1      14.144 -17.883 -42.000  1.00  0.00     0.051 A 
HETATM    3  C4  UNL     1      13.403 -18.598 -42.947  1.00  0.00    -0.034 A 
HETATM    4  C8  UNL     1      12.477 -19.476 -42.444  1.00  0.00     0.014 A 
HETATM    5  C9  UNL     1      12.281 -19.651 -41.077  1.00  0.00     0.040 A 
HETATM    6  C10 UNL     1      13.034 -18.925 -40.176  1.00  0.00     0.099 A 
ENDROOT
BRANCH   3   7
HETATM    7  C5  UNL     1      13.643 -18.382 -44.352  1.00  0.00     0.009 C 
HETATM    8  C6  UNL     1      13.146 -19.143 -45.282  1.00  0.00    -0.000 C 
BRANCH   8   9
HETATM    9  C7  UNL     1      13.447 -18.847 -46.704  1.00  0.00     0.191 C 
BRANCH   9  10
HETATM   10  O2  UNL     1      14.546 -18.003 -46.837  1.00  0.00    -0.397 OA
ATOM     11  H2  UNL     1      14.494 -17.476 -47.625  1.00  0.00     0.209 HD
ENDBRANCH   9  10
ENDBRANCH   8   9
ENDBRANCH   3   7
BRANCH   1  12
HETATM   12  O1  UNL     1      14.718 -17.315 -39.710  1.00  0.00    -0.353 OA
HETATM   13  C1  UNL     1      15.841 -16.604 -40.151  1.00  0.00     0.210 C 
ENDBRANCH   1  12
BRANCH   6  14
HETATM   14  O3  UNL     1      12.840 -19.098 -38.816  1.00  0.00    -0.358 OA
ATOM     15  H3  UNL     1      12.806 -19.970 -38.440  1.00  0.00     0.217 HD
ENDBRANCH   6  14
TORSDOF 5
ENDMDL
