MODEL 4
REMARK VINA RESULT: -5.569864447      2.099      5.637
REMARK  5 active torsions:
REMARK  status: ('A' for Active; 'I' for Inactive)
REMARK    1  A    between atoms: O1_2  and  C2_3 
REMARK    2  A    between atoms: C4_5  and  C5_6 
REMARK    3  A    between atoms: C6_7  and  C7_8 
REMARK    4  A    between atoms: C7_8  and  O2_9 
REMARK    5  A    between atoms: C10_13  and  O3_14 
ROOT
HETATM    1  C2  UNL     1      13.488 -18.648 -45.288  1.00  0.00     0.102 A 
HETATM    2  C3  UNL     1      12.986 -19.304 -44.190  1.00  0.00     0.051 A 
HETATM    3  C4  UNL     1      13.096 -18.814 -42.884  1.00  0.00    -0.034 A 
HETATM    4  C8  UNL     1      13.744 -17.614 -42.748  1.00  0.00     0.014 A 
HETATM    5  C9  UNL     1      14.264 -16.919 -43.836  1.00  0.00     0.040 A 
HETATM    6  C10 UNL     1      14.136 -17.439 -45.109  1.00  0.00     0.099 A 
ENDROOT
BRANCH   3   7
HETATM    7  C5  UNL     1      12.540 -19.571 -41.790  1.00  0.00     0.009 C 
HETATM    8  C6  UNL     1      12.585 -19.168 -40.555  1.00  0.00    -0.000 C 
BRANCH   8   9
HETATM    9  C7  UNL     1      11.988 -20.011 -39.490  1.00  0.00     0.191 C 
BRANCH   9  10
HETATM   10  O2  UNL     1      11.215 -21.041 -40.018  1.00  0.00    -0.397 OA
ATOM     11  H2  UNL     1      10.478 -21.254 -39.458  1.00  0.00     0.209 HD
ENDBRANCH   9  10
ENDBRANCH   8   9
ENDBRANCH   3   7
BRANCH   1  12
HETATM   12  O1  UNL     1      13.375 -19.141 -46.581  1.00  0.00    -0.353 OA
HETATM   13  C1  UNL     1      14.505 -19.719 -47.176  1.00  0.00     0.210 C 
ENDBRANCH   1  12
BRANCH   6  14
HETATM   14  O3  UNL     1      14.653 -16.750 -46.192  1.00  0.00    -0.358 OA
ATOM     15  H3  UNL     1      15.178 -15.969 -46.062  1.00  0.00     0.217 HD
ENDBRANCH   6  14
TORSDOF 5
ENDMDL
