MODEL 2
REMARK VINA RESULT: -9.898900765      4.233      6.646
REMARK  11 active torsions:
REMARK  status: ('A' for Active; 'I' for Inactive)
REMARK    1  A    between atoms: C1_2  and  C2_6 
REMARK    2  A    between atoms: C6_10  and  C7_11 
REMARK    3  A    between atoms: C7_11  and  C8_12 
REMARK    4  A    between atoms: C8_12  and  N3_13 
REMARK    5  A    between atoms: C8_12  and  C21_32 
REMARK    6  A    between atoms: N3_13  and  S1_15 
REMARK    7  A    between atoms: S1_15  and  C9_18 
REMARK    8  A    between atoms: C13_22  and  C14_23 
REMARK       I    between atoms: C21_32  and  N4_34 
REMARK    9  A    between atoms: C24_37  and  C25_38 
REMARK   10  A    between atoms: C25_38  and  C26_39 
REMARK   11  A    between atoms: C26_39  and  N5_40 
ROOT
HETATM    1  C8  UNL     1      23.805   1.620  23.214  1.00  0.00     0.189 C 
ENDROOT
BRANCH   1   2
HETATM    2  C7  UNL     1      23.002   2.402  24.233  1.00  0.00     0.074 C 
BRANCH   2   3
HETATM    3  C6  UNL     1      23.745   3.536  24.827  1.00  0.00    -0.055 A 
HETATM    4  C5  UNL     1      23.460   4.039  26.073  1.00  0.00     0.007 A 
HETATM    5  C4  UNL     1      24.152   5.082  26.609  1.00  0.00     0.002 A 
HETATM    6  C3  UNL     1      25.164   5.674  25.919  1.00  0.00     0.015 A 
HETATM    7  C2  UNL     1      25.504   5.209  24.644  1.00  0.00     0.005 A 
HETATM    8  C29 UNL     1      24.781   4.153  24.140  1.00  0.00     0.022 A 
BRANCH   7   9
HETATM    9  C1  UNL     1      26.591   5.881  23.956  1.00  0.00     0.120 C 
HETATM   10  N1  UNL     1      26.434   7.242  23.597  1.00  0.00    -0.082 NA
HETATM   11  N2  UNL     1      27.673   5.270  23.671  1.00  0.00    -0.387 N 
ATOM     12  H22 UNL     1      28.437   5.743  23.187  1.00  0.00     0.157 HD
ATOM     13  H21 UNL     1      27.786   4.290  23.929  1.00  0.00     0.157 HD
ENDBRANCH   7   9
ENDBRANCH   2   3
ENDBRANCH   1   2
BRANCH   1  14
HETATM   14  N3  UNL     1      22.945   1.441  22.058  1.00  0.00    -0.301 N 
ATOM     15  H3  UNL     1      21.975   1.136  22.145  1.00  0.00     0.173 HD
BRANCH  14  16
HETATM   16  S1  UNL     1      23.649   1.771  20.562  1.00  0.00     0.259 S 
HETATM   17  O1  UNL     1      25.112   1.419  20.530  1.00  0.00    -0.201 OA
HETATM   18  O2  UNL     1      22.998   0.849  19.537  1.00  0.00    -0.201 OA
BRANCH  16  19
HETATM   19  C9  UNL     1      23.440   3.385  19.968  1.00  0.00     0.080 A 
HETATM   20  C10 UNL     1      23.507   4.504  20.761  1.00  0.00     0.025 A 
HETATM   21  C11 UNL     1      23.304   5.759  20.238  1.00  0.00     0.002 A 
HETATM   22  C12 UNL     1      23.028   5.893  18.886  1.00  0.00     0.012 A 
HETATM   23  C13 UNL     1      22.952   4.774  18.047  1.00  0.00    -0.023 A 
HETATM   24  C20 UNL     1      23.162   3.526  18.605  1.00  0.00     0.037 A 
BRANCH  23  25
HETATM   25  C14 UNL     1      22.651   4.926  16.629  1.00  0.00    -0.004 A 
HETATM   26  C15 UNL     1      23.506   5.639  15.821  1.00  0.00     0.015 A 
HETATM   27  C16 UNL     1      23.247   5.810  14.458  1.00  0.00     0.025 A 
HETATM   28  C17 UNL     1      22.130   5.267  13.890  1.00  0.00     0.035 A 
HETATM   29 CL1  UNL     1      21.807   5.490  12.164  1.00  0.00    -0.084 Cl
HETATM   30  C18 UNL     1      21.263   4.550  14.687  1.00  0.00     0.048 A 
HETATM   31  C19 UNL     1      21.527   4.384  16.043  1.00  0.00     0.046 A 
HETATM   32 CL2  UNL     1      20.384   3.471  16.975  1.00  0.00    -0.083 Cl
ENDBRANCH  23  25
ENDBRANCH  16  19
ENDBRANCH  14  16
ENDBRANCH   1  14
BRANCH   1  33
HETATM   33  C21 UNL     1      24.171   0.325  23.823  1.00  0.00     0.243 C 
HETATM   34  O3  UNL     1      23.353  -0.634  23.598  1.00  0.00    -0.271 OA
HETATM   35  N4  UNL     1      25.300   0.036  24.605  1.00  0.00    -0.350 N 
HETATM   36  C22 UNL     1      25.469  -1.339  25.132  1.00  0.00     0.126 C 
HETATM   37  C28 UNL     1      26.363   0.929  24.973  1.00  0.00     0.126 C 
HETATM   38  C23 UNL     1      26.059  -1.236  26.521  1.00  0.00     0.024 C 
HETATM   39  C24 UNL     1      25.603   0.070  27.162  1.00  0.00    -0.010 C 
HETATM   40  C27 UNL     1      26.379   1.181  26.482  1.00  0.00     0.024 C 
BRANCH  39  41
HETATM   41  C25 UNL     1      25.792   0.041  28.642  1.00  0.00     0.032 C 
BRANCH  41  42
HETATM   42  C26 UNL     1      26.781  -0.981  29.101  1.00  0.00     0.230 C 
BRANCH  42  43
HETATM   43  N5  UNL     1      26.337  -1.505  30.397  1.00  0.00    -0.079 N 
ATOM     44  H53 UNL     1      25.737  -2.324  30.305  1.00  0.00     0.274 HD
ATOM     45  H52 UNL     1      27.092  -1.945  30.922  1.00  0.00     0.274 HD
ATOM     46  H51 UNL     1      25.889  -0.748  30.914  1.00  0.00     0.274 HD
ENDBRANCH  42  43
ENDBRANCH  41  42
ENDBRANCH  39  41
ENDBRANCH   1  33
TORSDOF 11
ENDMDL
