MODEL 1
REMARK VINA RESULT: -11.162261515      0.000      0.000
REMARK  11 active torsions:
REMARK  status: ('A' for Active; 'I' for Inactive)
REMARK    1  A    between atoms: C1_2  and  C2_6 
REMARK    2  A    between atoms: C6_10  and  C7_11 
REMARK    3  A    between atoms: C7_11  and  C8_12 
REMARK    4  A    between atoms: C8_12  and  N3_13 
REMARK    5  A    between atoms: C8_12  and  C21_32 
REMARK    6  A    between atoms: N3_13  and  S1_15 
REMARK    7  A    between atoms: S1_15  and  C9_18 
REMARK    8  A    between atoms: C13_22  and  C14_23 
REMARK       I    between atoms: C21_32  and  N4_34 
REMARK    9  A    between atoms: C24_37  and  C25_38 
REMARK   10  A    between atoms: C25_38  and  C26_39 
REMARK   11  A    between atoms: C26_39  and  N5_40 
ROOT
HETATM    1  C8  UNL     1      20.335   1.337  20.309  1.00  0.00     0.189 C 
ENDROOT
BRANCH   1   2
HETATM    2  C7  UNL     1      19.304   0.228  20.332  1.00  0.00     0.074 C 
BRANCH   2   3
HETATM    3  C6  UNL     1      17.975   0.666  20.815  1.00  0.00    -0.055 A 
HETATM    4  C5  UNL     1      17.255   1.664  20.204  1.00  0.00     0.007 A 
HETATM    5  C4  UNL     1      16.033   2.057  20.656  1.00  0.00     0.002 A 
HETATM    6  C3  UNL     1      15.472   1.468  21.747  1.00  0.00     0.015 A 
HETATM    7  C2  UNL     1      16.154   0.446  22.416  1.00  0.00     0.005 A 
HETATM    8  C29 UNL     1      17.385   0.079  21.926  1.00  0.00     0.022 A 
BRANCH   7   9
HETATM    9  C1  UNL     1      15.507  -0.143  23.574  1.00  0.00     0.120 C 
HETATM   10  N1  UNL     1      14.764   0.696  24.440  1.00  0.00    -0.082 NA
HETATM   11  N2  UNL     1      15.598  -1.389  23.822  1.00  0.00    -0.387 N 
ATOM     12  H22 UNL     1      15.143  -1.803  24.636  1.00  0.00     0.157 HD
ATOM     13  H21 UNL     1      16.133  -1.993  23.198  1.00  0.00     0.157 HD
ENDBRANCH   7   9
ENDBRANCH   2   3
ENDBRANCH   1   2
BRANCH   1  14
HETATM   14  N3  UNL     1      20.645   1.583  18.911  1.00  0.00    -0.301 N 
ATOM     15  H3  UNL     1      21.120   0.890  18.331  1.00  0.00     0.173 HD
BRANCH  14  16
HETATM   16  S1  UNL     1      20.172   3.084  18.308  1.00  0.00     0.259 S 
HETATM   17  O1  UNL     1      18.881   3.009  17.538  1.00  0.00    -0.201 OA
HETATM   18  O2  UNL     1      19.869   3.983  19.502  1.00  0.00    -0.201 OA
BRANCH  16  19
HETATM   19  C9  UNL     1      21.353   3.922  17.356  1.00  0.00     0.080 A 
HETATM   20  C10 UNL     1      22.389   4.647  17.890  1.00  0.00     0.025 A 
HETATM   21  C11 UNL     1      23.280   5.315  17.084  1.00  0.00     0.002 A 
HETATM   22  C12 UNL     1      23.126   5.253  15.707  1.00  0.00     0.012 A 
HETATM   23  C13 UNL     1      22.081   4.522  15.127  1.00  0.00    -0.023 A 
HETATM   24  C20 UNL     1      21.203   3.862  15.967  1.00  0.00     0.037 A 
BRANCH  23  25
HETATM   25  C14 UNL     1      21.924   4.472  13.679  1.00  0.00    -0.004 A 
HETATM   26  C15 UNL     1      22.486   3.439  12.965  1.00  0.00     0.015 A 
HETATM   27  C16 UNL     1      22.360   3.361  11.576  1.00  0.00     0.025 A 
HETATM   28  C17 UNL     1      21.668   4.316  10.887  1.00  0.00     0.035 A 
HETATM   29 CL1  UNL     1      21.514   4.212   9.126  1.00  0.00    -0.084 Cl
HETATM   30  C18 UNL     1      21.099   5.358  11.588  1.00  0.00     0.048 A 
HETATM   31  C19 UNL     1      21.229   5.429  12.971  1.00  0.00     0.046 A 
HETATM   32 CL2  UNL     1      20.486   6.774  13.776  1.00  0.00    -0.083 Cl
ENDBRANCH  23  25
ENDBRANCH  16  19
ENDBRANCH  14  16
ENDBRANCH   1  14
BRANCH   1  33
HETATM   33  C21 UNL     1      21.521   0.869  21.053  1.00  0.00     0.243 C 
HETATM   34  O3  UNL     1      21.520  -0.375  21.355  1.00  0.00    -0.271 OA
HETATM   35  N4  UNL     1      22.631   1.626  21.457  1.00  0.00    -0.350 N 
HETATM   36  C22 UNL     1      23.715   0.955  22.213  1.00  0.00     0.126 C 
HETATM   37  C28 UNL     1      22.874   3.022  21.220  1.00  0.00     0.126 C 
HETATM   38  C23 UNL     1      24.227   1.924  23.254  1.00  0.00     0.024 C 
HETATM   39  C24 UNL     1      23.090   2.851  23.675  1.00  0.00    -0.010 C 
HETATM   40  C27 UNL     1      22.870   3.815  22.527  1.00  0.00     0.024 C 
BRANCH  39  41
HETATM   41  C25 UNL     1      23.398   3.533  24.967  1.00  0.00     0.032 C 
BRANCH  41  42
HETATM   42  C26 UNL     1      23.847   4.948  24.805  1.00  0.00     0.230 C 
BRANCH  42  43
HETATM   43  N5  UNL     1      23.449   5.699  26.002  1.00  0.00    -0.079 N 
ATOM     44  H53 UNL     1      22.934   5.127  26.671  1.00  0.00     0.274 HD
ATOM     45  H52 UNL     1      24.241   5.933  26.600  1.00  0.00     0.274 HD
ATOM     46  H51 UNL     1      22.924   6.522  25.705  1.00  0.00     0.274 HD
ENDBRANCH  42  43
ENDBRANCH  41  42
ENDBRANCH  39  41
ENDBRANCH   1  33
TORSDOF 11
ENDMDL
