MODEL 3
REMARK VINA RESULT: -9.822668606      2.407      3.909
REMARK  11 active torsions:
REMARK  status: ('A' for Active; 'I' for Inactive)
REMARK    1  A    between atoms: C1_2  and  C2_6 
REMARK    2  A    between atoms: C6_10  and  C7_11 
REMARK    3  A    between atoms: C7_11  and  C8_12 
REMARK    4  A    between atoms: C8_12  and  N3_13 
REMARK    5  A    between atoms: C8_12  and  C21_32 
REMARK    6  A    between atoms: N3_13  and  S1_15 
REMARK    7  A    between atoms: S1_15  and  C9_18 
REMARK    8  A    between atoms: C13_22  and  C14_23 
REMARK       I    between atoms: C21_32  and  N4_34 
REMARK    9  A    between atoms: C24_37  and  C25_38 
REMARK   10  A    between atoms: C25_38  and  C26_39 
REMARK   11  A    between atoms: C26_39  and  N5_40 
ROOT
HETATM    1  C8  UNL     1      20.198   1.024  20.180  1.00  0.00     0.189 C 
ENDROOT
BRANCH   1   2
HETATM    2  C7  UNL     1      19.015   0.094  20.006  1.00  0.00     0.074 C 
BRANCH   2   3
HETATM    3  C6  UNL     1      17.769   0.600  20.623  1.00  0.00    -0.055 A 
HETATM    4  C5  UNL     1      17.062   1.659  20.109  1.00  0.00     0.007 A 
HETATM    5  C4  UNL     1      15.916   2.114  20.686  1.00  0.00     0.002 A 
HETATM    6  C3  UNL     1      15.422   1.528  21.810  1.00  0.00     0.015 A 
HETATM    7  C2  UNL     1      16.095   0.444  22.385  1.00  0.00     0.005 A 
HETATM    8  C29 UNL     1      17.249   0.016  21.770  1.00  0.00     0.022 A 
BRANCH   7   9
HETATM    9  C1  UNL     1      15.522  -0.139  23.584  1.00  0.00     0.120 C 
HETATM   10  N1  UNL     1      14.758   0.686  24.446  1.00  0.00    -0.082 NA
HETATM   11  N2  UNL     1      15.695  -1.368  23.871  1.00  0.00    -0.387 N 
ATOM     12  H22 UNL     1      15.292  -1.778  24.714  1.00  0.00     0.157 HD
ATOM     13  H21 UNL     1      16.244  -1.962  23.251  1.00  0.00     0.157 HD
ENDBRANCH   7   9
ENDBRANCH   2   3
ENDBRANCH   1   2
BRANCH   1  14
HETATM   14  N3  UNL     1      20.618   1.413  18.846  1.00  0.00    -0.301 N 
ATOM     15  H3  UNL     1      21.136   0.782  18.234  1.00  0.00     0.173 HD
BRANCH  14  16
HETATM   16  S1  UNL     1      20.197   2.975  18.371  1.00  0.00     0.259 S 
HETATM   17  O1  UNL     1      18.874   3.017  17.655  1.00  0.00    -0.201 OA
HETATM   18  O2  UNL     1      19.989   3.799  19.637  1.00  0.00    -0.201 OA
BRANCH  16  19
HETATM   19  C9  UNL     1      21.379   3.822  17.428  1.00  0.00     0.080 A 
HETATM   20  C10 UNL     1      22.422   4.533  17.971  1.00  0.00     0.025 A 
HETATM   21  C11 UNL     1      23.313   5.209  17.173  1.00  0.00     0.002 A 
HETATM   22  C12 UNL     1      23.154   5.171  15.796  1.00  0.00     0.012 A 
HETATM   23  C13 UNL     1      22.102   4.456  15.208  1.00  0.00    -0.023 A 
HETATM   24  C20 UNL     1      21.224   3.787  16.039  1.00  0.00     0.037 A 
BRANCH  23  25
HETATM   25  C14 UNL     1      21.939   4.432  13.759  1.00  0.00    -0.004 A 
HETATM   26  C15 UNL     1      22.485   3.405  13.026  1.00  0.00     0.015 A 
HETATM   27  C16 UNL     1      22.353   3.351  11.636  1.00  0.00     0.025 A 
HETATM   28  C17 UNL     1      21.670   4.326  10.965  1.00  0.00     0.035 A 
HETATM   29 CL1  UNL     1      21.509   4.253   9.204  1.00  0.00    -0.084 Cl
HETATM   30  C18 UNL     1      21.116   5.362  11.686  1.00  0.00     0.048 A 
HETATM   31  C19 UNL     1      21.253   5.409  13.070  1.00  0.00     0.046 A 
HETATM   32 CL2  UNL     1      20.529   6.749  13.900  1.00  0.00    -0.083 Cl
ENDBRANCH  23  25
ENDBRANCH  16  19
ENDBRANCH  14  16
ENDBRANCH   1  14
BRANCH   1  33
HETATM   33  C21 UNL     1      21.259   0.280  20.888  1.00  0.00     0.243 C 
HETATM   34  O3  UNL     1      22.338   0.935  21.098  1.00  0.00    -0.271 OA
HETATM   35  N4  UNL     1      21.212  -1.044  21.351  1.00  0.00    -0.350 N 
HETATM   36  C22 UNL     1      22.404  -1.604  22.031  1.00  0.00     0.126 C 
HETATM   37  C28 UNL     1      20.115  -1.967  21.258  1.00  0.00     0.126 C 
HETATM   38  C23 UNL     1      22.536  -3.054  21.620  1.00  0.00     0.024 C 
HETATM   39  C24 UNL     1      21.966  -3.229  20.216  1.00  0.00    -0.010 C 
HETATM   40  C27 UNL     1      20.458  -3.147  20.348  1.00  0.00     0.024 C 
BRANCH  39  41
HETATM   41  C25 UNL     1      22.435  -4.504  19.597  1.00  0.00     0.032 C 
BRANCH  41  42
HETATM   42  C26 UNL     1      21.490  -5.646  19.788  1.00  0.00     0.230 C 
BRANCH  42  43
HETATM   43  N5  UNL     1      22.097  -6.594  20.730  1.00  0.00    -0.079 N 
ATOM     44  H53 UNL     1      23.114  -6.532  20.749  1.00  0.00     0.274 HD
ATOM     45  H52 UNL     1      21.925  -6.344  21.704  1.00  0.00     0.274 HD
ATOM     46  H51 UNL     1      21.765  -7.531  20.501  1.00  0.00     0.274 HD
ENDBRANCH  42  43
ENDBRANCH  41  42
ENDBRANCH  39  41
ENDBRANCH   1  33
TORSDOF 11
ENDMDL
