MODEL 3
REMARK VINA RESULT: -9.722824461      4.813      8.645
REMARK  4 active torsions:
REMARK  status: ('A' for Active; 'I' for Inactive)
REMARK    1  A    between atoms: N1_4  and  C4_5 
REMARK    2  A    between atoms: C4_5  and  C5_6 
REMARK    3  A    between atoms: C10_15  and  C11_16 
REMARK    4  A    between atoms: N6_24  and  C15_25 
ROOT
HETATM    1  C11 UNL     1      97.490  20.411  12.150  1.00  0.00     0.091 A 
HETATM    2  N4  UNL     1      97.453  20.771  10.862  1.00  0.00    -0.330 N 
ATOM      3  H4  UNL     1      97.697  20.079  10.154  1.00  0.00     0.168 HD
HETATM    4  C12 UNL     1      97.106  22.010  10.460  1.00  0.00     0.141 A 
HETATM    5  C13 UNL     1      96.782  22.920  11.453  1.00  0.00     0.094 A 
HETATM    6  C14 UNL     1      96.468  24.099  10.775  1.00  0.00     0.128 A 
HETATM    7  N5  UNL     1      96.613  23.849   9.460  1.00  0.00    -0.307 N 
ATOM      8  H5  UNL     1      96.449  24.532   8.720  1.00  0.00     0.186 HD
HETATM    9  N6  UNL     1      96.995  22.601   9.257  1.00  0.00    -0.271 N 
HETATM   10  C20 UNL     1      96.814  22.568  12.789  1.00  0.00     0.262 A 
HETATM   11  O2  UNL     1      96.512  23.427  13.648  1.00  0.00    -0.267 OA
HETATM   12  N7  UNL     1      97.175  21.299  13.100  1.00  0.00    -0.312 N 
ATOM     13  H7  UNL     1      97.207  21.016  14.079  1.00  0.00     0.170 HD
ENDROOT
BRANCH   1  14
HETATM   14  C10 UNL     1      97.876  19.050  12.499  1.00  0.00     0.087 C 
HETATM   15  C2  UNL     1      98.920  19.016  13.622  1.00  0.00     0.023 C 
HETATM   16  C1  UNL     1     100.304  19.243  13.077  1.00  0.00     0.012 C 
HETATM   17  C3  UNL     1      98.792  17.541  14.031  1.00  0.00     0.278 C 
HETATM   18  N1  UNL     1      97.402  17.220  13.894  1.00  0.00     0.096 N 
HETATM   19  C9  UNL     1      96.761  18.260  13.147  1.00  0.00     0.285 C 
BRANCH  18  20
HETATM   20  C4  UNL     1      96.799  17.003  15.193  1.00  0.00     0.348 C 
BRANCH  20  21
HETATM   21  C5  UNL     1      95.575  16.148  15.080  1.00  0.00     0.109 A 
HETATM   22  N2  UNL     1      95.671  14.812  14.962  1.00  0.00    -0.354 N 
HETATM   23  C6  UNL     1      94.602  14.002  14.858  1.00  0.00     0.090 A 
ATOM     24  H2  UNL     1      96.600  14.393  14.950  1.00  0.00     0.166 HD
HETATM   25  C7  UNL     1      93.336  14.538  14.871  1.00  0.00     0.034 A 
HETATM   26  C8  UNL     1      93.226  15.913  14.992  1.00  0.00     0.090 A 
HETATM   27  N3  UNL     1      94.330  16.660  15.091  1.00  0.00    -0.354 N 
ATOM     28  H3  UNL     1      94.224  17.671  15.180  1.00  0.00     0.166 HD
ENDBRANCH  20  21
ENDBRANCH  18  20
ENDBRANCH   1  14
BRANCH   9  29
HETATM   29  C15 UNL     1      97.260  21.938   8.004  1.00  0.00     0.114 C 
HETATM   30  C16 UNL     1      96.512  22.640   6.887  1.00  0.00     0.053 C 
HETATM   31  C17 UNL     1      97.432  23.063   5.771  1.00  0.00     0.169 C 
HETATM   32  O1  UNL     1      98.439  23.902   6.195  1.00  0.00    -0.391 OA
HETATM   33  C18 UNL     1      99.147  23.427   7.273  1.00  0.00     0.169 C 
HETATM   34  C19 UNL     1      98.736  22.038   7.703  1.00  0.00     0.053 C 
ENDBRANCH   9  29
TORSDOF 4
ENDMDL
