MODEL 8
REMARK VINA RESULT: -9.154891248      4.008      7.755
REMARK  4 active torsions:
REMARK  status: ('A' for Active; 'I' for Inactive)
REMARK    1  A    between atoms: N1_4  and  C4_5 
REMARK    2  A    between atoms: C4_5  and  C5_6 
REMARK    3  A    between atoms: C10_15  and  C11_16 
REMARK    4  A    between atoms: N6_24  and  C15_25 
ROOT
HETATM    1  C11 UNL     1      97.356  21.300  10.658  1.00  0.00     0.091 A 
HETATM    2  N4  UNL     1      96.959  22.480  11.147  1.00  0.00    -0.330 N 
ATOM      3  H4  UNL     1      96.954  22.613  12.159  1.00  0.00     0.168 HD
HETATM    4  C12 UNL     1      96.566  23.502  10.362  1.00  0.00     0.141 A 
HETATM    5  C13 UNL     1      96.589  23.280   8.993  1.00  0.00     0.094 A 
HETATM    6  C14 UNL     1      96.143  24.475   8.426  1.00  0.00     0.128 A 
HETATM    7  N5  UNL     1      95.886  25.323   9.441  1.00  0.00    -0.307 N 
ATOM      8  H5  UNL     1      95.546  26.278   9.325  1.00  0.00     0.186 HD
HETATM    9  N6  UNL     1      96.136  24.752  10.606  1.00  0.00    -0.271 N 
HETATM   10  C20 UNL     1      96.994  22.069   8.468  1.00  0.00     0.262 A 
HETATM   11  O2  UNL     1      96.996  21.919   7.226  1.00  0.00    -0.267 OA
HETATM   12  N7  UNL     1      97.372  21.098   9.335  1.00  0.00    -0.312 N 
ATOM     13  H7  UNL     1      97.676  20.195   8.972  1.00  0.00     0.170 HD
ENDROOT
BRANCH   1  14
HETATM   14  C10 UNL     1      97.765  20.247  11.579  1.00  0.00     0.087 C 
HETATM   15  C2  UNL     1      99.112  20.557  12.246  1.00  0.00     0.023 C 
HETATM   16  C1  UNL     1     100.257  20.180  11.346  1.00  0.00     0.012 C 
HETATM   17  C3  UNL     1      99.048  19.549  13.404  1.00  0.00     0.278 C 
HETATM   18  N1  UNL     1      97.673  19.507  13.806  1.00  0.00     0.096 N 
HETATM   19  C9  UNL     1      96.880  20.145  12.800  1.00  0.00     0.285 C 
BRANCH  18  20
HETATM   20  C4  UNL     1      97.509  20.101  15.118  1.00  0.00     0.348 C 
BRANCH  20  21
HETATM   21  C5  UNL     1      96.958  19.106  16.092  1.00  0.00     0.109 A 
HETATM   22  N2  UNL     1      96.235  19.503  17.153  1.00  0.00    -0.354 N 
HETATM   23  C6  UNL     1      95.718  18.650  18.055  1.00  0.00     0.090 A 
ATOM     24  H2  UNL     1      96.070  20.501  17.280  1.00  0.00     0.166 HD
HETATM   25  C7  UNL     1      95.924  17.297  17.910  1.00  0.00     0.034 A 
HETATM   26  C8  UNL     1      96.668  16.878  16.821  1.00  0.00     0.090 A 
HETATM   27  N3  UNL     1      97.152  17.780  15.962  1.00  0.00    -0.354 N 
ATOM     28  H3  UNL     1      97.697  17.447  15.166  1.00  0.00     0.166 HD
ENDBRANCH  20  21
ENDBRANCH  18  20
ENDBRANCH   1  14
BRANCH   9  29
HETATM   29  C15 UNL     1      95.992  25.313  11.927  1.00  0.00     0.114 C 
HETATM   30  C16 UNL     1      97.361  25.605  12.510  1.00  0.00     0.053 C 
HETATM   31  C17 UNL     1      97.494  27.041  12.945  1.00  0.00     0.169 C 
HETATM   32  O1  UNL     1      97.275  27.935  11.919  1.00  0.00    -0.391 OA
HETATM   33  C18 UNL     1      96.100  27.727  11.238  1.00  0.00     0.169 C 
HETATM   34  C19 UNL     1      95.249  26.624  11.820  1.00  0.00     0.053 C 
ENDBRANCH   9  29
TORSDOF 4
ENDMDL
