MODEL 1
REMARK VINA RESULT: -10.123467343      0.000      0.000
REMARK  4 active torsions:
REMARK  status: ('A' for Active; 'I' for Inactive)
REMARK    1  A    between atoms: N1_4  and  C4_5 
REMARK    2  A    between atoms: C4_5  and  C5_6 
REMARK    3  A    between atoms: C10_15  and  C11_16 
REMARK    4  A    between atoms: N6_24  and  C15_25 
ROOT
HETATM    1  C11 UNL     1      96.785  25.678  11.924  1.00  0.00     0.091 A 
HETATM    2  N4  UNL     1      96.947  25.272  10.659  1.00  0.00    -0.330 N 
ATOM      3  H4  UNL     1      97.048  25.978   9.929  1.00  0.00     0.168 HD
HETATM    4  C12 UNL     1      96.984  23.972  10.307  1.00  0.00     0.141 A 
HETATM    5  C13 UNL     1      96.844  23.046  11.330  1.00  0.00     0.094 A 
HETATM    6  C14 UNL     1      96.918  21.801  10.702  1.00  0.00     0.128 A 
HETATM    7  N5  UNL     1      97.092  22.031   9.386  1.00  0.00    -0.307 N 
ATOM      8  H5  UNL     1      97.181  21.302   8.679  1.00  0.00     0.186 HD
HETATM    9  N6  UNL     1      97.134  23.328   9.137  1.00  0.00    -0.271 N 
HETATM   10  C20 UNL     1      96.675  23.443  12.641  1.00  0.00     0.262 A 
HETATM   11  O2  UNL     1      96.553  22.568  13.527  1.00  0.00    -0.267 OA
HETATM   12  N7  UNL     1      96.650  24.774  12.901  1.00  0.00    -0.312 N 
ATOM     13  H7  UNL     1      96.526  25.092  13.862  1.00  0.00     0.170 HD
ENDROOT
BRANCH   1  14
HETATM   14  C10 UNL     1      96.756  27.105  12.217  1.00  0.00     0.087 C 
HETATM   15  C2  UNL     1      95.492  27.780  11.670  1.00  0.00     0.023 C 
HETATM   16  C1  UNL     1      95.645  28.108  10.209  1.00  0.00     0.012 C 
HETATM   17  C3  UNL     1      95.547  29.088  12.473  1.00  0.00     0.278 C 
HETATM   18  N1  UNL     1      96.060  28.731  13.762  1.00  0.00     0.096 N 
HETATM   19  C9  UNL     1      96.606  27.409  13.690  1.00  0.00     0.285 C 
BRANCH  18  20
HETATM   20  C4  UNL     1      95.032  28.864  14.774  1.00  0.00     0.348 C 
BRANCH  20  21
HETATM   21  C5  UNL     1      95.631  29.178  16.110  1.00  0.00     0.109 A 
HETATM   22  N2  UNL     1      96.731  29.942  16.214  1.00  0.00    -0.354 N 
HETATM   23  C6  UNL     1      97.306  30.252  17.390  1.00  0.00     0.090 A 
ATOM     24  H2  UNL     1      97.152  30.305  15.359  1.00  0.00     0.166 HD
HETATM   25  C7  UNL     1      96.763  29.778  18.561  1.00  0.00     0.034 A 
HETATM   26  C8  UNL     1      95.629  28.990  18.465  1.00  0.00     0.090 A 
HETATM   27  N3  UNL     1      95.108  28.721  17.263  1.00  0.00    -0.354 N 
ATOM     28  H3  UNL     1      94.272  28.137  17.218  1.00  0.00     0.166 HD
ENDBRANCH  20  21
ENDBRANCH  18  20
ENDBRANCH   1  14
BRANCH   9  29
HETATM   29  C15 UNL     1      97.305  23.990   7.867  1.00  0.00     0.114 C 
HETATM   30  C16 UNL     1      98.450  23.349   7.107  1.00  0.00     0.053 C 
HETATM   31  C17 UNL     1      98.027  22.886   5.737  1.00  0.00     0.169 C 
HETATM   32  O1  UNL     1      96.988  21.982   5.772  1.00  0.00    -0.391 OA
HETATM   33  C18 UNL     1      95.908  22.400   6.513  1.00  0.00     0.169 C 
HETATM   34  C19 UNL     1      96.049  23.805   7.049  1.00  0.00     0.053 C 
ENDBRANCH   9  29
TORSDOF 4
ENDMDL
