MODEL 2
REMARK VINA RESULT: -9.813845395      2.994      9.455
REMARK  4 active torsions:
REMARK  status: ('A' for Active; 'I' for Inactive)
REMARK    1  A    between atoms: N1_4  and  C4_5 
REMARK    2  A    between atoms: C4_5  and  C5_6 
REMARK    3  A    between atoms: C10_15  and  C11_16 
REMARK    4  A    between atoms: N6_24  and  C15_25 
ROOT
HETATM    1  C11 UNL     1      96.458  27.499  13.217  1.00  0.00     0.091 A 
HETATM    2  N4  UNL     1      96.697  27.523  14.533  1.00  0.00    -0.330 N 
ATOM      3  H4  UNL     1      97.063  26.681  14.979  1.00  0.00     0.168 HD
HETATM    4  C12 UNL     1      96.476  28.612  15.296  1.00  0.00     0.141 A 
HETATM    5  C13 UNL     1      95.979  29.734  14.652  1.00  0.00     0.094 A 
HETATM    6  C14 UNL     1      95.845  30.696  15.653  1.00  0.00     0.128 A 
HETATM    7  N5  UNL     1      96.253  30.129  16.805  1.00  0.00    -0.307 N 
ATOM      8  H5  UNL     1      96.267  30.600  17.709  1.00  0.00     0.186 HD
HETATM    9  N6  UNL     1      96.634  28.879  16.605  1.00  0.00    -0.271 N 
HETATM   10  C20 UNL     1      95.725  29.729  13.294  1.00  0.00     0.262 A 
HETATM   11  O2  UNL     1      95.276  30.768  12.760  1.00  0.00    -0.267 OA
HETATM   12  N7  UNL     1      95.977  28.588  12.607  1.00  0.00    -0.312 N 
ATOM     13  H7  UNL     1      95.797  28.560  11.603  1.00  0.00     0.170 HD
ENDROOT
BRANCH   1  14
HETATM   14  C10 UNL     1      96.725  26.278  12.467  1.00  0.00     0.087 C 
HETATM   15  C2  UNL     1      95.498  25.359  12.405  1.00  0.00     0.023 C 
HETATM   16  C1  UNL     1      95.380  24.534  13.658  1.00  0.00     0.012 C 
HETATM   17  C3  UNL     1      95.938  24.441  11.255  1.00  0.00     0.278 C 
HETATM   18  N1  UNL     1      96.655  25.281  10.341  1.00  0.00     0.096 N 
HETATM   19  C9  UNL     1      96.951  26.522  10.992  1.00  0.00     0.285 C 
BRANCH  18  20
HETATM   20  C4  UNL     1      95.909  25.450   9.112  1.00  0.00     0.348 C 
BRANCH  20  21
HETATM   21  C5  UNL     1      96.359  24.473   8.071  1.00  0.00     0.109 A 
HETATM   22  N2  UNL     1      95.474  23.857   7.269  1.00  0.00    -0.354 N 
HETATM   23  C6  UNL     1      95.828  22.973   6.320  1.00  0.00     0.090 A 
ATOM     24  H2  UNL     1      94.484  24.072   7.386  1.00  0.00     0.166 HD
HETATM   25  C7  UNL     1      97.156  22.663   6.138  1.00  0.00     0.034 A 
HETATM   26  C8  UNL     1      98.076  23.291   6.959  1.00  0.00     0.090 A 
HETATM   27  N3  UNL     1      97.655  24.161   7.883  1.00  0.00    -0.354 N 
ATOM     28  H3  UNL     1      98.352  24.611   8.477  1.00  0.00     0.166 HD
ENDBRANCH  20  21
ENDBRANCH  18  20
ENDBRANCH   1  14
BRANCH   9  29
HETATM   29  C15 UNL     1      97.134  27.931  17.569  1.00  0.00     0.114 C 
HETATM   30  C16 UNL     1      97.183  28.574  18.941  1.00  0.00     0.053 C 
HETATM   31  C17 UNL     1      96.417  27.777  19.965  1.00  0.00     0.169 C 
HETATM   32  O1  UNL     1      95.092  27.603  19.629  1.00  0.00    -0.391 OA
HETATM   33  C18 UNL     1      94.897  27.107  18.362  1.00  0.00     0.169 C 
HETATM   34  C19 UNL     1      96.179  26.763  17.642  1.00  0.00     0.053 C 
ENDBRANCH   9  29
TORSDOF 4
ENDMDL
