MODEL 7
REMARK VINA RESULT: -9.296938206      3.478      6.840
REMARK  4 active torsions:
REMARK  status: ('A' for Active; 'I' for Inactive)
REMARK    1  A    between atoms: N1_4  and  C4_5 
REMARK    2  A    between atoms: C4_5  and  C5_6 
REMARK    3  A    between atoms: C10_15  and  C11_16 
REMARK    4  A    between atoms: N6_24  and  C15_25 
ROOT
HETATM    1  C11 UNL     1      97.368  21.309  10.607  1.00  0.00     0.091 A 
HETATM    2  N4  UNL     1      96.990  22.474  11.145  1.00  0.00    -0.330 N 
ATOM      3  H4  UNL     1      97.017  22.575  12.160  1.00  0.00     0.168 HD
HETATM    4  C12 UNL     1      96.575  23.521  10.405  1.00  0.00     0.141 A 
HETATM    5  C13 UNL     1      96.553  23.342   9.030  1.00  0.00     0.094 A 
HETATM    6  C14 UNL     1      96.093  24.555   8.516  1.00  0.00     0.128 A 
HETATM    7  N5  UNL     1      95.871  25.371   9.564  1.00  0.00    -0.307 N 
ATOM      8  H5  UNL     1      95.529  26.329   9.489  1.00  0.00     0.186 HD
HETATM    9  N6  UNL     1      96.156  24.763  10.702  1.00  0.00    -0.271 N 
HETATM   10  C20 UNL     1      96.939  22.148   8.455  1.00  0.00     0.262 A 
HETATM   11  O2  UNL     1      96.901  22.037   7.209  1.00  0.00    -0.267 OA
HETATM   12  N7  UNL     1      97.342  21.149   9.278  1.00  0.00    -0.312 N 
ATOM     13  H7  UNL     1      97.631  20.257   8.877  1.00  0.00     0.170 HD
ENDROOT
BRANCH   1  14
HETATM   14  C10 UNL     1      97.803  20.227  11.481  1.00  0.00     0.087 C 
HETATM   15  C2  UNL     1      99.187  20.496  12.086  1.00  0.00     0.023 C 
HETATM   16  C1  UNL     1     100.279  20.122  11.120  1.00  0.00     0.012 C 
HETATM   17  C3  UNL     1      99.163  19.462  13.221  1.00  0.00     0.278 C 
HETATM   18  N1  UNL     1      97.809  19.435  13.692  1.00  0.00     0.096 N 
HETATM   19  C9  UNL     1      96.978  20.110  12.742  1.00  0.00     0.285 C 
BRANCH  18  20
HETATM   20  C4  UNL     1      97.722  19.998  15.023  1.00  0.00     0.348 C 
BRANCH  20  21
HETATM   21  C5  UNL     1      96.643  21.033  15.099  1.00  0.00     0.109 A 
HETATM   22  N2  UNL     1      96.928  22.342  14.991  1.00  0.00    -0.354 N 
HETATM   23  C6  UNL     1      95.995  23.308  15.053  1.00  0.00     0.090 A 
ATOM     24  H2  UNL     1      97.901  22.616  14.857  1.00  0.00     0.166 HD
HETATM   25  C7  UNL     1      94.674  22.971  15.234  1.00  0.00     0.034 A 
HETATM   26  C8  UNL     1      94.369  21.626  15.346  1.00  0.00     0.090 A 
HETATM   27  N3  UNL     1      95.346  20.716  15.276  1.00  0.00    -0.354 N 
ATOM     28  H3  UNL     1      95.096  19.730  15.362  1.00  0.00     0.166 HD
ENDBRANCH  20  21
ENDBRANCH  18  20
ENDBRANCH   1  14
BRANCH   9  29
HETATM   29  C15 UNL     1      96.055  25.283  12.044  1.00  0.00     0.114 C 
HETATM   30  C16 UNL     1      97.435  25.650  12.554  1.00  0.00     0.053 C 
HETATM   31  C17 UNL     1      97.501  27.082  13.020  1.00  0.00     0.169 C 
HETATM   32  O1  UNL     1      97.163  27.983  12.033  1.00  0.00    -0.391 OA
HETATM   33  C18 UNL     1      95.966  27.713  11.416  1.00  0.00     0.169 C 
HETATM   34  C19 UNL     1      95.224  26.543  12.016  1.00  0.00     0.053 C 
ENDBRANCH   9  29
TORSDOF 4
ENDMDL
