MODEL 16
REMARK VINA RESULT: -7.037473388      4.048      8.311
REMARK  6 active torsions:
REMARK  status: ('A' for Active; 'I' for Inactive)
REMARK    1  A    between atoms: S1_3  and  C2_4 
REMARK    2  A    between atoms: C2_4  and  C3_5 
REMARK    3  A    between atoms: C3_5  and  O1_6 
REMARK    4  A    between atoms: O1_6  and  C4_7 
REMARK    5  A    between atoms: C7_10  and  O2_11 
REMARK    6  A    between atoms: O2_11  and  C8_12 
ROOT
HETATM    1  N1  UNL     1      24.585 -22.178   7.948  1.00  0.00    -0.184 NA
HETATM    2  C1  UNL     1      23.837 -21.320   8.151  1.00  0.00     0.133 C 
HETATM    3  S1  UNL     1      22.691 -19.991   8.440  1.00  0.00    -0.049 SA
ENDROOT
BRANCH   3   4
HETATM    4  C2  UNL     1      22.808 -18.783   7.059  1.00  0.00     0.117 C 
BRANCH   4   5
HETATM    5  C3  UNL     1      23.419 -17.549   7.623  1.00  0.00     0.186 C 
BRANCH   5   6
HETATM    6  O1  UNL     1      23.695 -16.512   6.767  1.00  0.00    -0.350 OA
BRANCH   6   7
HETATM    7  C4  UNL     1      24.475 -15.425   7.010  1.00  0.00     0.069 A 
HETATM    8  C5  UNL     1      25.130 -14.684   6.052  1.00  0.00     0.039 A 
HETATM    9  C6  UNL     1      25.915 -13.583   6.387  1.00  0.00     0.040 A 
HETATM   10  C7  UNL     1      26.081 -13.175   7.689  1.00  0.00     0.076 A 
HETATM   11  C14 UNL     1      25.432 -13.907   8.657  1.00  0.00     0.040 A 
HETATM   12  C15 UNL     1      24.659 -14.988   8.340  1.00  0.00     0.039 A 
BRANCH  10  13
HETATM   13  O2  UNL     1      26.873 -12.069   8.006  1.00  0.00    -0.311 OA
BRANCH  13  14
HETATM   14  C8  UNL     1      26.600 -10.877   7.358  1.00  0.00     0.076 A 
HETATM   15  C9  UNL     1      27.342 -10.464   6.276  1.00  0.00     0.037 A 
HETATM   16  C10 UNL     1      27.046  -9.256   5.637  1.00  0.00     0.003 A 
HETATM   17  C11 UNL     1      26.003  -8.515   6.130  1.00  0.00     0.000 A 
HETATM   18  C12 UNL     1      25.259  -8.913   7.202  1.00  0.00     0.003 A 
HETATM   19  C13 UNL     1      25.555 -10.107   7.828  1.00  0.00     0.037 A 
ENDBRANCH  13  14
ENDBRANCH  10  13
ENDBRANCH   6   7
ENDBRANCH   5   6
ENDBRANCH   4   5
ENDBRANCH   3   4
TORSDOF 6
ENDMDL
