MODEL 17
REMARK VINA RESULT: -7.018093141      3.519      5.597
REMARK  6 active torsions:
REMARK  status: ('A' for Active; 'I' for Inactive)
REMARK    1  A    between atoms: S1_3  and  C2_4 
REMARK    2  A    between atoms: C2_4  and  C3_5 
REMARK    3  A    between atoms: C3_5  and  O1_6 
REMARK    4  A    between atoms: O1_6  and  C4_7 
REMARK    5  A    between atoms: C7_10  and  O2_11 
REMARK    6  A    between atoms: O2_11  and  C8_12 
ROOT
HETATM    1  N1  UNL     1      28.598  -5.377   6.346  1.00  0.00    -0.184 NA
HETATM    2  C1  UNL     1      27.927  -5.736   5.474  1.00  0.00     0.133 C 
HETATM    3  S1  UNL     1      26.875  -6.283   4.149  1.00  0.00    -0.049 SA
ENDROOT
BRANCH   3   4
HETATM    4  C2  UNL     1      25.146  -6.402   4.761  1.00  0.00     0.117 C 
BRANCH   4   5
HETATM    5  C3  UNL     1      25.229  -6.687   6.220  1.00  0.00     0.186 C 
BRANCH   5   6
HETATM    6  O1  UNL     1      24.566  -7.787   6.704  1.00  0.00    -0.350 OA
BRANCH   6   7
HETATM    7  C4  UNL     1      25.096  -8.997   7.025  1.00  0.00     0.069 A 
HETATM    8  C5  UNL     1      26.280  -9.504   6.536  1.00  0.00     0.039 A 
HETATM    9  C6  UNL     1      26.751 -10.759   6.914  1.00  0.00     0.040 A 
HETATM   10  C7  UNL     1      26.064 -11.562   7.794  1.00  0.00     0.076 A 
HETATM   11  C14 UNL     1      24.879 -11.067   8.290  1.00  0.00     0.040 A 
HETATM   12  C15 UNL     1      24.407  -9.838   7.927  1.00  0.00     0.039 A 
BRANCH  10  13
HETATM   13  O2  UNL     1      26.552 -12.818   8.162  1.00  0.00    -0.311 OA
BRANCH  13  14
HETATM   14  C8  UNL     1      25.823 -13.928   7.772  1.00  0.00     0.076 A 
HETATM   15  C9  UNL     1      25.299 -14.802   8.696  1.00  0.00     0.037 A 
HETATM   16  C10 UNL     1      24.566 -15.916   8.277  1.00  0.00     0.003 A 
HETATM   17  C11 UNL     1      24.398 -16.097   6.929  1.00  0.00     0.000 A 
HETATM   18  C12 UNL     1      24.913 -15.239   6.002  1.00  0.00     0.003 A 
HETATM   19  C13 UNL     1      25.635 -14.139   6.421  1.00  0.00     0.037 A 
ENDBRANCH  13  14
ENDBRANCH  10  13
ENDBRANCH   6   7
ENDBRANCH   5   6
ENDBRANCH   4   5
ENDBRANCH   3   4
TORSDOF 6
ENDMDL
