MODEL 18
REMARK VINA RESULT: -7.002508981      4.064      8.368
REMARK  6 active torsions:
REMARK  status: ('A' for Active; 'I' for Inactive)
REMARK    1  A    between atoms: S1_3  and  C2_4 
REMARK    2  A    between atoms: C2_4  and  C3_5 
REMARK    3  A    between atoms: C3_5  and  O1_6 
REMARK    4  A    between atoms: O1_6  and  C4_7 
REMARK    5  A    between atoms: C7_10  and  O2_11 
REMARK    6  A    between atoms: O2_11  and  C8_12 
ROOT
HETATM    1  N1  UNL     1      24.563 -22.012   7.954  1.00  0.00    -0.184 NA
HETATM    2  C1  UNL     1      23.854 -21.110   8.101  1.00  0.00     0.133 C 
HETATM    3  S1  UNL     1      22.769 -19.716   8.303  1.00  0.00    -0.049 SA
ENDROOT
BRANCH   3   4
HETATM    4  C2  UNL     1      22.993 -18.568   6.884  1.00  0.00     0.117 C 
BRANCH   4   5
HETATM    5  C3  UNL     1      24.029 -17.581   7.294  1.00  0.00     0.186 C 
BRANCH   5   6
HETATM    6  O1  UNL     1      23.714 -16.247   7.238  1.00  0.00    -0.350 OA
BRANCH   6   7
HETATM    7  C4  UNL     1      24.555 -15.191   7.397  1.00  0.00     0.069 A 
HETATM    8  C5  UNL     1      24.983 -14.688   8.606  1.00  0.00     0.039 A 
HETATM    9  C6  UNL     1      25.845 -13.596   8.682  1.00  0.00     0.040 A 
HETATM   10  C7  UNL     1      26.318 -12.961   7.558  1.00  0.00     0.076 A 
HETATM   11  C14 UNL     1      25.898 -13.453   6.343  1.00  0.00     0.040 A 
HETATM   12  C15 UNL     1      25.053 -14.523   6.256  1.00  0.00     0.039 A 
BRANCH  10  13
HETATM   13  O2  UNL     1      27.182 -11.867   7.653  1.00  0.00    -0.311 OA
BRANCH  13  14
HETATM   14  C8  UNL     1      26.781 -10.680   7.066  1.00  0.00     0.076 A 
HETATM   15  C9  UNL     1      25.689  -9.983   7.530  1.00  0.00     0.037 A 
HETATM   16  C10 UNL     1      25.305  -8.786   6.921  1.00  0.00     0.003 A 
HETATM   17  C11 UNL     1      26.049  -8.346   5.857  1.00  0.00     0.000 A 
HETATM   18  C12 UNL     1      27.133  -9.027   5.386  1.00  0.00     0.003 A 
HETATM   19  C13 UNL     1      27.509 -10.208   5.992  1.00  0.00     0.037 A 
ENDBRANCH  13  14
ENDBRANCH  10  13
ENDBRANCH   6   7
ENDBRANCH   5   6
ENDBRANCH   4   5
ENDBRANCH   3   4
TORSDOF 6
ENDMDL
