MODEL 15
REMARK VINA RESULT: -7.048092726      1.978      2.835
REMARK  6 active torsions:
REMARK  status: ('A' for Active; 'I' for Inactive)
REMARK    1  A    between atoms: S1_3  and  C2_4 
REMARK    2  A    between atoms: C2_4  and  C3_5 
REMARK    3  A    between atoms: C3_5  and  O1_6 
REMARK    4  A    between atoms: O1_6  and  C4_7 
REMARK    5  A    between atoms: C7_10  and  O2_11 
REMARK    6  A    between atoms: O2_11  and  C8_12 
ROOT
HETATM    1  N1  UNL     1      22.283 -11.437  10.041  1.00  0.00    -0.184 NA
HETATM    2  C1  UNL     1      22.973 -11.514   9.116  1.00  0.00     0.133 C 
HETATM    3  S1  UNL     1      24.017 -11.650   7.682  1.00  0.00    -0.049 SA
ENDROOT
BRANCH   3   4
HETATM    4  C2  UNL     1      23.469 -13.085   6.672  1.00  0.00     0.117 C 
BRANCH   4   5
HETATM    5  C3  UNL     1      24.685 -13.626   6.006  1.00  0.00     0.186 C 
BRANCH   5   6
HETATM    6  O1  UNL     1      24.732 -14.970   5.733  1.00  0.00    -0.350 OA
BRANCH   6   7
HETATM    7  C4  UNL     1      24.309 -15.990   6.527  1.00  0.00     0.069 A 
HETATM    8  C5  UNL     1      23.271 -16.847   6.238  1.00  0.00     0.039 A 
HETATM    9  C6  UNL     1      22.897 -17.867   7.111  1.00  0.00     0.040 A 
HETATM   10  C7  UNL     1      23.542 -18.075   8.307  1.00  0.00     0.076 A 
HETATM   11  C14 UNL     1      24.581 -17.226   8.609  1.00  0.00     0.040 A 
HETATM   12  C15 UNL     1      24.957 -16.222   7.761  1.00  0.00     0.039 A 
BRANCH  10  13
HETATM   13  O2  UNL     1      23.154 -19.103   9.170  1.00  0.00    -0.311 OA
BRANCH  13  14
HETATM   14  C8  UNL     1      23.228 -20.401   8.696  1.00  0.00     0.076 A 
HETATM   15  C9  UNL     1      24.411 -20.928   8.233  1.00  0.00     0.037 A 
HETATM   16  C10 UNL     1      24.459 -22.242   7.759  1.00  0.00     0.003 A 
HETATM   17  C11 UNL     1      23.297 -22.968   7.776  1.00  0.00     0.000 A 
HETATM   18  C12 UNL     1      22.117 -22.457   8.232  1.00  0.00     0.003 A 
HETATM   19  C13 UNL     1      22.074 -21.160   8.700  1.00  0.00     0.037 A 
ENDBRANCH  13  14
ENDBRANCH  10  13
ENDBRANCH   6   7
ENDBRANCH   5   6
ENDBRANCH   4   5
ENDBRANCH   3   4
TORSDOF 6
ENDMDL
