MODEL 19
REMARK VINA RESULT: -7.702135197      1.393      2.155
REMARK  9 active torsions:
REMARK  status: ('A' for Active; 'I' for Inactive)
REMARK    1  A    between atoms: C4_4  and  C5_5 
REMARK    2  A    between atoms: C5_5  and  C6_6 
REMARK    3  A    between atoms: C6_6  and  C7_7 
REMARK    4  A    between atoms: C9_9  and  C10_10 
REMARK    5  A    between atoms: C10_10  and  N1_11 
REMARK    6  A    between atoms: N1_11  and  C11_14 
REMARK    7  A    between atoms: C11_14  and  C12_15 
REMARK    8  A    between atoms: C12_15  and  N2_16 
REMARK    9  A    between atoms: N2_16  and  C13_19 
ROOT
HETATM    1  C11 UNL     1     -19.237 -16.759  -8.436  1.00  0.00     0.260 C 
ENDROOT
BRANCH   1   2
HETATM    2  N1  UNL     1     -19.704 -15.603  -9.143  1.00  0.00    -0.070 N 
ATOM      3  H12 UNL     1     -20.203 -15.864  -9.994  1.00  0.00     0.277 HD
ATOM      4  H11 UNL     1     -18.931 -15.088  -9.565  1.00  0.00     0.277 HD
BRANCH   2   5
HETATM    5  C10 UNL     1     -20.517 -14.743  -8.291  1.00  0.00     0.260 C 
BRANCH   5   6
HETATM    6  C9  UNL     1     -21.666 -14.243  -9.042  1.00  0.00     0.003 C 
HETATM    7  C7  UNL     1     -22.863 -14.025  -8.524  1.00  0.00    -0.086 C 
HETATM    8  C8  UNL     1     -23.922 -13.521  -9.468  1.00  0.00     0.043 C 
BRANCH   7   9
HETATM    9  C6  UNL     1     -23.218 -14.248  -7.126  1.00  0.00     0.037 C 
BRANCH   9  10
HETATM   10  C5  UNL     1     -24.723 -14.148  -6.962  1.00  0.00     0.031 C 
BRANCH  10  11
HETATM   11  C4  UNL     1     -25.073 -12.892  -6.250  1.00  0.00    -0.024 C 
HETATM   12  C2  UNL     1     -26.073 -12.110  -6.578  1.00  0.00    -0.091 C 
HETATM   13  C1  UNL     1     -26.335 -10.868  -5.790  1.00  0.00     0.042 C 
HETATM   14  C3  UNL     1     -26.986 -12.415  -7.723  1.00  0.00     0.042 C 
ENDBRANCH  10  11
ENDBRANCH   9  10
ENDBRANCH   7   9
ENDBRANCH   5   6
ENDBRANCH   2   5
ENDBRANCH   1   2
BRANCH   1  15
HETATM   15  C12 UNL     1     -19.813 -18.013  -9.022  1.00  0.00     0.260 C 
BRANCH  15  16
HETATM   16  N2  UNL     1     -20.321 -18.886  -7.957  1.00  0.00    -0.069 N 
ATOM     17  H22 UNL     1     -19.910 -19.819  -8.003  1.00  0.00     0.277 HD
ATOM     18  H21 UNL     1     -19.969 -18.610  -7.040  1.00  0.00     0.277 HD
BRANCH  16  19
HETATM   19  C13 UNL     1     -21.745 -18.932  -7.985  1.00  0.00     0.194 C 
HETATM   20  C14 UNL     1     -22.241 -20.114  -7.200  1.00  0.00     0.017 C 
HETATM   21  C15 UNL     1     -23.688 -20.341  -7.589  1.00  0.00     0.011 C 
HETATM   22  C19 UNL     1     -22.072 -19.840  -5.745  1.00  0.00     0.011 C 
HETATM   23  C16 UNL     1     -24.451 -19.085  -7.282  1.00  0.00    -0.013 C 
HETATM   24  C17 UNL     1     -24.387 -18.886  -5.765  1.00  0.00     0.009 C 
HETATM   25  C22 UNL     1     -23.905 -17.851  -7.935  1.00  0.00     0.011 C 
HETATM   26  C18 UNL     1     -22.971 -18.693  -5.341  1.00  0.00    -0.013 C 
HETATM   27  C20 UNL     1     -22.420 -17.464  -6.044  1.00  0.00     0.011 C 
HETATM   28  C21 UNL     1     -22.439 -17.684  -7.517  1.00  0.00     0.017 C 
ENDBRANCH  16  19
ENDBRANCH  15  16
ENDBRANCH   1  15
TORSDOF 9
ENDMDL
