MODEL 3
REMARK VINA RESULT: -8.494256567      0.942      1.404
REMARK  9 active torsions:
REMARK  status: ('A' for Active; 'I' for Inactive)
REMARK    1  A    between atoms: C4_4  and  C5_5 
REMARK    2  A    between atoms: C5_5  and  C6_6 
REMARK    3  A    between atoms: C6_6  and  C7_7 
REMARK    4  A    between atoms: C9_9  and  C10_10 
REMARK    5  A    between atoms: C10_10  and  N1_11 
REMARK    6  A    between atoms: N1_11  and  C11_14 
REMARK    7  A    between atoms: C11_14  and  C12_15 
REMARK    8  A    between atoms: C12_15  and  N2_16 
REMARK    9  A    between atoms: N2_16  and  C13_19 
ROOT
HETATM    1  C11 UNL     1     -19.959 -15.272  -8.524  1.00  0.00     0.260 C 
ENDROOT
BRANCH   1   2
HETATM    2  N1  UNL     1     -20.836 -14.750  -9.529  1.00  0.00    -0.070 N 
ATOM      3  H12 UNL     1     -21.400 -15.488  -9.951  1.00  0.00     0.277 HD
ATOM      4  H11 UNL     1     -20.319 -14.454 -10.357  1.00  0.00     0.277 HD
BRANCH   2   5
HETATM    5  C10 UNL     1     -21.672 -13.673  -9.008  1.00  0.00     0.260 C 
BRANCH   5   6
HETATM    6  C9  UNL     1     -23.064 -13.898  -9.388  1.00  0.00     0.003 C 
HETATM    7  C7  UNL     1     -24.098 -13.721  -8.582  1.00  0.00    -0.086 C 
HETATM    8  C8  UNL     1     -25.457 -14.019  -9.158  1.00  0.00     0.043 C 
BRANCH   7   9
HETATM    9  C6  UNL     1     -24.006 -13.274  -7.196  1.00  0.00     0.037 C 
BRANCH   9  10
HETATM   10  C5  UNL     1     -25.396 -13.206  -6.592  1.00  0.00     0.031 C 
BRANCH  10  11
HETATM   11  C4  UNL     1     -25.706 -11.810  -6.190  1.00  0.00    -0.024 C 
HETATM   12  C2  UNL     1     -26.736 -11.126  -6.627  1.00  0.00    -0.091 C 
HETATM   13  C1  UNL     1     -26.953  -9.725  -6.155  1.00  0.00     0.042 C 
HETATM   14  C3  UNL     1     -27.729 -11.699  -7.589  1.00  0.00     0.042 C 
ENDBRANCH  10  11
ENDBRANCH   9  10
ENDBRANCH   7   9
ENDBRANCH   5   6
ENDBRANCH   2   5
ENDBRANCH   1   2
BRANCH   1  15
HETATM   15  C12 UNL     1     -20.134 -16.754  -8.378  1.00  0.00     0.260 C 
BRANCH  15  16
HETATM   16  N2  UNL     1     -21.473 -17.156  -8.824  1.00  0.00    -0.069 N 
ATOM     17  H22 UNL     1     -22.075 -16.349  -8.989  1.00  0.00     0.277 HD
ATOM     18  H21 UNL     1     -21.460 -17.534  -9.771  1.00  0.00     0.277 HD
BRANCH  16  19
HETATM   19  C13 UNL     1     -22.055 -18.069  -7.897  1.00  0.00     0.194 C 
HETATM   20  C14 UNL     1     -21.866 -17.572  -6.492  1.00  0.00     0.017 C 
HETATM   21  C15 UNL     1     -22.132 -18.737  -5.560  1.00  0.00     0.011 C 
HETATM   22  C19 UNL     1     -22.783 -16.422  -6.252  1.00  0.00     0.011 C 
HETATM   23  C16 UNL     1     -23.530 -19.222  -5.815  1.00  0.00    -0.013 C 
HETATM   24  C17 UNL     1     -24.474 -18.078  -5.436  1.00  0.00     0.009 C 
HETATM   25  C22 UNL     1     -23.806 -19.598  -7.240  1.00  0.00     0.011 C 
HETATM   26  C18 UNL     1     -24.216 -16.900  -6.312  1.00  0.00    -0.013 C 
HETATM   27  C20 UNL     1     -24.460 -17.310  -7.755  1.00  0.00     0.011 C 
HETATM   28  C21 UNL     1     -23.504 -18.388  -8.132  1.00  0.00     0.017 C 
ENDBRANCH  16  19
ENDBRANCH  15  16
ENDBRANCH   1  15
TORSDOF 9
ENDMDL
