MODEL 17
REMARK VINA RESULT: -7.727683284      2.040      5.323
REMARK  9 active torsions:
REMARK  status: ('A' for Active; 'I' for Inactive)
REMARK    1  A    between atoms: C4_4  and  C5_5 
REMARK    2  A    between atoms: C5_5  and  C6_6 
REMARK    3  A    between atoms: C6_6  and  C7_7 
REMARK    4  A    between atoms: C9_9  and  C10_10 
REMARK    5  A    between atoms: C10_10  and  N1_11 
REMARK    6  A    between atoms: N1_11  and  C11_14 
REMARK    7  A    between atoms: C11_14  and  C12_15 
REMARK    8  A    between atoms: C12_15  and  N2_16 
REMARK    9  A    between atoms: N2_16  and  C13_19 
ROOT
HETATM    1  C11 UNL     1     -18.973 -18.478  -8.733  1.00  0.00     0.260 C 
ENDROOT
BRANCH   1   2
HETATM    2  N1  UNL     1     -19.354 -19.770  -9.222  1.00  0.00    -0.070 N 
ATOM      3  H12 UNL     1     -19.876 -20.294  -8.519  1.00  0.00     0.277 HD
ATOM      4  H11 UNL     1     -18.547 -20.386  -9.313  1.00  0.00     0.277 HD
BRANCH   2   5
HETATM    5  C10 UNL     1     -20.096 -19.674 -10.475  1.00  0.00     0.260 C 
BRANCH   5   6
HETATM    6  C9  UNL     1     -21.010 -20.807 -10.598  1.00  0.00     0.003 C 
HETATM    7  C7  UNL     1     -22.206 -20.870 -10.037  1.00  0.00    -0.086 C 
HETATM    8  C8  UNL     1     -22.993 -22.132 -10.272  1.00  0.00     0.043 C 
BRANCH   7   9
HETATM    9  C6  UNL     1     -22.795 -19.819  -9.214  1.00  0.00     0.037 C 
BRANCH   9  10
HETATM   10  C5  UNL     1     -22.972 -20.325  -7.795  1.00  0.00     0.031 C 
BRANCH  10  11
HETATM   11  C4  UNL     1     -23.941 -19.467  -7.067  1.00  0.00    -0.024 C 
HETATM   12  C2  UNL     1     -23.731 -18.958  -5.877  1.00  0.00    -0.091 C 
HETATM   13  C1  UNL     1     -24.779 -18.107  -5.236  1.00  0.00     0.042 C 
HETATM   14  C3  UNL     1     -22.461 -19.188  -5.120  1.00  0.00     0.042 C 
ENDBRANCH  10  11
ENDBRANCH   9  10
ENDBRANCH   7   9
ENDBRANCH   5   6
ENDBRANCH   2   5
ENDBRANCH   1   2
BRANCH   1  15
HETATM   15  C12 UNL     1     -20.099 -17.838  -7.978  1.00  0.00     0.260 C 
BRANCH  15  16
HETATM   16  N2  UNL     1     -20.762 -16.828  -8.811  1.00  0.00    -0.069 N 
ATOM     17  H22 UNL     1     -20.159 -16.024  -8.984  1.00  0.00     0.277 HD
ATOM     18  H21 UNL     1     -20.874 -17.144  -9.774  1.00  0.00     0.277 HD
BRANCH  16  19
HETATM   19  C13 UNL     1     -22.006 -16.442  -8.233  1.00  0.00     0.194 C 
HETATM   20  C14 UNL     1     -21.788 -15.371  -7.201  1.00  0.00     0.017 C 
HETATM   21  C15 UNL     1     -23.045 -15.290  -6.359  1.00  0.00     0.011 C 
HETATM   22  C19 UNL     1     -21.471 -14.087  -7.888  1.00  0.00     0.011 C 
HETATM   23  C16 UNL     1     -24.194 -14.981  -7.274  1.00  0.00    -0.013 C 
HETATM   24  C17 UNL     1     -23.927 -13.597  -7.871  1.00  0.00     0.009 C 
HETATM   25  C22 UNL     1     -24.365 -15.950  -8.405  1.00  0.00     0.011 C 
HETATM   26  C18 UNL     1     -22.676 -13.631  -8.681  1.00  0.00    -0.013 C 
HETATM   27  C20 UNL     1     -22.850 -14.647  -9.797  1.00  0.00     0.011 C 
HETATM   28  C21 UNL     1     -23.059 -15.999  -9.209  1.00  0.00     0.017 C 
ENDBRANCH  16  19
ENDBRANCH  15  16
ENDBRANCH   1  15
TORSDOF 9
ENDMDL
