MODEL 6
REMARK VINA RESULT: -8.370845032      1.168      2.268
REMARK  9 active torsions:
REMARK  status: ('A' for Active; 'I' for Inactive)
REMARK    1  A    between atoms: C4_4  and  C5_5 
REMARK    2  A    between atoms: C5_5  and  C6_6 
REMARK    3  A    between atoms: C6_6  and  C7_7 
REMARK    4  A    between atoms: C9_9  and  C10_10 
REMARK    5  A    between atoms: C10_10  and  N1_11 
REMARK    6  A    between atoms: N1_11  and  C11_14 
REMARK    7  A    between atoms: C11_14  and  C12_15 
REMARK    8  A    between atoms: C12_15  and  N2_16 
REMARK    9  A    between atoms: N2_16  and  C13_19 
ROOT
HETATM    1  C11 UNL     1     -19.906 -15.038  -8.737  1.00  0.00     0.260 C 
ENDROOT
BRANCH   1   2
HETATM    2  N1  UNL     1     -20.930 -14.456  -9.552  1.00  0.00    -0.070 N 
ATOM      3  H12 UNL     1     -21.479 -15.172 -10.028  1.00  0.00     0.277 HD
ATOM      4  H11 UNL     1     -20.536 -13.989 -10.369  1.00  0.00     0.277 HD
BRANCH   2   5
HETATM    5  C10 UNL     1     -21.783 -13.555  -8.784  1.00  0.00     0.260 C 
BRANCH   5   6
HETATM    6  C9  UNL     1     -23.176 -13.725  -9.188  1.00  0.00     0.003 C 
HETATM    7  C7  UNL     1     -24.174 -13.971  -8.355  1.00  0.00    -0.086 C 
HETATM    8  C8  UNL     1     -25.539 -14.126  -8.970  1.00  0.00     0.043 C 
BRANCH   7   9
HETATM    9  C6  UNL     1     -24.036 -14.108  -6.909  1.00  0.00     0.037 C 
BRANCH   9  10
HETATM   10  C5  UNL     1     -25.323 -13.676  -6.233  1.00  0.00     0.031 C 
BRANCH  10  11
HETATM   11  C4  UNL     1     -25.258 -12.231  -5.896  1.00  0.00    -0.024 C 
HETATM   12  C2  UNL     1     -26.153 -11.345  -6.262  1.00  0.00    -0.091 C 
HETATM   13  C1  UNL     1     -25.988  -9.913  -5.866  1.00  0.00     0.042 C 
HETATM   14  C3  UNL     1     -27.360 -11.711  -7.067  1.00  0.00     0.042 C 
ENDBRANCH  10  11
ENDBRANCH   9  10
ENDBRANCH   7   9
ENDBRANCH   5   6
ENDBRANCH   2   5
ENDBRANCH   1   2
BRANCH   1  15
HETATM   15  C12 UNL     1     -20.438 -15.391  -7.380  1.00  0.00     0.260 C 
BRANCH  15  16
HETATM   16  N2  UNL     1     -20.595 -16.844  -7.257  1.00  0.00    -0.069 N 
ATOM     17  H22 UNL     1     -20.226 -17.336  -8.070  1.00  0.00     0.277 HD
ATOM     18  H21 UNL     1     -19.975 -17.234  -6.547  1.00  0.00     0.277 HD
BRANCH  16  19
HETATM   19  C13 UNL     1     -21.958 -17.180  -7.010  1.00  0.00     0.194 C 
HETATM   20  C14 UNL     1     -22.619 -17.633  -8.281  1.00  0.00     0.017 C 
HETATM   21  C15 UNL     1     -24.117 -17.588  -8.054  1.00  0.00     0.011 C 
HETATM   22  C19 UNL     1     -22.130 -18.997  -8.628  1.00  0.00     0.011 C 
HETATM   23  C16 UNL     1     -24.434 -18.483  -6.890  1.00  0.00    -0.013 C 
HETATM   24  C17 UNL     1     -24.053 -19.906  -7.308  1.00  0.00     0.009 C 
HETATM   25  C22 UNL     1     -23.688 -18.153  -5.632  1.00  0.00     0.011 C 
HETATM   26  C18 UNL     1     -22.589 -19.979  -7.573  1.00  0.00    -0.013 C 
HETATM   27  C20 UNL     1     -21.848 -19.602  -6.301  1.00  0.00     0.011 C 
HETATM   28  C21 UNL     1     -22.184 -18.200  -5.929  1.00  0.00     0.017 C 
ENDBRANCH  16  19
ENDBRANCH  15  16
ENDBRANCH   1  15
TORSDOF 9
ENDMDL
