MODEL 4
REMARK VINA RESULT: -8.695274134      0.760      1.769
REMARK  5 active torsions:
REMARK  status: ('A' for Active; 'I' for Inactive)
REMARK    1  A    between atoms: C3_6  and  C4_7 
REMARK    2  A    between atoms: C4_7  and  N3_8 
REMARK    3  A    between atoms: C6_10  and  O1_11 
REMARK    4  A    between atoms: C7_13  and  C8_14 
REMARK    5  A    between atoms: C8_14  and  O2_15 
ROOT
HETATM    1  N1  UNL     1      16.483 -23.891 -15.965  1.00  0.00    -0.063 NA
HETATM    2  C1  UNL     1      16.346 -25.281 -15.644  1.00  0.00     0.195 A 
HETATM    3  N2  UNL     1      17.499 -25.969 -15.416  1.00  0.00    -0.328 N 
ATOM      4  H2  UNL     1      18.395 -25.484 -15.447  1.00  0.00     0.168 HD
HETATM    5  C2  UNL     1      17.458 -27.294 -15.150  1.00  0.00     0.076 A 
HETATM    6  C3  UNL     1      18.507 -28.211 -15.009  1.00  0.00     0.015 A 
HETATM    7  C10 UNL     1      17.877 -29.431 -14.877  1.00  0.00     0.099 A 
HETATM    8  N4  UNL     1      16.516 -29.246 -14.936  1.00  0.00    -0.359 N 
ATOM      9  H4  UNL     1      15.822 -29.990 -14.857  1.00  0.00     0.165 HD
HETATM   10  C11 UNL     1      16.231 -27.946 -15.110  1.00  0.00     0.128 A 
HETATM   11  C12 UNL     1      15.099 -27.199 -15.344  1.00  0.00     0.276 A 
HETATM   12  O3  UNL     1      13.968 -27.743 -15.307  1.00  0.00    -0.266 OA
HETATM   13  N5  UNL     1      15.165 -25.878 -15.607  1.00  0.00    -0.295 N 
ATOM     14  H5  UNL     1      14.312 -25.343 -15.775  1.00  0.00     0.171 HD
ENDROOT
BRANCH   6  15
HETATM   15  C4  UNL     1      19.933 -27.828 -14.948  1.00  0.00     0.315 C 
BRANCH  15  16
HETATM   16  N3  UNL     1      20.439 -28.064 -16.253  1.00  0.00     0.095 N 
HETATM   17  C5  UNL     1      20.186 -26.863 -17.077  1.00  0.00     0.304 C 
HETATM   18  C6  UNL     1      20.687 -27.326 -18.420  1.00  0.00     0.154 C 
HETATM   19  C7  UNL     1      21.465 -28.591 -18.163  1.00  0.00     0.068 C 
HETATM   20  C9  UNL     1      21.735 -28.418 -16.615  1.00  0.00     0.282 C 
BRANCH  18  21
HETATM   21  O1  UNL     1      19.575 -27.606 -19.245  1.00  0.00    -0.393 OA
ATOM     22  H1  UNL     1      19.723 -27.213 -20.098  1.00  0.00     0.210 HD
ENDBRANCH  18  21
BRANCH  19  23
HETATM   23  C8  UNL     1      22.810 -28.599 -18.869  1.00  0.00     0.173 C 
BRANCH  23  24
HETATM   24  O2  UNL     1      23.241 -29.858 -19.303  1.00  0.00    -0.400 OA
ATOM     25  H2  UNL     1      24.169 -30.024 -19.188  1.00  0.00     0.209 HD
ENDBRANCH  23  24
ENDBRANCH  19  23
ENDBRANCH  15  16
ENDBRANCH   6  15
TORSDOF 5
ENDMDL
