MODEL 5
REMARK VINA RESULT: -8.509658579      2.039      5.868
REMARK  5 active torsions:
REMARK  status: ('A' for Active; 'I' for Inactive)
REMARK    1  A    between atoms: C3_6  and  C4_7 
REMARK    2  A    between atoms: C4_7  and  N3_8 
REMARK    3  A    between atoms: C6_10  and  O1_11 
REMARK    4  A    between atoms: C7_13  and  C8_14 
REMARK    5  A    between atoms: C8_14  and  O2_15 
ROOT
HETATM    1  N1  UNL     1      19.551 -26.688 -20.646  1.00  0.00    -0.063 NA
HETATM    2  C1  UNL     1      20.194 -27.285 -19.513  1.00  0.00     0.195 A 
HETATM    3  N2  UNL     1      19.582 -27.116 -18.308  1.00  0.00    -0.328 N 
ATOM      4  H2  UNL     1      18.695 -26.614 -18.254  1.00  0.00     0.168 HD
HETATM    5  C2  UNL     1      20.146 -27.611 -17.183  1.00  0.00     0.076 A 
HETATM    6  C3  UNL     1      19.764 -27.451 -15.846  1.00  0.00     0.015 A 
HETATM    7  C10 UNL     1      20.773 -28.062 -15.129  1.00  0.00     0.099 A 
HETATM    8  N4  UNL     1      21.709 -28.563 -16.002  1.00  0.00    -0.359 N 
ATOM      9  H4  UNL     1      22.552 -29.067 -15.727  1.00  0.00     0.165 HD
HETATM   10  C11 UNL     1      21.354 -28.293 -17.269  1.00  0.00     0.128 A 
HETATM   11  C12 UNL     1      21.924 -28.438 -18.512  1.00  0.00     0.276 A 
HETATM   12  O3  UNL     1      23.009 -29.056 -18.639  1.00  0.00    -0.266 OA
HETATM   13  N5  UNL     1      21.342 -27.935 -19.621  1.00  0.00    -0.295 N 
ATOM     14  H5  UNL     1      21.781 -28.056 -20.533  1.00  0.00     0.171 HD
ENDROOT
BRANCH   6  15
HETATM   15  C4  UNL     1      18.497 -26.822 -15.420  1.00  0.00     0.315 C 
BRANCH  15  16
HETATM   16  N3  UNL     1      17.568 -27.889 -15.311  1.00  0.00     0.095 N 
HETATM   17  C5  UNL     1      17.855 -28.633 -14.066  1.00  0.00     0.304 C 
HETATM   18  C6  UNL     1      16.859 -29.759 -14.170  1.00  0.00     0.154 C 
HETATM   19  C7  UNL     1      15.899 -29.370 -15.265  1.00  0.00     0.068 C 
HETATM   20  C9  UNL     1      16.178 -27.814 -15.312  1.00  0.00     0.282 C 
BRANCH  18  21
HETATM   21  O1  UNL     1      17.547 -30.939 -14.532  1.00  0.00    -0.393 OA
ATOM     22  H1  UNL     1      17.782 -30.884 -15.451  1.00  0.00     0.210 HD
ENDBRANCH  18  21
BRANCH  19  23
HETATM   23  C8  UNL     1      14.448 -29.567 -14.862  1.00  0.00     0.173 C 
BRANCH  23  24
HETATM   24  O2  UNL     1      13.778 -28.399 -14.481  1.00  0.00    -0.400 OA
ATOM     25  H2  UNL     1      12.957 -28.540 -14.024  1.00  0.00     0.209 HD
ENDBRANCH  23  24
ENDBRANCH  19  23
ENDBRANCH  15  16
ENDBRANCH   6  15
TORSDOF 5
ENDMDL
