MODEL 3
REMARK VINA RESULT: -9.041580115      2.092      6.081
REMARK  5 active torsions:
REMARK  status: ('A' for Active; 'I' for Inactive)
REMARK    1  A    between atoms: C3_6  and  C4_7 
REMARK    2  A    between atoms: C4_7  and  N3_8 
REMARK    3  A    between atoms: C6_10  and  O1_11 
REMARK    4  A    between atoms: C7_13  and  C8_14 
REMARK    5  A    between atoms: C8_14  and  O2_15 
ROOT
HETATM    1  N1  UNL     1      19.546 -26.779 -20.578  1.00  0.00    -0.063 NA
HETATM    2  C1  UNL     1      20.152 -27.330 -19.402  1.00  0.00     0.195 A 
HETATM    3  N2  UNL     1      19.468 -27.172 -18.235  1.00  0.00    -0.328 N 
ATOM      4  H2  UNL     1      18.558 -26.710 -18.237  1.00  0.00     0.168 HD
HETATM    5  C2  UNL     1      19.991 -27.625 -17.073  1.00  0.00     0.076 A 
HETATM    6  C3  UNL     1      19.530 -27.463 -15.761  1.00  0.00     0.015 A 
HETATM    7  C10 UNL     1      20.524 -28.017 -14.981  1.00  0.00     0.099 A 
HETATM    8  N4  UNL     1      21.528 -28.488 -15.793  1.00  0.00    -0.359 N 
ATOM      9  H4  UNL     1      22.377 -28.949 -15.465  1.00  0.00     0.165 HD
HETATM   10  C11 UNL     1      21.231 -28.253 -17.082  1.00  0.00     0.128 A 
HETATM   11  C12 UNL     1      21.874 -28.389 -18.290  1.00  0.00     0.276 A 
HETATM   12  O3  UNL     1      22.991 -28.959 -18.348  1.00  0.00    -0.266 OA
HETATM   13  N5  UNL     1      21.332 -27.929 -19.436  1.00  0.00    -0.295 N 
ATOM     14  H5  UNL     1      21.826 -28.043 -20.322  1.00  0.00     0.171 HD
ENDROOT
BRANCH   6  15
HETATM   15  C4  UNL     1      18.215 -26.885 -15.415  1.00  0.00     0.315 C 
BRANCH  15  16
HETATM   16  N3  UNL     1      17.418 -27.987 -15.008  1.00  0.00     0.095 N 
HETATM   17  C5  UNL     1      16.379 -28.218 -16.035  1.00  0.00     0.304 C 
HETATM   18  C6  UNL     1      15.590 -29.331 -15.398  1.00  0.00     0.154 C 
HETATM   19  C7  UNL     1      16.431 -29.841 -14.256  1.00  0.00     0.068 C 
HETATM   20  C9  UNL     1      17.839 -29.278 -14.701  1.00  0.00     0.282 C 
BRANCH  18  21
HETATM   21  O1  UNL     1      14.379 -28.799 -14.901  1.00  0.00    -0.393 OA
ATOM     22  H1  UNL     1      13.965 -29.450 -14.347  1.00  0.00     0.210 HD
ENDBRANCH  18  21
BRANCH  19  23
HETATM   23  C8  UNL     1      16.525 -31.358 -14.237  1.00  0.00     0.173 C 
BRANCH  23  24
HETATM   24  O2  UNL     1      16.755 -31.918 -12.975  1.00  0.00    -0.400 OA
ATOM     25  H2  UNL     1      16.037 -32.436 -12.632  1.00  0.00     0.209 HD
ENDBRANCH  23  24
ENDBRANCH  19  23
ENDBRANCH  15  16
ENDBRANCH   6  15
TORSDOF 5
ENDMDL
