MODEL 6
REMARK VINA RESULT: -7.990007666      1.002      1.044
REMARK  5 active torsions:
REMARK  status: ('A' for Active; 'I' for Inactive)
REMARK    1  A    between atoms: C3_6  and  C4_7 
REMARK    2  A    between atoms: C4_7  and  N3_8 
REMARK    3  A    between atoms: C6_10  and  O1_11 
REMARK    4  A    between atoms: C7_13  and  C8_14 
REMARK    5  A    between atoms: C8_14  and  O2_15 
ROOT
HETATM    1  N1  UNL     1      15.489 -24.919 -14.876  1.00  0.00    -0.063 NA
HETATM    2  C1  UNL     1      15.839 -26.309 -14.872  1.00  0.00     0.195 A 
HETATM    3  N2  UNL     1      17.168 -26.602 -14.911  1.00  0.00    -0.328 N 
ATOM      4  H2  UNL     1      17.855 -25.847 -14.908  1.00  0.00     0.168 HD
HETATM    5  C2  UNL     1      17.580 -27.889 -14.954  1.00  0.00     0.076 A 
HETATM    6  C3  UNL     1      18.869 -28.410 -15.121  1.00  0.00     0.015 A 
HETATM    7  C10 UNL     1      18.674 -29.773 -15.218  1.00  0.00     0.099 A 
HETATM    8  N4  UNL     1      17.331 -30.047 -15.112  1.00  0.00    -0.359 N 
ATOM      9  H4  UNL     1      16.922 -30.981 -15.146  1.00  0.00     0.165 HD
HETATM   10  C11 UNL     1      16.636 -28.908 -14.958  1.00  0.00     0.128 A 
HETATM   11  C12 UNL     1      15.307 -28.554 -14.913  1.00  0.00     0.276 A 
HETATM   12  O3  UNL     1      14.419 -29.442 -14.903  1.00  0.00    -0.266 OA
HETATM   13  N5  UNL     1      14.920 -27.263 -14.869  1.00  0.00    -0.295 N 
ATOM     14  H5  UNL     1      13.929 -27.023 -14.834  1.00  0.00     0.171 HD
ENDROOT
BRANCH   6  15
HETATM   15  C4  UNL     1      20.098 -27.592 -15.099  1.00  0.00     0.315 C 
BRANCH  15  16
HETATM   16  N3  UNL     1      20.500 -27.486 -16.456  1.00  0.00     0.095 N 
HETATM   17  C5  UNL     1      21.104 -28.772 -16.867  1.00  0.00     0.304 C 
HETATM   18  C6  UNL     1      21.550 -28.444 -18.268  1.00  0.00     0.154 C 
HETATM   19  C7  UNL     1      20.875 -27.146 -18.630  1.00  0.00     0.068 C 
HETATM   20  C9  UNL     1      19.715 -27.150 -17.556  1.00  0.00     0.282 C 
BRANCH  18  21
HETATM   21  O1  UNL     1      22.953 -28.272 -18.267  1.00  0.00    -0.393 OA
ATOM     22  H1  UNL     1      23.151 -27.388 -17.978  1.00  0.00     0.210 HD
ENDBRANCH  18  21
BRANCH  19  23
HETATM   23  C8  UNL     1      20.232 -27.190 -20.006  1.00  0.00     0.173 C 
BRANCH  23  24
HETATM   24  O2  UNL     1      20.266 -28.442 -20.631  1.00  0.00    -0.400 OA
ATOM     25  H2  UNL     1      21.130 -28.827 -20.707  1.00  0.00     0.209 HD
ENDBRANCH  23  24
ENDBRANCH  19  23
ENDBRANCH  15  16
ENDBRANCH   6  15
TORSDOF 5
ENDMDL
