MODEL 1
REMARK VINA RESULT: -9.296147757      0.000      0.000
REMARK  5 active torsions:
REMARK  status: ('A' for Active; 'I' for Inactive)
REMARK    1  A    between atoms: C3_6  and  C4_7 
REMARK    2  A    between atoms: C4_7  and  N3_8 
REMARK    3  A    between atoms: C6_10  and  O1_11 
REMARK    4  A    between atoms: C7_13  and  C8_14 
REMARK    5  A    between atoms: C8_14  and  O2_15 
ROOT
HETATM    1  N1  UNL     1      16.456 -23.845 -15.961  1.00  0.00    -0.063 NA
HETATM    2  C1  UNL     1      16.374 -25.233 -15.613  1.00  0.00     0.195 A 
HETATM    3  N2  UNL     1      17.555 -25.879 -15.406  1.00  0.00    -0.328 N 
ATOM      4  H2  UNL     1      18.434 -25.365 -15.470  1.00  0.00     0.168 HD
HETATM    5  C2  UNL     1      17.566 -27.200 -15.116  1.00  0.00     0.076 A 
HETATM    6  C3  UNL     1      18.648 -28.079 -14.990  1.00  0.00     0.015 A 
HETATM    7  C10 UNL     1      18.062 -29.317 -14.820  1.00  0.00     0.099 A 
HETATM    8  N4  UNL     1      16.695 -29.178 -14.843  1.00  0.00    -0.359 N 
ATOM      9  H4  UNL     1      16.028 -29.942 -14.733  1.00  0.00     0.165 HD
HETATM   10  C11 UNL     1      16.362 -27.890 -15.032  1.00  0.00     0.128 A 
HETATM   11  C12 UNL     1      15.201 -27.185 -15.246  1.00  0.00     0.276 A 
HETATM   12  O3  UNL     1      14.089 -27.765 -15.169  1.00  0.00    -0.266 OA
HETATM   13  N5  UNL     1      15.215 -25.867 -15.533  1.00  0.00    -0.295 N 
ATOM     14  H5  UNL     1      14.341 -25.364 -15.686  1.00  0.00     0.171 HD
ENDROOT
BRANCH   6  15
HETATM   15  C4  UNL     1      20.061 -27.649 -14.975  1.00  0.00     0.315 C 
BRANCH  15  16
HETATM   16  N3  UNL     1      20.462 -27.638 -16.337  1.00  0.00     0.095 N 
HETATM   17  C5  UNL     1      21.281 -28.842 -16.593  1.00  0.00     0.304 C 
HETATM   18  C6  UNL     1      21.688 -28.611 -18.025  1.00  0.00     0.154 C 
HETATM   19  C7  UNL     1      20.811 -27.498 -18.536  1.00  0.00     0.068 C 
HETATM   20  C9  UNL     1      19.650 -27.572 -17.466  1.00  0.00     0.282 C 
BRANCH  18  21
HETATM   21  O1  UNL     1      23.042 -28.206 -18.049  1.00  0.00    -0.393 OA
ATOM     22  H1  UNL     1      23.502 -28.721 -18.703  1.00  0.00     0.210 HD
ENDBRANCH  18  21
BRANCH  19  23
HETATM   23  C8  UNL     1      20.207 -27.812 -19.895  1.00  0.00     0.173 C 
BRANCH  23  24
HETATM   24  O2  UNL     1      19.700 -26.705 -20.584  1.00  0.00    -0.400 OA
ATOM     25  H2  UNL     1      18.794 -26.786 -20.859  1.00  0.00     0.209 HD
ENDBRANCH  23  24
ENDBRANCH  19  23
ENDBRANCH  15  16
ENDBRANCH   6  15
TORSDOF 5
ENDMDL
