MODEL 1
REMARK VINA RESULT: -9.803796063      0.000      0.000
REMARK  15 active torsions:
REMARK  status: ('A' for Active; 'I' for Inactive)
REMARK    1  A    between atoms: N1_5  and  C4_6 
REMARK    2  A    between atoms: C5_8  and  C6_9 
REMARK    3  A    between atoms: C6_9  and  O3_10 
REMARK    4  A    between atoms: O3_10  and  P1_11 
REMARK    5  A    between atoms: P1_11  and  O6_14 
REMARK    6  A    between atoms: O6_14  and  P2_15 
REMARK    7  A    between atoms: P2_15  and  O9_18 
REMARK    8  A    between atoms: O9_18  and  C7_19 
REMARK    9  A    between atoms: C8_21  and  C9_22 
REMARK   10  A    between atoms: C9_22  and  O11_23 
REMARK   11  A    between atoms: C10_25  and  O12_26 
REMARK   12  A    between atoms: C11_28  and  O13_29 
REMARK   13  A    between atoms: C12_31  and  O14_32 
REMARK   14  A    between atoms: C13_34  and  O15_35 
REMARK   15  A    between atoms: C14_37  and  O16_38 
ROOT
HETATM    1  P1  UNL     1      32.516  -2.440  15.464  1.00  0.00     0.417 P 
HETATM    2  O4  UNL     1      31.486  -3.399  14.909  1.00  0.00    -0.624 OA
HETATM    3  O5  UNL     1      34.000  -3.198  15.635  1.00  0.00    -0.624 OA
ENDROOT
BRANCH   1   4
HETATM    4  O3  UNL     1      32.005  -1.888  16.977  1.00  0.00    -0.287 OA
BRANCH   4   5
HETATM    5  C6  UNL     1      32.021  -2.944  17.898  1.00  0.00     0.216 C 
BRANCH   5   6
HETATM    6  C5  UNL     1      30.866  -2.726  18.862  1.00  0.00     0.180 C 
HETATM    7  O2  UNL     1      29.775  -3.505  18.613  1.00  0.00    -0.353 OA
HETATM    8  C4  UNL     1      29.359  -4.140  19.750  1.00  0.00     0.263 C 
HETATM    9  C14 UNL     1      29.959  -3.411  20.895  1.00  0.00     0.198 C 
HETATM   10  C13 UNL     1      31.301  -2.979  20.290  1.00  0.00     0.182 C 
BRANCH   8  11
HETATM   11  N1  UNL     1      29.685  -5.541  19.659  1.00  0.00    -0.280 N 
HETATM   12  C3  UNL     1      30.542  -6.024  18.734  1.00  0.00     0.104 A 
HETATM   13  C2  UNL     1      30.813  -7.359  18.695  1.00  0.00     0.092 A 
HETATM   14  C1  UNL     1      30.229  -8.229  19.583  1.00  0.00     0.250 A 
HETATM   15  O1  UNL     1      30.474  -9.464  19.554  1.00  0.00    -0.268 OA
HETATM   16  N2  UNL     1      29.374  -7.711  20.498  1.00  0.00    -0.275 N 
HETATM   17  C15 UNL     1      29.108  -6.394  20.533  1.00  0.00     0.331 A 
ATOM     18  H2  UNL     1      28.924  -8.330  21.171  1.00  0.00     0.173 HD
HETATM   19  O17 UNL     1      28.299  -5.996  21.420  1.00  0.00    -0.246 OA
ENDBRANCH   8  11
BRANCH   9  20
HETATM   20  O16 UNL     1      29.238  -2.215  21.057  1.00  0.00    -0.388 OA
ATOM     21  H16 UNL     1      29.310  -1.961  21.969  1.00  0.00     0.210 HD
ENDBRANCH   9  20
BRANCH  10  22
HETATM   22  O15 UNL     1      31.741  -1.807  20.911  1.00  0.00    -0.390 OA
ATOM     23  H15 UNL     1      32.180  -1.988  21.733  1.00  0.00     0.210 HD
ENDBRANCH  10  22
ENDBRANCH   5   6
ENDBRANCH   4   5
ENDBRANCH   1   4
BRANCH   1  24
HETATM   24  O6  UNL     1      32.676  -1.182  14.349  1.00  0.00    -0.180 OA
BRANCH  24  25
HETATM   25  P2  UNL     1      33.901  -0.157  14.900  1.00  0.00     0.420 P 
HETATM   26  O7  UNL     1      33.854  -0.160  16.413  1.00  0.00    -0.624 OA
HETATM   27  O8  UNL     1      33.639   1.437  14.397  1.00  0.00    -0.624 OA
BRANCH  25  28
HETATM   28  O9  UNL     1      35.399  -0.735  14.358  1.00  0.00    -0.255 OA
BRANCH  28  29
HETATM   29  C7  UNL     1      35.295  -1.307  13.081  1.00  0.00     0.304 C 
HETATM   30  O10 UNL     1      34.599  -0.431  12.291  1.00  0.00    -0.348 OA
HETATM   31  C8  UNL     1      34.496  -0.781  10.967  1.00  0.00     0.179 C 
HETATM   32  C10 UNL     1      35.793  -1.198  10.331  1.00  0.00     0.180 C 
HETATM   33  C11 UNL     1      36.642  -2.076  11.178  1.00  0.00     0.183 C 
HETATM   34  C12 UNL     1      36.709  -1.521  12.582  1.00  0.00     0.205 C 
BRANCH  31  35
HETATM   35  C9  UNL     1      33.383  -1.786  10.701  1.00  0.00     0.198 C 
BRANCH  35  36
HETATM   36  O11 UNL     1      32.212  -1.476  11.340  1.00  0.00    -0.398 OA
ATOM     37  H11 UNL     1      31.559  -2.163  11.277  1.00  0.00     0.209 HD
ENDBRANCH  35  36
ENDBRANCH  31  35
BRANCH  32  38
HETATM   38  O12 UNL     1      36.513  -0.025  10.066  1.00  0.00    -0.390 OA
ATOM     39  H12 UNL     1      37.435  -0.248  10.123  1.00  0.00     0.210 HD
ENDBRANCH  32  38
BRANCH  33  40
HETATM   40  O13 UNL     1      36.259  -3.409  11.194  1.00  0.00    -0.390 OA
ATOM     41  H13 UNL     1      35.363  -3.566  10.920  1.00  0.00     0.210 HD
ENDBRANCH  33  40
BRANCH  34  42
HETATM   42  O14 UNL     1      37.414  -0.314  12.512  1.00  0.00    -0.388 OA
ATOM     43  H14 UNL     1      38.229  -0.360  12.998  1.00  0.00     0.210 HD
ENDBRANCH  34  42
ENDBRANCH  28  29
ENDBRANCH  25  28
ENDBRANCH  24  25
ENDBRANCH   1  24
TORSDOF 15
ENDMDL
