MODEL 3
REMARK VINA RESULT: -9.762891765      0.921      1.160
REMARK  15 active torsions:
REMARK  status: ('A' for Active; 'I' for Inactive)
REMARK    1  A    between atoms: N1_5  and  C4_6 
REMARK    2  A    between atoms: C5_8  and  C6_9 
REMARK    3  A    between atoms: C6_9  and  O3_10 
REMARK    4  A    between atoms: O3_10  and  P1_11 
REMARK    5  A    between atoms: P1_11  and  O6_14 
REMARK    6  A    between atoms: O6_14  and  P2_15 
REMARK    7  A    between atoms: P2_15  and  O9_18 
REMARK    8  A    between atoms: O9_18  and  C7_19 
REMARK    9  A    between atoms: C8_21  and  C9_22 
REMARK   10  A    between atoms: C9_22  and  O11_23 
REMARK   11  A    between atoms: C10_25  and  O12_26 
REMARK   12  A    between atoms: C11_28  and  O13_29 
REMARK   13  A    between atoms: C12_31  and  O14_32 
REMARK   14  A    between atoms: C13_34  and  O15_35 
REMARK   15  A    between atoms: C14_37  and  O16_38 
ROOT
HETATM    1  P1  UNL     1      32.209  -3.474  15.251  1.00  0.00     0.417 P 
HETATM    2  O4  UNL     1      31.903  -3.281  13.781  1.00  0.00    -0.624 OA
HETATM    3  O5  UNL     1      32.168  -5.098  15.657  1.00  0.00    -0.624 OA
ENDROOT
BRANCH   1   4
HETATM    4  O3  UNL     1      31.055  -2.649  16.171  1.00  0.00    -0.287 OA
BRANCH   4   5
HETATM    5  C6  UNL     1      30.179  -3.567  16.766  1.00  0.00     0.216 C 
BRANCH   5   6
HETATM    6  C5  UNL     1      30.115  -3.241  18.249  1.00  0.00     0.180 C 
HETATM    7  O2  UNL     1      29.281  -4.049  18.963  1.00  0.00    -0.353 OA
HETATM    8  C4  UNL     1      29.912  -4.545  20.070  1.00  0.00     0.263 C 
HETATM    9  C14 UNL     1      31.094  -3.682  20.317  1.00  0.00     0.198 C 
HETATM   10  C13 UNL     1      31.489  -3.318  18.879  1.00  0.00     0.182 C 
BRANCH   8  11
HETATM   11  N1  UNL     1      30.190  -5.946  19.871  1.00  0.00    -0.280 N 
HETATM   12  C3  UNL     1      31.237  -6.376  19.135  1.00  0.00     0.104 A 
HETATM   13  C2  UNL     1      31.452  -7.713  18.982  1.00  0.00     0.092 A 
HETATM   14  C1  UNL     1      30.619  -8.638  19.563  1.00  0.00     0.250 A 
HETATM   15  O1  UNL     1      30.810  -9.875  19.426  1.00  0.00    -0.268 OA
HETATM   16  N2  UNL     1      29.578  -8.171  20.295  1.00  0.00    -0.275 N 
HETATM   17  C15 UNL     1      29.369  -6.852  20.444  1.00  0.00     0.331 A 
ATOM     18  H2  UNL     1      28.943  -8.833  20.740  1.00  0.00     0.173 HD
HETATM   19  O17 UNL     1      28.374  -6.505  21.144  1.00  0.00    -0.246 OA
ENDBRANCH   8  11
BRANCH   9  20
HETATM   20  O16 UNL     1      30.627  -2.478  20.874  1.00  0.00    -0.388 OA
ATOM     21  H16 UNL     1      31.068  -2.361  21.706  1.00  0.00     0.210 HD
ENDBRANCH   9  20
BRANCH  10  22
HETATM   22  O15 UNL     1      32.133  -2.078  18.868  1.00  0.00    -0.390 OA
ATOM     23  H15 UNL     1      32.708  -1.987  18.117  1.00  0.00     0.210 HD
ENDBRANCH  10  22
ENDBRANCH   5   6
ENDBRANCH   4   5
ENDBRANCH   1   4
BRANCH   1  24
HETATM   24  O6  UNL     1      33.769  -2.887  15.516  1.00  0.00    -0.180 OA
BRANCH  24  25
HETATM   25  P2  UNL     1      33.706  -1.201  15.442  1.00  0.00     0.420 P 
HETATM   26  O7  UNL     1      33.788  -0.677  16.860  1.00  0.00    -0.624 OA
HETATM   27  O8  UNL     1      32.233  -0.670  14.799  1.00  0.00    -0.624 OA
BRANCH  25  28
HETATM   28  O9  UNL     1      35.015  -0.631  14.529  1.00  0.00    -0.255 OA
BRANCH  28  29
HETATM   29  C7  UNL     1      35.096  -1.283  13.288  1.00  0.00     0.304 C 
HETATM   30  O10 UNL     1      34.393  -0.533  12.382  1.00  0.00    -0.348 OA
HETATM   31  C8  UNL     1      34.456  -0.966  11.080  1.00  0.00     0.179 C 
HETATM   32  C10 UNL     1      35.845  -1.274  10.594  1.00  0.00     0.180 C 
HETATM   33  C11 UNL     1      36.694  -2.006  11.571  1.00  0.00     0.183 C 
HETATM   34  C12 UNL     1      36.566  -1.369  12.935  1.00  0.00     0.205 C 
BRANCH  31  35
HETATM   35  C9  UNL     1      33.484  -2.100  10.782  1.00  0.00     0.198 C 
BRANCH  35  36
HETATM   36  O11 UNL     1      32.186  -1.793  11.092  1.00  0.00    -0.398 OA
ATOM     37  H11 UNL     1      31.610  -1.798  10.337  1.00  0.00     0.209 HD
ENDBRANCH  35  36
ENDBRANCH  31  35
BRANCH  32  38
HETATM   38  O12 UNL     1      36.463  -0.047  10.318  1.00  0.00    -0.390 OA
ATOM     39  H12 UNL     1      37.234  -0.237   9.797  1.00  0.00     0.210 HD
ENDBRANCH  32  38
BRANCH  33  40
HETATM   40  O13 UNL     1      36.450  -3.370  11.640  1.00  0.00    -0.390 OA
ATOM     41  H13 UNL     1      36.253  -3.692  12.511  1.00  0.00     0.210 HD
ENDBRANCH  33  40
BRANCH  34  42
HETATM   42  O14 UNL     1      37.146  -0.099  12.850  1.00  0.00    -0.388 OA
ATOM     43  H14 UNL     1      36.980   0.303  12.005  1.00  0.00     0.210 HD
ENDBRANCH  34  42
ENDBRANCH  28  29
ENDBRANCH  25  28
ENDBRANCH  24  25
ENDBRANCH   1  24
TORSDOF 15
ENDMDL
