MODEL 2
REMARK VINA RESULT: -9.765411130      0.959      2.012
REMARK  15 active torsions:
REMARK  status: ('A' for Active; 'I' for Inactive)
REMARK    1  A    between atoms: N1_5  and  C4_6 
REMARK    2  A    between atoms: C5_8  and  C6_9 
REMARK    3  A    between atoms: C6_9  and  O3_10 
REMARK    4  A    between atoms: O3_10  and  P1_11 
REMARK    5  A    between atoms: P1_11  and  O6_14 
REMARK    6  A    between atoms: O6_14  and  P2_15 
REMARK    7  A    between atoms: P2_15  and  O9_18 
REMARK    8  A    between atoms: O9_18  and  C7_19 
REMARK    9  A    between atoms: C8_21  and  C9_22 
REMARK   10  A    between atoms: C9_22  and  O11_23 
REMARK   11  A    between atoms: C10_25  and  O12_26 
REMARK   12  A    between atoms: C11_28  and  O13_29 
REMARK   13  A    between atoms: C12_31  and  O14_32 
REMARK   14  A    between atoms: C13_34  and  O15_35 
REMARK   15  A    between atoms: C14_37  and  O16_38 
ROOT
HETATM    1  P1  UNL     1      33.154  -1.476  16.186  1.00  0.00     0.417 P 
HETATM    2  O4  UNL     1      31.935  -1.580  15.295  1.00  0.00    -0.624 OA
HETATM    3  O5  UNL     1      34.339  -2.554  15.698  1.00  0.00    -0.624 OA
ENDROOT
BRANCH   1   4
HETATM    4  O3  UNL     1      32.711  -1.832  17.778  1.00  0.00    -0.287 OA
BRANCH   4   5
HETATM    5  C6  UNL     1      31.931  -2.996  17.805  1.00  0.00     0.216 C 
BRANCH   5   6
HETATM    6  C5  UNL     1      30.807  -2.770  18.802  1.00  0.00     0.180 C 
HETATM    7  O2  UNL     1      29.710  -3.554  18.595  1.00  0.00    -0.353 OA
HETATM    8  C4  UNL     1      29.330  -4.177  19.752  1.00  0.00     0.263 C 
HETATM    9  C14 UNL     1      29.964  -3.434  20.870  1.00  0.00     0.198 C 
HETATM   10  C13 UNL     1      31.286  -3.005  20.218  1.00  0.00     0.182 C 
BRANCH   8  11
HETATM   11  N1  UNL     1      29.657  -5.578  19.667  1.00  0.00    -0.280 N 
HETATM   12  C3  UNL     1      30.499  -6.067  18.731  1.00  0.00     0.104 A 
HETATM   13  C2  UNL     1      30.771  -7.402  18.699  1.00  0.00     0.092 A 
HETATM   14  C1  UNL     1      30.204  -8.266  19.603  1.00  0.00     0.250 A 
HETATM   15  O1  UNL     1      30.450  -9.500  19.580  1.00  0.00    -0.268 OA
HETATM   16  N2  UNL     1      29.364  -7.741  20.529  1.00  0.00    -0.275 N 
HETATM   17  C15 UNL     1      29.097  -6.424  20.558  1.00  0.00     0.331 A 
ATOM     18  H2  UNL     1      28.927  -8.356  21.215  1.00  0.00     0.173 HD
HETATM   19  O17 UNL     1      28.302  -6.020  21.455  1.00  0.00    -0.246 OA
ENDBRANCH   8  11
BRANCH   9  20
HETATM   20  O16 UNL     1      29.245  -2.237  21.040  1.00  0.00    -0.388 OA
ATOM     21  H16 UNL     1      29.871  -1.523  21.009  1.00  0.00     0.210 HD
ENDBRANCH   9  20
BRANCH  10  22
HETATM   22  O15 UNL     1      31.742  -1.825  20.812  1.00  0.00    -0.390 OA
ATOM     23  H15 UNL     1      32.285  -2.001  21.571  1.00  0.00     0.210 HD
ENDBRANCH  10  22
ENDBRANCH   5   6
ENDBRANCH   4   5
ENDBRANCH   1   4
BRANCH   1  24
HETATM   24  O6  UNL     1      33.752   0.094  16.030  1.00  0.00    -0.180 OA
BRANCH  24  25
HETATM   25  P2  UNL     1      34.144   0.337  14.404  1.00  0.00     0.420 P 
HETATM   26  O7  UNL     1      35.089   1.518  14.333  1.00  0.00    -0.624 OA
HETATM   27  O8  UNL     1      32.774   0.739  13.496  1.00  0.00    -0.624 OA
BRANCH  25  28
HETATM   28  O9  UNL     1      34.898  -1.054  13.797  1.00  0.00    -0.255 OA
BRANCH  28  29
HETATM   29  C7  UNL     1      34.658  -1.208  12.422  1.00  0.00     0.304 C 
HETATM   30  O10 UNL     1      35.859  -1.483  11.823  1.00  0.00    -0.348 OA
HETATM   31  C8  UNL     1      35.798  -1.774  10.482  1.00  0.00     0.179 C 
HETATM   32  C10 UNL     1      34.742  -2.779  10.111  1.00  0.00     0.180 C 
HETATM   33  C11 UNL     1      33.439  -2.592  10.803  1.00  0.00     0.183 C 
HETATM   34  C12 UNL     1      33.674  -2.349  12.276  1.00  0.00     0.205 C 
BRANCH  31  35
HETATM   35  C9  UNL     1      35.731  -0.531   9.605  1.00  0.00     0.198 C 
BRANCH  35  36
HETATM   36  O11 UNL     1      36.693   0.395   9.909  1.00  0.00    -0.398 OA
ATOM     37  H11 UNL     1      37.354   0.484   9.232  1.00  0.00     0.209 HD
ENDBRANCH  35  36
ENDBRANCH  31  35
BRANCH  32  38
HETATM   38  O12 UNL     1      35.240  -4.041  10.462  1.00  0.00    -0.390 OA
ATOM     39  H12 UNL     1      35.370  -4.035  11.403  1.00  0.00     0.210 HD
ENDBRANCH  32  38
BRANCH  33  40
HETATM   40  O13 UNL     1      32.637  -1.598  10.262  1.00  0.00    -0.390 OA
ATOM     41  H13 UNL     1      31.761  -1.882  10.028  1.00  0.00     0.210 HD
ENDBRANCH  33  40
BRANCH  34  42
HETATM   42  O14 UNL     1      34.186  -3.537  12.810  1.00  0.00    -0.388 OA
ATOM     43  H14 UNL     1      34.542  -4.097  12.131  1.00  0.00     0.210 HD
ENDBRANCH  34  42
ENDBRANCH  28  29
ENDBRANCH  25  28
ENDBRANCH  24  25
ENDBRANCH   1  24
TORSDOF 15
ENDMDL
