MODEL 7
REMARK VINA RESULT: -6.409246900      1.387      5.750
REMARK  3 active torsions:
REMARK  status: ('A' for Active; 'I' for Inactive)
REMARK    1  A    between atoms: C1_2  and  C2_4 
REMARK    2  A    between atoms: C2_4  and  C3_5 
REMARK    3  A    between atoms: C3_5  and  C4_6 
ROOT
HETATM    1  C4  UNL     1      13.929  10.172  -1.200  1.00  0.00    -0.055 A 
HETATM    2  C5  UNL     1      13.533   9.725   0.049  1.00  0.00     0.010 A 
HETATM    3  C6  UNL     1      14.258  10.033   1.178  1.00  0.00     0.040 A 
HETATM    4  C7  UNL     1      15.406  10.798   1.094  1.00  0.00     0.105 A 
HETATM    5  C8  UNL     1      15.820  11.253  -0.142  1.00  0.00     0.105 A 
HETATM    6  C9  UNL     1      15.075  10.930  -1.245  1.00  0.00     0.047 A 
HETATM    7  O3  UNL     1      16.993  11.989   0.081  1.00  0.00    -0.323 OA
HETATM    8  C10 UNL     1      17.515  11.657   1.372  1.00  0.00     0.352 C 
HETATM    9  O4  UNL     1      16.323  11.256   2.041  1.00  0.00    -0.323 OA
ENDROOT
BRANCH   1  10
HETATM   10  C3  UNL     1      13.110   9.806  -2.340  1.00  0.00     0.049 C 
BRANCH  10  11
HETATM   11  C2  UNL     1      13.783   9.043  -3.424  1.00  0.00     0.117 C 
BRANCH  11  12
HETATM   12  C1  UNL     1      13.466   9.613  -4.761  1.00  0.00     0.172 C 
HETATM   13  O1  UNL     1      14.391  10.022  -5.518  1.00  0.00    -0.648 OA
HETATM   14  O2  UNL     1      12.175   9.724  -5.240  1.00  0.00    -0.648 OA
ENDBRANCH  11  12
ENDBRANCH  10  11
ENDBRANCH   1  10
TORSDOF 3
ENDMDL
