MODEL 5
REMARK VINA RESULT: -6.443288508      3.078      5.589
REMARK  3 active torsions:
REMARK  status: ('A' for Active; 'I' for Inactive)
REMARK    1  A    between atoms: C1_2  and  C2_4 
REMARK    2  A    between atoms: C2_4  and  C3_5 
REMARK    3  A    between atoms: C3_5  and  C4_6 
ROOT
HETATM    1  C4  UNL     1      13.991   9.884  -1.217  1.00  0.00    -0.055 A 
HETATM    2  C5  UNL     1      14.494   8.596  -1.150  1.00  0.00     0.010 A 
HETATM    3  C6  UNL     1      14.478   7.885   0.029  1.00  0.00     0.040 A 
HETATM    4  C7  UNL     1      13.959   8.442   1.183  1.00  0.00     0.105 A 
HETATM    5  C8  UNL     1      13.453   9.726   1.139  1.00  0.00     0.105 A 
HETATM    6  C9  UNL     1      13.483  10.405  -0.051  1.00  0.00     0.047 A 
HETATM    7  O3  UNL     1      13.003  10.017   2.435  1.00  0.00    -0.323 OA
HETATM    8  C10 UNL     1      13.586   9.086   3.353  1.00  0.00     0.352 C 
HETATM    9  O4  UNL     1      13.813   7.975   2.490  1.00  0.00    -0.323 OA
ENDROOT
BRANCH   1  10
HETATM   10  C3  UNL     1      14.044  10.565  -2.496  1.00  0.00     0.049 C 
BRANCH  10  11
HETATM   11  C2  UNL     1      15.096  10.117  -3.446  1.00  0.00     0.117 C 
BRANCH  11  12
HETATM   12  C1  UNL     1      14.525   9.843  -4.792  1.00  0.00     0.172 C 
HETATM   13  O1  UNL     1      15.282   9.723  -5.796  1.00  0.00    -0.648 OA
HETATM   14  O2  UNL     1      13.169   9.707  -5.016  1.00  0.00    -0.648 OA
ENDBRANCH  11  12
ENDBRANCH  10  11
ENDBRANCH   1  10
TORSDOF 3
ENDMDL
