MODEL 6
REMARK VINA RESULT: -6.440447725      1.197      5.840
REMARK  3 active torsions:
REMARK  status: ('A' for Active; 'I' for Inactive)
REMARK    1  A    between atoms: C1_2  and  C2_4 
REMARK    2  A    between atoms: C2_4  and  C3_5 
REMARK    3  A    between atoms: C3_5  and  C4_6 
ROOT
HETATM    1  C4  UNL     1      14.872   9.705  -1.222  1.00  0.00    -0.055 A 
HETATM    2  C5  UNL     1      14.407   9.441   0.055  1.00  0.00     0.010 A 
HETATM    3  C6  UNL     1      14.979  10.033   1.158  1.00  0.00     0.040 A 
HETATM    4  C7  UNL     1      16.038  10.910   1.020  1.00  0.00     0.105 A 
HETATM    5  C8  UNL     1      16.518  11.187  -0.244  1.00  0.00     0.105 A 
HETATM    6  C9  UNL     1      15.926  10.582  -1.321  1.00  0.00     0.047 A 
HETATM    7  O3  UNL     1      17.575  12.094  -0.074  1.00  0.00    -0.323 OA
HETATM    8  C10 UNL     1      18.001  12.065   1.293  1.00  0.00     0.352 C 
HETATM    9  O4  UNL     1      16.800  11.642   1.932  1.00  0.00    -0.323 OA
ENDROOT
BRANCH   1  10
HETATM   10  C3  UNL     1      14.215   9.042  -2.332  1.00  0.00     0.049 C 
BRANCH  10  11
HETATM   11  C2  UNL     1      13.185   9.828  -3.061  1.00  0.00     0.117 C 
BRANCH  11  12
HETATM   12  C1  UNL     1      13.280   9.611  -4.530  1.00  0.00     0.172 C 
HETATM   13  O1  UNL     1      12.236   9.558  -5.237  1.00  0.00    -0.648 OA
HETATM   14  O2  UNL     1      14.486   9.459  -5.186  1.00  0.00    -0.648 OA
ENDBRANCH  11  12
ENDBRANCH  10  11
ENDBRANCH   1  10
TORSDOF 3
ENDMDL
