MODEL 2
REMARK VINA RESULT: -7.096431872      0.907      1.796
REMARK  3 active torsions:
REMARK  status: ('A' for Active; 'I' for Inactive)
REMARK    1  A    between atoms: C1_2  and  C2_4 
REMARK    2  A    between atoms: C2_4  and  C3_5 
REMARK    3  A    between atoms: C3_5  and  C4_6 
ROOT
HETATM    1  C4  UNL     1      15.115  10.596  -1.461  1.00  0.00    -0.055 A 
HETATM    2  C5  UNL     1      15.902  10.383  -2.580  1.00  0.00     0.010 A 
HETATM    3  C6  UNL     1      15.344  10.020  -3.785  1.00  0.00     0.040 A 
HETATM    4  C7  UNL     1      13.978   9.856  -3.910  1.00  0.00     0.105 A 
HETATM    5  C8  UNL     1      13.174  10.062  -2.806  1.00  0.00     0.105 A 
HETATM    6  C9  UNL     1      13.760  10.424  -1.623  1.00  0.00     0.047 A 
HETATM    7  O3  UNL     1      11.857   9.827  -3.229  1.00  0.00    -0.323 OA
HETATM    8  C10 UNL     1      11.884   9.098  -4.460  1.00  0.00     0.352 C 
HETATM    9  O4  UNL     1      13.149   9.501  -4.975  1.00  0.00    -0.323 OA
ENDROOT
BRANCH   1  10
HETATM   10  C3  UNL     1      15.778  10.978  -0.229  1.00  0.00     0.049 C 
BRANCH  10  11
HETATM   11  C2  UNL     1      17.132  10.408   0.001  1.00  0.00     0.117 C 
BRANCH  11  12
HETATM   12  C1  UNL     1      18.180  11.462  -0.071  1.00  0.00     0.172 C 
HETATM   13  O1  UNL     1      19.388  11.150  -0.264  1.00  0.00    -0.648 OA
HETATM   14  O2  UNL     1      17.898  12.807   0.064  1.00  0.00    -0.648 OA
ENDBRANCH  11  12
ENDBRANCH  10  11
ENDBRANCH   1  10
TORSDOF 3
ENDMDL
