MODEL 1
REMARK VINA RESULT: -7.201950668      0.000      0.000
REMARK  3 active torsions:
REMARK  status: ('A' for Active; 'I' for Inactive)
REMARK    1  A    between atoms: C1_2  and  C2_4 
REMARK    2  A    between atoms: C2_4  and  C3_5 
REMARK    3  A    between atoms: C3_5  and  C4_6 
ROOT
HETATM    1  C4  UNL     1      15.495  10.406  -1.531  1.00  0.00    -0.055 A 
HETATM    2  C5  UNL     1      14.340  10.767  -0.859  1.00  0.00     0.010 A 
HETATM    3  C6  UNL     1      13.099  10.575  -1.422  1.00  0.00     0.040 A 
HETATM    4  C7  UNL     1      12.972  10.016  -2.679  1.00  0.00     0.105 A 
HETATM    5  C8  UNL     1      14.110   9.649  -3.368  1.00  0.00     0.105 A 
HETATM    6  C9  UNL     1      15.330   9.853  -2.779  1.00  0.00     0.047 A 
HETATM    7  O3  UNL     1      13.677   9.120  -4.593  1.00  0.00    -0.323 OA
HETATM    8  C10 UNL     1      12.323   9.523  -4.823  1.00  0.00     0.352 C 
HETATM    9  O4  UNL     1      11.874   9.709  -3.485  1.00  0.00    -0.323 OA
ENDROOT
BRANCH   1  10
HETATM   10  C3  UNL     1      16.765  10.639  -0.870  1.00  0.00     0.049 C 
BRANCH  10  11
HETATM   11  C2  UNL     1      16.705  11.097   0.543  1.00  0.00     0.117 C 
BRANCH  11  12
HETATM   12  C1  UNL     1      17.667  12.204   0.793  1.00  0.00     0.172 C 
HETATM   13  O1  UNL     1      18.511  12.527  -0.089  1.00  0.00    -0.648 OA
HETATM   14  O2  UNL     1      17.690  12.923   1.971  1.00  0.00    -0.648 OA
ENDBRANCH  11  12
ENDBRANCH  10  11
ENDBRANCH   1  10
TORSDOF 3
ENDMDL
