MODEL 2
REMARK VINA RESULT: -4.630715901      0.585      1.240
REMARK  2 active torsions:
REMARK  status: ('A' for Active; 'I' for Inactive)
REMARK    1  A    between atoms: N1_2  and  S1_4 
REMARK    2  A    between atoms: S1_4  and  C3_7 
ROOT
HETATM    1  S1  UNL     1      17.447  12.194   1.681  1.00  0.00     0.243 S 
HETATM    2  O1  UNL     1      17.644  12.841   0.352  1.00  0.00    -0.206 OA
HETATM    3  O2  UNL     1      17.067  13.262   2.662  1.00  0.00    -0.206 OA
ENDROOT
BRANCH   1   4
HETATM    4  N1  UNL     1      18.933  11.466   2.168  1.00  0.00    -0.215 NA
HETATM    5  C1  UNL     1      19.986  11.885   1.257  1.00  0.00     0.129 C 
HETATM    6  C2  UNL     1      18.849  10.022   2.069  1.00  0.00     0.129 C 
ENDBRANCH   1   4
BRANCH   1   7
HETATM    7  C3  UNL     1      16.157  10.974   1.604  1.00  0.00     0.081 A 
HETATM    8  C4  UNL     1      15.593  10.443   2.707  1.00  0.00     0.032 A 
HETATM    9  C5  UNL     1      14.607   9.512   2.517  1.00  0.00     0.051 A 
HETATM   10  S2  UNL     1      14.498   9.409   0.820  1.00  0.00    -0.112 SA
HETATM   11  C6  UNL     1      15.697  10.540   0.394  1.00  0.00     0.074 A 
ENDBRANCH   1   7
TORSDOF 2
ENDMDL
