MODEL 1
REMARK VINA RESULT: -4.678757675      0.000      0.000
REMARK  2 active torsions:
REMARK  status: ('A' for Active; 'I' for Inactive)
REMARK    1  A    between atoms: N1_2  and  S1_4 
REMARK    2  A    between atoms: S1_4  and  C3_7 
ROOT
HETATM    1  S1  UNL     1      17.518  12.216   1.649  1.00  0.00     0.243 S 
HETATM    2  O1  UNL     1      17.693  12.928   0.351  1.00  0.00    -0.206 OA
HETATM    3  O2  UNL     1      17.158  13.235   2.688  1.00  0.00    -0.206 OA
ENDROOT
BRANCH   1   4
HETATM    4  N1  UNL     1      19.012  11.465   2.074  1.00  0.00    -0.215 NA
HETATM    5  C1  UNL     1      20.038  11.886   1.132  1.00  0.00     0.129 C 
HETATM    6  C2  UNL     1      18.908  10.024   1.957  1.00  0.00     0.129 C 
ENDBRANCH   1   4
BRANCH   1   7
HETATM    7  C3  UNL     1      16.226  11.003   1.535  1.00  0.00     0.081 A 
HETATM    8  C4  UNL     1      15.762  10.544   0.355  1.00  0.00     0.032 A 
HETATM    9  C5  UNL     1      14.763   9.608   0.398  1.00  0.00     0.051 A 
HETATM   10  S2  UNL     1      14.505   9.399   2.070  1.00  0.00    -0.112 SA
HETATM   11  C6  UNL     1      15.661  10.496   2.670  1.00  0.00     0.074 A 
ENDBRANCH   1   7
TORSDOF 2
ENDMDL
