MODEL 3
REMARK VINA RESULT: -4.616869006      0.878      1.316
REMARK  2 active torsions:
REMARK  status: ('A' for Active; 'I' for Inactive)
REMARK    1  A    between atoms: N1_2  and  S1_4 
REMARK    2  A    between atoms: S1_4  and  C3_7 
ROOT
HETATM    1  S1  UNL     1      17.704  11.741   1.917  1.00  0.00     0.243 S 
HETATM    2  O1  UNL     1      17.668  13.175   1.510  1.00  0.00    -0.206 OA
HETATM    3  O2  UNL     1      18.046  11.685   3.375  1.00  0.00    -0.206 OA
ENDROOT
BRANCH   1   4
HETATM    4  N1  UNL     1      18.929  10.937   1.007  1.00  0.00    -0.215 NA
HETATM    5  C1  UNL     1      19.422   9.805   1.776  1.00  0.00     0.129 C 
HETATM    6  C2  UNL     1      20.061  11.816   0.789  1.00  0.00     0.129 C 
ENDBRANCH   1   4
BRANCH   1   7
HETATM    7  C3  UNL     1      16.126  10.970   1.649  1.00  0.00     0.081 A 
HETATM    8  C4  UNL     1      15.709  10.575   0.429  1.00  0.00     0.032 A 
HETATM    9  C5  UNL     1      14.472   9.992   0.351  1.00  0.00     0.051 A 
HETATM   10  S2  UNL     1      13.935  10.012   1.968  1.00  0.00    -0.112 SA
HETATM   11  C6  UNL     1      15.281  10.755   2.699  1.00  0.00     0.074 A 
ENDBRANCH   1   7
TORSDOF 2
ENDMDL
