MODEL 6
REMARK VINA RESULT: -4.470299065      7.593      8.972
REMARK  2 active torsions:
REMARK  status: ('A' for Active; 'I' for Inactive)
REMARK    1  A    between atoms: N1_2  and  S1_4 
REMARK    2  A    between atoms: S1_4  and  C3_7 
ROOT
HETATM    1  S1  UNL     1      13.736   9.717   8.718  1.00  0.00     0.243 S 
HETATM    2  O1  UNL     1      12.566   9.080   9.387  1.00  0.00    -0.206 OA
HETATM    3  O2  UNL     1      13.287  11.033   8.159  1.00  0.00    -0.206 OA
ENDROOT
BRANCH   1   4
HETATM    4  N1  UNL     1      14.263   8.694   7.433  1.00  0.00    -0.215 NA
HETATM    5  C1  UNL     1      13.677   9.161   6.186  1.00  0.00     0.129 C 
HETATM    6  C2  UNL     1      13.788   7.339   7.633  1.00  0.00     0.129 C 
ENDBRANCH   1   4
BRANCH   1   7
HETATM    7  C3  UNL     1      15.056   9.985   9.877  1.00  0.00     0.081 A 
HETATM    8  C4  UNL     1      16.145   9.192   9.934  1.00  0.00     0.032 A 
HETATM    9  C5  UNL     1      17.095   9.502  10.870  1.00  0.00     0.051 A 
HETATM   10  S2  UNL     1      16.445  10.880  11.634  1.00  0.00    -0.112 SA
HETATM   11  C6  UNL     1      14.995  11.028  10.755  1.00  0.00     0.074 A 
ENDBRANCH   1   7
TORSDOF 2
ENDMDL
