MODEL 4
REMARK VINA RESULT: -10.263825200      0.906      1.604
REMARK  8 active torsions:
REMARK  status: ('A' for Active; 'I' for Inactive)
REMARK    1  A    between atoms: C1_2  and  C2_4 
REMARK    2  A    between atoms: C2_4  and  C3_5 
REMARK    3  A    between atoms: C2_4  and  N2_10 
REMARK    4  A    between atoms: C3_5  and  C4_6 
REMARK    5  A    between atoms: C4_6  and  C5_7 
REMARK       I    between atoms: N2_10  and  C6_12 
REMARK    6  A    between atoms: C6_12  and  C7_14 
REMARK    7  A    between atoms: C10_17  and  C11_18 
REMARK    8  A    between atoms: C13_20  and  C14_21 
ROOT
HETATM    1  C7  UNL     1      -7.814 -24.707   4.223  1.00  0.00     0.032 A 
HETATM    2  C8  UNL     1      -7.953 -23.637   5.113  1.00  0.00     0.018 A 
HETATM    3  C9  UNL     1      -6.868 -23.104   5.772  1.00  0.00     0.014 A 
HETATM    4  C10 UNL     1      -5.597 -23.599   5.587  1.00  0.00    -0.019 A 
HETATM    5  C21 UNL     1      -5.453 -24.651   4.713  1.00  0.00     0.014 A 
HETATM    6  C22 UNL     1      -6.545 -25.198   4.041  1.00  0.00     0.018 A 
ENDROOT
BRANCH   1   7
HETATM    7  C6  UNL     1      -8.993 -25.245   3.541  1.00  0.00     0.252 C 
HETATM    8  N2  UNL     1      -8.974 -25.848   2.283  1.00  0.00    -0.344 N 
ATOM      9  H2  UNL     1      -8.068 -25.911   1.819  1.00  0.00     0.163 HD
HETATM   10  O4  UNL     1     -10.101 -25.163   4.121  1.00  0.00    -0.268 OA
BRANCH   8  11
HETATM   11  C2  UNL     1     -10.095 -26.386   1.580  1.00  0.00     0.174 C 
BRANCH  11  12
HETATM   12  C1  UNL     1      -9.903 -27.855   1.459  1.00  0.00     0.254 C 
HETATM   13  N1  UNL     1      -8.587 -28.379   1.624  1.00  0.00    -0.060 NA
HETATM   14  O1  UNL     1     -10.832 -28.659   1.221  1.00  0.00    -0.275 OA
ENDBRANCH  11  12
BRANCH  11  15
HETATM   15  C3  UNL     1     -10.377 -25.830   0.237  1.00  0.00     0.045 C 
BRANCH  15  16
HETATM   16  C4  UNL     1      -9.750 -24.466   0.030  1.00  0.00     0.116 C 
BRANCH  16  17
HETATM   17  C5  UNL     1      -9.477 -24.248  -1.414  1.00  0.00     0.172 C 
HETATM   18  O2  UNL     1      -8.493 -24.763  -2.002  1.00  0.00    -0.648 OA
HETATM   19  O3  UNL     1     -10.333 -23.449  -2.154  1.00  0.00    -0.648 OA
ENDBRANCH  16  17
ENDBRANCH  15  16
ENDBRANCH  11  15
ENDBRANCH   8  11
ENDBRANCH   1   7
BRANCH   4  20
HETATM   20  C11 UNL     1      -4.440 -23.033   6.286  1.00  0.00     0.015 A 
HETATM   21  C12 UNL     1      -3.120 -23.383   6.188  1.00  0.00     0.032 A 
HETATM   22  C13 UNL     1      -2.250 -22.706   6.942  1.00  0.00    -0.018 A 
HETATM   23  C20 UNL     1      -2.742 -21.718   7.751  1.00  0.00     0.062 A 
HETATM   24  S1  UNL     1      -4.418 -21.771   7.428  1.00  0.00    -0.100 SA
BRANCH  22  25
HETATM   25  C14 UNL     1      -0.787 -22.986   6.930  1.00  0.00    -0.025 A 
HETATM   26  C15 UNL     1       0.090 -22.000   7.347  1.00  0.00     0.012 A 
HETATM   27  C16 UNL     1       1.443 -22.223   7.348  1.00  0.00     0.001 A 
HETATM   28  C17 UNL     1       1.931 -23.451   6.924  1.00  0.00     0.000 A 
HETATM   29  C18 UNL     1       1.052 -24.444   6.503  1.00  0.00     0.001 A 
HETATM   30  C19 UNL     1      -0.306 -24.206   6.509  1.00  0.00     0.012 A 
ENDBRANCH  22  25
ENDBRANCH   4  20
TORSDOF 8
ENDMDL
