MODEL 18
REMARK VINA RESULT: -8.918057998      6.559     11.123
REMARK  8 active torsions:
REMARK  status: ('A' for Active; 'I' for Inactive)
REMARK    1  A    between atoms: C1_2  and  C2_4 
REMARK    2  A    between atoms: C2_4  and  C3_5 
REMARK    3  A    between atoms: C2_4  and  N2_10 
REMARK    4  A    between atoms: C3_5  and  C4_6 
REMARK    5  A    between atoms: C4_6  and  C5_7 
REMARK       I    between atoms: N2_10  and  C6_12 
REMARK    6  A    between atoms: C6_12  and  C7_14 
REMARK    7  A    between atoms: C10_17  and  C11_18 
REMARK    8  A    between atoms: C13_20  and  C14_21 
ROOT
HETATM    1  C7  UNL     1      -1.639 -22.460   7.046  1.00  0.00     0.032 A 
HETATM    2  C8  UNL     1      -1.836 -23.354   5.987  1.00  0.00     0.018 A 
HETATM    3  C9  UNL     1      -3.100 -23.694   5.561  1.00  0.00     0.014 A 
HETATM    4  C10 UNL     1      -4.227 -23.173   6.154  1.00  0.00    -0.019 A 
HETATM    5  C21 UNL     1      -4.040 -22.294   7.195  1.00  0.00     0.014 A 
HETATM    6  C22 UNL     1      -2.764 -21.942   7.635  1.00  0.00     0.018 A 
ENDROOT
BRANCH   1   7
HETATM    7  C6  UNL     1      -0.278 -22.123   7.469  1.00  0.00     0.252 C 
HETATM    8  N2  UNL     1       0.865 -22.320   6.694  1.00  0.00    -0.344 N 
ATOM      9  H2  UNL     1       0.726 -22.728   5.769  1.00  0.00     0.163 HD
HETATM   10  O4  UNL     1      -0.118 -21.621   8.607  1.00  0.00    -0.268 OA
BRANCH   8  11
HETATM   11  C2  UNL     1       2.208 -22.009   7.062  1.00  0.00     0.174 C 
BRANCH  11  12
HETATM   12  C1  UNL     1       2.870 -23.265   7.505  1.00  0.00     0.254 C 
HETATM   13  N1  UNL     1       2.250 -24.506   7.173  1.00  0.00    -0.060 NA
HETATM   14  O1  UNL     1       3.940 -23.295   8.152  1.00  0.00    -0.275 OA
ENDBRANCH  11  12
BRANCH  11  15
HETATM   15  C3  UNL     1       2.398 -20.976   8.107  1.00  0.00     0.045 C 
BRANCH  15  16
HETATM   16  C4  UNL     1       3.568 -20.060   7.811  1.00  0.00     0.116 C 
BRANCH  16  17
HETATM   17  C5  UNL     1       4.341 -19.807   9.054  1.00  0.00     0.172 C 
HETATM   18  O2  UNL     1       4.412 -18.672   9.588  1.00  0.00    -0.648 OA
HETATM   19  O3  UNL     1       5.013 -20.856   9.661  1.00  0.00    -0.648 OA
ENDBRANCH  16  17
ENDBRANCH  15  16
ENDBRANCH  11  15
ENDBRANCH   8  11
ENDBRANCH   1   7
BRANCH   4  20
HETATM   20  C11 UNL     1      -5.574 -23.533   5.702  1.00  0.00     0.015 A 
HETATM   21  C12 UNL     1      -5.952 -24.506   4.817  1.00  0.00     0.032 A 
HETATM   22  C13 UNL     1      -7.259 -24.635   4.569  1.00  0.00    -0.018 A 
HETATM   23  C20 UNL     1      -8.116 -23.786   5.217  1.00  0.00     0.062 A 
HETATM   24  S1  UNL     1      -7.056 -22.831   6.157  1.00  0.00    -0.100 SA
BRANCH  22  25
HETATM   25  C14 UNL     1      -7.803 -25.653   3.630  1.00  0.00    -0.025 A 
HETATM   26  C15 UNL     1      -8.509 -26.729   4.138  1.00  0.00     0.012 A 
HETATM   27  C16 UNL     1      -9.024 -27.686   3.302  1.00  0.00     0.001 A 
HETATM   28  C17 UNL     1      -8.831 -27.568   1.933  1.00  0.00     0.000 A 
HETATM   29  C18 UNL     1      -8.121 -26.488   1.418  1.00  0.00     0.001 A 
HETATM   30  C19 UNL     1      -7.610 -25.533   2.270  1.00  0.00     0.012 A 
ENDBRANCH  22  25
ENDBRANCH   4  20
TORSDOF 8
ENDMDL
