MODEL 1
REMARK VINA RESULT: -10.737062164      0.000      0.000
REMARK  8 active torsions:
REMARK  status: ('A' for Active; 'I' for Inactive)
REMARK    1  A    between atoms: C1_2  and  C2_4 
REMARK    2  A    between atoms: C2_4  and  C3_5 
REMARK    3  A    between atoms: C2_4  and  N2_10 
REMARK    4  A    between atoms: C3_5  and  C4_6 
REMARK    5  A    between atoms: C4_6  and  C5_7 
REMARK       I    between atoms: N2_10  and  C6_12 
REMARK    6  A    between atoms: C6_12  and  C7_14 
REMARK    7  A    between atoms: C10_17  and  C11_18 
REMARK    8  A    between atoms: C13_20  and  C14_21 
ROOT
HETATM    1  C7  UNL     1      -7.877 -24.726   4.437  1.00  0.00     0.032 A 
HETATM    2  C8  UNL     1      -6.578 -25.091   4.068  1.00  0.00     0.018 A 
HETATM    3  C9  UNL     1      -5.475 -24.551   4.692  1.00  0.00     0.014 A 
HETATM    4  C10 UNL     1      -5.599 -23.629   5.706  1.00  0.00    -0.019 A 
HETATM    5  C21 UNL     1      -6.873 -23.266   6.074  1.00  0.00     0.014 A 
HETATM    6  C22 UNL     1      -7.996 -23.807   5.448  1.00  0.00     0.018 A 
ENDROOT
BRANCH   1   7
HETATM    7  C6  UNL     1      -9.023 -25.324   3.750  1.00  0.00     0.252 C 
HETATM    8  N2  UNL     1      -8.929 -26.254   2.715  1.00  0.00    -0.344 N 
ATOM      9  H2  UNL     1      -7.989 -26.527   2.429  1.00  0.00     0.163 HD
HETATM   10  O4  UNL     1     -10.174 -24.982   4.110  1.00  0.00    -0.268 OA
BRANCH   8  11
HETATM   11  C2  UNL     1     -10.016 -26.863   2.016  1.00  0.00     0.174 C 
BRANCH  11  12
HETATM   12  C1  UNL     1     -10.182 -28.246   2.535  1.00  0.00     0.254 C 
HETATM   13  N1  UNL     1     -10.633 -29.255   1.634  1.00  0.00    -0.060 NA
HETATM   14  O1  UNL     1      -9.950 -28.575   3.720  1.00  0.00    -0.275 OA
ENDBRANCH  11  12
BRANCH  11  15
HETATM   15  C3  UNL     1      -9.922 -26.916   0.539  1.00  0.00     0.045 C 
BRANCH  15  16
HETATM   16  C4  UNL     1     -10.394 -25.636  -0.119  1.00  0.00     0.116 C 
BRANCH  16  17
HETATM   17  C5  UNL     1      -9.226 -24.797  -0.492  1.00  0.00     0.172 C 
HETATM   18  O2  UNL     1      -8.784 -24.735  -1.667  1.00  0.00    -0.648 OA
HETATM   19  O3  UNL     1      -8.590 -24.047   0.484  1.00  0.00    -0.648 OA
ENDBRANCH  16  17
ENDBRANCH  15  16
ENDBRANCH  11  15
ENDBRANCH   8  11
ENDBRANCH   1   7
BRANCH   4  20
HETATM   20  C11 UNL     1      -4.427 -23.053   6.372  1.00  0.00     0.015 A 
HETATM   21  C12 UNL     1      -3.112 -23.418   6.266  1.00  0.00     0.032 A 
HETATM   22  C13 UNL     1      -2.225 -22.726   6.987  1.00  0.00    -0.018 A 
HETATM   23  C20 UNL     1      -2.697 -21.710   7.772  1.00  0.00     0.062 A 
HETATM   24  S1  UNL     1      -4.378 -21.757   7.474  1.00  0.00    -0.100 SA
BRANCH  22  25
HETATM   25  C14 UNL     1      -0.765 -23.019   6.962  1.00  0.00    -0.025 A 
HETATM   26  C15 UNL     1      -0.334 -24.254   6.511  1.00  0.00     0.012 A 
HETATM   27  C16 UNL     1       1.003 -24.557   6.477  1.00  0.00     0.001 A 
HETATM   28  C17 UNL     1       1.927 -23.613   6.901  1.00  0.00     0.000 A 
HETATM   29  C18 UNL     1       1.497 -22.370   7.355  1.00  0.00     0.001 A 
HETATM   30  C19 UNL     1       0.150 -22.078   7.384  1.00  0.00     0.012 A 
ENDBRANCH  22  25
ENDBRANCH   4  20
TORSDOF 8
ENDMDL
