MODEL 5
REMARK VINA RESULT: -9.921957030      1.577      2.128
REMARK  8 active torsions:
REMARK  status: ('A' for Active; 'I' for Inactive)
REMARK    1  A    between atoms: C1_2  and  C2_4 
REMARK    2  A    between atoms: C2_4  and  C3_5 
REMARK    3  A    between atoms: C2_4  and  N2_10 
REMARK    4  A    between atoms: C3_5  and  C4_6 
REMARK    5  A    between atoms: C4_6  and  C5_7 
REMARK       I    between atoms: N2_10  and  C6_12 
REMARK    6  A    between atoms: C6_12  and  C7_14 
REMARK    7  A    between atoms: C10_17  and  C11_18 
REMARK    8  A    between atoms: C13_20  and  C14_21 
ROOT
HETATM    1  C7  UNL     1      -7.883 -24.831   4.418  1.00  0.00     0.032 A 
HETATM    2  C8  UNL     1      -8.013 -23.891   5.446  1.00  0.00     0.018 A 
HETATM    3  C9  UNL     1      -6.910 -23.331   6.051  1.00  0.00     0.014 A 
HETATM    4  C10 UNL     1      -5.631 -23.667   5.673  1.00  0.00    -0.019 A 
HETATM    5  C21 UNL     1      -5.496 -24.590   4.663  1.00  0.00     0.014 A 
HETATM    6  C22 UNL     1      -6.606 -25.164   4.044  1.00  0.00     0.018 A 
ENDROOT
BRANCH   1   7
HETATM    7  C6  UNL     1      -9.081 -25.403   3.799  1.00  0.00     0.252 C 
HETATM    8  N2  UNL     1      -9.070 -26.423   2.847  1.00  0.00    -0.344 N 
ATOM      9  H2  UNL     1      -8.156 -26.784   2.574  1.00  0.00     0.163 HD
HETATM   10  O4  UNL     1     -10.199 -24.952   4.143  1.00  0.00    -0.268 OA
BRANCH   8  11
HETATM   11  C2  UNL     1     -10.208 -27.012   2.218  1.00  0.00     0.174 C 
BRANCH  11  12
HETATM   12  C1  UNL     1     -10.246 -28.452   2.585  1.00  0.00     0.254 C 
HETATM   13  N1  UNL     1      -9.706 -28.840   3.846  1.00  0.00    -0.060 NA
HETATM   14  O1  UNL     1     -10.726 -29.343   1.849  1.00  0.00    -0.275 OA
ENDBRANCH  11  12
BRANCH  11  15
HETATM   15  C3  UNL     1     -10.301 -26.892   0.745  1.00  0.00     0.045 C 
BRANCH  15  16
HETATM   16  C4  UNL     1     -11.516 -26.102   0.302  1.00  0.00     0.116 C 
BRANCH  16  17
HETATM   17  C5  UNL     1     -12.473 -26.996  -0.400  1.00  0.00     0.172 C 
HETATM   18  O2  UNL     1     -12.142 -28.121  -0.852  1.00  0.00    -0.648 OA
HETATM   19  O3  UNL     1     -13.785 -26.585  -0.569  1.00  0.00    -0.648 OA
ENDBRANCH  16  17
ENDBRANCH  15  16
ENDBRANCH  11  15
ENDBRANCH   8  11
ENDBRANCH   1   7
BRANCH   4  20
HETATM   20  C11 UNL     1      -4.455 -23.072   6.315  1.00  0.00     0.015 A 
HETATM   21  C12 UNL     1      -3.144 -23.453   6.230  1.00  0.00     0.032 A 
HETATM   22  C13 UNL     1      -2.252 -22.737   6.920  1.00  0.00    -0.018 A 
HETATM   23  C20 UNL     1      -2.716 -21.681   7.657  1.00  0.00     0.062 A 
HETATM   24  S1  UNL     1      -4.397 -21.727   7.356  1.00  0.00    -0.100 SA
BRANCH  22  25
HETATM   25  C14 UNL     1      -0.795 -23.044   6.914  1.00  0.00    -0.025 A 
HETATM   26  C15 UNL     1       0.101 -22.064   7.306  1.00  0.00     0.012 A 
HETATM   27  C16 UNL     1       1.450 -22.312   7.311  1.00  0.00     0.001 A 
HETATM   28  C17 UNL     1       1.914 -23.559   6.917  1.00  0.00     0.000 A 
HETATM   29  C18 UNL     1       1.016 -24.546   6.522  1.00  0.00     0.001 A 
HETATM   30  C19 UNL     1      -0.337 -24.283   6.523  1.00  0.00     0.012 A 
ENDBRANCH  22  25
ENDBRANCH   4  20
TORSDOF 8
ENDMDL
