MODEL 15
REMARK VINA RESULT: -9.207922302      5.563     10.421
REMARK  8 active torsions:
REMARK  status: ('A' for Active; 'I' for Inactive)
REMARK    1  A    between atoms: C1_2  and  C2_4 
REMARK    2  A    between atoms: C2_4  and  C3_5 
REMARK    3  A    between atoms: C2_4  and  N2_10 
REMARK    4  A    between atoms: C3_5  and  C4_6 
REMARK    5  A    between atoms: C4_6  and  C5_7 
REMARK       I    between atoms: N2_10  and  C6_12 
REMARK    6  A    between atoms: C6_12  and  C7_14 
REMARK    7  A    between atoms: C10_17  and  C11_18 
REMARK    8  A    between atoms: C13_20  and  C14_21 
ROOT
HETATM    1  C7  UNL     1      -3.490 -22.934   6.288  1.00  0.00     0.032 A 
HETATM    2  C8  UNL     1      -3.620 -23.902   5.287  1.00  0.00     0.018 A 
HETATM    3  C9  UNL     1      -4.856 -24.332   4.859  1.00  0.00     0.014 A 
HETATM    4  C10 UNL     1      -6.020 -23.831   5.396  1.00  0.00    -0.019 A 
HETATM    5  C21 UNL     1      -5.899 -22.879   6.381  1.00  0.00     0.014 A 
HETATM    6  C22 UNL     1      -4.652 -22.437   6.821  1.00  0.00     0.018 A 
ENDROOT
BRANCH   1   7
HETATM    7  C6  UNL     1      -2.157 -22.502   6.714  1.00  0.00     0.252 C 
HETATM    8  N2  UNL     1      -0.972 -23.172   6.408  1.00  0.00    -0.344 N 
ATOM      9  H2  UNL     1      -1.057 -24.020   5.847  1.00  0.00     0.163 HD
HETATM   10  O4  UNL     1      -2.063 -21.459   7.402  1.00  0.00    -0.268 OA
BRANCH   8  11
HETATM   11  C2  UNL     1       0.347 -22.791   6.800  1.00  0.00     0.174 C 
BRANCH  11  12
HETATM   12  C1  UNL     1       1.215 -23.997   6.734  1.00  0.00     0.254 C 
HETATM   13  N1  UNL     1       0.627 -25.229   6.321  1.00  0.00    -0.060 NA
HETATM   14  O1  UNL     1       2.432 -23.992   7.022  1.00  0.00    -0.275 OA
ENDBRANCH  11  12
BRANCH  11  15
HETATM   15  C3  UNL     1       0.500 -22.165   8.133  1.00  0.00     0.045 C 
BRANCH  15  16
HETATM   16  C4  UNL     1       1.026 -20.747   8.051  1.00  0.00     0.116 C 
BRANCH  16  17
HETATM   17  C5  UNL     1       2.453 -20.759   7.638  1.00  0.00     0.172 C 
HETATM   18  O2  UNL     1       2.838 -20.330   6.521  1.00  0.00    -0.648 OA
HETATM   19  O3  UNL     1       3.407 -21.260   8.508  1.00  0.00    -0.648 OA
ENDBRANCH  16  17
ENDBRANCH  15  16
ENDBRANCH  11  15
ENDBRANCH   8  11
ENDBRANCH   1   7
BRANCH   4  20
HETATM   20  C11 UNL     1      -7.337 -24.287   4.943  1.00  0.00     0.015 A 
HETATM   21  C12 UNL     1      -7.693 -25.498   4.415  1.00  0.00     0.032 A 
HETATM   22  C13 UNL     1      -8.975 -25.666   4.076  1.00  0.00    -0.018 A 
HETATM   23  C20 UNL     1      -9.830 -24.618   4.283  1.00  0.00     0.062 A 
HETATM   24  S1  UNL     1      -8.805 -23.425   4.948  1.00  0.00    -0.100 SA
BRANCH  22  25
HETATM   25  C14 UNL     1      -9.494 -26.933   3.493  1.00  0.00    -0.025 A 
HETATM   26  C15 UNL     1      -9.324 -28.116   4.192  1.00  0.00     0.012 A 
HETATM   27  C16 UNL     1      -9.789 -29.301   3.684  1.00  0.00     0.001 A 
HETATM   28  C17 UNL     1     -10.433 -29.310   2.455  1.00  0.00     0.000 A 
HETATM   29  C18 UNL     1     -10.605 -28.123   1.749  1.00  0.00     0.001 A 
HETATM   30  C19 UNL     1     -10.134 -26.938   2.272  1.00  0.00     0.012 A 
ENDBRANCH  22  25
ENDBRANCH   4  20
TORSDOF 8
ENDMDL
