MODEL 3
REMARK VINA RESULT: -10.306635603      0.741      1.238
REMARK  8 active torsions:
REMARK  status: ('A' for Active; 'I' for Inactive)
REMARK    1  A    between atoms: C1_2  and  C2_4 
REMARK    2  A    between atoms: C2_4  and  C3_5 
REMARK    3  A    between atoms: C2_4  and  N2_10 
REMARK    4  A    between atoms: C3_5  and  C4_6 
REMARK    5  A    between atoms: C4_6  and  C5_7 
REMARK       I    between atoms: N2_10  and  C6_12 
REMARK    6  A    between atoms: C6_12  and  C7_14 
REMARK    7  A    between atoms: C10_17  and  C11_18 
REMARK    8  A    between atoms: C13_20  and  C14_21 
ROOT
HETATM    1  C7  UNL     1      -7.893 -24.616   4.321  1.00  0.00     0.032 A 
HETATM    2  C8  UNL     1      -6.614 -25.132   4.085  1.00  0.00     0.018 A 
HETATM    3  C9  UNL     1      -5.504 -24.620   4.720  1.00  0.00     0.014 A 
HETATM    4  C10 UNL     1      -5.601 -23.579   5.614  1.00  0.00    -0.019 A 
HETATM    5  C21 UNL     1      -6.854 -23.066   5.850  1.00  0.00     0.014 A 
HETATM    6  C22 UNL     1      -7.985 -23.577   5.212  1.00  0.00     0.018 A 
ENDROOT
BRANCH   1   7
HETATM    7  C6  UNL     1      -9.048 -25.188   3.626  1.00  0.00     0.252 C 
HETATM    8  N2  UNL     1      -8.989 -25.831   2.389  1.00  0.00    -0.344 N 
ATOM      9  H2  UNL     1      -8.071 -25.900   1.952  1.00  0.00     0.163 HD
HETATM   10  O4  UNL     1     -10.172 -25.100   4.173  1.00  0.00    -0.268 OA
BRANCH   8  11
HETATM   11  C2  UNL     1     -10.085 -26.404   1.675  1.00  0.00     0.174 C 
BRANCH  11  12
HETATM   12  C1  UNL     1      -9.917 -27.881   1.677  1.00  0.00     0.254 C 
HETATM   13  N1  UNL     1      -9.324 -28.494   0.535  1.00  0.00    -0.060 NA
HETATM   14  O1  UNL     1     -10.268 -28.617   2.626  1.00  0.00    -0.275 OA
ENDBRANCH  11  12
BRANCH  11  15
HETATM   15  C3  UNL     1     -10.292 -25.949   0.281  1.00  0.00     0.045 C 
BRANCH  15  16
HETATM   16  C4  UNL     1      -9.762 -24.550   0.042  1.00  0.00     0.116 C 
BRANCH  16  17
HETATM   17  C5  UNL     1      -9.563 -24.325  -1.413  1.00  0.00     0.172 C 
HETATM   18  O2  UNL     1     -10.395 -23.707  -2.123  1.00  0.00    -0.648 OA
HETATM   19  O3  UNL     1      -8.418 -24.810  -2.024  1.00  0.00    -0.648 OA
ENDBRANCH  16  17
ENDBRANCH  15  16
ENDBRANCH  11  15
ENDBRANCH   8  11
ENDBRANCH   1   7
BRANCH   4  20
HETATM   20  C11 UNL     1      -4.421 -23.032   6.292  1.00  0.00     0.015 A 
HETATM   21  C12 UNL     1      -3.114 -23.426   6.193  1.00  0.00     0.032 A 
HETATM   22  C13 UNL     1      -2.217 -22.757   6.924  1.00  0.00    -0.018 A 
HETATM   23  C20 UNL     1      -2.672 -21.735   7.712  1.00  0.00     0.062 A 
HETATM   24  S1  UNL     1      -4.351 -21.744   7.401  1.00  0.00    -0.100 SA
BRANCH  22  25
HETATM   25  C14 UNL     1      -0.764 -23.082   6.909  1.00  0.00    -0.025 A 
HETATM   26  C15 UNL     1       0.144 -22.125   7.327  1.00  0.00     0.012 A 
HETATM   27  C16 UNL     1       1.489 -22.390   7.325  1.00  0.00     0.001 A 
HETATM   28  C17 UNL     1       1.938 -23.632   6.897  1.00  0.00     0.000 A 
HETATM   29  C18 UNL     1       1.028 -24.596   6.476  1.00  0.00     0.001 A 
HETATM   30  C19 UNL     1      -0.322 -24.317   6.485  1.00  0.00     0.012 A 
ENDBRANCH  22  25
ENDBRANCH   4  20
TORSDOF 8
ENDMDL
