MODEL 2
REMARK VINA RESULT: -10.713070016      0.129      1.389
REMARK  8 active torsions:
REMARK  status: ('A' for Active; 'I' for Inactive)
REMARK    1  A    between atoms: C1_2  and  C2_4 
REMARK    2  A    between atoms: C2_4  and  C3_5 
REMARK    3  A    between atoms: C2_4  and  N2_10 
REMARK    4  A    between atoms: C3_5  and  C4_6 
REMARK    5  A    between atoms: C4_6  and  C5_7 
REMARK       I    between atoms: N2_10  and  C6_12 
REMARK    6  A    between atoms: C6_12  and  C7_14 
REMARK    7  A    between atoms: C10_17  and  C11_18 
REMARK    8  A    between atoms: C13_20  and  C14_21 
ROOT
HETATM    1  C7  UNL     1      -7.778 -24.764   4.444  1.00  0.00     0.032 A 
HETATM    2  C8  UNL     1      -7.919 -23.826   5.473  1.00  0.00     0.018 A 
HETATM    3  C9  UNL     1      -6.823 -23.270   6.094  1.00  0.00     0.014 A 
HETATM    4  C10 UNL     1      -5.539 -23.610   5.733  1.00  0.00    -0.019 A 
HETATM    5  C21 UNL     1      -5.393 -24.531   4.722  1.00  0.00     0.014 A 
HETATM    6  C22 UNL     1      -6.497 -25.100   4.087  1.00  0.00     0.018 A 
ENDROOT
BRANCH   1   7
HETATM    7  C6  UNL     1      -8.968 -25.331   3.808  1.00  0.00     0.252 C 
HETATM    8  N2  UNL     1      -8.945 -26.299   2.803  1.00  0.00    -0.344 N 
ATOM      9  H2  UNL     1      -8.026 -26.623   2.502  1.00  0.00     0.163 HD
HETATM   10  O4  UNL     1     -10.093 -24.926   4.187  1.00  0.00    -0.268 OA
BRANCH   8  11
HETATM   11  C2  UNL     1     -10.077 -26.880   2.155  1.00  0.00     0.174 C 
BRANCH  11  12
HETATM   12  C1  UNL     1     -10.209 -28.284   2.627  1.00  0.00     0.254 C 
HETATM   13  N1  UNL     1     -10.668 -29.266   1.701  1.00  0.00    -0.060 NA
HETATM   14  O1  UNL     1      -9.941 -28.652   3.793  1.00  0.00    -0.275 OA
ENDBRANCH  11  12
BRANCH  11  15
HETATM   15  C3  UNL     1     -10.082 -26.872   0.674  1.00  0.00     0.045 C 
BRANCH  15  16
HETATM   16  C4  UNL     1     -10.467 -25.523   0.102  1.00  0.00     0.116 C 
BRANCH  16  17
HETATM   17  C5  UNL     1      -9.246 -24.764  -0.270  1.00  0.00     0.172 C 
HETATM   18  O2  UNL     1      -8.545 -24.151   0.574  1.00  0.00    -0.648 OA
HETATM   19  O3  UNL     1      -8.851 -24.723  -1.598  1.00  0.00    -0.648 OA
ENDBRANCH  16  17
ENDBRANCH  15  16
ENDBRANCH  11  15
ENDBRANCH   8  11
ENDBRANCH   1   7
BRANCH   4  20
HETATM   20  C11 UNL     1      -4.370 -23.020   6.392  1.00  0.00     0.015 A 
HETATM   21  C12 UNL     1      -3.054 -23.383   6.296  1.00  0.00     0.032 A 
HETATM   22  C13 UNL     1      -2.171 -22.677   7.007  1.00  0.00    -0.018 A 
HETATM   23  C20 UNL     1      -2.647 -21.648   7.774  1.00  0.00     0.062 A 
HETATM   24  S1  UNL     1      -4.327 -21.705   7.472  1.00  0.00    -0.100 SA
BRANCH  22  25
HETATM   25  C14 UNL     1      -0.711 -22.966   6.991  1.00  0.00    -0.025 A 
HETATM   26  C15 UNL     1       0.176 -21.976   7.379  1.00  0.00     0.012 A 
HETATM   27  C16 UNL     1       1.527 -22.208   7.376  1.00  0.00     0.001 A 
HETATM   28  C17 UNL     1       2.005 -23.448   6.977  1.00  0.00     0.000 A 
HETATM   29  C18 UNL     1       1.116 -24.445   6.586  1.00  0.00     0.001 A 
HETATM   30  C19 UNL     1      -0.240 -24.199   6.595  1.00  0.00     0.012 A 
ENDBRANCH  22  25
ENDBRANCH   4  20
TORSDOF 8
ENDMDL
