MODEL 2
REMARK VINA RESULT: -8.835109197      2.024      4.474
REMARK  2 active torsions:
REMARK  status: ('A' for Active; 'I' for Inactive)
REMARK    1  A    between atoms: C14_17  and  O3_18 
REMARK    2  A    between atoms: C16_21  and  O4_22 
ROOT
HETATM    1  C1  UNL     1       7.983  -8.390  13.500  1.00  0.00     0.040 C 
HETATM    2  C2  UNL     1       9.130  -7.484  13.877  1.00  0.00     0.130 C 
HETATM    3  C3  UNL     1       8.995  -6.181  13.183  1.00  0.00     0.067 C 
HETATM    4  C4  UNL     1      10.215  -5.631  12.538  1.00  0.00     0.157 A 
HETATM    5  O1  UNL     1       9.907  -4.303  11.946  1.00  0.00    -0.371 OA
HETATM    6  C5  UNL     1      10.835  -4.459  13.006  1.00  0.00     0.174 A 
HETATM    7  C6  UNL     1      12.264  -4.405  12.638  1.00  0.00     0.007 C 
HETATM    8  C7  UNL     1      13.289  -4.012  13.360  1.00  0.00    -0.001 C 
HETATM    9  C8  UNL     1      13.335  -3.523  14.717  1.00  0.00     0.003 C 
HETATM   10  C9  UNL     1      13.179  -4.148  15.859  1.00  0.00     0.050 C 
HETATM   11  C10 UNL     1      12.904  -5.567  16.050  1.00  0.00     0.153 C 
HETATM   12  O2  UNL     1      13.794  -6.294  16.637  1.00  0.00    -0.293 OA
HETATM   13  C11 UNL     1      11.697  -6.300  15.643  1.00  0.00     0.124 C 
HETATM   14  C12 UNL     1      11.465  -7.486  16.513  1.00  0.00    -0.007 A 
HETATM   15  C13 UNL     1      11.582  -7.298  17.866  1.00  0.00     0.075 A 
HETATM   16 CL1  UNL     1      11.928  -5.753  18.604  1.00  0.00    -0.081 Cl
HETATM   17  C14 UNL     1      11.397  -8.369  18.736  1.00  0.00     0.090 A 
HETATM   18  C15 UNL     1      11.101  -9.589  18.207  1.00  0.00     0.076 A 
HETATM   19  C16 UNL     1      10.983  -9.770  16.839  1.00  0.00     0.085 A 
HETATM   20  C17 UNL     1      11.160  -8.724  15.959  1.00  0.00     0.081 A 
HETATM   21  C18 UNL     1      10.995  -8.969  14.542  1.00  0.00     0.297 C 
HETATM   22  O5  UNL     1      11.439 -10.081  14.104  1.00  0.00    -0.259 OA
HETATM   23  O6  UNL     1      10.385  -8.063  13.652  1.00  0.00    -0.312 OA
ENDROOT
BRANCH  17  24
HETATM   24  O3  UNL     1      11.517  -8.183  20.128  1.00  0.00    -0.359 OA
ATOM     25  H3  UNL     1      12.201  -8.629  20.613  1.00  0.00     0.217 HD
ENDBRANCH  17  24
BRANCH  19  26
HETATM   26  O4  UNL     1      10.675 -11.062  16.382  1.00  0.00    -0.360 OA
ATOM     27  H4  UNL     1      10.621 -11.192  15.443  1.00  0.00     0.217 HD
ENDBRANCH  19  26
TORSDOF 2
ENDMDL
