MODEL 4
REMARK VINA RESULT: -8.460727714      2.214      6.122
REMARK  2 active torsions:
REMARK  status: ('A' for Active; 'I' for Inactive)
REMARK    1  A    between atoms: C14_17  and  O3_18 
REMARK    2  A    between atoms: C16_21  and  O4_22 
ROOT
HETATM    1  C1  UNL     1       9.112  -8.429  12.217  1.00  0.00     0.040 C 
HETATM    2  C2  UNL     1      10.064  -8.195  13.365  1.00  0.00     0.130 C 
HETATM    3  C3  UNL     1      10.236  -9.445  14.143  1.00  0.00     0.067 C 
HETATM    4  C4  UNL     1      10.162  -9.335  15.622  1.00  0.00     0.157 A 
HETATM    5  O1  UNL     1      10.412 -10.667  16.232  1.00  0.00    -0.371 OA
HETATM    6  C5  UNL     1      11.282  -9.568  16.438  1.00  0.00     0.174 A 
HETATM    7  C6  UNL     1      11.171  -8.880  17.741  1.00  0.00     0.007 C 
HETATM    8  C7  UNL     1      12.094  -8.233  18.415  1.00  0.00    -0.001 C 
HETATM    9  C8  UNL     1      13.480  -7.994  18.094  1.00  0.00     0.003 C 
HETATM   10  C9  UNL     1      14.030  -7.204  17.203  1.00  0.00     0.050 C 
HETATM   11  C10 UNL     1      13.340  -6.326  16.266  1.00  0.00     0.153 C 
HETATM   12  O2  UNL     1      13.496  -5.051  16.386  1.00  0.00    -0.293 OA
HETATM   13  C11 UNL     1      12.457  -6.726  15.161  1.00  0.00     0.124 C 
HETATM   14  C12 UNL     1      12.455  -5.709  14.074  1.00  0.00    -0.007 A 
HETATM   15  C13 UNL     1      13.673  -5.222  13.676  1.00  0.00     0.075 A 
HETATM   16 CL1  UNL     1      15.197  -5.769  14.330  1.00  0.00    -0.081 Cl
HETATM   17  C14 UNL     1      13.743  -4.255  12.676  1.00  0.00     0.090 A 
HETATM   18  C15 UNL     1      12.581  -3.816  12.118  1.00  0.00     0.076 A 
HETATM   19  C16 UNL     1      11.354  -4.314  12.526  1.00  0.00     0.085 A 
HETATM   20  C17 UNL     1      11.261  -5.272  13.512  1.00  0.00     0.081 A 
HETATM   21  C18 UNL     1       9.953  -5.775  13.875  1.00  0.00     0.297 C 
HETATM   22  O5  UNL     1       9.007  -4.921  13.907  1.00  0.00    -0.259 OA
HETATM   23  O6  UNL     1       9.686  -7.123  14.184  1.00  0.00    -0.312 OA
ENDROOT
BRANCH  17  24
HETATM   24  O3  UNL     1      14.992  -3.749  12.262  1.00  0.00    -0.359 OA
ATOM     25  H3  UNL     1      15.038  -2.968  11.723  1.00  0.00     0.217 HD
ENDBRANCH  17  24
BRANCH  19  26
HETATM   26  O4  UNL     1      10.208  -3.803  11.896  1.00  0.00    -0.360 OA
ATOM     27  H4  UNL     1       9.403  -4.300  11.983  1.00  0.00     0.217 HD
ENDBRANCH  19  26
TORSDOF 2
ENDMDL
