MODEL 1
REMARK VINA RESULT: -9.051914375      0.000      0.000
REMARK  2 active torsions:
REMARK  status: ('A' for Active; 'I' for Inactive)
REMARK    1  A    between atoms: C14_17  and  O3_18 
REMARK    2  A    between atoms: C16_21  and  O4_22 
ROOT
HETATM    1  C1  UNL     1      13.428  -3.879  15.388  1.00  0.00     0.040 C 
HETATM    2  C2  UNL     1      12.338  -4.774  14.850  1.00  0.00     0.130 C 
HETATM    3  C3  UNL     1      11.847  -4.250  13.553  1.00  0.00     0.067 C 
HETATM    4  C4  UNL     1      10.375  -4.192  13.362  1.00  0.00     0.157 A 
HETATM    5  O1  UNL     1      10.072  -3.698  11.994  1.00  0.00    -0.371 OA
HETATM    6  C5  UNL     1       9.718  -5.003  12.421  1.00  0.00     0.174 A 
HETATM    7  C6  UNL     1       8.299  -5.215  12.769  1.00  0.00     0.007 C 
HETATM    8  C7  UNL     1       7.585  -6.316  12.692  1.00  0.00    -0.001 C 
HETATM    9  C8  UNL     1       7.963  -7.638  12.255  1.00  0.00     0.003 C 
HETATM   10  C9  UNL     1       8.717  -8.547  12.826  1.00  0.00     0.050 C 
HETATM   11  C10 UNL     1       9.396  -8.440  14.111  1.00  0.00     0.153 C 
HETATM   12  O2  UNL     1       9.033  -9.226  15.068  1.00  0.00    -0.293 OA
HETATM   13  C11 UNL     1      10.483  -7.516  14.466  1.00  0.00     0.124 C 
HETATM   14  C12 UNL     1      11.337  -8.077  15.550  1.00  0.00    -0.007 A 
HETATM   15  C13 UNL     1      11.727  -9.385  15.421  1.00  0.00     0.075 A 
HETATM   16 CL1  UNL     1      11.324 -10.386  14.047  1.00  0.00    -0.081 Cl
HETATM   17  C14 UNL     1      12.511  -9.978  16.407  1.00  0.00     0.090 A 
HETATM   18  C15 UNL     1      12.871  -9.228  17.485  1.00  0.00     0.076 A 
HETATM   19  C16 UNL     1      12.474  -7.906  17.607  1.00  0.00     0.085 A 
HETATM   20  C17 UNL     1      11.699  -7.299  16.643  1.00  0.00     0.081 A 
HETATM   21  C18 UNL     1      11.340  -5.906  16.812  1.00  0.00     0.297 C 
HETATM   22  O5  UNL     1      11.057  -5.534  17.998  1.00  0.00    -0.259 OA
HETATM   23  O6  UNL     1      11.290  -4.973  15.758  1.00  0.00    -0.312 OA
ENDROOT
BRANCH  17  24
HETATM   24  O3  UNL     1      12.915 -11.323  16.282  1.00  0.00    -0.359 OA
ATOM     25  H3  UNL     1      13.804 -11.533  16.022  1.00  0.00     0.217 HD
ENDBRANCH  17  24
BRANCH  19  26
HETATM   26  O4  UNL     1      12.891  -7.209  18.752  1.00  0.00    -0.360 OA
ATOM     27  H4  UNL     1      12.248  -7.067  19.437  1.00  0.00     0.217 HD
ENDBRANCH  19  26
TORSDOF 2
ENDMDL
