MODEL 9
REMARK VINA RESULT: -7.550540463      1.324      4.784
REMARK  1 active torsions:
REMARK  status: ('A' for Active; 'I' for Inactive)
REMARK    1  A    between atoms: N4_16  and  C10_17 
ROOT
HETATM    1  C1  UNL     1       2.434  58.761   1.333  1.00  0.00     0.089 C 
HETATM    2  C2  UNL     1       3.489  57.723   1.491  1.00  0.00     0.080 A 
HETATM    3  N1  UNL     1       3.236  56.500   2.019  1.00  0.00    -0.343 N 
ATOM      4  H1  UNL     1       2.326  56.177   2.346  1.00  0.00     0.167 HD
HETATM    5  C3  UNL     1       4.353  55.791   2.044  1.00  0.00     0.077 A 
HETATM    6  C4  UNL     1       4.629  54.492   2.485  1.00  0.00     0.121 A 
HETATM    7  N2  UNL     1       5.866  53.994   2.403  1.00  0.00    -0.349 N 
ATOM      8  H2  UNL     1       6.058  53.046   2.727  1.00  0.00     0.167 HD
HETATM    9  C5  UNL     1       6.866  54.753   1.890  1.00  0.00     0.117 A 
HETATM   10  N3  UNL     1       8.165  54.496   1.708  1.00  0.00    -0.352 N 
ATOM     11  H3  UNL     1       8.634  53.621   1.944  1.00  0.00     0.166 HD
HETATM   12  C6  UNL     1       8.755  55.571   1.166  1.00  0.00     0.090 A 
HETATM   13  C7  UNL     1       7.779  56.549   1.001  1.00  0.00     0.034 A 
HETATM   14  C8  UNL     1       6.602  56.045   1.449  1.00  0.00     0.038 A 
HETATM   15  C9  UNL     1       5.340  56.591   1.515  1.00  0.00     0.078 A 
HETATM   16  N4  UNL     1       4.793  57.792   1.172  1.00  0.00    -0.329 N 
ENDROOT
BRANCH  16  17
HETATM   17  C10 UNL     1       5.522  58.859   0.583  1.00  0.00     0.095 C 
HETATM   18  C11 UNL     1       4.774  60.169   0.581  1.00  0.00     0.053 C 
HETATM   19  C12 UNL     1       5.668  61.196  -0.065  1.00  0.00     0.234 C 
HETATM   20  N5  UNL     1       7.036  60.759  -0.201  1.00  0.00    -0.075 N 
HETATM   21  C13 UNL     1       7.187  59.579  -1.029  1.00  0.00     0.234 C 
ATOM     22  H52 UNL     1       7.625  61.518  -0.544  1.00  0.00     0.277 HD
ATOM     23  H51 UNL     1       7.462  60.613   0.714  1.00  0.00     0.277 HD
HETATM   24  C14 UNL     1       5.954  58.656  -0.854  1.00  0.00     0.053 C 
ENDBRANCH  16  17
TORSDOF 1
ENDMDL
