MODEL 10
REMARK VINA RESULT: -7.435613795      1.751      4.434
REMARK  1 active torsions:
REMARK  status: ('A' for Active; 'I' for Inactive)
REMARK    1  A    between atoms: N4_16  and  C10_17 
ROOT
HETATM    1  C1  UNL     1       5.635  60.219  -0.513  1.00  0.00     0.089 C 
HETATM    2  C2  UNL     1       5.109  58.990   0.140  1.00  0.00     0.080 A 
HETATM    3  N1  UNL     1       3.867  58.925   0.681  1.00  0.00    -0.343 N 
ATOM      4  H1  UNL     1       3.189  59.686   0.690  1.00  0.00     0.167 HD
HETATM    5  C3  UNL     1       3.672  57.722   1.195  1.00  0.00     0.077 A 
HETATM    6  C4  UNL     1       2.579  57.151   1.857  1.00  0.00     0.121 A 
HETATM    7  N2  UNL     1       2.630  55.888   2.291  1.00  0.00    -0.349 N 
ATOM      8  H2  UNL     1       1.829  55.480   2.772  1.00  0.00     0.167 HD
HETATM    9  C5  UNL     1       3.750  55.151   2.091  1.00  0.00     0.117 A 
HETATM   10  N3  UNL     1       4.051  53.892   2.426  1.00  0.00    -0.352 N 
ATOM     11  H3  UNL     1       3.432  53.247   2.919  1.00  0.00     0.166 HD
HETATM   12  C6  UNL     1       5.295  53.611   2.013  1.00  0.00     0.090 A 
HETATM   13  C7  UNL     1       5.799  54.748   1.389  1.00  0.00     0.034 A 
HETATM   14  C8  UNL     1       4.843  55.708   1.434  1.00  0.00     0.038 A 
HETATM   15  C9  UNL     1       4.826  57.005   0.971  1.00  0.00     0.078 A 
HETATM   16  N4  UNL     1       5.715  57.802   0.312  1.00  0.00    -0.329 N 
ENDROOT
BRANCH  16  17
HETATM   17  C10 UNL     1       7.010  57.384  -0.093  1.00  0.00     0.095 C 
HETATM   18  C11 UNL     1       7.917  57.035   1.059  1.00  0.00     0.053 C 
HETATM   19  C12 UNL     1       9.241  56.608   0.477  1.00  0.00     0.234 C 
HETATM   20  N5  UNL     1       9.183  56.348  -0.942  1.00  0.00    -0.075 N 
HETATM   21  C13 UNL     1       8.800  57.504  -1.728  1.00  0.00     0.234 C 
ATOM     22  H52 UNL     1      10.068  55.963  -1.273  1.00  0.00     0.277 HD
ATOM     23  H51 UNL     1       8.569  55.558  -1.140  1.00  0.00     0.277 HD
HETATM   24  C14 UNL     1       7.799  58.373  -0.925  1.00  0.00     0.053 C 
ENDBRANCH  16  17
TORSDOF 1
ENDMDL
