MODEL 7
REMARK VINA RESULT: -7.704001731      1.833      5.844
REMARK  1 active torsions:
REMARK  status: ('A' for Active; 'I' for Inactive)
REMARK    1  A    between atoms: N4_16  and  C10_17 
ROOT
HETATM    1  C1  UNL     1       8.865  58.591  -1.754  1.00  0.00     0.089 C 
HETATM    2  C2  UNL     1       8.492  57.552  -0.756  1.00  0.00     0.080 A 
HETATM    3  N1  UNL     1       9.269  56.469  -0.505  1.00  0.00    -0.343 N 
ATOM      4  H1  UNL     1      10.160  56.266  -0.956  1.00  0.00     0.167 HD
HETATM    5  C3  UNL     1       8.690  55.715   0.417  1.00  0.00     0.077 A 
HETATM    6  C4  UNL     1       9.071  54.510   1.017  1.00  0.00     0.121 A 
HETATM    7  N2  UNL     1       8.296  53.935   1.941  1.00  0.00    -0.349 N 
ATOM      8  H2  UNL     1       8.582  53.058   2.374  1.00  0.00     0.167 HD
HETATM    9  C5  UNL     1       7.129  54.522   2.302  1.00  0.00     0.117 A 
HETATM   10  N3  UNL     1       6.190  54.155   3.180  1.00  0.00    -0.352 N 
ATOM     11  H3  UNL     1       6.216  53.314   3.757  1.00  0.00     0.166 HD
HETATM   12  C6  UNL     1       5.207  55.067   3.182  1.00  0.00     0.090 A 
HETATM   13  C7  UNL     1       5.546  56.053   2.261  1.00  0.00     0.034 A 
HETATM   14  C8  UNL     1       6.740  55.721   1.711  1.00  0.00     0.038 A 
HETATM   15  C9  UNL     1       7.513  56.343   0.757  1.00  0.00     0.078 A 
HETATM   16  N4  UNL     1       7.398  57.487   0.023  1.00  0.00    -0.329 N 
ENDROOT
BRANCH  16  17
HETATM   17  C10 UNL     1       6.310  58.392   0.127  1.00  0.00     0.095 C 
HETATM   18  C11 UNL     1       4.998  57.812  -0.338  1.00  0.00     0.053 C 
HETATM   19  C12 UNL     1       3.947  58.878  -0.166  1.00  0.00     0.234 C 
HETATM   20  N5  UNL     1       4.384  59.984   0.653  1.00  0.00    -0.075 N 
HETATM   21  C13 UNL     1       5.527  60.690   0.109  1.00  0.00     0.234 C 
ATOM     22  H52 UNL     1       3.613  60.627   0.830  1.00  0.00     0.277 HD
ATOM     23  H51 UNL     1       4.571  59.676   1.607  1.00  0.00     0.277 HD
HETATM   24  C14 UNL     1       6.452  59.693  -0.636  1.00  0.00     0.053 C 
ENDBRANCH  16  17
TORSDOF 1
ENDMDL
