MODEL 8
REMARK VINA RESULT: -7.579084978      1.705      3.748
REMARK  1 active torsions:
REMARK  status: ('A' for Active; 'I' for Inactive)
REMARK    1  A    between atoms: N4_16  and  C10_17 
ROOT
HETATM    1  C1  UNL     1       9.581  54.822   0.584  1.00  0.00     0.089 C 
HETATM    2  C2  UNL     1       8.583  55.915   0.431  1.00  0.00     0.080 A 
HETATM    3  N1  UNL     1       8.887  57.106  -0.140  1.00  0.00    -0.343 N 
ATOM      4  H1  UNL     1       9.800  57.363  -0.516  1.00  0.00     0.167 HD
HETATM    5  C3  UNL     1       7.816  57.884  -0.136  1.00  0.00     0.077 A 
HETATM    6  C4  UNL     1       7.602  59.187  -0.598  1.00  0.00     0.121 A 
HETATM    7  N2  UNL     1       6.404  59.765  -0.474  1.00  0.00    -0.349 N 
ATOM      8  H2  UNL     1       6.257  60.715  -0.814  1.00  0.00     0.167 HD
HETATM    9  C5  UNL     1       5.384  59.085   0.106  1.00  0.00     0.117 A 
HETATM   10  N3  UNL     1       4.117  59.434   0.351  1.00  0.00    -0.352 N 
ATOM     11  H3  UNL     1       3.694  60.332   0.116  1.00  0.00     0.166 HD
HETATM   12  C6  UNL     1       3.489  58.414   0.955  1.00  0.00     0.090 A 
HETATM   13  C7  UNL     1       4.406  57.378   1.095  1.00  0.00     0.034 A 
HETATM   14  C8  UNL     1       5.586  57.789   0.569  1.00  0.00     0.038 A 
HETATM   15  C9  UNL     1       6.806  57.160   0.457  1.00  0.00     0.078 A 
HETATM   16  N4  UNL     1       7.292  55.935   0.806  1.00  0.00    -0.329 N 
ENDROOT
BRANCH  16  17
HETATM   17  C10 UNL     1       6.518  54.921   1.430  1.00  0.00     0.095 C 
HETATM   18  C11 UNL     1       7.350  53.833   2.060  1.00  0.00     0.053 C 
HETATM   19  C12 UNL     1       6.400  52.842   2.681  1.00  0.00     0.234 C 
HETATM   20  N5  UNL     1       5.048  53.336   2.787  1.00  0.00    -0.075 N 
HETATM   21  C13 UNL     1       4.447  53.658   1.508  1.00  0.00     0.234 C 
ATOM     22  H52 UNL     1       4.463  52.680   3.305  1.00  0.00     0.277 HD
ATOM     23  H51 UNL     1       5.004  54.136   3.417  1.00  0.00     0.277 HD
HETATM   24  C14 UNL     1       5.534  54.192   0.540  1.00  0.00     0.053 C 
ENDBRANCH  16  17
TORSDOF 1
ENDMDL
