MODEL 3
REMARK VINA RESULT: -7.979212341      1.492      3.489
REMARK  1 active torsions:
REMARK  status: ('A' for Active; 'I' for Inactive)
REMARK    1  A    between atoms: N4_16  and  C10_17 
ROOT
HETATM    1  C1  UNL     1       8.642  56.581  -0.429  1.00  0.00     0.089 C 
HETATM    2  C2  UNL     1       7.540  57.557  -0.211  1.00  0.00     0.080 A 
HETATM    3  N1  UNL     1       7.605  58.840  -0.646  1.00  0.00    -0.343 N 
ATOM      4  H1  UNL     1       8.388  59.250  -1.154  1.00  0.00     0.167 HD
HETATM    5  C3  UNL     1       6.496  59.477  -0.309  1.00  0.00     0.077 A 
HETATM    6  C4  UNL     1       6.070  60.793  -0.516  1.00  0.00     0.121 A 
HETATM    7  N2  UNL     1       4.881  61.203  -0.067  1.00  0.00    -0.349 N 
ATOM      8  H2  UNL     1       4.579  62.164  -0.223  1.00  0.00     0.167 HD
HETATM    9  C5  UNL     1       4.076  60.337   0.597  1.00  0.00     0.117 A 
HETATM   10  N3  UNL     1       2.865  60.497   1.142  1.00  0.00    -0.352 N 
ATOM     11  H3  UNL     1       2.323  61.361   1.135  1.00  0.00     0.166 HD
HETATM   12  C6  UNL     1       2.476  59.340   1.698  1.00  0.00     0.090 A 
HETATM   13  C7  UNL     1       3.492  58.412   1.493  1.00  0.00     0.034 A 
HETATM   14  C8  UNL     1       4.488  59.025   0.808  1.00  0.00     0.038 A 
HETATM   15  C9  UNL     1       5.706  58.567   0.359  1.00  0.00     0.078 A 
HETATM   16  N4  UNL     1       6.364  57.374   0.414  1.00  0.00    -0.329 N 
ENDROOT
BRANCH  16  17
HETATM   17  C10 UNL     1       5.838  56.203   1.020  1.00  0.00     0.095 C 
HETATM   18  C11 UNL     1       6.533  55.827   2.304  1.00  0.00     0.053 C 
HETATM   19  C12 UNL     1       5.869  54.580   2.828  1.00  0.00     0.234 C 
HETATM   20  N5  UNL     1       4.613  54.286   2.179  1.00  0.00    -0.075 N 
HETATM   21  C13 UNL     1       4.739  54.055   0.753  1.00  0.00     0.234 C 
ATOM     22  H52 UNL     1       4.149  53.499   2.632  1.00  0.00     0.277 HD
ATOM     23  H51 UNL     1       3.929  55.018   2.366  1.00  0.00     0.277 HD
HETATM   24  C14 UNL     1       5.870  54.945   0.178  1.00  0.00     0.053 C 
ENDBRANCH  16  17
TORSDOF 1
ENDMDL
