MODEL 1
REMARK VINA RESULT: -8.698193999      0.000      0.000
REMARK  2 active torsions:
REMARK  status: ('A' for Active; 'I' for Inactive)
REMARK    1  A    between atoms: N4_16  and  C10_17 
REMARK    2  A    between atoms: C14_21  and  O1_22 
ROOT
HETATM    1  C1  UNL     1      10.235  57.589  -1.219  1.00  0.00     0.089 C 
HETATM    2  C2  UNL     1       8.990  58.197  -0.749  1.00  0.00     0.080 A 
HETATM    3  N1  UNL     1       8.732  59.504  -0.910  1.00  0.00    -0.343 N 
ATOM      4  H1  UNL     1       9.356  60.168  -1.369  1.00  0.00     0.167 HD
HETATM    5  C3  UNL     1       7.549  59.812  -0.389  1.00  0.00     0.077 A 
HETATM    6  C4  UNL     1       6.806  60.962  -0.272  1.00  0.00     0.121 A 
HETATM    7  N2  UNL     1       5.613  60.934   0.332  1.00  0.00    -0.349 N 
ATOM      8  H2  UNL     1       5.085  61.804   0.403  1.00  0.00     0.167 HD
HETATM    9  C5  UNL     1       5.080  59.824   0.845  1.00  0.00     0.117 A 
HETATM   10  N3  UNL     1       3.926  59.556   1.489  1.00  0.00    -0.352 N 
ATOM     11  H3  UNL     1       3.198  60.236   1.705  1.00  0.00     0.166 HD
HETATM   12  C6  UNL     1       3.891  58.260   1.798  1.00  0.00     0.090 A 
HETATM   13  C7  UNL     1       5.062  57.642   1.345  1.00  0.00     0.034 A 
HETATM   14  C8  UNL     1       5.792  58.633   0.751  1.00  0.00     0.038 A 
HETATM   15  C9  UNL     1       7.032  58.633   0.129  1.00  0.00     0.078 A 
HETATM   16  N4  UNL     1       7.940  57.637  -0.103  1.00  0.00    -0.329 N 
ENDROOT
BRANCH  16  17
HETATM   17  C10 UNL     1       7.903  56.253   0.208  1.00  0.00     0.094 C 
HETATM   18  C11 UNL     1       6.778  55.479  -0.450  1.00  0.00     0.026 C 
HETATM   19  C12 UNL     1       6.263  54.438   0.520  1.00  0.00     0.004 C 
HETATM   20  C13 UNL     1       7.423  53.628   1.032  1.00  0.00     0.032 C 
HETATM   21  C14 UNL     1       8.259  54.512   1.928  1.00  0.00     0.120 C 
HETATM   22  C15 UNL     1       7.934  55.982   1.730  1.00  0.00     0.057 C 
BRANCH  21  23
HETATM   23  O1  UNL     1       9.587  54.274   1.664  1.00  0.00    -0.396 OA
ATOM     24  H1  UNL     1       9.865  53.516   2.165  1.00  0.00     0.210 HD
ENDBRANCH  21  23
ENDBRANCH  16  17
TORSDOF 2
ENDMDL
