MODEL 13
REMARK VINA RESULT: -7.548342068      2.888      5.610
REMARK  2 active torsions:
REMARK  status: ('A' for Active; 'I' for Inactive)
REMARK    1  A    between atoms: N4_16  and  C10_17 
REMARK    2  A    between atoms: C14_21  and  O1_22 
ROOT
HETATM    1  C1  UNL     1       9.669  58.024   0.023  1.00  0.00     0.089 C 
HETATM    2  C2  UNL     1       9.657  56.634   0.482  1.00  0.00     0.080 A 
HETATM    3  N1  UNL     1      10.784  55.916   0.604  1.00  0.00    -0.343 N 
ATOM      4  H1  UNL     1      11.721  56.265   0.403  1.00  0.00     0.167 HD
HETATM    5  C3  UNL     1      10.507  54.686   1.023  1.00  0.00     0.077 A 
HETATM    6  C4  UNL     1      11.249  53.565   1.309  1.00  0.00     0.121 A 
HETATM    7  N2  UNL     1      10.645  52.445   1.721  1.00  0.00    -0.349 N 
ATOM      8  H2  UNL     1      11.223  51.629   1.925  1.00  0.00     0.167 HD
HETATM    9  C5  UNL     1       9.324  52.343   1.878  1.00  0.00     0.117 A 
HETATM   10  N3  UNL     1       8.507  51.344   2.267  1.00  0.00    -0.352 N 
ATOM     11  H3  UNL     1       8.804  50.406   2.535  1.00  0.00     0.166 HD
HETATM   12  C6  UNL     1       7.246  51.779   2.244  1.00  0.00     0.090 A 
HETATM   13  C7  UNL     1       7.223  53.114   1.826  1.00  0.00     0.034 A 
HETATM   14  C8  UNL     1       8.528  53.450   1.604  1.00  0.00     0.038 A 
HETATM   15  C9  UNL     1       9.129  54.625   1.175  1.00  0.00     0.078 A 
HETATM   16  N4  UNL     1       8.614  55.845   0.835  1.00  0.00    -0.329 N 
ENDROOT
BRANCH  16  17
HETATM   17  C10 UNL     1       7.277  56.321   0.824  1.00  0.00     0.094 C 
HETATM   18  C11 UNL     1       6.967  57.336  -0.258  1.00  0.00     0.026 C 
HETATM   19  C12 UNL     1       6.014  58.373   0.297  1.00  0.00     0.004 C 
HETATM   20  C13 UNL     1       4.836  57.673   0.916  1.00  0.00     0.032 C 
HETATM   21  C14 UNL     1       5.306  56.970   2.168  1.00  0.00     0.120 C 
HETATM   22  C15 UNL     1       6.818  56.840   2.207  1.00  0.00     0.057 C 
BRANCH  21  23
HETATM   23  O1  UNL     1       4.715  55.730   2.224  1.00  0.00    -0.396 OA
ATOM     24  H1  UNL     1       4.993  55.296   3.022  1.00  0.00     0.210 HD
ENDBRANCH  21  23
ENDBRANCH  16  17
TORSDOF 2
ENDMDL
