MODEL 11
REMARK VINA RESULT: -7.730684036      3.112      5.704
REMARK  2 active torsions:
REMARK  status: ('A' for Active; 'I' for Inactive)
REMARK    1  A    between atoms: N4_16  and  C10_17 
REMARK    2  A    between atoms: C14_21  and  O1_22 
ROOT
HETATM    1  C1  UNL     1       9.819  56.990   0.655  1.00  0.00     0.089 C 
HETATM    2  C2  UNL     1       9.220  55.719   1.063  1.00  0.00     0.080 A 
HETATM    3  N1  UNL     1       9.966  54.658   1.406  1.00  0.00    -0.343 N 
ATOM      4  H1  UNL     1      10.986  54.645   1.422  1.00  0.00     0.167 HD
HETATM    5  C3  UNL     1       9.191  53.626   1.722  1.00  0.00     0.077 A 
HETATM    6  C4  UNL     1       9.410  52.333   2.130  1.00  0.00     0.121 A 
HETATM    7  N2  UNL     1       8.376  51.519   2.372  1.00  0.00    -0.349 N 
ATOM      8  H2  UNL     1       8.571  50.564   2.674  1.00  0.00     0.167 HD
HETATM    9  C5  UNL     1       7.103  51.896   2.237  1.00  0.00     0.117 A 
HETATM   10  N3  UNL     1       5.923  51.269   2.413  1.00  0.00    -0.352 N 
ATOM     11  H3  UNL     1       5.806  50.301   2.713  1.00  0.00     0.166 HD
HETATM   12  C6  UNL     1       4.933  52.117   2.131  1.00  0.00     0.090 A 
HETATM   13  C7  UNL     1       5.473  53.351   1.754  1.00  0.00     0.034 A 
HETATM   14  C8  UNL     1       6.828  53.196   1.828  1.00  0.00     0.038 A 
HETATM   15  C9  UNL     1       7.882  54.061   1.571  1.00  0.00     0.078 A 
HETATM   16  N4  UNL     1       7.916  55.365   1.161  1.00  0.00    -0.329 N 
ENDROOT
BRANCH  16  17
HETATM   17  C10 UNL     1       6.868  56.279   0.875  1.00  0.00     0.094 C 
HETATM   18  C11 UNL     1       7.144  57.231  -0.272  1.00  0.00     0.026 C 
HETATM   19  C12 UNL     1       6.553  58.584   0.057  1.00  0.00     0.004 C 
HETATM   20  C13 UNL     1       5.112  58.408   0.449  1.00  0.00     0.032 C 
HETATM   21  C14 UNL     1       5.067  57.706   1.787  1.00  0.00     0.120 C 
HETATM   22  C15 UNL     1       6.396  57.055   2.126  1.00  0.00     0.057 C 
BRANCH  21  23
HETATM   23  O1  UNL     1       4.065  56.765   1.755  1.00  0.00    -0.396 OA
ATOM     24  H1  UNL     1       3.840  56.532   2.648  1.00  0.00     0.210 HD
ENDBRANCH  21  23
ENDBRANCH  16  17
TORSDOF 2
ENDMDL
