MODEL 3
REMARK VINA RESULT: -8.577701219      1.445      1.760
REMARK  2 active torsions:
REMARK  status: ('A' for Active; 'I' for Inactive)
REMARK    1  A    between atoms: N4_16  and  C10_17 
REMARK    2  A    between atoms: C14_21  and  O1_22 
ROOT
HETATM    1  C1  UNL     1      10.310  55.705   0.191  1.00  0.00     0.089 C 
HETATM    2  C2  UNL     1       9.437  56.878   0.114  1.00  0.00     0.080 A 
HETATM    3  N1  UNL     1       9.845  58.033  -0.436  1.00  0.00    -0.343 N 
ATOM      4  H1  UNL     1      10.766  58.189  -0.845  1.00  0.00     0.167 HD
HETATM    5  C3  UNL     1       8.879  58.943  -0.373  1.00  0.00     0.077 A 
HETATM    6  C4  UNL     1       8.750  60.253  -0.767  1.00  0.00     0.121 A 
HETATM    7  N2  UNL     1       7.607  60.912  -0.547  1.00  0.00    -0.349 N 
ATOM      8  H2  UNL     1       7.542  61.884  -0.850  1.00  0.00     0.167 HD
HETATM    9  C5  UNL     1       6.549  60.360   0.050  1.00  0.00     0.117 A 
HETATM   10  N3  UNL     1       5.323  60.815   0.378  1.00  0.00    -0.352 N 
ATOM     11  H3  UNL     1       4.972  61.755   0.197  1.00  0.00     0.166 HD
HETATM   12  C6  UNL     1       4.643  59.837   0.977  1.00  0.00     0.090 A 
HETATM   13  C7  UNL     1       5.443  58.692   1.051  1.00  0.00     0.034 A 
HETATM   14  C8  UNL     1       6.629  59.036   0.466  1.00  0.00     0.038 A 
HETATM   15  C9  UNL     1       7.803  58.329   0.250  1.00  0.00     0.078 A 
HETATM   16  N4  UNL     1       8.165  57.044   0.547  1.00  0.00    -0.329 N 
ENDROOT
BRANCH  16  17
HETATM   17  C10 UNL     1       7.442  55.992   1.168  1.00  0.00     0.094 C 
HETATM   18  C11 UNL     1       6.155  55.600   0.470  1.00  0.00     0.026 C 
HETATM   19  C12 UNL     1       5.113  55.258   1.512  1.00  0.00     0.004 C 
HETATM   20  C13 UNL     1       5.690  54.251   2.469  1.00  0.00     0.032 C 
HETATM   21  C14 UNL     1       6.753  54.936   3.295  1.00  0.00     0.120 C 
HETATM   22  C15 UNL     1       7.190  56.250   2.672  1.00  0.00     0.057 C 
BRANCH  21  23
HETATM   23  O1  UNL     1       7.826  54.085   3.423  1.00  0.00    -0.396 OA
ATOM     24  H1  UNL     1       8.626  54.595   3.375  1.00  0.00     0.210 HD
ENDBRANCH  21  23
ENDBRANCH  16  17
TORSDOF 2
ENDMDL
