MODEL 10
REMARK VINA RESULT: -7.740314874      3.383      6.204
REMARK  2 active torsions:
REMARK  status: ('A' for Active; 'I' for Inactive)
REMARK    1  A    between atoms: N4_16  and  C10_17 
REMARK    2  A    between atoms: C14_21  and  O1_22 
ROOT
HETATM    1  C1  UNL     1      10.020  57.223   0.591  1.00  0.00     0.089 C 
HETATM    2  C2  UNL     1      10.028  55.773   0.788  1.00  0.00     0.080 A 
HETATM    3  N1  UNL     1      11.168  55.066   0.816  1.00  0.00    -0.343 N 
ATOM      4  H1  UNL     1      12.102  55.464   0.715  1.00  0.00     0.167 HD
HETATM    5  C3  UNL     1      10.910  53.775   0.994  1.00  0.00     0.077 A 
HETATM    6  C4  UNL     1      11.670  52.635   1.096  1.00  0.00     0.121 A 
HETATM    7  N2  UNL     1      11.082  51.447   1.276  1.00  0.00    -0.349 N 
ATOM      8  H2  UNL     1      11.673  50.619   1.348  1.00  0.00     0.167 HD
HETATM    9  C5  UNL     1       9.760  51.294   1.366  1.00  0.00     0.117 A 
HETATM   10  N3  UNL     1       8.956  50.225   1.537  1.00  0.00    -0.352 N 
ATOM     11  H3  UNL     1       9.268  49.260   1.640  1.00  0.00     0.166 HD
HETATM   12  C6  UNL     1       7.687  50.633   1.550  1.00  0.00     0.090 A 
HETATM   13  C7  UNL     1       7.643  52.021   1.382  1.00  0.00     0.034 A 
HETATM   14  C8  UNL     1       8.946  52.417   1.271  1.00  0.00     0.038 A 
HETATM   15  C9  UNL     1       9.530  53.661   1.084  1.00  0.00     0.078 A 
HETATM   16  N4  UNL     1       8.995  54.914   0.955  1.00  0.00    -0.329 N 
ENDROOT
BRANCH  16  17
HETATM   17  C10 UNL     1       7.648  55.358   0.985  1.00  0.00     0.094 C 
HETATM   18  C11 UNL     1       7.167  56.032  -0.285  1.00  0.00     0.026 C 
HETATM   19  C12 UNL     1       6.245  57.174   0.081  1.00  0.00     0.004 C 
HETATM   20  C13 UNL     1       5.180  56.664   1.014  1.00  0.00     0.032 C 
HETATM   21  C14 UNL     1       5.827  56.339   2.340  1.00  0.00     0.120 C 
HETATM   22  C15 UNL     1       7.337  56.236   2.219  1.00  0.00     0.057 C 
BRANCH  21  23
HETATM   23  O1  UNL     1       5.300  55.158   2.807  1.00  0.00    -0.396 OA
ATOM     24  H1  UNL     1       5.978  54.690   3.281  1.00  0.00     0.210 HD
ENDBRANCH  21  23
ENDBRANCH  16  17
TORSDOF 2
ENDMDL
