MODEL 13
REMARK VINA RESULT: -4.166125490      1.554      1.832
REMARK  1 active torsions:
REMARK  status: ('A' for Active; 'I' for Inactive)
REMARK    1  A    between atoms: C1_2  and  C2_4 
ROOT
HETATM    1  C2  UNL     1       9.824  23.039  23.867  1.00  0.00     0.043 A 
HETATM    2  C3  UNL     1      10.536  24.203  24.173  1.00  0.00     0.019 A 
HETATM    3  C4  UNL     1      11.797  24.446  23.670  1.00  0.00     0.015 A 
HETATM    4  C5  UNL     1      12.414  23.550  22.838  1.00  0.00    -0.008 A 
HETATM    5  C6  UNL     1      13.639  23.498  22.183  1.00  0.00     0.030 A 
HETATM    6  C7  UNL     1      13.690  22.316  21.476  1.00  0.00     0.089 A 
HETATM    7  N1  UNL     1      12.532  21.690  21.707  1.00  0.00    -0.365 N 
ATOM      8  H1  UNL     1      12.286  20.782  21.312  1.00  0.00     0.165 HD
HETATM    9  C8  UNL     1      11.729  22.396  22.524  1.00  0.00     0.043 A 
HETATM   10  C9  UNL     1      10.458  22.145  23.028  1.00  0.00     0.048 A 
ENDROOT
BRANCH   1  11
HETATM   11  C1  UNL     1       8.501  22.796  24.403  1.00  0.00     0.209 C 
HETATM   12  O1  UNL     1       8.218  23.197  25.546  1.00  0.00    -0.644 OA
HETATM   13  O2  UNL     1       7.556  22.129  23.661  1.00  0.00    -0.644 OA
ENDBRANCH   1  11
TORSDOF 1
ENDMDL
