MODEL 2
REMARK VINA RESULT: -4.654324252      3.859      5.146
REMARK  1 active torsions:
REMARK  status: ('A' for Active; 'I' for Inactive)
REMARK    1  A    between atoms: C1_2  and  C2_4 
ROOT
HETATM    1  C2  UNL     1      14.873  23.325  21.470  1.00  0.00     0.043 A 
HETATM    2  C3  UNL     1      14.464  24.421  22.237  1.00  0.00     0.019 A 
HETATM    3  C4  UNL     1      13.217  24.485  22.821  1.00  0.00     0.015 A 
HETATM    4  C5  UNL     1      12.312  23.467  22.676  1.00  0.00    -0.008 A 
HETATM    5  C6  UNL     1      11.017  23.231  23.121  1.00  0.00     0.030 A 
HETATM    6  C7  UNL     1      10.621  22.002  22.638  1.00  0.00     0.089 A 
HETATM    7  N1  UNL     1      11.650  21.529  21.929  1.00  0.00    -0.365 N 
ATOM      8  H1  UNL     1      11.645  20.629  21.448  1.00  0.00     0.165 HD
HETATM    9  C8  UNL     1      12.694  22.378  21.924  1.00  0.00     0.043 A 
HETATM   10  C9  UNL     1      13.951  22.307  21.332  1.00  0.00     0.048 A 
ENDROOT
BRANCH   1  11
HETATM   11  C1  UNL     1      16.186  23.272  20.862  1.00  0.00     0.209 C 
HETATM   12  O1  UNL     1      16.968  22.356  21.170  1.00  0.00    -0.644 OA
HETATM   13  O2  UNL     1      16.573  24.222  19.949  1.00  0.00    -0.644 OA
ENDBRANCH   1  11
TORSDOF 1
ENDMDL
