MODEL 5
REMARK VINA RESULT: -4.444863062      3.026      4.421
REMARK  1 active torsions:
REMARK  status: ('A' for Active; 'I' for Inactive)
REMARK    1  A    between atoms: C1_2  and  C2_4 
ROOT
HETATM    1  C2  UNL     1      11.284  22.826  21.840  1.00  0.00     0.043 A 
HETATM    2  C3  UNL     1      10.450  23.812  21.302  1.00  0.00     0.019 A 
HETATM    3  C4  UNL     1       9.310  23.502  20.592  1.00  0.00     0.015 A 
HETATM    4  C5  UNL     1       8.937  22.202  20.379  1.00  0.00    -0.008 A 
HETATM    5  C6  UNL     1       7.882  21.574  19.727  1.00  0.00     0.030 A 
HETATM    6  C7  UNL     1       8.055  20.213  19.856  1.00  0.00     0.089 A 
HETATM    7  N1  UNL     1       9.177  20.043  20.562  1.00  0.00    -0.365 N 
ATOM      8  H1  UNL     1       9.558  19.131  20.813  1.00  0.00     0.165 HD
HETATM    9  C8  UNL     1       9.745  21.214  20.900  1.00  0.00     0.043 A 
HETATM   10  C9  UNL     1      10.896  21.520  21.618  1.00  0.00     0.048 A 
ENDROOT
BRANCH   1  11
HETATM   11  C1  UNL     1      12.479  23.166  22.584  1.00  0.00     0.209 C 
HETATM   12  O1  UNL     1      12.438  23.204  23.826  1.00  0.00    -0.644 OA
HETATM   13  O2  UNL     1      13.654  23.445  21.930  1.00  0.00    -0.644 OA
ENDBRANCH   1  11
TORSDOF 1
ENDMDL
