MODEL 9
REMARK VINA RESULT: -4.256259560      4.112      5.332
REMARK  1 active torsions:
REMARK  status: ('A' for Active; 'I' for Inactive)
REMARK    1  A    between atoms: C1_2  and  C2_4 
ROOT
HETATM    1  C2  UNL     1      14.710  23.264  21.541  1.00  0.00     0.043 A 
HETATM    2  C3  UNL     1      13.827  22.186  21.417  1.00  0.00     0.019 A 
HETATM    3  C4  UNL     1      12.602  22.164  22.048  1.00  0.00     0.015 A 
HETATM    4  C5  UNL     1      12.188  23.208  22.832  1.00  0.00    -0.008 A 
HETATM    5  C6  UNL     1      11.050  23.486  23.580  1.00  0.00     0.030 A 
HETATM    6  C7  UNL     1      11.220  24.723  24.164  1.00  0.00     0.089 A 
HETATM    7  N1  UNL     1      12.420  25.160  23.773  1.00  0.00    -0.365 N 
ATOM      8  H1  UNL     1      12.819  26.056  24.053  1.00  0.00     0.165 HD
HETATM    9  C8  UNL     1      13.042  24.280  22.968  1.00  0.00     0.043 A 
HETATM   10  C9  UNL     1      14.280  24.309  22.334  1.00  0.00     0.048 A 
ENDROOT
BRANCH   1  11
HETATM   11  C1  UNL     1      15.994  23.274  20.873  1.00  0.00     0.209 C 
HETATM   12  O1  UNL     1      16.231  24.139  20.011  1.00  0.00    -0.644 OA
HETATM   13  O2  UNL     1      16.952  22.339  21.183  1.00  0.00    -0.644 OA
ENDBRANCH   1  11
TORSDOF 1
ENDMDL
