MODEL 6
REMARK VINA RESULT: -4.599126519      3.370      5.463
REMARK  3 active torsions:
REMARK  status: ('A' for Active; 'I' for Inactive)
REMARK    1  A    between atoms: C1_2  and  C2_4 
REMARK    2  A    between atoms: C2_4  and  C3_5 
REMARK    3  A    between atoms: C3_5  and  C4_6 
ROOT
HETATM    1  C4  UNL     1      -9.732  19.801 -22.282  1.00  0.00    -0.030 A 
HETATM    2  C5  UNL     1      -9.149  18.561 -22.117  1.00  0.00     0.096 A 
HETATM    3  N1  UNL     1      -8.510  18.618 -20.939  1.00  0.00    -0.365 N 
ATOM      4  H1  UNL     1      -7.978  17.848 -20.534  1.00  0.00     0.165 HD
HETATM    5  C6  UNL     1      -8.661  19.826 -20.359  1.00  0.00     0.042 A 
HETATM    6  C7  UNL     1      -8.232  20.408 -19.187  1.00  0.00     0.030 A 
HETATM    7  C8  UNL     1      -8.550  21.703 -18.843  1.00  0.00     0.002 A 
HETATM    8  C9  UNL     1      -9.328  22.473 -19.686  1.00  0.00     0.001 A 
HETATM    9  C10 UNL     1      -9.770  21.909 -20.869  1.00  0.00     0.014 A 
HETATM   10  C11 UNL     1      -9.437  20.590 -21.204  1.00  0.00    -0.002 A 
ENDROOT
BRANCH   1  11
HETATM   11  C3  UNL     1     -10.558  20.222 -23.448  1.00  0.00     0.051 C 
BRANCH  11  12
HETATM   12  C2  UNL     1     -11.830  19.423 -23.537  1.00  0.00     0.118 C 
BRANCH  12  13
HETATM   13  C1  UNL     1     -12.958  20.106 -22.849  1.00  0.00     0.172 C 
HETATM   14  O1  UNL     1     -12.896  21.338 -22.621  1.00  0.00    -0.648 OA
HETATM   15  O2  UNL     1     -14.094  19.427 -22.439  1.00  0.00    -0.648 OA
ENDBRANCH  12  13
ENDBRANCH  11  12
ENDBRANCH   1  11
TORSDOF 3
ENDMDL
