MODEL 7
REMARK VINA RESULT: -4.586912447      1.646      2.372
REMARK  3 active torsions:
REMARK  status: ('A' for Active; 'I' for Inactive)
REMARK    1  A    between atoms: C1_2  and  C2_4 
REMARK    2  A    between atoms: C2_4  and  C3_5 
REMARK    3  A    between atoms: C3_5  and  C4_6 
ROOT
HETATM    1  C4  UNL     1     -12.047  20.824 -23.335  1.00  0.00    -0.030 A 
HETATM    2  C5  UNL     1     -12.114  19.465 -23.106  1.00  0.00     0.096 A 
HETATM    3  N1  UNL     1     -13.344  19.243 -22.620  1.00  0.00    -0.365 N 
ATOM      4  H1  UNL     1     -13.700  18.325 -22.353  1.00  0.00     0.165 HD
HETATM    5  C6  UNL     1     -14.050  20.388 -22.532  1.00  0.00     0.042 A 
HETATM    6  C7  UNL     1     -15.317  20.726 -22.115  1.00  0.00     0.030 A 
HETATM    7  C8  UNL     1     -15.784  22.021 -22.135  1.00  0.00     0.002 A 
HETATM    8  C9  UNL     1     -14.973  23.044 -22.587  1.00  0.00     0.001 A 
HETATM    9  C10 UNL     1     -13.695  22.728 -23.012  1.00  0.00     0.014 A 
HETATM   10  C11 UNL     1     -13.235  21.405 -22.983  1.00  0.00    -0.002 A 
ENDROOT
BRANCH   1  11
HETATM   11  C3  UNL     1     -10.869  21.554 -23.882  1.00  0.00     0.051 C 
BRANCH  11  12
HETATM   12  C2  UNL     1      -9.851  20.605 -24.454  1.00  0.00     0.118 C 
BRANCH  12  13
HETATM   13  C1  UNL     1      -8.608  20.575 -23.640  1.00  0.00     0.172 C 
HETATM   14  O1  UNL     1      -8.430  21.430 -22.739  1.00  0.00    -0.648 OA
HETATM   15  O2  UNL     1      -7.617  19.626 -23.837  1.00  0.00    -0.648 OA
ENDBRANCH  12  13
ENDBRANCH  11  12
ENDBRANCH   1  11
TORSDOF 3
ENDMDL
