MODEL 8
REMARK VINA RESULT: -4.581490042      4.333      6.210
REMARK  3 active torsions:
REMARK  status: ('A' for Active; 'I' for Inactive)
REMARK    1  A    between atoms: C1_2  and  C2_4 
REMARK    2  A    between atoms: C2_4  and  C3_5 
REMARK    3  A    between atoms: C3_5  and  C4_6 
ROOT
HETATM    1  C4  UNL     1     -14.587  21.337 -22.550  1.00  0.00    -0.030 A 
HETATM    2  C5  UNL     1     -14.972  20.136 -21.990  1.00  0.00     0.096 A 
HETATM    3  N1  UNL     1     -13.995  19.269 -22.295  1.00  0.00    -0.365 N 
ATOM      4  H1  UNL     1     -13.989  18.287 -22.018  1.00  0.00     0.165 HD
HETATM    5  C6  UNL     1     -13.021  19.862 -23.013  1.00  0.00     0.042 A 
HETATM    6  C7  UNL     1     -11.830  19.453 -23.570  1.00  0.00     0.030 A 
HETATM    7  C8  UNL     1     -11.010  20.306 -24.276  1.00  0.00     0.002 A 
HETATM    8  C9  UNL     1     -11.370  21.628 -24.450  1.00  0.00     0.001 A 
HETATM    9  C10 UNL     1     -12.563  22.061 -23.899  1.00  0.00     0.014 A 
HETATM   10  C11 UNL     1     -13.385  21.181 -23.185  1.00  0.00    -0.002 A 
ENDROOT
BRANCH   1  11
HETATM   11  C3  UNL     1     -15.354  22.613 -22.475  1.00  0.00     0.051 C 
BRANCH  11  12
HETATM   12  C2  UNL     1     -16.266  22.776 -23.660  1.00  0.00     0.118 C 
BRANCH  12  13
HETATM   13  C1  UNL     1     -17.663  22.383 -23.337  1.00  0.00     0.172 C 
HETATM   14  O1  UNL     1     -18.061  21.222 -23.594  1.00  0.00    -0.648 OA
HETATM   15  O2  UNL     1     -18.563  23.262 -22.754  1.00  0.00    -0.648 OA
ENDBRANCH  12  13
ENDBRANCH  11  12
ENDBRANCH   1  11
TORSDOF 3
ENDMDL
