MODEL 5
REMARK VINA RESULT: -4.628509416      3.390      5.461
REMARK  3 active torsions:
REMARK  status: ('A' for Active; 'I' for Inactive)
REMARK    1  A    between atoms: C1_2  and  C2_4 
REMARK    2  A    between atoms: C2_4  and  C3_5 
REMARK    3  A    between atoms: C3_5  and  C4_6 
ROOT
HETATM    1  C4  UNL     1     -12.327  20.557 -23.596  1.00  0.00    -0.030 A 
HETATM    2  C5  UNL     1     -12.310  21.363 -24.717  1.00  0.00     0.096 A 
HETATM    3  N1  UNL     1     -11.022  21.442 -25.083  1.00  0.00    -0.365 N 
ATOM      4  H1  UNL     1     -10.684  21.972 -25.887  1.00  0.00     0.165 HD
HETATM    5  C6  UNL     1     -10.233  20.731 -24.254  1.00  0.00     0.042 A 
HETATM    6  C7  UNL     1      -8.882  20.476 -24.169  1.00  0.00     0.030 A 
HETATM    7  C8  UNL     1      -8.338  19.686 -23.180  1.00  0.00     0.002 A 
HETATM    8  C9  UNL     1      -9.153  19.113 -22.223  1.00  0.00     0.001 A 
HETATM    9  C10 UNL     1     -10.513  19.355 -22.289  1.00  0.00     0.014 A 
HETATM   10  C11 UNL     1     -11.050  20.162 -23.300  1.00  0.00    -0.002 A 
ENDROOT
BRANCH   1  11
HETATM   11  C3  UNL     1     -13.541  20.170 -22.825  1.00  0.00     0.051 C 
BRANCH  11  12
HETATM   12  C2  UNL     1     -14.395  21.367 -22.506  1.00  0.00     0.118 C 
BRANCH  12  13
HETATM   13  C1  UNL     1     -15.685  20.972 -21.881  1.00  0.00     0.172 C 
HETATM   14  O1  UNL     1     -16.144  19.821 -22.070  1.00  0.00    -0.648 OA
HETATM   15  O2  UNL     1     -16.416  21.839 -21.083  1.00  0.00    -0.648 OA
ENDBRANCH  12  13
ENDBRANCH  11  12
ENDBRANCH   1  11
TORSDOF 3
ENDMDL
