MODEL 12
REMARK VINA RESULT: -11.937474593      4.318      9.517
REMARK  7 active torsions:
REMARK  status: ('A' for Active; 'I' for Inactive)
REMARK       I    between atoms: C2_2  and  N1_4 
REMARK    1  A    between atoms: N1_4  and  C3_6 
REMARK    2  A    between atoms: C7_10  and  C8_11 
REMARK    3  A    between atoms: C12_17  and  C13_18 
REMARK    4  A    between atoms: N5_26  and  C18_27 
REMARK    5  A    between atoms: C21_30  and  C22_31 
REMARK    6  A    between atoms: C22_31  and  N6_32 
REMARK       I    between atoms: N6_32  and  C23_34 
REMARK    7  A    between atoms: C23_34  and  C24_36 
ROOT
HETATM    1  C8  UNL     1      41.364  45.575  22.802  1.00  0.00     0.044 A 
HETATM    2  C9  UNL     1      42.037  45.752  23.980  1.00  0.00     0.033 A 
HETATM    3  C10 UNL     1      41.576  45.263  25.185  1.00  0.00     0.036 A 
HETATM    4  C11 UNL     1      40.369  44.563  25.182  1.00  0.00     0.079 A 
HETATM    5  N2  UNL     1      39.642  43.972  26.120  1.00  0.00    -0.338 N 
ATOM      6  H2  UNL     1      39.876  43.927  27.112  1.00  0.00     0.167 HD
HETATM    7  C12 UNL     1      38.506  43.423  25.528  1.00  0.00     0.128 A 
HETATM    8  N5  UNL     1      38.532  43.669  24.240  1.00  0.00    -0.281 N 
HETATM    9  C32 UNL     1      39.695  44.387  24.002  1.00  0.00     0.141 A 
HETATM   10  N7  UNL     1      40.205  44.889  22.872  1.00  0.00    -0.339 N 
ATOM     11  H7  UNL     1      39.684  44.744  22.007  1.00  0.00     0.167 HD
ENDROOT
BRANCH   8  12
HETATM   12  C18 UNL     1      37.710  43.323  23.167  1.00  0.00     0.043 A 
HETATM   13  C19 UNL     1      37.421  44.243  22.145  1.00  0.00     0.031 A 
HETATM   14  C20 UNL     1      36.658  43.934  21.051  1.00  0.00     0.011 A 
HETATM   15  C21 UNL     1      36.136  42.670  20.920  1.00  0.00    -0.040 A 
HETATM   16  C30 UNL     1      36.393  41.721  21.908  1.00  0.00     0.011 A 
HETATM   17  C31 UNL     1      37.163  42.060  22.994  1.00  0.00     0.031 A 
BRANCH  15  18
HETATM   18  C22 UNL     1      35.313  42.340  19.732  1.00  0.00     0.161 C 
BRANCH  18  19
HETATM   19  N6  UNL     1      35.832  42.951  18.526  1.00  0.00    -0.353 N 
HETATM   20  C23 UNL     1      35.361  44.131  17.932  1.00  0.00     0.252 C 
HETATM   21  O2  UNL     1      34.387  44.702  18.525  1.00  0.00    -0.268 OA
ATOM     22  H6  UNL     1      36.612  42.479  18.066  1.00  0.00     0.163 HD
BRANCH  20  23
HETATM   23  C24 UNL     1      35.874  44.751  16.726  1.00  0.00     0.035 A 
HETATM   24  C25 UNL     1      36.129  44.027  15.592  1.00  0.00     0.017 A 
HETATM   25  C26 UNL     1      36.628  44.635  14.432  1.00  0.00     0.004 A 
HETATM   26  C27 UNL     1      36.876  45.990  14.404  1.00  0.00     0.042 A 
HETATM   27  C28 UNL     1      36.616  46.713  15.549  1.00  0.00     0.117 A 
HETATM   28  F1  UNL     1      36.844  48.047  15.575  1.00  0.00    -0.206 F 
HETATM   29  C29 UNL     1      36.126  46.103  16.683  1.00  0.00     0.059 A 
ENDBRANCH  20  23
ENDBRANCH  18  19
ENDBRANCH  15  18
ENDBRANCH   8  12
BRANCH   7  30
HETATM   30  C13 UNL     1      37.545  42.652  26.303  1.00  0.00     0.050 A 
HETATM   31  C14 UNL     1      36.182  43.017  26.217  1.00  0.00     0.020 A 
HETATM   32  C15 UNL     1      35.194  42.340  26.850  1.00  0.00     0.018 A 
HETATM   33  C16 UNL     1      35.543  41.247  27.611  1.00  0.00     0.089 A 
HETATM   34  N3  UNL     1      36.815  40.866  27.721  1.00  0.00    -0.354 N 
HETATM   35  C17 UNL     1      37.806  41.568  27.067  1.00  0.00     0.130 A 
ATOM     36  H3  UNL     1      37.056  40.053  28.289  1.00  0.00     0.166 HD
HETATM   37  N4  UNL     1      39.127  41.052  27.187  1.00  0.00    -0.082 NA
ENDBRANCH   7  30
BRANCH   1  38
HETATM   38  C7  UNL     1      41.870  46.101  21.551  1.00  0.00    -0.007 A 
HETATM   39  C6  UNL     1      43.077  46.809  21.621  1.00  0.00     0.014 A 
HETATM   40  C5  UNL     1      43.618  47.330  20.492  1.00  0.00     0.003 A 
HETATM   41  C4  UNL     1      42.977  47.165  19.257  1.00  0.00     0.029 A 
HETATM   42  C3  UNL     1      41.818  46.490  19.160  1.00  0.00     0.035 A 
HETATM   43  C33 UNL     1      41.273  45.959  20.331  1.00  0.00     0.043 A 
BRANCH  42  44
HETATM   44  N1  UNL     1      41.121  46.274  17.965  1.00  0.00    -0.327 N 
HETATM   45  C2  UNL     1      40.888  47.215  16.933  1.00  0.00     0.218 C 
HETATM   46  C1  UNL     1      40.120  46.856  15.696  1.00  0.00     0.117 C 
HETATM   47  O1  UNL     1      41.312  48.369  17.017  1.00  0.00    -0.274 OA
ATOM     48  H1  UNL     1      40.739  45.338  17.822  1.00  0.00     0.169 HD
ENDBRANCH  42  44
ENDBRANCH   1  38
TORSDOF 7
ENDMDL
