MODEL 18
REMARK VINA RESULT: -11.606603363      1.449      1.876
REMARK  7 active torsions:
REMARK  status: ('A' for Active; 'I' for Inactive)
REMARK       I    between atoms: C2_2  and  N1_4 
REMARK    1  A    between atoms: N1_4  and  C3_6 
REMARK    2  A    between atoms: C7_10  and  C8_11 
REMARK    3  A    between atoms: C12_17  and  C13_18 
REMARK    4  A    between atoms: N5_26  and  C18_27 
REMARK    5  A    between atoms: C21_30  and  C22_31 
REMARK    6  A    between atoms: C22_31  and  N6_32 
REMARK       I    between atoms: N6_32  and  C23_34 
REMARK    7  A    between atoms: C23_34  and  C24_36 
ROOT
HETATM    1  C8  UNL     1      38.413  44.171  21.144  1.00  0.00     0.044 A 
HETATM    2  C9  UNL     1      39.670  44.687  21.306  1.00  0.00     0.033 A 
HETATM    3  C10 UNL     1      40.308  45.421  20.327  1.00  0.00     0.036 A 
HETATM    4  C11 UNL     1      39.625  45.635  19.129  1.00  0.00     0.079 A 
HETATM    5  N2  UNL     1      39.916  46.271  18.002  1.00  0.00    -0.338 N 
ATOM      6  H2  UNL     1      40.787  46.764  17.806  1.00  0.00     0.167 HD
HETATM    7  C12 UNL     1      38.836  46.152  17.128  1.00  0.00     0.128 A 
HETATM    8  N5  UNL     1      37.890  45.455  17.710  1.00  0.00    -0.281 N 
HETATM    9  C32 UNL     1      38.366  45.119  18.968  1.00  0.00     0.141 A 
HETATM   10  N7  UNL     1      37.812  44.417  19.963  1.00  0.00    -0.339 N 
ATOM     11  H7  UNL     1      36.874  44.043  19.818  1.00  0.00     0.167 HD
ENDROOT
BRANCH   8  12
HETATM   12  C18 UNL     1      36.596  45.078  17.345  1.00  0.00     0.043 A 
HETATM   13  C19 UNL     1      35.490  45.896  17.635  1.00  0.00     0.031 A 
HETATM   14  C20 UNL     1      34.211  45.589  17.257  1.00  0.00     0.011 A 
HETATM   15  C21 UNL     1      33.966  44.430  16.559  1.00  0.00    -0.040 A 
HETATM   16  C30 UNL     1      35.030  43.585  16.249  1.00  0.00     0.011 A 
HETATM   17  C31 UNL     1      36.303  43.920  16.641  1.00  0.00     0.031 A 
BRANCH  15  18
HETATM   18  C22 UNL     1      32.579  44.105  16.150  1.00  0.00     0.161 C 
BRANCH  18  19
HETATM   19  N6  UNL     1      32.216  42.745  16.492  1.00  0.00    -0.353 N 
HETATM   20  C23 UNL     1      31.508  42.346  17.635  1.00  0.00     0.252 C 
HETATM   21  O2  UNL     1      31.160  43.280  18.430  1.00  0.00    -0.268 OA
ATOM     22  H6  UNL     1      32.502  42.012  15.843  1.00  0.00     0.163 HD
BRANCH  20  23
HETATM   23  C24 UNL     1      31.139  40.988  17.987  1.00  0.00     0.035 A 
HETATM   24  C25 UNL     1      32.070  40.060  18.366  1.00  0.00     0.017 A 
HETATM   25  C26 UNL     1      31.704  38.749  18.701  1.00  0.00     0.004 A 
HETATM   26  C27 UNL     1      30.383  38.360  18.657  1.00  0.00     0.042 A 
HETATM   27  C28 UNL     1      29.450  39.299  18.273  1.00  0.00     0.117 A 
HETATM   28  F1  UNL     1      28.139  38.968  18.212  1.00  0.00    -0.206 F 
HETATM   29  C29 UNL     1      29.824  40.585  17.946  1.00  0.00     0.059 A 
ENDBRANCH  20  23
ENDBRANCH  18  19
ENDBRANCH  15  18
ENDBRANCH   8  12
BRANCH   7  30
HETATM   30  C13 UNL     1      38.838  46.804  15.827  1.00  0.00     0.050 A 
HETATM   31  C14 UNL     1      37.834  46.439  14.903  1.00  0.00     0.020 A 
HETATM   32  C15 UNL     1      37.705  47.016  13.685  1.00  0.00     0.018 A 
HETATM   33  C16 UNL     1      38.599  48.004  13.339  1.00  0.00     0.089 A 
HETATM   34  N3  UNL     1      39.562  48.382  14.178  1.00  0.00    -0.354 N 
HETATM   35  C17 UNL     1      39.676  47.783  15.415  1.00  0.00     0.130 A 
ATOM     36  H3  UNL     1      40.216  49.116  13.906  1.00  0.00     0.166 HD
HETATM   37  N4  UNL     1      40.691  48.292  16.272  1.00  0.00    -0.082 NA
ENDBRANCH   7  30
BRANCH   1  38
HETATM   38  C7  UNL     1      37.768  43.401  22.188  1.00  0.00    -0.007 A 
HETATM   39  C6  UNL     1      37.123  42.226  21.781  1.00  0.00     0.014 A 
HETATM   40  C5  UNL     1      36.498  41.448  22.698  1.00  0.00     0.003 A 
HETATM   41  C4  UNL     1      36.494  41.812  24.052  1.00  0.00     0.029 A 
HETATM   42  C3  UNL     1      37.106  42.935  24.471  1.00  0.00     0.035 A 
HETATM   43  C33 UNL     1      37.745  43.726  23.514  1.00  0.00     0.043 A 
BRANCH  42  44
HETATM   44  N1  UNL     1      37.154  43.364  25.804  1.00  0.00    -0.327 N 
HETATM   45  C2  UNL     1      37.131  44.701  26.269  1.00  0.00     0.218 C 
HETATM   46  C1  UNL     1      37.191  45.028  27.731  1.00  0.00     0.117 C 
HETATM   47  O1  UNL     1      37.062  45.647  25.483  1.00  0.00    -0.274 OA
ATOM     48  H1  UNL     1      37.212  42.635  26.515  1.00  0.00     0.169 HD
ENDBRANCH  42  44
ENDBRANCH   1  38
TORSDOF 7
ENDMDL
