MODEL 3
REMARK VINA RESULT: -14.008696098      1.086      1.169
REMARK  7 active torsions:
REMARK  status: ('A' for Active; 'I' for Inactive)
REMARK       I    between atoms: C2_2  and  N1_4 
REMARK    1  A    between atoms: N1_4  and  C3_6 
REMARK    2  A    between atoms: C7_10  and  C8_11 
REMARK    3  A    between atoms: C12_17  and  C13_18 
REMARK    4  A    between atoms: N5_26  and  C18_27 
REMARK    5  A    between atoms: C21_30  and  C22_31 
REMARK    6  A    between atoms: C22_31  and  N6_32 
REMARK       I    between atoms: N6_32  and  C23_34 
REMARK    7  A    between atoms: C23_34  and  C24_36 
ROOT
HETATM    1  C8  UNL     1      38.029  44.255  20.422  1.00  0.00     0.044 A 
HETATM    2  C9  UNL     1      39.262  44.830  20.275  1.00  0.00     0.033 A 
HETATM    3  C10 UNL     1      39.664  45.447  19.108  1.00  0.00     0.036 A 
HETATM    4  C11 UNL     1      38.760  45.476  18.045  1.00  0.00     0.079 A 
HETATM    5  N2  UNL     1      38.801  45.964  16.813  1.00  0.00    -0.338 N 
ATOM      6  H2  UNL     1      39.590  46.456  16.394  1.00  0.00     0.167 HD
HETATM    7  C12 UNL     1      37.586  45.693  16.184  1.00  0.00     0.128 A 
HETATM    8  N5  UNL     1      36.806  45.049  17.018  1.00  0.00    -0.281 N 
HETATM    9  C32 UNL     1      37.526  44.901  18.194  1.00  0.00     0.141 A 
HETATM   10  N7  UNL     1      37.207  44.320  19.356  1.00  0.00    -0.339 N 
ATOM     11  H7  UNL     1      36.282  43.900  19.441  1.00  0.00     0.167 HD
ENDROOT
BRANCH   8  12
HETATM   12  C18 UNL     1      35.491  44.584  16.957  1.00  0.00     0.043 A 
HETATM   13  C19 UNL     1      35.199  43.285  16.506  1.00  0.00     0.031 A 
HETATM   14  C20 UNL     1      33.930  42.771  16.473  1.00  0.00     0.011 A 
HETATM   15  C21 UNL     1      32.872  43.540  16.895  1.00  0.00    -0.040 A 
HETATM   16  C30 UNL     1      33.111  44.834  17.351  1.00  0.00     0.011 A 
HETATM   17  C31 UNL     1      34.395  45.324  17.373  1.00  0.00     0.031 A 
BRANCH  15  18
HETATM   18  C22 UNL     1      31.502  42.975  16.860  1.00  0.00     0.161 C 
BRANCH  18  19
HETATM   19  N6  UNL     1      31.468  41.602  17.317  1.00  0.00    -0.353 N 
HETATM   20  C23 UNL     1      31.768  41.160  18.614  1.00  0.00     0.252 C 
HETATM   21  O2  UNL     1      32.097  42.065  19.450  1.00  0.00    -0.268 OA
ATOM     22  H6  UNL     1      31.201  40.892  16.635  1.00  0.00     0.163 HD
BRANCH  20  23
HETATM   23  C24 UNL     1      31.736  39.788  19.083  1.00  0.00     0.035 A 
HETATM   24  C25 UNL     1      32.103  38.740  18.282  1.00  0.00     0.017 A 
HETATM   25  C26 UNL     1      32.066  37.417  18.744  1.00  0.00     0.004 A 
HETATM   26  C27 UNL     1      31.655  37.137  20.029  1.00  0.00     0.042 A 
HETATM   27  C28 UNL     1      31.287  38.196  20.830  1.00  0.00     0.117 A 
HETATM   28  F1  UNL     1      30.875  37.975  22.100  1.00  0.00    -0.206 F 
HETATM   29  C29 UNL     1      31.328  39.493  20.364  1.00  0.00     0.059 A 
ENDBRANCH  20  23
ENDBRANCH  18  19
ENDBRANCH  15  18
ENDBRANCH   8  12
BRANCH   7  30
HETATM   30  C13 UNL     1      37.310  46.165  14.835  1.00  0.00     0.050 A 
HETATM   31  C14 UNL     1      36.982  45.203  13.853  1.00  0.00     0.020 A 
HETATM   32  C15 UNL     1      36.654  45.529  12.580  1.00  0.00     0.018 A 
HETATM   33  C16 UNL     1      36.643  46.863  12.235  1.00  0.00     0.089 A 
HETATM   34  N3  UNL     1      36.945  47.804  13.128  1.00  0.00    -0.354 N 
HETATM   35  C17 UNL     1      37.275  47.451  14.420  1.00  0.00     0.130 A 
ATOM     36  H3  UNL     1      36.931  48.787  12.856  1.00  0.00     0.166 HD
HETATM   37  N4  UNL     1      37.519  48.523  15.322  1.00  0.00    -0.082 NA
ENDBRANCH   7  30
BRANCH   1  38
HETATM   38  C7  UNL     1      37.634  43.611  21.658  1.00  0.00    -0.007 A 
HETATM   39  C6  UNL     1      37.027  42.354  21.534  1.00  0.00     0.014 A 
HETATM   40  C5  UNL     1      36.631  41.685  22.644  1.00  0.00     0.003 A 
HETATM   41  C4  UNL     1      36.825  42.242  23.916  1.00  0.00     0.029 A 
HETATM   42  C3  UNL     1      37.405  43.447  24.065  1.00  0.00     0.035 A 
HETATM   43  C33 UNL     1      37.808  44.125  22.912  1.00  0.00     0.043 A 
BRANCH  42  44
HETATM   44  N1  UNL     1      37.642  44.069  25.297  1.00  0.00    -0.327 N 
HETATM   45  C2  UNL     1      36.811  44.031  26.443  1.00  0.00     0.218 C 
HETATM   46  C1  UNL     1      37.180  44.746  27.708  1.00  0.00     0.117 C 
HETATM   47  O1  UNL     1      35.749  43.408  26.438  1.00  0.00    -0.274 OA
ATOM     48  H1  UNL     1      38.506  44.606  25.378  1.00  0.00     0.169 HD
ENDBRANCH  42  44
ENDBRANCH   1  38
TORSDOF 7
ENDMDL
