MODEL 15
REMARK VINA RESULT: -11.765587358      3.624      8.628
REMARK  7 active torsions:
REMARK  status: ('A' for Active; 'I' for Inactive)
REMARK       I    between atoms: C2_2  and  N1_4 
REMARK    1  A    between atoms: N1_4  and  C3_6 
REMARK    2  A    between atoms: C7_10  and  C8_11 
REMARK    3  A    between atoms: C12_17  and  C13_18 
REMARK    4  A    between atoms: N5_26  and  C18_27 
REMARK    5  A    between atoms: C21_30  and  C22_31 
REMARK    6  A    between atoms: C22_31  and  N6_32 
REMARK       I    between atoms: N6_32  and  C23_34 
REMARK    7  A    between atoms: C23_34  and  C24_36 
ROOT
HETATM    1  C8  UNL     1      41.347  46.905  18.708  1.00  0.00     0.044 A 
HETATM    2  C9  UNL     1      42.564  47.347  19.149  1.00  0.00     0.033 A 
HETATM    3  C10 UNL     1      43.066  47.032  20.395  1.00  0.00     0.036 A 
HETATM    4  C11 UNL     1      42.285  46.227  21.225  1.00  0.00     0.079 A 
HETATM    5  N2  UNL     1      42.439  45.739  22.448  1.00  0.00    -0.338 N 
ATOM      6  H2  UNL     1      43.248  45.889  23.050  1.00  0.00     0.167 HD
HETATM    7  C12 UNL     1      41.311  44.987  22.776  1.00  0.00     0.128 A 
HETATM    8  N5  UNL     1      40.474  45.009  21.767  1.00  0.00    -0.281 N 
HETATM    9  C32 UNL     1      41.066  45.784  20.781  1.00  0.00     0.141 A 
HETATM   10  N7  UNL     1      40.645  46.132  19.560  1.00  0.00    -0.339 N 
ATOM     11  H7  UNL     1      39.734  45.789  19.255  1.00  0.00     0.167 HD
ENDROOT
BRANCH   8  12
HETATM   12  C18 UNL     1      39.242  44.403  21.513  1.00  0.00     0.043 A 
HETATM   13  C19 UNL     1      38.580  44.588  20.286  1.00  0.00     0.031 A 
HETATM   14  C20 UNL     1      37.394  43.978  19.976  1.00  0.00     0.011 A 
HETATM   15  C21 UNL     1      36.798  43.141  20.889  1.00  0.00    -0.040 A 
HETATM   16  C30 UNL     1      37.416  42.926  22.120  1.00  0.00     0.011 A 
HETATM   17  C31 UNL     1      38.606  43.551  22.403  1.00  0.00     0.031 A 
BRANCH  15  18
HETATM   18  C22 UNL     1      35.516  42.482  20.546  1.00  0.00     0.161 C 
BRANCH  18  19
HETATM   19  N6  UNL     1      34.829  43.159  19.465  1.00  0.00    -0.353 N 
HETATM   20  C23 UNL     1      33.601  42.779  18.905  1.00  0.00     0.252 C 
HETATM   21  O2  UNL     1      33.056  41.741  19.408  1.00  0.00    -0.268 OA
ATOM     22  H6  UNL     1      35.280  43.988  19.077  1.00  0.00     0.163 HD
BRANCH  20  23
HETATM   23  C24 UNL     1      32.905  43.450  17.825  1.00  0.00     0.035 A 
HETATM   24  C25 UNL     1      31.549  43.352  17.666  1.00  0.00     0.017 A 
HETATM   25  C26 UNL     1      30.885  44.002  16.617  1.00  0.00     0.004 A 
HETATM   26  C27 UNL     1      31.588  44.765  15.710  1.00  0.00     0.042 A 
HETATM   27  C28 UNL     1      32.954  44.860  15.876  1.00  0.00     0.117 A 
HETATM   28  F1  UNL     1      33.692  45.595  15.012  1.00  0.00    -0.206 F 
HETATM   29  C29 UNL     1      33.594  44.215  16.912  1.00  0.00     0.059 A 
ENDBRANCH  20  23
ENDBRANCH  18  19
ENDBRANCH  15  18
ENDBRANCH   8  12
BRANCH   7  30
HETATM   30  C13 UNL     1      41.218  44.272  24.040  1.00  0.00     0.050 A 
HETATM   31  C14 UNL     1      40.276  44.727  24.990  1.00  0.00     0.020 A 
HETATM   32  C15 UNL     1      40.065  44.109  26.176  1.00  0.00     0.018 A 
HETATM   33  C16 UNL     1      40.807  42.986  26.462  1.00  0.00     0.089 A 
HETATM   34  N3  UNL     1      41.706  42.519  25.597  1.00  0.00    -0.354 N 
HETATM   35  C17 UNL     1      41.906  43.162  24.393  1.00  0.00     0.130 A 
ATOM     36  H3  UNL     1      42.247  41.685  25.824  1.00  0.00     0.166 HD
HETATM   37  N4  UNL     1      42.837  42.558  23.503  1.00  0.00    -0.082 NA
ENDBRANCH   7  30
BRANCH   1  38
HETATM   38  C7  UNL     1      40.842  47.254  17.396  1.00  0.00    -0.007 A 
HETATM   39  C6  UNL     1      41.225  48.507  16.898  1.00  0.00     0.014 A 
HETATM   40  C5  UNL     1      40.795  48.905  15.676  1.00  0.00     0.003 A 
HETATM   41  C4  UNL     1      39.972  48.072  14.906  1.00  0.00     0.029 A 
HETATM   42  C3  UNL     1      39.589  46.864  15.358  1.00  0.00     0.035 A 
HETATM   43  C33 UNL     1      40.039  46.467  16.619  1.00  0.00     0.043 A 
BRANCH  42  44
HETATM   44  N1  UNL     1      38.777  45.970  14.649  1.00  0.00    -0.327 N 
HETATM   45  C2  UNL     1      37.361  45.928  14.643  1.00  0.00     0.218 C 
HETATM   46  C1  UNL     1      36.607  44.914  13.838  1.00  0.00     0.117 C 
HETATM   47  O1  UNL     1      36.698  46.728  15.305  1.00  0.00    -0.274 OA
ATOM     48  H1  UNL     1      39.256  45.276  14.076  1.00  0.00     0.169 HD
ENDBRANCH  42  44
ENDBRANCH   1  38
TORSDOF 7
ENDMDL
