MODEL 2
REMARK VINA RESULT: -14.226083500      0.722      1.013
REMARK  7 active torsions:
REMARK  status: ('A' for Active; 'I' for Inactive)
REMARK       I    between atoms: C2_2  and  N1_4 
REMARK    1  A    between atoms: N1_4  and  C3_6 
REMARK    2  A    between atoms: C7_10  and  C8_11 
REMARK    3  A    between atoms: C12_17  and  C13_18 
REMARK    4  A    between atoms: N5_26  and  C18_27 
REMARK    5  A    between atoms: C21_30  and  C22_31 
REMARK    6  A    between atoms: C22_31  and  N6_32 
REMARK       I    between atoms: N6_32  and  C23_34 
REMARK    7  A    between atoms: C23_34  and  C24_36 
ROOT
HETATM    1  C8  UNL     1      38.040  44.270  20.394  1.00  0.00     0.044 A 
HETATM    2  C9  UNL     1      39.276  44.840  20.262  1.00  0.00     0.033 A 
HETATM    3  C10 UNL     1      39.690  45.467  19.104  1.00  0.00     0.036 A 
HETATM    4  C11 UNL     1      38.794  45.510  18.034  1.00  0.00     0.079 A 
HETATM    5  N2  UNL     1      38.847  46.009  16.807  1.00  0.00    -0.338 N 
ATOM      6  H2  UNL     1      39.641  46.502  16.400  1.00  0.00     0.167 HD
HETATM    7  C12 UNL     1      37.636  45.750  16.166  1.00  0.00     0.128 A 
HETATM    8  N5  UNL     1      36.846  45.101  16.988  1.00  0.00    -0.281 N 
HETATM    9  C32 UNL     1      37.556  44.938  18.168  1.00  0.00     0.141 A 
HETATM   10  N7  UNL     1      37.226  44.348  19.322  1.00  0.00    -0.339 N 
ATOM     11  H7  UNL     1      36.298  43.930  19.396  1.00  0.00     0.167 HD
ENDROOT
BRANCH   8  12
HETATM   12  C18 UNL     1      35.530  44.641  16.912  1.00  0.00     0.043 A 
HETATM   13  C19 UNL     1      35.241  43.319  16.535  1.00  0.00     0.031 A 
HETATM   14  C20 UNL     1      33.970  42.812  16.492  1.00  0.00     0.011 A 
HETATM   15  C21 UNL     1      32.906  43.613  16.829  1.00  0.00    -0.040 A 
HETATM   16  C30 UNL     1      33.140  44.933  17.209  1.00  0.00     0.011 A 
HETATM   17  C31 UNL     1      34.427  45.414  17.244  1.00  0.00     0.031 A 
BRANCH  15  18
HETATM   18  C22 UNL     1      31.532  43.057  16.783  1.00  0.00     0.161 C 
BRANCH  18  19
HETATM   19  N6  UNL     1      31.336  42.013  17.766  1.00  0.00    -0.353 N 
HETATM   20  C23 UNL     1      30.559  40.858  17.596  1.00  0.00     0.252 C 
HETATM   21  O2  UNL     1      29.983  40.736  16.464  1.00  0.00    -0.268 OA
ATOM     22  H6  UNL     1      31.805  42.128  18.665  1.00  0.00     0.163 HD
BRANCH  20  23
HETATM   23  C24 UNL     1      30.356  39.806  18.573  1.00  0.00     0.035 A 
HETATM   24  C25 UNL     1      29.258  38.990  18.540  1.00  0.00     0.017 A 
HETATM   25  C26 UNL     1      29.070  37.977  19.492  1.00  0.00     0.004 A 
HETATM   26  C27 UNL     1      29.996  37.776  20.492  1.00  0.00     0.042 A 
HETATM   27  C28 UNL     1      31.100  38.602  20.518  1.00  0.00     0.117 A 
HETATM   28  F1  UNL     1      32.039  38.448  21.480  1.00  0.00    -0.206 F 
HETATM   29  C29 UNL     1      31.273  39.594  19.577  1.00  0.00     0.059 A 
ENDBRANCH  20  23
ENDBRANCH  18  19
ENDBRANCH  15  18
ENDBRANCH   8  12
BRANCH   7  30
HETATM   30  C13 UNL     1      37.372  46.235  14.820  1.00  0.00     0.050 A 
HETATM   31  C14 UNL     1      37.035  45.286  13.829  1.00  0.00     0.020 A 
HETATM   32  C15 UNL     1      36.717  45.626  12.557  1.00  0.00     0.018 A 
HETATM   33  C16 UNL     1      36.726  46.962  12.222  1.00  0.00     0.089 A 
HETATM   34  N3  UNL     1      37.036  47.892  13.124  1.00  0.00    -0.354 N 
HETATM   35  C17 UNL     1      37.356  47.525  14.415  1.00  0.00     0.130 A 
ATOM     36  H3  UNL     1      37.037  48.878  12.859  1.00  0.00     0.166 HD
HETATM   37  N4  UNL     1      37.610  48.587  15.326  1.00  0.00    -0.082 NA
ENDBRANCH   7  30
BRANCH   1  38
HETATM   38  C7  UNL     1      37.632  43.615  21.620  1.00  0.00    -0.007 A 
HETATM   39  C6  UNL     1      37.017  42.364  21.479  1.00  0.00     0.014 A 
HETATM   40  C5  UNL     1      36.609  41.687  22.580  1.00  0.00     0.003 A 
HETATM   41  C4  UNL     1      36.800  42.229  23.858  1.00  0.00     0.029 A 
HETATM   42  C3  UNL     1      37.389  43.427  24.024  1.00  0.00     0.035 A 
HETATM   43  C33 UNL     1      37.803  44.114  22.880  1.00  0.00     0.043 A 
BRANCH  42  44
HETATM   44  N1  UNL     1      37.623  44.034  25.264  1.00  0.00    -0.327 N 
HETATM   45  C2  UNL     1      36.777  44.003  26.400  1.00  0.00     0.218 C 
HETATM   46  C1  UNL     1      37.146  44.699  27.675  1.00  0.00     0.117 C 
HETATM   47  O1  UNL     1      35.703  43.401  26.377  1.00  0.00    -0.274 OA
ATOM     48  H1  UNL     1      38.496  44.553  25.360  1.00  0.00     0.169 HD
ENDBRANCH  42  44
ENDBRANCH   1  38
TORSDOF 7
ENDMDL
