MODEL 13
REMARK VINA RESULT: -11.886771590      4.609     10.302
REMARK  7 active torsions:
REMARK  status: ('A' for Active; 'I' for Inactive)
REMARK       I    between atoms: C2_2  and  N1_4 
REMARK    1  A    between atoms: N1_4  and  C3_6 
REMARK    2  A    between atoms: C7_10  and  C8_11 
REMARK    3  A    between atoms: C12_17  and  C13_18 
REMARK    4  A    between atoms: N5_26  and  C18_27 
REMARK    5  A    between atoms: C21_30  and  C22_31 
REMARK    6  A    between atoms: C22_31  and  N6_32 
REMARK       I    between atoms: N6_32  and  C23_34 
REMARK    7  A    between atoms: C23_34  and  C24_36 
ROOT
HETATM    1  C8  UNL     1      27.730  39.009  19.473  1.00  0.00     0.044 A 
HETATM    2  C9  UNL     1      26.400  38.692  19.551  1.00  0.00     0.033 A 
HETATM    3  C10 UNL     1      25.426  39.387  18.863  1.00  0.00     0.036 A 
HETATM    4  C11 UNL     1      25.833  40.453  18.061  1.00  0.00     0.079 A 
HETATM    5  N2  UNL     1      25.197  41.319  17.284  1.00  0.00    -0.338 N 
ATOM      6  H2  UNL     1      24.190  41.348  17.128  1.00  0.00     0.167 HD
HETATM    7  C12 UNL     1      26.132  42.184  16.717  1.00  0.00     0.128 A 
HETATM    8  N5  UNL     1      27.330  41.854  17.136  1.00  0.00    -0.281 N 
HETATM    9  C32 UNL     1      27.165  40.769  17.984  1.00  0.00     0.141 A 
HETATM   10  N7  UNL     1      28.052  40.050  18.679  1.00  0.00    -0.339 N 
ATOM     11  H7  UNL     1      29.036  40.305  18.605  1.00  0.00     0.167 HD
ENDROOT
BRANCH   8  12
HETATM   12  C18 UNL     1      28.618  42.319  16.863  1.00  0.00     0.043 A 
HETATM   13  C19 UNL     1      28.825  43.527  16.175  1.00  0.00     0.031 A 
HETATM   14  C20 UNL     1      30.068  44.043  15.927  1.00  0.00     0.011 A 
HETATM   15  C21 UNL     1      31.186  43.369  16.358  1.00  0.00    -0.040 A 
HETATM   16  C30 UNL     1      31.032  42.167  17.044  1.00  0.00     0.011 A 
HETATM   17  C31 UNL     1      29.772  41.673  17.281  1.00  0.00     0.031 A 
BRANCH  15  18
HETATM   18  C22 UNL     1      32.528  43.936  16.088  1.00  0.00     0.161 C 
BRANCH  18  19
HETATM   19  N6  UNL     1      33.364  43.940  17.270  1.00  0.00    -0.353 N 
HETATM   20  C23 UNL     1      34.695  43.501  17.338  1.00  0.00     0.252 C 
HETATM   21  O2  UNL     1      35.194  43.065  16.249  1.00  0.00    -0.268 OA
ATOM     22  H6  UNL     1      32.948  44.294  18.132  1.00  0.00     0.163 HD
BRANCH  20  23
HETATM   23  C24 UNL     1      35.541  43.501  18.516  1.00  0.00     0.035 A 
HETATM   24  C25 UNL     1      35.238  42.759  19.625  1.00  0.00     0.017 A 
HETATM   25  C26 UNL     1      36.061  42.768  20.760  1.00  0.00     0.004 A 
HETATM   26  C27 UNL     1      37.207  43.533  20.786  1.00  0.00     0.042 A 
HETATM   27  C28 UNL     1      37.506  44.279  19.666  1.00  0.00     0.117 A 
HETATM   28  F1  UNL     1      38.619  45.048  19.641  1.00  0.00    -0.206 F 
HETATM   29  C29 UNL     1      36.688  44.260  18.557  1.00  0.00     0.059 A 
ENDBRANCH  20  23
ENDBRANCH  18  19
ENDBRANCH  15  18
ENDBRANCH   8  12
BRANCH   7  30
HETATM   30  C13 UNL     1      25.735  43.209  15.763  1.00  0.00     0.050 A 
HETATM   31  C14 UNL     1      25.456  42.807  14.438  1.00  0.00     0.020 A 
HETATM   32  C15 UNL     1      25.027  43.663  13.480  1.00  0.00     0.018 A 
HETATM   33  C16 UNL     1      24.859  44.987  13.823  1.00  0.00     0.089 A 
HETATM   34  N3  UNL     1      25.108  45.411  15.061  1.00  0.00    -0.354 N 
HETATM   35  C17 UNL     1      25.543  44.522  16.022  1.00  0.00     0.130 A 
ATOM     36  H3  UNL     1      24.978  46.395  15.298  1.00  0.00     0.166 HD
HETATM   37  N4  UNL     1      25.723  45.049  17.331  1.00  0.00    -0.082 NA
ENDBRANCH   7  30
BRANCH   1  38
HETATM   38  C7  UNL     1      28.732  38.265  20.207  1.00  0.00    -0.007 A 
HETATM   39  C6  UNL     1      30.061  38.667  20.021  1.00  0.00     0.014 A 
HETATM   40  C5  UNL     1      31.057  38.022  20.676  1.00  0.00     0.003 A 
HETATM   41  C4  UNL     1      30.767  36.956  21.538  1.00  0.00     0.029 A 
HETATM   42  C3  UNL     1      29.500  36.549  21.737  1.00  0.00     0.035 A 
HETATM   43  C33 UNL     1      28.484  37.223  21.055  1.00  0.00     0.043 A 
BRANCH  42  44
HETATM   44  N1  UNL     1      29.125  35.500  22.586  1.00  0.00    -0.327 N 
HETATM   45  C2  UNL     1      28.348  34.366  22.247  1.00  0.00     0.218 C 
HETATM   46  C1  UNL     1      28.013  33.309  23.256  1.00  0.00     0.117 C 
HETATM   47  O1  UNL     1      27.918  34.209  21.103  1.00  0.00    -0.274 OA
ATOM     48  H1  UNL     1      29.446  35.560  23.553  1.00  0.00     0.169 HD
ENDBRANCH  42  44
ENDBRANCH   1  38
TORSDOF 7
ENDMDL
