MODEL 1
REMARK VINA RESULT: -14.235883345      0.000      0.000
REMARK  7 active torsions:
REMARK  status: ('A' for Active; 'I' for Inactive)
REMARK       I    between atoms: C2_2  and  N1_4 
REMARK    1  A    between atoms: N1_4  and  C3_6 
REMARK    2  A    between atoms: C7_10  and  C8_11 
REMARK    3  A    between atoms: C12_17  and  C13_18 
REMARK    4  A    between atoms: N5_26  and  C18_27 
REMARK    5  A    between atoms: C21_30  and  C22_31 
REMARK    6  A    between atoms: C22_31  and  N6_32 
REMARK       I    between atoms: N6_32  and  C23_34 
REMARK    7  A    between atoms: C23_34  and  C24_36 
ROOT
HETATM    1  C8  UNL     1      38.039  44.297  20.396  1.00  0.00     0.044 A 
HETATM    2  C9  UNL     1      39.261  44.897  20.255  1.00  0.00     0.033 A 
HETATM    3  C10 UNL     1      39.653  45.528  19.092  1.00  0.00     0.036 A 
HETATM    4  C11 UNL     1      38.752  45.544  18.027  1.00  0.00     0.079 A 
HETATM    5  N2  UNL     1      38.786  46.038  16.797  1.00  0.00    -0.338 N 
ATOM      6  H2  UNL     1      39.566  46.548  16.383  1.00  0.00     0.167 HD
HETATM    7  C12 UNL     1      37.579  45.746  16.163  1.00  0.00     0.128 A 
HETATM    8  N5  UNL     1      36.809  45.083  16.992  1.00  0.00    -0.281 N 
HETATM    9  C32 UNL     1      37.529  44.943  18.169  1.00  0.00     0.141 A 
HETATM   10  N7  UNL     1      37.219  44.351  19.328  1.00  0.00    -0.339 N 
ATOM     11  H7  UNL     1      36.302  43.911  19.408  1.00  0.00     0.167 HD
ENDROOT
BRANCH   8  12
HETATM   12  C18 UNL     1      35.505  44.591  16.925  1.00  0.00     0.043 A 
HETATM   13  C19 UNL     1      35.247  43.255  16.571  1.00  0.00     0.031 A 
HETATM   14  C20 UNL     1      33.988  42.718  16.538  1.00  0.00     0.011 A 
HETATM   15  C21 UNL     1      32.905  43.500  16.861  1.00  0.00    -0.040 A 
HETATM   16  C30 UNL     1      33.108  44.831  17.218  1.00  0.00     0.011 A 
HETATM   17  C31 UNL     1      34.383  45.343  17.243  1.00  0.00     0.031 A 
BRANCH  15  18
HETATM   18  C22 UNL     1      31.545  42.911  16.825  1.00  0.00     0.161 C 
BRANCH  18  19
HETATM   19  N6  UNL     1      31.372  41.883  17.831  1.00  0.00    -0.353 N 
HETATM   20  C23 UNL     1      30.579  40.733  17.704  1.00  0.00     0.252 C 
HETATM   21  O2  UNL     1      29.965  40.600  16.594  1.00  0.00    -0.268 OA
ATOM     22  H6  UNL     1      31.872  42.007  18.711  1.00  0.00     0.163 HD
BRANCH  20  23
HETATM   23  C24 UNL     1      30.399  39.698  18.703  1.00  0.00     0.035 A 
HETATM   24  C25 UNL     1      31.401  39.343  19.565  1.00  0.00     0.017 A 
HETATM   25  C26 UNL     1      31.219  38.339  20.526  1.00  0.00     0.004 A 
HETATM   26  C27 UNL     1      30.014  37.678  20.627  1.00  0.00     0.042 A 
HETATM   27  C28 UNL     1      29.009  38.040  19.755  1.00  0.00     0.117 A 
HETATM   28  F1  UNL     1      27.807  37.422  19.811  1.00  0.00    -0.206 F 
HETATM   29  C29 UNL     1      29.202  39.030  18.815  1.00  0.00     0.059 A 
ENDBRANCH  20  23
ENDBRANCH  18  19
ENDBRANCH  15  18
ENDBRANCH   8  12
BRANCH   7  30
HETATM   30  C13 UNL     1      37.297  46.219  14.815  1.00  0.00     0.050 A 
HETATM   31  C14 UNL     1      36.963  45.258  13.835  1.00  0.00     0.020 A 
HETATM   32  C15 UNL     1      36.629  45.585  12.563  1.00  0.00     0.018 A 
HETATM   33  C16 UNL     1      36.618  46.918  12.219  1.00  0.00     0.089 A 
HETATM   34  N3  UNL     1      36.925  47.859  13.111  1.00  0.00    -0.354 N 
HETATM   35  C17 UNL     1      37.261  47.505  14.401  1.00  0.00     0.130 A 
ATOM     36  H3  UNL     1      36.912  48.843  12.840  1.00  0.00     0.166 HD
HETATM   37  N4  UNL     1      37.511  48.577  15.303  1.00  0.00    -0.082 NA
ENDBRANCH   7  30
BRANCH   1  38
HETATM   38  C7  UNL     1      37.654  43.639  21.627  1.00  0.00    -0.007 A 
HETATM   39  C6  UNL     1      37.054  42.380  21.494  1.00  0.00     0.014 A 
HETATM   40  C5  UNL     1      36.667  41.698  22.600  1.00  0.00     0.003 A 
HETATM   41  C4  UNL     1      36.864  42.245  23.876  1.00  0.00     0.029 A 
HETATM   42  C3  UNL     1      37.439  43.451  24.033  1.00  0.00     0.035 A 
HETATM   43  C33 UNL     1      37.831  44.142  22.885  1.00  0.00     0.043 A 
BRANCH  42  44
HETATM   44  N1  UNL     1      37.678  44.062  25.271  1.00  0.00    -0.327 N 
HETATM   45  C2  UNL     1      36.834  44.042  26.408  1.00  0.00     0.218 C 
HETATM   46  C1  UNL     1      37.208  44.743  27.679  1.00  0.00     0.117 C 
HETATM   47  O1  UNL     1      35.757  43.446  26.389  1.00  0.00    -0.274 OA
ATOM     48  H1  UNL     1      38.555  44.577  25.363  1.00  0.00     0.169 HD
ENDBRANCH  42  44
ENDBRANCH   1  38
TORSDOF 7
ENDMDL
