MODEL 13
REMARK VINA RESULT: -7.733177739      3.333      5.000
REMARK  5 active torsions:
REMARK  status: ('A' for Active; 'I' for Inactive)
REMARK    1  A    between atoms: N1_2  and  C3_4 
REMARK    2  A    between atoms: C3_4  and  C4_5 
REMARK    3  A    between atoms: C5_7  and  N2_8 
REMARK    4  A    between atoms: C11_21  and  O2_22 
REMARK    5  A    between atoms: C12_24  and  O3_25 
ROOT
HETATM    1  C4  UNL     1      44.433  50.113  11.342  1.00  0.00     0.183 C 
HETATM    2  O1  UNL     1      44.983  48.851  11.421  1.00  0.00    -0.354 OA
HETATM    3  C5  UNL     1      44.591  48.457  12.715  1.00  0.00     0.262 C 
HETATM    4  C11 UNL     1      44.811  49.666  13.599  1.00  0.00     0.198 C 
HETATM    5  C12 UNL     1      45.056  50.760  12.588  1.00  0.00     0.182 C 
ENDROOT
BRANCH   3   6
HETATM    6  N2  UNL     1      45.344  47.352  13.211  1.00  0.00    -0.297 N 
HETATM    7  C6  UNL     1      46.638  47.384  13.574  1.00  0.00     0.188 A 
HETATM    8  N3  UNL     1      46.982  46.148  13.986  1.00  0.00    -0.346 N 
HETATM    9  C7  UNL     1      45.947  45.323  13.899  1.00  0.00     0.119 A 
ATOM     10  H3  UNL     1      47.910  45.883  14.319  1.00  0.00     0.167 HD
HETATM   11  C8  UNL     1      45.763  43.976  14.188  1.00  0.00     0.148 A 
HETATM   12  C10 UNL     1      44.894  46.100  13.401  1.00  0.00     0.142 A 
HETATM   13  N4  UNL     1      46.863  43.227  14.693  1.00  0.00    -0.080 NA
HETATM   14  N5  UNL     1      44.563  43.455  13.977  1.00  0.00    -0.339 N 
HETATM   15  C9  UNL     1      43.532  44.177  13.499  1.00  0.00     0.183 A 
ATOM     16  H5  UNL     1      44.414  42.467  14.186  1.00  0.00     0.167 HD
HETATM   17  N6  UNL     1      43.715  45.481  13.221  1.00  0.00    -0.336 N 
ATOM     18  H6  UNL     1      42.928  46.020  12.859  1.00  0.00     0.168 HD
ENDBRANCH   3   6
BRANCH   4  19
HETATM   19  O2  UNL     1      43.679  49.965  14.342  1.00  0.00    -0.388 OA
ATOM     20  H2  UNL     1      43.902  50.400  15.157  1.00  0.00     0.210 HD
ENDBRANCH   4  19
BRANCH   1  21
HETATM   21  C3  UNL     1      44.918  50.910  10.165  1.00  0.00     0.305 C 
BRANCH  21  22
HETATM   22  N1  UNL     1      44.479  52.267  10.161  1.00  0.00     0.082 N 
HETATM   23  C1  UNL     1      45.344  53.020   9.270  1.00  0.00     0.309 C 
HETATM   24  C2  UNL     1      43.131  52.364   9.583  1.00  0.00     0.309 C 
ENDBRANCH  21  22
ENDBRANCH   1  21
BRANCH   5  25
HETATM   25  O3  UNL     1      44.460  51.951  12.908  1.00  0.00    -0.390 OA
ATOM     26  H3  UNL     1      44.943  52.697  12.573  1.00  0.00     0.210 HD
ENDBRANCH   5  25
TORSDOF 5
ENDMDL
