MODEL 7
REMARK VINA RESULT: -7.890829368      2.258      6.531
REMARK  5 active torsions:
REMARK  status: ('A' for Active; 'I' for Inactive)
REMARK    1  A    between atoms: N1_2  and  C3_4 
REMARK    2  A    between atoms: C3_4  and  C4_5 
REMARK    3  A    between atoms: C5_7  and  N2_8 
REMARK    4  A    between atoms: C11_21  and  O2_22 
REMARK    5  A    between atoms: C12_24  and  O3_25 
ROOT
HETATM    1  C4  UNL     1      45.052  50.001  13.146  1.00  0.00     0.183 C 
HETATM    2  O1  UNL     1      45.208  49.910  11.780  1.00  0.00    -0.354 OA
HETATM    3  C5  UNL     1      45.001  51.246  11.386  1.00  0.00     0.262 C 
HETATM    4  C11 UNL     1      43.819  51.736  12.195  1.00  0.00     0.198 C 
HETATM    5  C12 UNL     1      43.658  50.640  13.220  1.00  0.00     0.182 C 
ENDROOT
BRANCH   3   6
HETATM    6  N2  UNL     1      44.721  51.378   9.994  1.00  0.00    -0.297 N 
HETATM    7  C6  UNL     1      45.379  50.761   8.998  1.00  0.00     0.188 A 
HETATM    8  N3  UNL     1      44.820  51.142   7.833  1.00  0.00    -0.346 N 
HETATM    9  C7  UNL     1      43.821  51.986   8.051  1.00  0.00     0.119 A 
ATOM     10  H3  UNL     1      45.122  50.825   6.911  1.00  0.00     0.167 HD
HETATM   11  C8  UNL     1      42.934  52.662   7.221  1.00  0.00     0.148 A 
HETATM   12  C10 UNL     1      43.759  52.137   9.441  1.00  0.00     0.142 A 
HETATM   13  N4  UNL     1      43.036  52.478   5.813  1.00  0.00    -0.080 NA
HETATM   14  N5  UNL     1      42.032  53.451   7.789  1.00  0.00    -0.339 N 
HETATM   15  C9  UNL     1      41.948  53.615   9.122  1.00  0.00     0.183 A 
ATOM     16  H5  UNL     1      41.375  53.953   7.191  1.00  0.00     0.167 HD
HETATM   17  N6  UNL     1      42.809  52.958   9.922  1.00  0.00    -0.336 N 
ATOM     18  H6  UNL     1      42.738  53.088  10.931  1.00  0.00     0.168 HD
ENDBRANCH   3   6
BRANCH   4  19
HETATM   19  O2  UNL     1      44.104  52.933  12.836  1.00  0.00    -0.388 OA
ATOM     20  H2  UNL     1      43.440  53.148  13.481  1.00  0.00     0.210 HD
ENDBRANCH   4  19
BRANCH   1  21
HETATM   21  C3  UNL     1      44.945  48.670  13.832  1.00  0.00     0.305 C 
BRANCH  21  22
HETATM   22  N1  UNL     1      45.041  47.552  12.950  1.00  0.00     0.082 N 
HETATM   23  C1  UNL     1      46.151  46.724  13.388  1.00  0.00     0.309 C 
HETATM   24  C2  UNL     1      43.843  46.707  13.069  1.00  0.00     0.309 C 
ENDBRANCH  21  22
ENDBRANCH   1  21
BRANCH   5  25
HETATM   25  O3  UNL     1      43.361  51.098  14.476  1.00  0.00    -0.390 OA
ATOM     26  H3  UNL     1      42.896  50.451  14.995  1.00  0.00     0.210 HD
ENDBRANCH   5  25
TORSDOF 5
ENDMDL
