MODEL 5
REMARK VINA RESULT: -7.936688237      4.136      8.128
REMARK  5 active torsions:
REMARK  status: ('A' for Active; 'I' for Inactive)
REMARK    1  A    between atoms: N1_2  and  C3_4 
REMARK    2  A    between atoms: C3_4  and  C4_5 
REMARK    3  A    between atoms: C5_7  and  N2_8 
REMARK    4  A    between atoms: C11_21  and  O2_22 
REMARK    5  A    between atoms: C12_24  and  O3_25 
ROOT
HETATM    1  C4  UNL     1      45.923  46.494  15.239  1.00  0.00     0.183 C 
HETATM    2  O1  UNL     1      45.917  47.795  14.784  1.00  0.00    -0.354 OA
HETATM    3  C5  UNL     1      44.738  47.815  14.013  1.00  0.00     0.262 C 
HETATM    4  C11 UNL     1      44.733  46.516  13.233  1.00  0.00     0.198 C 
HETATM    5  C12 UNL     1      45.839  45.738  13.904  1.00  0.00     0.182 C 
ENDROOT
BRANCH   3   6
HETATM    6  N2  UNL     1      44.682  48.918  13.112  1.00  0.00    -0.297 N 
HETATM    7  C6  UNL     1      45.170  48.936  11.859  1.00  0.00     0.188 A 
HETATM    8  N3  UNL     1      44.923  50.153  11.336  1.00  0.00    -0.346 N 
HETATM    9  C7  UNL     1      44.291  50.918  12.215  1.00  0.00     0.119 A 
ATOM     10  H3  UNL     1      45.186  50.444  10.394  1.00  0.00     0.167 HD
HETATM   11  C8  UNL     1      43.814  52.224  12.187  1.00  0.00     0.148 A 
HETATM   12  C10 UNL     1      44.136  50.122  13.356  1.00  0.00     0.142 A 
HETATM   13  N4  UNL     1      43.995  52.994  11.004  1.00  0.00    -0.080 NA
HETATM   14  N5  UNL     1      43.212  52.687  13.274  1.00  0.00    -0.339 N 
HETATM   15  C9  UNL     1      43.050  51.946  14.385  1.00  0.00     0.183 A 
ATOM     16  H5  UNL     1      42.858  53.644  13.267  1.00  0.00     0.167 HD
HETATM   17  N6  UNL     1      43.512  50.682  14.407  1.00  0.00    -0.336 N 
ATOM     18  H6  UNL     1      43.384  50.128  15.253  1.00  0.00     0.168 HD
ENDBRANCH   3   6
BRANCH   4  19
HETATM   19  O2  UNL     1      43.532  45.840  13.383  1.00  0.00    -0.388 OA
ATOM     20  H2  UNL     1      43.551  45.261  14.136  1.00  0.00     0.210 HD
ENDBRANCH   4  19
BRANCH   1  21
HETATM   21  C3  UNL     1      47.220  46.084  15.875  1.00  0.00     0.305 C 
BRANCH  21  22
HETATM   22  N1  UNL     1      47.192  46.081  17.302  1.00  0.00     0.082 N 
HETATM   23  C1  UNL     1      48.004  44.972  17.769  1.00  0.00     0.309 C 
HETATM   24  C2  UNL     1      47.837  47.294  17.825  1.00  0.00     0.309 C 
ENDBRANCH  21  22
ENDBRANCH   1  21
BRANCH   5  25
HETATM   25  O3  UNL     1      45.553  44.409  14.076  1.00  0.00    -0.390 OA
ATOM     26  H3  UNL     1      46.098  43.850  13.535  1.00  0.00     0.210 HD
ENDBRANCH   5  25
TORSDOF 5
ENDMDL
