MODEL 1
REMARK VINA RESULT: -8.133912916      0.000      0.000
REMARK  5 active torsions:
REMARK  status: ('A' for Active; 'I' for Inactive)
REMARK    1  A    between atoms: N1_2  and  C3_4 
REMARK    2  A    between atoms: C3_4  and  C4_5 
REMARK    3  A    between atoms: C5_7  and  N2_8 
REMARK    4  A    between atoms: C11_21  and  O2_22 
REMARK    5  A    between atoms: C12_24  and  O3_25 
ROOT
HETATM    1  C4  UNL     1      42.768  52.857   9.014  1.00  0.00     0.183 C 
HETATM    2  O1  UNL     1      42.412  52.275  10.211  1.00  0.00    -0.354 OA
HETATM    3  C5  UNL     1      43.459  52.700  11.051  1.00  0.00     0.262 C 
HETATM    4  C11 UNL     1      44.728  52.545  10.238  1.00  0.00     0.198 C 
HETATM    5  C12 UNL     1      44.189  52.297   8.851  1.00  0.00     0.182 C 
ENDROOT
BRANCH   3   6
HETATM    6  N2  UNL     1      43.558  51.933  12.249  1.00  0.00    -0.297 N 
HETATM    7  C6  UNL     1      43.028  52.264  13.440  1.00  0.00     0.188 A 
HETATM    8  N3  UNL     1      43.338  51.289  14.317  1.00  0.00    -0.346 N 
HETATM    9  C7  UNL     1      44.052  50.342  13.724  1.00  0.00     0.119 A 
ATOM     10  H3  UNL     1      43.062  51.282  15.299  1.00  0.00     0.167 HD
HETATM   11  C8  UNL     1      44.615  49.147  14.160  1.00  0.00     0.148 A 
HETATM   12  C10 UNL     1      44.192  50.758  12.395  1.00  0.00     0.142 A 
HETATM   13  N4  UNL     1      44.446  48.766  15.521  1.00  0.00    -0.080 NA
HETATM   14  N5  UNL     1      45.284  48.420  13.278  1.00  0.00    -0.339 N 
HETATM   15  C9  UNL     1      45.436  48.794  11.994  1.00  0.00     0.183 A 
ATOM     16  H5  UNL     1      45.702  47.540  13.584  1.00  0.00     0.167 HD
HETATM   17  N6  UNL     1      44.889  49.951  11.576  1.00  0.00    -0.336 N 
ATOM     18  H6  UNL     1      45.008  50.226  10.602  1.00  0.00     0.168 HD
ENDBRANCH   3   6
BRANCH   4  19
HETATM   19  O2  UNL     1      45.479  53.711  10.244  1.00  0.00    -0.388 OA
ATOM     20  H2  UNL     1      45.078  54.385   9.707  1.00  0.00     0.210 HD
ENDBRANCH   4  19
BRANCH   1  21
HETATM   21  C3  UNL     1      41.978  52.356   7.840  1.00  0.00     0.305 C 
BRANCH  21  22
HETATM   22  N1  UNL     1      42.541  52.692   6.573  1.00  0.00     0.082 N 
HETATM   23  C1  UNL     1      42.279  51.598   5.655  1.00  0.00     0.309 C 
HETATM   24  C2  UNL     1      41.852  53.861   6.006  1.00  0.00     0.309 C 
ENDBRANCH  21  22
ENDBRANCH   1  21
BRANCH   5  25
HETATM   25  O3  UNL     1      44.890  52.938   7.863  1.00  0.00    -0.390 OA
ATOM     26  H3  UNL     1      44.467  52.864   7.015  1.00  0.00     0.210 HD
ENDBRANCH   5  25
TORSDOF 5
ENDMDL
