MODEL 15
REMARK VINA RESULT: -9.964855969      1.284      1.670
REMARK  11 active torsions:
REMARK  status: ('A' for Active; 'I' for Inactive)
REMARK    1  A    between atoms: O1_2  and  C2_3 
REMARK    2  A    between atoms: C4_5  and  C5_6 
REMARK    3  A    between atoms: C5_6  and  C6_7 
REMARK    4  A    between atoms: C11_18  and  C12_19 
REMARK    5  A    between atoms: C12_19  and  C13_20 
REMARK    6  A    between atoms: C13_20  and  C14_21 
REMARK    7  A    between atoms: C14_21  and  O2_22 
REMARK    8  A    between atoms: C14_21  and  N5_24 
REMARK    9  A    between atoms: C23_34  and  C24_35 
REMARK   10  A    between atoms: C24_35  and  C25_36 
REMARK   11  A    between atoms: C26_40  and  O3_41 
ROOT
HETATM    1  C2  UNL     1      16.821 -26.411  -1.387  1.00  0.00     0.102 A 
HETATM    2  C3  UNL     1      16.344 -26.999  -2.530  1.00  0.00     0.047 A 
HETATM    3  C4  UNL     1      17.065 -28.030  -3.090  1.00  0.00    -0.050 A 
HETATM    4  C10 UNL     1      18.235 -28.445  -2.501  1.00  0.00     0.022 A 
HETATM    5  C11 UNL     1      18.736 -27.850  -1.326  1.00  0.00     0.001 A 
HETATM    6  C26 UNL     1      18.016 -26.831  -0.781  1.00  0.00     0.111 A 
ENDROOT
BRANCH   5   7
HETATM    7  C12 UNL     1      19.994 -28.404  -0.835  1.00  0.00     0.018 C 
BRANCH   7   8
HETATM    8  C13 UNL     1      21.210 -28.014  -1.097  1.00  0.00     0.058 C 
BRANCH   8   9
HETATM    9  C14 UNL     1      22.476 -28.662  -0.904  1.00  0.00     0.158 C 
BRANCH   9  10
HETATM   10  O2  UNL     1      23.114 -28.128   0.146  1.00  0.00    -0.345 OA
ATOM     11  H2  UNL     1      23.959 -27.787  -0.122  1.00  0.00     0.219 HD
ENDBRANCH   9  10
BRANCH   9  12
HETATM   12  N5  UNL     1      23.176 -29.673  -1.526  1.00  0.00    -0.237 N 
HETATM   13  N6  UNL     1      22.678 -30.910  -1.863  1.00  0.00    -0.127 NA
HETATM   14  C15 UNL     1      22.447 -30.871  -3.314  1.00  0.00     0.175 C 
HETATM   15  C16 UNL     1      23.863 -30.895  -3.859  1.00  0.00    -0.029 A 
HETATM   16  C17 UNL     1      24.145 -31.596  -4.978  1.00  0.00     0.009 A 
HETATM   17  C21 UNL     1      24.853 -30.217  -3.180  1.00  0.00    -0.000 A 
HETATM   18  C18 UNL     1      25.416 -31.668  -5.484  1.00  0.00     0.001 A 
HETATM   19  C19 UNL     1      26.414 -31.001  -4.824  1.00  0.00     0.001 A 
HETATM   20  C20 UNL     1      26.130 -30.274  -3.669  1.00  0.00     0.014 A 
HETATM   21  C22 UNL     1      24.548 -29.399  -1.952  1.00  0.00     0.062 C 
HETATM   22  C23 UNL     1      25.607 -29.200  -1.001  1.00  0.00     0.014 C 
BRANCH  22  23
HETATM   23  C24 UNL     1      26.060 -30.155   0.011  1.00  0.00     0.147 C 
BRANCH  23  24
HETATM   24  C25 UNL     1      26.847 -31.332  -0.438  1.00  0.00     0.391 C 
HETATM   25  F1  UNL     1      27.892 -30.940  -1.292  1.00  0.00    -0.171 F 
HETATM   26  F2  UNL     1      27.488 -31.938   0.647  1.00  0.00    -0.171 F 
HETATM   27  F3  UNL     1      26.089 -32.277  -1.040  1.00  0.00    -0.171 F 
ENDBRANCH  23  24
ENDBRANCH  22  23
ENDBRANCH   9  12
ENDBRANCH   8   9
ENDBRANCH   7   8
ENDBRANCH   5   7
BRANCH   6  28
HETATM   28  O3  UNL     1      18.395 -26.154   0.363  1.00  0.00    -0.352 OA
HETATM   29  C27 UNL     1      19.346 -25.087   0.316  1.00  0.00     0.210 C 
ENDBRANCH   6  28
BRANCH   3  30
HETATM   30  C5  UNL     1      16.571 -28.691  -4.325  1.00  0.00     0.082 C 
BRANCH  30  31
HETATM   31  C6  UNL     1      16.455 -30.141  -4.243  1.00  0.00     0.003 A 
HETATM   32  C7  UNL     1      17.500 -30.879  -3.709  1.00  0.00     0.101 A 
HETATM   33  N1  UNL     1      17.405 -32.212  -3.623  1.00  0.00    -0.340 N 
HETATM   34  C8  UNL     1      16.310 -32.907  -4.040  1.00  0.00     0.193 A 
ATOM     35  H1  UNL     1      18.189 -32.730  -3.226  1.00  0.00     0.167 HD
HETATM   36  N2  UNL     1      16.250 -34.319  -3.930  1.00  0.00    -0.063 NA
HETATM   37  N3  UNL     1      15.304 -32.181  -4.555  1.00  0.00    -0.318 N 
HETATM   38  C9  UNL     1      15.349 -30.827  -4.665  1.00  0.00     0.126 A 
ATOM     39  H3  UNL     1      14.468 -32.668  -4.878  1.00  0.00     0.169 HD
HETATM   40  N4  UNL     1      14.261 -30.119  -5.222  1.00  0.00    -0.082 NA
ENDBRANCH  30  31
ENDBRANCH   3  30
BRANCH   1  41
HETATM   41  O1  UNL     1      16.115 -25.372  -0.802  1.00  0.00    -0.353 OA
HETATM   42  C1  UNL     1      14.895 -24.893  -1.279  1.00  0.00     0.210 C 
ENDBRANCH   1  41
TORSDOF 11
ENDMDL
