MODEL 1
REMARK VINA RESULT: -10.832857714      0.000      0.000
REMARK  11 active torsions:
REMARK  status: ('A' for Active; 'I' for Inactive)
REMARK    1  A    between atoms: O1_2  and  C2_3 
REMARK    2  A    between atoms: C4_5  and  C5_6 
REMARK    3  A    between atoms: C5_6  and  C6_7 
REMARK    4  A    between atoms: C11_18  and  C12_19 
REMARK    5  A    between atoms: C12_19  and  C13_20 
REMARK    6  A    between atoms: C13_20  and  C14_21 
REMARK    7  A    between atoms: C14_21  and  O2_22 
REMARK    8  A    between atoms: C14_21  and  N5_24 
REMARK    9  A    between atoms: C23_34  and  C24_35 
REMARK   10  A    between atoms: C24_35  and  C25_36 
REMARK   11  A    between atoms: C26_40  and  O3_41 
ROOT
HETATM    1  C2  UNL     1      17.105 -26.780  -1.525  1.00  0.00     0.102 A 
HETATM    2  C3  UNL     1      16.447 -27.367  -2.575  1.00  0.00     0.047 A 
HETATM    3  C4  UNL     1      17.118 -28.298  -3.335  1.00  0.00    -0.050 A 
HETATM    4  C10 UNL     1      18.420 -28.619  -3.031  1.00  0.00     0.022 A 
HETATM    5  C11 UNL     1      19.108 -28.023  -1.955  1.00  0.00     0.001 A 
HETATM    6  C26 UNL     1      18.435 -27.103  -1.211  1.00  0.00     0.111 A 
ENDROOT
BRANCH   5   7
HETATM    7  C12 UNL     1      20.485 -28.469  -1.774  1.00  0.00     0.018 C 
BRANCH   7   8
HETATM    8  C13 UNL     1      21.303 -28.961  -2.663  1.00  0.00     0.058 C 
BRANCH   8   9
HETATM    9  C14 UNL     1      21.894 -30.263  -2.790  1.00  0.00     0.158 C 
BRANCH   9  10
HETATM   10  O2  UNL     1      20.942 -31.206  -2.782  1.00  0.00    -0.345 OA
ATOM     11  H2  UNL     1      20.414 -31.146  -3.570  1.00  0.00     0.219 HD
ENDBRANCH   9  10
BRANCH   9  12
HETATM   12  N5  UNL     1      23.172 -30.763  -2.910  1.00  0.00    -0.237 N 
HETATM   13  N6  UNL     1      23.532 -31.899  -3.597  1.00  0.00    -0.127 NA
HETATM   14  C15 UNL     1      24.144 -31.435  -4.851  1.00  0.00     0.175 C 
HETATM   15  C16 UNL     1      25.469 -30.874  -4.367  1.00  0.00    -0.029 A 
HETATM   16  C17 UNL     1      26.585 -31.044  -5.107  1.00  0.00     0.009 A 
HETATM   17  C21 UNL     1      25.515 -30.218  -3.155  1.00  0.00    -0.000 A 
HETATM   18  C18 UNL     1      27.805 -30.580  -4.690  1.00  0.00     0.001 A 
HETATM   19  C19 UNL     1      27.872 -29.926  -3.488  1.00  0.00     0.001 A 
HETATM   20  C20 UNL     1      26.722 -29.745  -2.720  1.00  0.00     0.014 A 
HETATM   21  C22 UNL     1      24.271 -29.987  -2.337  1.00  0.00     0.062 C 
HETATM   22  C23 UNL     1      24.425 -29.835  -0.916  1.00  0.00     0.014 C 
BRANCH  22  23
HETATM   23  C24 UNL     1      24.608 -30.909   0.061  1.00  0.00     0.147 C 
BRANCH  23  24
HETATM   24  C25 UNL     1      25.993 -31.349   0.368  1.00  0.00     0.391 C 
HETATM   25  F1  UNL     1      26.029 -32.101   1.555  1.00  0.00    -0.171 F 
HETATM   26  F2  UNL     1      26.461 -32.223  -0.616  1.00  0.00    -0.171 F 
HETATM   27  F3  UNL     1      26.869 -30.321   0.447  1.00  0.00    -0.171 F 
ENDBRANCH  23  24
ENDBRANCH  22  23
ENDBRANCH   9  12
ENDBRANCH   8   9
ENDBRANCH   7   8
ENDBRANCH   5   7
BRANCH   6  28
HETATM   28  O3  UNL     1      18.990 -26.437  -0.134  1.00  0.00    -0.352 OA
HETATM   29  C27 UNL     1      19.026 -27.029   1.168  1.00  0.00     0.210 C 
ENDBRANCH   6  28
BRANCH   3  30
HETATM   30  C5  UNL     1      16.430 -28.956  -4.476  1.00  0.00     0.082 C 
BRANCH  30  31
HETATM   31  C6  UNL     1      16.373 -30.411  -4.404  1.00  0.00     0.003 A 
HETATM   32  C7  UNL     1      17.338 -31.095  -3.684  1.00  0.00     0.101 A 
HETATM   33  N1  UNL     1      17.295 -32.432  -3.605  1.00  0.00    -0.340 N 
HETATM   34  C8  UNL     1      16.329 -33.180  -4.208  1.00  0.00     0.193 A 
ATOM     35  H1  UNL     1      18.018 -32.911  -3.068  1.00  0.00     0.167 HD
HETATM   36  N2  UNL     1      16.319 -34.594  -4.100  1.00  0.00    -0.063 NA
HETATM   37  N3  UNL     1      15.399 -32.504  -4.903  1.00  0.00    -0.318 N 
HETATM   38  C9  UNL     1      15.397 -31.150  -5.014  1.00  0.00     0.126 A 
ATOM     39  H3  UNL     1      14.660 -33.032  -5.368  1.00  0.00     0.169 HD
HETATM   40  N4  UNL     1      14.395 -30.497  -5.764  1.00  0.00    -0.082 NA
ENDBRANCH  30  31
ENDBRANCH   3  30
BRANCH   1  41
HETATM   41  O1  UNL     1      16.453 -25.840  -0.745  1.00  0.00    -0.353 OA
HETATM   42  C1  UNL     1      15.347 -25.105  -1.171  1.00  0.00     0.210 C 
ENDBRANCH   1  41
TORSDOF 11
ENDMDL
