MODEL 3
REMARK VINA RESULT: -10.581012949      1.087      1.433
REMARK  11 active torsions:
REMARK  status: ('A' for Active; 'I' for Inactive)
REMARK    1  A    between atoms: O1_2  and  C2_3 
REMARK    2  A    between atoms: C4_5  and  C5_6 
REMARK    3  A    between atoms: C5_6  and  C6_7 
REMARK    4  A    between atoms: C11_18  and  C12_19 
REMARK    5  A    between atoms: C12_19  and  C13_20 
REMARK    6  A    between atoms: C13_20  and  C14_21 
REMARK    7  A    between atoms: C14_21  and  O2_22 
REMARK    8  A    between atoms: C14_21  and  N5_24 
REMARK    9  A    between atoms: C23_34  and  C24_35 
REMARK   10  A    between atoms: C24_35  and  C25_36 
REMARK   11  A    between atoms: C26_40  and  O3_41 
ROOT
HETATM    1  C2  UNL     1      18.662 -26.291  -0.348  1.00  0.00     0.102 A 
HETATM    2  C3  UNL     1      17.507 -26.725  -0.946  1.00  0.00     0.047 A 
HETATM    3  C4  UNL     1      17.598 -27.664  -1.950  1.00  0.00    -0.050 A 
HETATM    4  C10 UNL     1      18.829 -28.142  -2.329  1.00  0.00     0.022 A 
HETATM    5  C11 UNL     1      20.024 -27.705  -1.723  1.00  0.00     0.001 A 
HETATM    6  C26 UNL     1      19.923 -26.777  -0.733  1.00  0.00     0.111 A 
ENDROOT
BRANCH   5   7
HETATM    7  C12 UNL     1      21.245 -28.308  -2.248  1.00  0.00     0.018 C 
BRANCH   7   8
HETATM    8  C13 UNL     1      21.366 -29.325  -3.055  1.00  0.00     0.058 C 
BRANCH   8   9
HETATM    9  C14 UNL     1      22.069 -30.569  -2.914  1.00  0.00     0.158 C 
BRANCH   9  10
HETATM   10  O2  UNL     1      21.210 -31.554  -2.622  1.00  0.00    -0.345 OA
ATOM     11  H2  UNL     1      21.149 -31.667  -1.680  1.00  0.00     0.219 HD
ENDBRANCH   9  10
BRANCH   9  12
HETATM   12  N5  UNL     1      23.381 -30.980  -3.002  1.00  0.00    -0.237 N 
HETATM   13  N6  UNL     1      23.843 -32.050  -3.731  1.00  0.00    -0.127 NA
HETATM   14  C15 UNL     1      24.477 -31.479  -4.928  1.00  0.00     0.175 C 
HETATM   15  C16 UNL     1      25.740 -30.865  -4.354  1.00  0.00    -0.029 A 
HETATM   16  C17 UNL     1      26.896 -30.924  -5.049  1.00  0.00     0.009 A 
HETATM   17  C21 UNL     1      25.692 -30.277  -3.108  1.00  0.00    -0.000 A 
HETATM   18  C18 UNL     1      28.064 -30.409  -4.552  1.00  0.00     0.001 A 
HETATM   19  C19 UNL     1      28.037 -29.820  -3.314  1.00  0.00     0.001 A 
HETATM   20  C20 UNL     1      26.846 -29.755  -2.592  1.00  0.00     0.014 A 
HETATM   21  C22 UNL     1      24.402 -30.170  -2.337  1.00  0.00     0.062 C 
HETATM   22  C23 UNL     1      24.484 -30.090  -0.905  1.00  0.00     0.014 C 
BRANCH  22  23
HETATM   23  C24 UNL     1      24.693 -31.204   0.021  1.00  0.00     0.147 C 
BRANCH  23  24
HETATM   24  C25 UNL     1      26.085 -31.515   0.440  1.00  0.00     0.391 C 
HETATM   25  F1  UNL     1      26.093 -32.312   1.597  1.00  0.00    -0.171 F 
HETATM   26  F2  UNL     1      26.727 -32.292  -0.528  1.00  0.00    -0.171 F 
HETATM   27  F3  UNL     1      26.838 -30.408   0.636  1.00  0.00    -0.171 F 
ENDBRANCH  23  24
ENDBRANCH  22  23
ENDBRANCH   9  12
ENDBRANCH   8   9
ENDBRANCH   7   8
ENDBRANCH   5   7
BRANCH   6  28
HETATM   28  O3  UNL     1      21.012 -26.256  -0.059  1.00  0.00    -0.352 OA
HETATM   29  C27 UNL     1      21.550 -26.902   1.098  1.00  0.00     0.210 C 
ENDBRANCH   6  28
BRANCH   3  30
HETATM   30  C5  UNL     1      16.364 -28.157  -2.613  1.00  0.00     0.082 C 
BRANCH  30  31
HETATM   31  C6  UNL     1      16.388 -29.565  -2.989  1.00  0.00     0.003 A 
HETATM   32  C7  UNL     1      16.401 -30.534  -1.999  1.00  0.00     0.101 A 
HETATM   33  N1  UNL     1      16.418 -31.832  -2.330  1.00  0.00    -0.340 N 
HETATM   34  C8  UNL     1      16.424 -32.270  -3.620  1.00  0.00     0.193 A 
ATOM     35  H1  UNL     1      16.427 -32.525  -1.581  1.00  0.00     0.167 HD
HETATM   36  N2  UNL     1      16.443 -33.653  -3.927  1.00  0.00    -0.063 NA
HETATM   37  N3  UNL     1      16.412 -31.321  -4.571  1.00  0.00    -0.318 N 
HETATM   38  C9  UNL     1      16.394 -29.991  -4.289  1.00  0.00     0.126 A 
ATOM     39  H3  UNL     1      16.417 -31.611  -5.548  1.00  0.00     0.169 HD
HETATM   40  N4  UNL     1      16.388 -29.040  -5.333  1.00  0.00    -0.082 NA
ENDBRANCH  30  31
ENDBRANCH   3  30
BRANCH   1  41
HETATM   41  O1  UNL     1      18.600 -25.348   0.664  1.00  0.00    -0.353 OA
HETATM   42  C1  UNL     1      18.080 -25.601   1.933  1.00  0.00     0.210 C 
ENDBRANCH   1  41
TORSDOF 11
ENDMDL
