MODEL 9
REMARK VINA RESULT: -10.124299943      3.276      4.754
REMARK  11 active torsions:
REMARK  status: ('A' for Active; 'I' for Inactive)
REMARK    1  A    between atoms: O1_2  and  C2_3 
REMARK    2  A    between atoms: C4_5  and  C5_6 
REMARK    3  A    between atoms: C5_6  and  C6_7 
REMARK    4  A    between atoms: C11_18  and  C12_19 
REMARK    5  A    between atoms: C12_19  and  C13_20 
REMARK    6  A    between atoms: C13_20  and  C14_21 
REMARK    7  A    between atoms: C14_21  and  O2_22 
REMARK    8  A    between atoms: C14_21  and  N5_24 
REMARK    9  A    between atoms: C23_34  and  C24_35 
REMARK   10  A    between atoms: C24_35  and  C25_36 
REMARK   11  A    between atoms: C26_40  and  O3_41 
ROOT
HETATM    1  C2  UNL     1      16.369 -27.251  -2.540  1.00  0.00     0.102 A 
HETATM    2  C3  UNL     1      16.768 -26.391  -1.550  1.00  0.00     0.047 A 
HETATM    3  C4  UNL     1      18.009 -26.572  -0.981  1.00  0.00    -0.050 A 
HETATM    4  C10 UNL     1      18.815 -27.599  -1.411  1.00  0.00     0.022 A 
HETATM    5  C11 UNL     1      18.418 -28.490  -2.428  1.00  0.00     0.001 A 
HETATM    6  C26 UNL     1      17.189 -28.303  -2.982  1.00  0.00     0.111 A 
ENDROOT
BRANCH   5   7
HETATM    7  C12 UNL     1      19.388 -29.527  -2.760  1.00  0.00     0.018 C 
BRANCH   7   8
HETATM    8  C13 UNL     1      20.474 -29.859  -2.118  1.00  0.00     0.058 C 
BRANCH   8   9
HETATM    9  C14 UNL     1      21.854 -29.555  -2.370  1.00  0.00     0.158 C 
BRANCH   9  10
HETATM   10  O2  UNL     1      22.045 -28.229  -2.361  1.00  0.00    -0.345 OA
ATOM     11  H2  UNL     1      22.674 -27.992  -1.690  1.00  0.00     0.219 HD
ENDBRANCH   9  10
BRANCH   9  12
HETATM   12  N5  UNL     1      22.999 -30.281  -2.616  1.00  0.00    -0.237 N 
HETATM   13  N6  UNL     1      23.070 -31.460  -3.320  1.00  0.00    -0.127 NA
HETATM   14  C15 UNL     1      23.621 -31.111  -4.637  1.00  0.00     0.175 C 
HETATM   15  C16 UNL     1      25.070 -30.806  -4.302  1.00  0.00    -0.029 A 
HETATM   16  C17 UNL     1      26.052 -31.176  -5.152  1.00  0.00     0.009 A 
HETATM   17  C21 UNL     1      25.363 -30.176  -3.111  1.00  0.00    -0.000 A 
HETATM   18  C18 UNL     1      27.373 -30.947  -4.872  1.00  0.00     0.001 A 
HETATM   19  C19 UNL     1      27.686 -30.322  -3.692  1.00  0.00     0.001 A 
HETATM   20  C20 UNL     1      26.676 -29.936  -2.811  1.00  0.00     0.014 A 
HETATM   21  C22 UNL     1      24.276 -29.723  -2.171  1.00  0.00     0.062 C 
HETATM   22  C23 UNL     1      24.604 -29.610  -0.777  1.00  0.00     0.014 C 
BRANCH  22  23
HETATM   23  C24 UNL     1      24.688 -30.704   0.192  1.00  0.00     0.147 C 
BRANCH  23  24
HETATM   24  C25 UNL     1      25.986 -31.412   0.339  1.00  0.00     0.391 C 
HETATM   25  F1  UNL     1      25.998 -32.200   1.502  1.00  0.00    -0.171 F 
HETATM   26  F2  UNL     1      26.170 -32.323  -0.705  1.00  0.00    -0.171 F 
HETATM   27  F3  UNL     1      27.048 -30.574   0.337  1.00  0.00    -0.171 F 
ENDBRANCH  23  24
ENDBRANCH  22  23
ENDBRANCH   9  12
ENDBRANCH   8   9
ENDBRANCH   7   8
ENDBRANCH   5   7
BRANCH   6  28
HETATM   28  O3  UNL     1      16.671 -29.106  -3.982  1.00  0.00    -0.352 OA
HETATM   29  C27 UNL     1      15.968 -30.313  -3.676  1.00  0.00     0.210 C 
ENDBRANCH   6  28
BRANCH   3  30
HETATM   30  C5  UNL     1      18.471 -25.653   0.090  1.00  0.00     0.082 C 
BRANCH  30  31
HETATM   31  C6  UNL     1      18.289 -26.149   1.449  1.00  0.00     0.003 A 
HETATM   32  C7  UNL     1      19.227 -27.014   1.989  1.00  0.00     0.101 A 
HETATM   33  N1  UNL     1      19.075 -27.475   3.238  1.00  0.00    -0.340 N 
HETATM   34  C8  UNL     1      18.023 -27.133   4.032  1.00  0.00     0.193 A 
ATOM     35  H1  UNL     1      19.781 -28.110   3.610  1.00  0.00     0.167 HD
HETATM   36  N2  UNL     1      17.899 -27.643   5.349  1.00  0.00    -0.063 NA
HETATM   37  N3  UNL     1      17.120 -26.294   3.497  1.00  0.00    -0.318 N 
HETATM   38  C9  UNL     1      17.227 -25.798   2.236  1.00  0.00     0.126 A 
ATOM     39  H3  UNL     1      16.318 -26.016   4.063  1.00  0.00     0.169 HD
HETATM   40  N4  UNL     1      16.242 -24.924   1.727  1.00  0.00    -0.082 NA
ENDBRANCH  30  31
ENDBRANCH   3  30
BRANCH   1  41
HETATM   41  O1  UNL     1      15.126 -27.092  -3.130  1.00  0.00    -0.353 OA
HETATM   42  C1  UNL     1      14.111 -26.293  -2.605  1.00  0.00     0.210 C 
ENDBRANCH   1  41
TORSDOF 11
ENDMDL
