MODEL 8
REMARK VINA RESULT: -10.156376846      2.923      4.476
REMARK  11 active torsions:
REMARK  status: ('A' for Active; 'I' for Inactive)
REMARK    1  A    between atoms: O1_2  and  C2_3 
REMARK    2  A    between atoms: C4_5  and  C5_6 
REMARK    3  A    between atoms: C5_6  and  C6_7 
REMARK    4  A    between atoms: C11_18  and  C12_19 
REMARK    5  A    between atoms: C12_19  and  C13_20 
REMARK    6  A    between atoms: C13_20  and  C14_21 
REMARK    7  A    between atoms: C14_21  and  O2_22 
REMARK    8  A    between atoms: C14_21  and  N5_24 
REMARK    9  A    between atoms: C23_34  and  C24_35 
REMARK   10  A    between atoms: C24_35  and  C25_36 
REMARK   11  A    between atoms: C26_40  and  O3_41 
ROOT
HETATM    1  C2  UNL     1      15.511 -30.774  -3.344  1.00  0.00     0.102 A 
HETATM    2  C3  UNL     1      15.417 -29.409  -3.436  1.00  0.00     0.047 A 
HETATM    3  C4  UNL     1      16.577 -28.666  -3.424  1.00  0.00    -0.050 A 
HETATM    4  C10 UNL     1      17.793 -29.299  -3.321  1.00  0.00     0.022 A 
HETATM    5  C11 UNL     1      17.904 -30.701  -3.226  1.00  0.00     0.001 A 
HETATM    6  C26 UNL     1      16.752 -31.425  -3.238  1.00  0.00     0.111 A 
ENDROOT
BRANCH   5   7
HETATM    7  C12 UNL     1      19.267 -31.211  -3.116  1.00  0.00     0.018 C 
BRANCH   7   8
HETATM    8  C13 UNL     1      20.249 -30.751  -2.392  1.00  0.00     0.058 C 
BRANCH   8   9
HETATM    9  C14 UNL     1      21.531 -30.220  -2.761  1.00  0.00     0.158 C 
BRANCH   9  10
HETATM   10  O2  UNL     1      21.421 -28.921  -3.071  1.00  0.00    -0.345 OA
ATOM     11  H2  UNL     1      22.005 -28.705  -3.789  1.00  0.00     0.219 HD
ENDBRANCH   9  10
BRANCH   9  12
HETATM   12  N5  UNL     1      22.813 -30.713  -2.873  1.00  0.00    -0.237 N 
HETATM   13  N6  UNL     1      23.177 -31.873  -3.516  1.00  0.00    -0.127 NA
HETATM   14  C15 UNL     1      23.773 -31.456  -4.794  1.00  0.00     0.175 C 
HETATM   15  C16 UNL     1      25.097 -30.865  -4.345  1.00  0.00    -0.029 A 
HETATM   16  C17 UNL     1      26.208 -31.056  -5.087  1.00  0.00     0.009 A 
HETATM   17  C21 UNL     1      25.148 -30.160  -3.161  1.00  0.00    -0.000 A 
HETATM   18  C18 UNL     1      27.427 -30.565  -4.702  1.00  0.00     0.001 A 
HETATM   19  C19 UNL     1      27.500 -29.861  -3.527  1.00  0.00     0.001 A 
HETATM   20  C20 UNL     1      26.355 -29.659  -2.757  1.00  0.00     0.014 A 
HETATM   21  C22 UNL     1      23.910 -29.905  -2.342  1.00  0.00     0.062 C 
HETATM   22  C23 UNL     1      24.075 -29.694  -0.930  1.00  0.00     0.014 C 
BRANCH  22  23
HETATM   23  C24 UNL     1      24.276 -30.726   0.089  1.00  0.00     0.147 C 
BRANCH  23  24
HETATM   24  C25 UNL     1      25.636 -31.303   0.243  1.00  0.00     0.391 C 
HETATM   25  F1  UNL     1      25.717 -32.092   1.403  1.00  0.00    -0.171 F 
HETATM   26  F2  UNL     1      25.916 -32.188  -0.803  1.00  0.00    -0.171 F 
HETATM   27  F3  UNL     1      26.611 -30.366   0.252  1.00  0.00    -0.171 F 
ENDBRANCH  23  24
ENDBRANCH  22  23
ENDBRANCH   9  12
ENDBRANCH   8   9
ENDBRANCH   7   8
ENDBRANCH   5   7
BRANCH   6  28
HETATM   28  O3  UNL     1      16.714 -32.804  -3.144  1.00  0.00    -0.352 OA
HETATM   29  C27 UNL     1      16.615 -33.626  -4.310  1.00  0.00     0.210 C 
ENDBRANCH   6  28
BRANCH   3  30
HETATM   30  C5  UNL     1      16.507 -27.186  -3.528  1.00  0.00     0.082 C 
BRANCH  30  31
HETATM   31  C6  UNL     1      16.449 -26.482  -2.253  1.00  0.00     0.003 A 
HETATM   32  C7  UNL     1      17.424 -26.721  -1.298  1.00  0.00     0.101 A 
HETATM   33  N1  UNL     1      17.385 -26.077  -0.123  1.00  0.00    -0.340 N 
HETATM   34  C8  UNL     1      16.417 -25.174   0.197  1.00  0.00     0.193 A 
ATOM     35  H1  UNL     1      18.115 -26.272   0.562  1.00  0.00     0.167 HD
HETATM   36  N2  UNL     1      16.412 -24.514   1.451  1.00  0.00    -0.063 NA
HETATM   37  N3  UNL     1      15.477 -24.951  -0.738  1.00  0.00    -0.318 N 
HETATM   38  C9  UNL     1      15.470 -25.577  -1.944  1.00  0.00     0.126 A 
ATOM     39  H3  UNL     1      14.736 -24.282  -0.533  1.00  0.00     0.169 HD
HETATM   40  N4  UNL     1      14.452 -25.305  -2.883  1.00  0.00    -0.082 NA
ENDBRANCH  30  31
ENDBRANCH   3  30
BRANCH   1  41
HETATM   41  O1  UNL     1      14.361 -31.544  -3.353  1.00  0.00    -0.353 OA
HETATM   42  C1  UNL     1      13.123 -31.091  -3.808  1.00  0.00     0.210 C 
ENDBRANCH   1  41
TORSDOF 11
ENDMDL
