MODEL 10
REMARK VINA RESULT: -10.084343146      4.513      9.864
REMARK  11 active torsions:
REMARK  status: ('A' for Active; 'I' for Inactive)
REMARK    1  A    between atoms: O1_2  and  C2_3 
REMARK    2  A    between atoms: C4_5  and  C5_6 
REMARK    3  A    between atoms: C5_6  and  C6_7 
REMARK    4  A    between atoms: C11_18  and  C12_19 
REMARK    5  A    between atoms: C12_19  and  C13_20 
REMARK    6  A    between atoms: C13_20  and  C14_21 
REMARK    7  A    between atoms: C14_21  and  O2_22 
REMARK    8  A    between atoms: C14_21  and  N5_24 
REMARK    9  A    between atoms: C23_34  and  C24_35 
REMARK   10  A    between atoms: C24_35  and  C25_36 
REMARK   11  A    between atoms: C26_40  and  O3_41 
ROOT
HETATM    1  C2  UNL     1      25.861 -30.093  -2.641  1.00  0.00     0.102 A 
HETATM    2  C3  UNL     1      25.897 -29.887  -1.286  1.00  0.00     0.047 A 
HETATM    3  C4  UNL     1      24.713 -29.919  -0.583  1.00  0.00    -0.050 A 
HETATM    4  C10 UNL     1      23.531 -30.154  -1.245  1.00  0.00     0.022 A 
HETATM    5  C11 UNL     1      23.480 -30.368  -2.637  1.00  0.00     0.001 A 
HETATM    6  C26 UNL     1      24.656 -30.333  -3.322  1.00  0.00     0.111 A 
ENDROOT
BRANCH   5   7
HETATM    7  C12 UNL     1      22.147 -30.596  -3.183  1.00  0.00     0.018 C 
BRANCH   7   8
HETATM    8  C13 UNL     1      20.992 -30.309  -2.650  1.00  0.00     0.058 C 
BRANCH   8   9
HETATM    9  C14 UNL     1      20.311 -29.057  -2.477  1.00  0.00     0.158 C 
BRANCH   9  10
HETATM   10  O2  UNL     1      21.012 -28.068  -3.048  1.00  0.00    -0.345 OA
ATOM     11  H2  UNL     1      20.587 -27.785  -3.849  1.00  0.00     0.219 HD
ENDBRANCH   9  10
BRANCH   9  12
HETATM   12  N5  UNL     1      19.143 -28.639  -1.877  1.00  0.00    -0.237 N 
HETATM   13  N6  UNL     1      18.996 -28.290  -0.555  1.00  0.00    -0.127 NA
HETATM   14  C15 UNL     1      18.934 -26.822  -0.530  1.00  0.00     0.175 C 
HETATM   15  C16 UNL     1      17.564 -26.554  -1.125  1.00  0.00    -0.029 A 
HETATM   16  C17 UNL     1      16.800 -25.552  -0.640  1.00  0.00     0.009 A 
HETATM   17  C21 UNL     1      17.106 -27.364  -2.142  1.00  0.00    -0.000 A 
HETATM   18  C18 UNL     1      15.546 -25.298  -1.129  1.00  0.00     0.001 A 
HETATM   19  C19 UNL     1      15.073 -26.093  -2.140  1.00  0.00     0.001 A 
HETATM   20  C20 UNL     1      15.857 -27.128  -2.647  1.00  0.00     0.014 A 
HETATM   21  C22 UNL     1      17.962 -28.462  -2.721  1.00  0.00     0.062 C 
HETATM   22  C23 UNL     1      17.294 -29.581  -3.326  1.00  0.00     0.014 C 
BRANCH  22  23
HETATM   23  C24 UNL     1      16.687 -30.716  -2.629  1.00  0.00     0.147 C 
BRANCH  23  24
HETATM   24  C25 UNL     1      15.302 -31.106  -2.999  1.00  0.00     0.391 C 
HETATM   25  F1  UNL     1      14.543 -31.405  -1.855  1.00  0.00    -0.171 F 
HETATM   26  F2  UNL     1      14.632 -30.034  -3.596  1.00  0.00    -0.171 F 
HETATM   27  F3  UNL     1      15.258 -32.144  -3.866  1.00  0.00    -0.171 F 
ENDBRANCH  23  24
ENDBRANCH  22  23
ENDBRANCH   9  12
ENDBRANCH   8   9
ENDBRANCH   7   8
ENDBRANCH   5   7
BRANCH   6  28
HETATM   28  O3  UNL     1      24.750 -30.519  -4.689  1.00  0.00    -0.352 OA
HETATM   29  C27 UNL     1      24.635 -31.819  -5.273  1.00  0.00     0.210 C 
ENDBRANCH   6  28
BRANCH   3  30
HETATM   30  C5  UNL     1      24.720 -29.704   0.886  1.00  0.00     0.082 C 
BRANCH  30  31
HETATM   31  C6  UNL     1      25.068 -30.878   1.678  1.00  0.00     0.003 A 
HETATM   32  C7  UNL     1      25.829 -31.884   1.104  1.00  0.00     0.101 A 
HETATM   33  N1  UNL     1      26.161 -32.966   1.822  1.00  0.00    -0.340 N 
HETATM   34  C8  UNL     1      25.784 -33.141   3.119  1.00  0.00     0.193 A 
ATOM     35  H1  UNL     1      26.721 -33.692   1.375  1.00  0.00     0.167 HD
HETATM   36  N2  UNL     1      26.157 -34.301   3.843  1.00  0.00    -0.063 NA
HETATM   37  N3  UNL     1      25.048 -32.158   3.663  1.00  0.00    -0.318 N 
HETATM   38  C9  UNL     1      24.684 -31.040   2.981  1.00  0.00     0.126 A 
ATOM     39  H3  UNL     1      24.748 -32.254   4.633  1.00  0.00     0.169 HD
HETATM   40  N4  UNL     1      23.903 -30.044   3.606  1.00  0.00    -0.082 NA
ENDBRANCH  30  31
ENDBRANCH   3  30
BRANCH   1  41
HETATM   41  O1  UNL     1      27.037 -30.067  -3.372  1.00  0.00    -0.353 OA
HETATM   42  C1  UNL     1      28.306 -29.964  -2.802  1.00  0.00     0.210 C 
ENDBRANCH   1  41
TORSDOF 11
ENDMDL
