MODEL 16
REMARK VINA RESULT: -9.801093926      1.105      1.242
REMARK  11 active torsions:
REMARK  status: ('A' for Active; 'I' for Inactive)
REMARK    1  A    between atoms: O1_2  and  C2_3 
REMARK    2  A    between atoms: C4_5  and  C5_6 
REMARK    3  A    between atoms: C5_6  and  C6_7 
REMARK    4  A    between atoms: C11_18  and  C12_19 
REMARK    5  A    between atoms: C12_19  and  C13_20 
REMARK    6  A    between atoms: C13_20  and  C14_21 
REMARK    7  A    between atoms: C14_21  and  O2_22 
REMARK    8  A    between atoms: C14_21  and  N5_24 
REMARK    9  A    between atoms: C22_34  and  C23_35 
REMARK   10  A    between atoms: C23_35  and  C24_36 
REMARK   11  A    between atoms: C27_39  and  O3_40 
ROOT
HETATM    1  C2  UNL     1      17.398 -26.163  -0.509  1.00  0.00     0.102 A 
HETATM    2  C3  UNL     1      16.609 -26.636  -1.526  1.00  0.00     0.047 A 
HETATM    3  C4  UNL     1      17.111 -27.572  -2.391  1.00  0.00    -0.050 A 
HETATM    4  C10 UNL     1      18.403 -28.011  -2.204  1.00  0.00     0.022 A 
HETATM    5  C11 UNL     1      19.228 -27.538  -1.164  1.00  0.00     0.001 A 
HETATM    6  C27 UNL     1      18.720 -26.608  -0.315  1.00  0.00     0.111 A 
ENDROOT
BRANCH   5   7
HETATM    7  C12 UNL     1      20.582 -28.050  -1.057  1.00  0.00     0.018 C 
BRANCH   7   8
HETATM    8  C13 UNL     1      21.396 -28.339  -2.015  1.00  0.00     0.058 C 
BRANCH   8   9
HETATM    9  C14 UNL     1      21.665 -29.635  -2.565  1.00  0.00     0.157 C 
BRANCH   9  10
HETATM   10  O2  UNL     1      20.550 -30.384  -2.559  1.00  0.00    -0.345 OA
ATOM     11  H2  UNL     1      20.113 -30.319  -1.719  1.00  0.00     0.219 HD
ENDBRANCH   9  10
BRANCH   9  12
HETATM   12  N5  UNL     1      22.801 -30.259  -3.085  1.00  0.00    -0.266 N 
HETATM   13  N6  UNL     1      22.833 -30.973  -4.239  1.00  0.00    -0.327 N 
HETATM   14  C15 UNL     1      24.110 -31.631  -4.536  1.00  0.00     0.178 C 
ATOM     15  H6  UNL     1      22.026 -31.046  -4.858  1.00  0.00     0.180 HD
HETATM   16  C16 UNL     1      25.266 -30.815  -4.197  1.00  0.00    -0.031 A 
HETATM   17  C17 UNL     1      26.379 -30.810  -4.998  1.00  0.00     0.009 A 
HETATM   18  C21 UNL     1      25.241 -30.038  -3.069  1.00  0.00    -0.025 A 
HETATM   19  C18 UNL     1      27.481 -30.032  -4.680  1.00  0.00     0.001 A 
HETATM   20  C19 UNL     1      27.453 -29.257  -3.550  1.00  0.00     0.001 A 
HETATM   21  C20 UNL     1      26.324 -29.264  -2.745  1.00  0.00     0.010 A 
HETATM   22  C22 UNL     1      24.030 -30.083  -2.255  1.00  0.00     0.144 C 
BRANCH  22  23
HETATM   23  C23 UNL     1      23.986 -31.179  -1.237  1.00  0.00     0.036 C 
BRANCH  23  24
HETATM   24  C24 UNL     1      25.017 -31.064  -0.161  1.00  0.00    -0.020 C 
HETATM   25  C25 UNL     1      24.435 -30.472   1.102  1.00  0.00     0.009 C 
HETATM   26  C26 UNL     1      25.605 -32.427   0.115  1.00  0.00     0.009 C 
ENDBRANCH  23  24
ENDBRANCH  22  23
ENDBRANCH   9  12
ENDBRANCH   8   9
ENDBRANCH   7   8
ENDBRANCH   5   7
BRANCH   6  27
HETATM   27  O3  UNL     1      19.366 -26.021   0.750  1.00  0.00    -0.352 OA
HETATM   28  C28 UNL     1      19.332 -26.804   1.968  1.00  0.00     0.210 C 
ENDBRANCH   6  27
BRANCH   3  29
HETATM   29  C5  UNL     1      16.286 -28.097  -3.514  1.00  0.00     0.082 C 
BRANCH  29  30
HETATM   30  C6  UNL     1      16.200 -29.567  -3.552  1.00  0.00     0.003 A 
HETATM   31  C7  UNL     1      17.157 -30.369  -2.960  1.00  0.00     0.101 A 
HETATM   32  N1  UNL     1      17.056 -31.710  -3.017  1.00  0.00    -0.340 N 
HETATM   33  C8  UNL     1      16.044 -32.324  -3.638  1.00  0.00     0.193 A 
ATOM     34  H1  UNL     1      17.776 -32.277  -2.571  1.00  0.00     0.167 HD
HETATM   35  N2  UNL     1      15.941 -33.755  -3.695  1.00  0.00    -0.063 NA
HETATM   36  N3  UNL     1      15.097 -31.567  -4.223  1.00  0.00    -0.318 N 
HETATM   37  C9  UNL     1      15.163 -30.201  -4.188  1.00  0.00     0.126 A 
ATOM     38  H3  UNL     1      14.318 -32.019  -4.700  1.00  0.00     0.169 HD
HETATM   39  N4  UNL     1      14.101 -29.535  -4.836  1.00  0.00    -0.082 NA
ENDBRANCH  29  30
ENDBRANCH   3  29
BRANCH   1  40
HETATM   40  O1  UNL     1      16.865 -25.209   0.359  1.00  0.00    -0.353 OA
HETATM   41  C1  UNL     1      15.745 -24.451  -0.018  1.00  0.00     0.210 C 
ENDBRANCH   1  40
TORSDOF 11
ENDMDL
