MODEL 7
REMARK VINA RESULT: -10.261611839      3.294      4.947
REMARK  11 active torsions:
REMARK  status: ('A' for Active; 'I' for Inactive)
REMARK    1  A    between atoms: O1_2  and  C2_3 
REMARK    2  A    between atoms: C4_5  and  C5_6 
REMARK    3  A    between atoms: C5_6  and  C6_7 
REMARK    4  A    between atoms: C11_18  and  C12_19 
REMARK    5  A    between atoms: C12_19  and  C13_20 
REMARK    6  A    between atoms: C13_20  and  C14_21 
REMARK    7  A    between atoms: C14_21  and  O2_22 
REMARK    8  A    between atoms: C14_21  and  N5_24 
REMARK    9  A    between atoms: C22_34  and  C23_35 
REMARK   10  A    between atoms: C23_35  and  C24_36 
REMARK   11  A    between atoms: C27_39  and  O3_40 
ROOT
HETATM    1  C2  UNL     1      16.245 -26.898  -2.145  1.00  0.00     0.102 A 
HETATM    2  C3  UNL     1      16.515 -26.009  -1.136  1.00  0.00     0.047 A 
HETATM    3  C4  UNL     1      17.769 -25.975  -0.583  1.00  0.00    -0.050 A 
HETATM    4  C10 UNL     1      18.722 -26.842  -1.067  1.00  0.00     0.022 A 
HETATM    5  C11 UNL     1      18.464 -27.761  -2.105  1.00  0.00     0.001 A 
HETATM    6  C27 UNL     1      17.217 -27.788  -2.642  1.00  0.00     0.111 A 
ENDROOT
BRANCH   5   7
HETATM    7  C12 UNL     1      19.531 -28.646  -2.538  1.00  0.00     0.018 C 
BRANCH   7   8
HETATM    8  C13 UNL     1      20.446 -29.194  -1.813  1.00  0.00     0.058 C 
BRANCH   8   9
HETATM    9  C14 UNL     1      21.865 -29.120  -2.004  1.00  0.00     0.157 C 
BRANCH   9  10
HETATM   10  O2  UNL     1      22.363 -28.037  -1.385  1.00  0.00    -0.345 OA
ATOM     11  H2  UNL     1      23.090 -27.680  -1.881  1.00  0.00     0.219 HD
ENDBRANCH   9  10
BRANCH   9  12
HETATM   12  N5  UNL     1      22.802 -29.909  -2.673  1.00  0.00    -0.266 N 
HETATM   13  N6  UNL     1      22.558 -30.603  -3.815  1.00  0.00    -0.327 N 
HETATM   14  C15 UNL     1      23.659 -31.452  -4.282  1.00  0.00     0.178 C 
ATOM     15  H6  UNL     1      21.671 -30.538  -4.313  1.00  0.00     0.180 HD
HETATM   16  C16 UNL     1      24.966 -30.835  -4.117  1.00  0.00    -0.031 A 
HETATM   17  C17 UNL     1      25.942 -30.997  -5.066  1.00  0.00     0.009 A 
HETATM   18  C21 UNL     1      25.224 -30.081  -3.002  1.00  0.00    -0.025 A 
HETATM   19  C18 UNL     1      27.189 -30.409  -4.912  1.00  0.00     0.001 A 
HETATM   20  C19 UNL     1      27.443 -29.655  -3.797  1.00  0.00     0.001 A 
HETATM   21  C20 UNL     1      26.451 -29.494  -2.840  1.00  0.00     0.010 A 
HETATM   22  C22 UNL     1      24.148 -29.943  -2.026  1.00  0.00     0.144 C 
BRANCH  22  23
HETATM   23  C23 UNL     1      24.073 -31.033  -1.002  1.00  0.00     0.036 C 
BRANCH  23  24
HETATM   24  C24 UNL     1      24.871 -30.775   0.234  1.00  0.00    -0.020 C 
HETATM   25  C25 UNL     1      24.133 -29.868   1.191  1.00  0.00     0.009 C 
HETATM   26  C26 UNL     1      25.201 -32.090   0.899  1.00  0.00     0.009 C 
ENDBRANCH  23  24
ENDBRANCH  22  23
ENDBRANCH   9  12
ENDBRANCH   8   9
ENDBRANCH   7   8
ENDBRANCH   5   7
BRANCH   6  27
HETATM   27  O3  UNL     1      16.769 -28.613  -3.650  1.00  0.00    -0.352 OA
HETATM   28  C28 UNL     1      16.328 -29.916  -3.197  1.00  0.00     0.210 C 
ENDBRANCH   6  27
BRANCH   3  29
HETATM   29  C5  UNL     1      18.091 -25.031   0.522  1.00  0.00     0.082 C 
BRANCH  29  30
HETATM   30  C6  UNL     1      17.889 -25.599   1.867  1.00  0.00     0.003 A 
HETATM   31  C7  UNL     1      18.856 -26.368   2.486  1.00  0.00     0.101 A 
HETATM   32  N1  UNL     1      18.640 -26.879   3.713  1.00  0.00    -0.340 N 
HETATM   33  C8  UNL     1      17.502 -26.674   4.382  1.00  0.00     0.193 A 
ATOM     34  H1  UNL     1      19.371 -27.444   4.146  1.00  0.00     0.167 HD
HETATM   35  N2  UNL     1      17.278 -27.221   5.691  1.00  0.00    -0.063 NA
HETATM   36  N3  UNL     1      16.544 -25.927   3.802  1.00  0.00    -0.318 N 
HETATM   37  C9  UNL     1      16.722 -25.390   2.557  1.00  0.00     0.126 A 
ATOM     38  H3  UNL     1      15.669 -25.760   4.300  1.00  0.00     0.169 HD
HETATM   39  N4  UNL     1      15.639 -24.625   2.075  1.00  0.00    -0.082 NA
ENDBRANCH  29  30
ENDBRANCH   3  29
BRANCH   1  40
HETATM   40  O1  UNL     1      14.962 -26.914  -2.692  1.00  0.00    -0.353 OA
HETATM   41  C1  UNL     1      13.986 -26.010  -2.245  1.00  0.00     0.210 C 
ENDBRANCH   1  40
TORSDOF 11
ENDMDL
