MODEL 9
REMARK VINA RESULT: -10.172627456      3.000      5.142
REMARK  11 active torsions:
REMARK  status: ('A' for Active; 'I' for Inactive)
REMARK    1  A    between atoms: O1_2  and  C2_3 
REMARK    2  A    between atoms: C4_5  and  C5_6 
REMARK    3  A    between atoms: C5_6  and  C6_7 
REMARK    4  A    between atoms: C11_18  and  C12_19 
REMARK    5  A    between atoms: C12_19  and  C13_20 
REMARK    6  A    between atoms: C13_20  and  C14_21 
REMARK    7  A    between atoms: C14_21  and  O2_22 
REMARK    8  A    between atoms: C14_21  and  N5_24 
REMARK    9  A    between atoms: C22_34  and  C23_35 
REMARK   10  A    between atoms: C23_35  and  C24_36 
REMARK   11  A    between atoms: C27_39  and  O3_40 
ROOT
HETATM    1  C2  UNL     1      16.020 -27.232  -2.329  1.00  0.00     0.102 A 
HETATM    2  C3  UNL     1      16.086 -26.190  -1.440  1.00  0.00     0.047 A 
HETATM    3  C4  UNL     1      17.273 -25.906  -0.818  1.00  0.00    -0.050 A 
HETATM    4  C10 UNL     1      18.369 -26.687  -1.112  1.00  0.00     0.022 A 
HETATM    5  C11 UNL     1      18.321 -27.762  -2.023  1.00  0.00     0.001 A 
HETATM    6  C27 UNL     1      17.138 -28.034  -2.631  1.00  0.00     0.111 A 
ENDROOT
BRANCH   5   7
HETATM    7  C12 UNL     1      19.527 -28.536  -2.256  1.00  0.00     0.018 C 
BRANCH   7   8
HETATM    8  C13 UNL     1      20.465 -28.811  -1.415  1.00  0.00     0.058 C 
BRANCH   8   9
HETATM    9  C14 UNL     1      21.869 -28.919  -1.684  1.00  0.00     0.157 C 
BRANCH   9  10
HETATM   10  O2  UNL     1      22.543 -27.953  -1.038  1.00  0.00    -0.345 OA
ATOM     11  H2  UNL     1      22.209 -27.098  -1.283  1.00  0.00     0.219 HD
ENDBRANCH   9  10
BRANCH   9  12
HETATM   12  N5  UNL     1      22.653 -29.784  -2.450  1.00  0.00    -0.266 N 
HETATM   13  N6  UNL     1      22.216 -30.467  -3.539  1.00  0.00    -0.327 N 
HETATM   14  C15 UNL     1      23.182 -31.403  -4.123  1.00  0.00     0.178 C 
ATOM     15  H6  UNL     1      21.281 -30.337  -3.925  1.00  0.00     0.180 HD
HETATM   16  C16 UNL     1      24.543 -30.889  -4.131  1.00  0.00    -0.031 A 
HETATM   17  C17 UNL     1      25.379 -31.135  -5.190  1.00  0.00     0.009 A 
HETATM   18  C21 UNL     1      24.995 -30.147  -3.071  1.00  0.00    -0.025 A 
HETATM   19  C18 UNL     1      26.676 -30.645  -5.203  1.00  0.00     0.001 A 
HETATM   20  C19 UNL     1      27.124 -29.903  -4.141  1.00  0.00     0.001 A 
HETATM   21  C20 UNL     1      26.274 -29.657  -3.073  1.00  0.00     0.010 A 
HETATM   22  C22 UNL     1      24.062 -29.917  -1.972  1.00  0.00     0.144 C 
BRANCH  22  23
HETATM   23  C23 UNL     1      24.032 -30.989  -0.928  1.00  0.00     0.036 C 
BRANCH  23  24
HETATM   24  C24 UNL     1      24.962 -30.760   0.219  1.00  0.00    -0.020 C 
HETATM   25  C25 UNL     1      24.286 -30.002   1.338  1.00  0.00     0.009 C 
HETATM   26  C26 UNL     1      25.479 -32.089   0.715  1.00  0.00     0.009 C 
ENDBRANCH  23  24
ENDBRANCH  22  23
ENDBRANCH   9  12
ENDBRANCH   8   9
ENDBRANCH   7   8
ENDBRANCH   5   7
BRANCH   6  27
HETATM   27  O3  UNL     1      16.887 -29.039  -3.538  1.00  0.00    -0.352 OA
HETATM   28  C28 UNL     1      16.534 -30.308  -2.935  1.00  0.00     0.210 C 
ENDBRANCH   6  27
BRANCH   3  29
HETATM   29  C5  UNL     1      17.376 -24.790   0.161  1.00  0.00     0.082 C 
BRANCH  29  30
HETATM   30  C6  UNL     1      17.835 -25.211   1.497  1.00  0.00     0.003 A 
HETATM   31  C7  UNL     1      17.013 -25.904   2.365  1.00  0.00     0.101 A 
HETATM   32  N1  UNL     1      17.458 -26.269   3.582  1.00  0.00    -0.340 N 
HETATM   33  C8  UNL     1      18.694 -25.986   4.005  1.00  0.00     0.193 A 
ATOM     34  H1  UNL     1      16.830 -26.780   4.202  1.00  0.00     0.167 HD
HETATM   35  N2  UNL     1      19.162 -26.379   5.304  1.00  0.00    -0.063 NA
HETATM   36  N3  UNL     1      19.515 -25.313   3.179  1.00  0.00    -0.318 N 
HETATM   37  C9  UNL     1      19.103 -24.922   1.935  1.00  0.00     0.126 A 
ATOM     38  H3  UNL     1      20.462 -25.089   3.486  1.00  0.00     0.169 HD
HETATM   39  N4  UNL     1      20.069 -24.230   1.174  1.00  0.00    -0.082 NA
ENDBRANCH  29  30
ENDBRANCH   3  29
BRANCH   1  40
HETATM   40  O1  UNL     1      14.800 -27.502  -2.950  1.00  0.00    -0.353 OA
HETATM   41  C1  UNL     1      13.687 -26.677  -2.721  1.00  0.00     0.210 C 
ENDBRANCH   1  40
TORSDOF 11
ENDMDL
