MODEL 8
REMARK VINA RESULT: -10.225357454      2.772      9.680
REMARK  11 active torsions:
REMARK  status: ('A' for Active; 'I' for Inactive)
REMARK    1  A    between atoms: O1_2  and  C2_3 
REMARK    2  A    between atoms: C4_5  and  C5_6 
REMARK    3  A    between atoms: C5_6  and  C6_7 
REMARK    4  A    between atoms: C11_18  and  C12_19 
REMARK    5  A    between atoms: C12_19  and  C13_20 
REMARK    6  A    between atoms: C13_20  and  C14_21 
REMARK    7  A    between atoms: C14_21  and  O2_22 
REMARK    8  A    between atoms: C14_21  and  N5_24 
REMARK    9  A    between atoms: C22_34  and  C23_35 
REMARK   10  A    between atoms: C23_35  and  C24_36 
REMARK   11  A    between atoms: C27_39  and  O3_40 
ROOT
HETATM    1  C2  UNL     1      21.270 -27.878  -0.872  1.00  0.00     0.102 A 
HETATM    2  C3  UNL     1      21.863 -29.058  -1.244  1.00  0.00     0.047 A 
HETATM    3  C4  UNL     1      21.243 -29.866  -2.161  1.00  0.00    -0.050 A 
HETATM    4  C10 UNL     1      20.035 -29.459  -2.682  1.00  0.00     0.022 A 
HETATM    5  C11 UNL     1      19.411 -28.250  -2.313  1.00  0.00     0.001 A 
HETATM    6  C27 UNL     1      20.033 -27.459  -1.402  1.00  0.00     0.111 A 
ENDROOT
BRANCH   5   7
HETATM    7  C12 UNL     1      18.129 -27.914  -2.908  1.00  0.00     0.018 C 
BRANCH   7   8
HETATM    8  C13 UNL     1      17.223 -28.722  -3.341  1.00  0.00     0.058 C 
BRANCH   8   9
HETATM    9  C14 UNL     1      15.936 -28.380  -3.871  1.00  0.00     0.157 C 
BRANCH   9  10
HETATM   10  O2  UNL     1      15.848 -28.751  -5.159  1.00  0.00    -0.345 OA
ATOM     11  H2  UNL     1      16.003 -28.007  -5.728  1.00  0.00     0.219 HD
ENDBRANCH   9  10
BRANCH   9  12
HETATM   12  N5  UNL     1      14.797 -27.764  -3.348  1.00  0.00    -0.266 N 
HETATM   13  N6  UNL     1      14.810 -26.703  -2.501  1.00  0.00    -0.327 N 
HETATM   14  C15 UNL     1      13.498 -26.289  -1.992  1.00  0.00     0.178 C 
ATOM     15  H6  UNL     1      15.672 -26.226  -2.237  1.00  0.00     0.180 HD
HETATM   16  C16 UNL     1      12.448 -26.357  -2.997  1.00  0.00    -0.031 A 
HETATM   17  C17 UNL     1      11.467 -25.400  -3.050  1.00  0.00     0.009 A 
HETATM   18  C21 UNL     1      12.441 -27.385  -3.902  1.00  0.00    -0.025 A 
HETATM   19  C18 UNL     1      10.466 -25.461  -4.007  1.00  0.00     0.001 A 
HETATM   20  C19 UNL     1      10.461 -26.491  -4.912  1.00  0.00     0.001 A 
HETATM   21  C20 UNL     1      11.457 -27.455  -4.853  1.00  0.00     0.010 A 
HETATM   22  C22 UNL     1      13.510 -28.373  -3.797  1.00  0.00     0.144 C 
BRANCH  22  23
HETATM   23  C23 UNL     1      13.245 -29.499  -2.847  1.00  0.00     0.036 C 
BRANCH  23  24
HETATM   24  C24 UNL     1      13.254 -30.854  -3.477  1.00  0.00    -0.020 C 
HETATM   25  C25 UNL     1      12.925 -30.783  -4.950  1.00  0.00     0.009 C 
HETATM   26  C26 UNL     1      14.606 -31.494  -3.266  1.00  0.00     0.009 C 
ENDBRANCH  23  24
ENDBRANCH  22  23
ENDBRANCH   9  12
ENDBRANCH   8   9
ENDBRANCH   7   8
ENDBRANCH   5   7
BRANCH   6  27
HETATM   27  O3  UNL     1      19.584 -26.254  -0.910  1.00  0.00    -0.352 OA
HETATM   28  C28 UNL     1      18.566 -26.373   0.113  1.00  0.00     0.210 C 
ENDBRANCH   6  27
BRANCH   3  29
HETATM   29  C5  UNL     1      21.854 -31.158  -2.578  1.00  0.00     0.082 C 
BRANCH  29  30
HETATM   30  C6  UNL     1      23.152 -31.011  -3.258  1.00  0.00     0.003 A 
HETATM   31  C7  UNL     1      23.243 -30.845  -4.626  1.00  0.00     0.101 A 
HETATM   32  N1  UNL     1      24.445 -30.720  -5.221  1.00  0.00    -0.340 N 
HETATM   33  C8  UNL     1      25.589 -30.748  -4.532  1.00  0.00     0.193 A 
ATOM     34  H1  UNL     1      24.483 -30.600  -6.233  1.00  0.00     0.167 HD
HETATM   35  N2  UNL     1      26.868 -30.614  -5.171  1.00  0.00    -0.063 NA
HETATM   36  N3  UNL     1      25.529 -30.907  -3.197  1.00  0.00    -0.318 N 
HETATM   37  C9  UNL     1      24.329 -31.039  -2.553  1.00  0.00     0.126 A 
ATOM     38  H3  UNL     1      26.393 -30.930  -2.655  1.00  0.00     0.169 HD
HETATM   39  N4  UNL     1      24.414 -31.192  -1.153  1.00  0.00    -0.082 NA
ENDBRANCH  29  30
ENDBRANCH   3  29
BRANCH   1  40
HETATM   40  O1  UNL     1      21.919 -27.073   0.063  1.00  0.00    -0.353 OA
HETATM   41  C1  UNL     1      21.892 -27.402   1.427  1.00  0.00     0.210 C 
ENDBRANCH   1  40
TORSDOF 11
ENDMDL
