MODEL 1
REMARK VINA RESULT: -10.744750264      0.000      0.000
REMARK  11 active torsions:
REMARK  status: ('A' for Active; 'I' for Inactive)
REMARK    1  A    between atoms: O1_2  and  C2_3 
REMARK    2  A    between atoms: C4_5  and  C5_6 
REMARK    3  A    between atoms: C5_6  and  C6_7 
REMARK    4  A    between atoms: C11_18  and  C12_19 
REMARK    5  A    between atoms: C12_19  and  C13_20 
REMARK    6  A    between atoms: C13_20  and  C14_21 
REMARK    7  A    between atoms: C14_21  and  O2_22 
REMARK    8  A    between atoms: C14_21  and  N5_24 
REMARK    9  A    between atoms: C22_34  and  C23_35 
REMARK   10  A    between atoms: C23_35  and  C24_36 
REMARK   11  A    between atoms: C27_39  and  O3_40 
ROOT
HETATM    1  C2  UNL     1      16.182 -26.483  -1.565  1.00  0.00     0.102 A 
HETATM    2  C3  UNL     1      15.646 -27.190  -2.611  1.00  0.00     0.047 A 
HETATM    3  C4  UNL     1      16.439 -28.053  -3.320  1.00  0.00    -0.050 A 
HETATM    4  C10 UNL     1      17.760 -28.181  -2.953  1.00  0.00     0.022 A 
HETATM    5  C11 UNL     1      18.329 -27.464  -1.880  1.00  0.00     0.001 A 
HETATM    6  C27 UNL     1      17.534 -26.610  -1.187  1.00  0.00     0.111 A 
ENDROOT
BRANCH   5   7
HETATM    7  C12 UNL     1      19.736 -27.657  -1.578  1.00  0.00     0.018 C 
BRANCH   7   8
HETATM    8  C13 UNL     1      20.404 -28.760  -1.595  1.00  0.00     0.058 C 
BRANCH   8   9
HETATM    9  C14 UNL     1      21.821 -28.914  -1.741  1.00  0.00     0.157 C 
BRANCH   9  10
HETATM   10  O2  UNL     1      22.469 -28.013  -0.985  1.00  0.00    -0.345 OA
ATOM     11  H2  UNL     1      23.361 -27.904  -1.292  1.00  0.00     0.219 HD
ENDBRANCH   9  10
BRANCH   9  12
HETATM   12  N5  UNL     1      22.639 -29.772  -2.480  1.00  0.00    -0.266 N 
HETATM   13  N6  UNL     1      22.244 -30.464  -3.579  1.00  0.00    -0.327 N 
HETATM   14  C15 UNL     1      23.239 -31.390  -4.130  1.00  0.00     0.178 C 
ATOM     15  H6  UNL     1      21.319 -30.349  -3.992  1.00  0.00     0.180 HD
HETATM   16  C16 UNL     1      24.593 -30.858  -4.100  1.00  0.00    -0.031 A 
HETATM   17  C17 UNL     1      25.463 -31.097  -5.133  1.00  0.00     0.009 A 
HETATM   18  C21 UNL     1      25.003 -30.106  -3.030  1.00  0.00    -0.025 A 
HETATM   19  C18 UNL     1      26.753 -30.590  -5.109  1.00  0.00     0.001 A 
HETATM   20  C19 UNL     1      27.160 -29.838  -4.038  1.00  0.00     0.001 A 
HETATM   21  C20 UNL     1      26.275 -29.599  -2.996  1.00  0.00     0.010 A 
HETATM   22  C22 UNL     1      24.035 -29.885  -1.960  1.00  0.00     0.144 C 
BRANCH  22  23
HETATM   23  C23 UNL     1      23.988 -30.953  -0.912  1.00  0.00     0.036 C 
BRANCH  23  24
HETATM   24  C24 UNL     1      25.010 -30.803   0.168  1.00  0.00    -0.020 C 
HETATM   25  C25 UNL     1      24.422 -30.156   1.401  1.00  0.00     0.009 C 
HETATM   26  C26 UNL     1      25.583 -32.159   0.504  1.00  0.00     0.009 C 
ENDBRANCH  23  24
ENDBRANCH  22  23
ENDBRANCH   9  12
ENDBRANCH   8   9
ENDBRANCH   7   8
ENDBRANCH   5   7
BRANCH   6  27
HETATM   27  O3  UNL     1      17.901 -25.820  -0.120  1.00  0.00    -0.352 OA
HETATM   28  C28 UNL     1      17.938 -26.517   1.148  1.00  0.00     0.210 C 
ENDBRANCH   6  27
BRANCH   3  29
HETATM   29  C5  UNL     1      15.891 -28.826  -4.469  1.00  0.00     0.082 C 
BRANCH  29  30
HETATM   30  C6  UNL     1      15.933 -30.286  -4.276  1.00  0.00     0.003 A 
HETATM   31  C7  UNL     1      16.901 -30.891  -3.498  1.00  0.00     0.101 A 
HETATM   32  N1  UNL     1      16.918 -32.229  -3.346  1.00  0.00    -0.340 N 
HETATM   33  C8  UNL     1      16.017 -33.025  -3.929  1.00  0.00     0.193 A 
ATOM     34  H1  UNL     1      17.644 -32.649  -2.766  1.00  0.00     0.167 HD
HETATM   35  N2  UNL     1      16.040 -34.451  -3.763  1.00  0.00    -0.063 NA
HETATM   36  N3  UNL     1      15.063 -32.462  -4.692  1.00  0.00    -0.318 N 
HETATM   37  C9  UNL     1      15.010 -31.107  -4.873  1.00  0.00     0.126 A 
ATOM     38  H3  UNL     1      14.367 -33.055  -5.143  1.00  0.00     0.169 HD
HETATM   39  N4  UNL     1      13.954 -30.653  -5.692  1.00  0.00    -0.082 NA
ENDBRANCH  29  30
ENDBRANCH   3  29
BRANCH   1  40
HETATM   40  O1  UNL     1      15.355 -25.610  -0.858  1.00  0.00    -0.353 OA
HETATM   41  C1  UNL     1      14.196 -25.088  -1.453  1.00  0.00     0.210 C 
ENDBRANCH   1  40
TORSDOF 11
ENDMDL
