MODEL 7
REMARK VINA RESULT: -9.625055957      2.653      9.415
REMARK  8 active torsions:
REMARK  status: ('A' for Active; 'I' for Inactive)
REMARK    1  A    between atoms: O1_2  and  C2_3 
REMARK    2  A    between atoms: C4_5  and  C5_6 
REMARK    3  A    between atoms: C5_6  and  C6_7 
REMARK    4  A    between atoms: C11_18  and  C12_19 
REMARK    5  A    between atoms: C13_20  and  C14_21 
REMARK       I    between atoms: C14_21  and  N5_23 
REMARK    6  A    between atoms: C22_33  and  C23_34 
REMARK    7  A    between atoms: C23_34  and  C24_35 
REMARK    8  A    between atoms: C27_38  and  O3_39 
ROOT
HETATM    1  C2  UNL     1      14.952 -26.492  -1.944  1.00  0.00     0.102 A 
HETATM    2  C3  UNL     1      14.782 -27.279  -3.045  1.00  0.00     0.047 A 
HETATM    3  C4  UNL     1      15.837 -28.012  -3.530  1.00  0.00    -0.050 A 
HETATM    4  C10 UNL     1      17.083 -27.950  -2.892  1.00  0.00     0.022 A 
HETATM    5  C11 UNL     1      17.273 -27.165  -1.784  1.00  0.00     0.001 A 
HETATM    6  C27 UNL     1      16.194 -26.445  -1.328  1.00  0.00     0.111 A 
ENDROOT
BRANCH   5   7
HETATM    7  C12 UNL     1      18.545 -27.075  -1.105  1.00  0.00     0.020 C 
HETATM    8  C13 UNL     1      19.613 -27.829  -1.374  1.00  0.00     0.077 C 
BRANCH   8   9
HETATM    9  C14 UNL     1      20.828 -27.644  -0.626  1.00  0.00     0.262 C 
HETATM   10  O2  UNL     1      20.844 -26.820   0.310  1.00  0.00    -0.267 OA
HETATM   11  N5  UNL     1      21.989 -28.370  -0.929  1.00  0.00    -0.252 N 
HETATM   12  N6  UNL     1      21.963 -29.266  -1.967  1.00  0.00    -0.327 N 
HETATM   13  C22 UNL     1      23.222 -28.149  -0.113  1.00  0.00     0.145 C 
HETATM   14  C15 UNL     1      23.241 -29.714  -2.463  1.00  0.00     0.178 C 
ATOM     15  H6  UNL     1      21.085 -29.599  -2.366  1.00  0.00     0.180 HD
HETATM   16  C16 UNL     1      24.048 -30.176  -1.301  1.00  0.00    -0.031 A 
HETATM   17  C17 UNL     1      24.767 -31.328  -1.352  1.00  0.00     0.009 A 
HETATM   18  C21 UNL     1      24.010 -29.371  -0.153  1.00  0.00    -0.025 A 
HETATM   19  C18 UNL     1      25.482 -31.722  -0.238  1.00  0.00     0.001 A 
HETATM   20  C19 UNL     1      25.445 -30.930   0.896  1.00  0.00     0.001 A 
HETATM   21  C20 UNL     1      24.720 -29.763   0.954  1.00  0.00     0.010 A 
BRANCH  13  22
HETATM   22  C23 UNL     1      23.797 -26.887  -0.583  1.00  0.00     0.036 C 
BRANCH  22  23
HETATM   23  C24 UNL     1      25.255 -26.672  -0.592  1.00  0.00    -0.020 C 
HETATM   24  C25 UNL     1      25.823 -26.212   0.727  1.00  0.00     0.009 C 
HETATM   25  C26 UNL     1      25.723 -25.781  -1.733  1.00  0.00     0.009 C 
ENDBRANCH  22  23
ENDBRANCH  13  22
ENDBRANCH   8   9
ENDBRANCH   5   7
BRANCH   6  26
HETATM   26  O3  UNL     1      16.374 -25.643  -0.201  1.00  0.00    -0.352 OA
HETATM   27  C28 UNL     1      16.779 -24.288  -0.343  1.00  0.00     0.210 C 
ENDBRANCH   6  26
BRANCH   3  28
HETATM   28  C5  UNL     1      15.703 -28.884  -4.745  1.00  0.00     0.082 C 
BRANCH  28  29
HETATM   29  C6  UNL     1      15.878 -30.310  -4.466  1.00  0.00     0.003 A 
HETATM   30  C7  UNL     1      16.899 -30.719  -3.596  1.00  0.00     0.101 A 
HETATM   31  N1  UNL     1      17.036 -32.039  -3.368  1.00  0.00    -0.340 N 
HETATM   32  C8  UNL     1      16.233 -32.946  -3.944  1.00  0.00     0.193 A 
ATOM     33  H1  UNL     1      17.772 -32.358  -2.738  1.00  0.00     0.167 HD
HETATM   34  N2  UNL     1      16.444 -34.328  -3.648  1.00  0.00    -0.063 NA
HETATM   35  N3  UNL     1      15.261 -32.590  -4.769  1.00  0.00    -0.318 N 
HETATM   36  C9  UNL     1      15.083 -31.257  -5.033  1.00  0.00     0.126 A 
ATOM     37  H3  UNL     1      14.659 -33.293  -5.198  1.00  0.00     0.169 HD
HETATM   38  N4  UNL     1      14.038 -30.927  -5.905  1.00  0.00    -0.082 NA
ENDBRANCH  28  29
ENDBRANCH   3  28
BRANCH   1  39
HETATM   39  O1  UNL     1      13.941 -25.713  -1.380  1.00  0.00    -0.353 OA
HETATM   40  C1  UNL     1      12.731 -25.592  -2.128  1.00  0.00     0.210 C 
ENDBRANCH   1  39
TORSDOF 8
ENDMDL
