MODEL 4
REMARK VINA RESULT: -9.850936701      3.105     10.931
REMARK  8 active torsions:
REMARK  status: ('A' for Active; 'I' for Inactive)
REMARK    1  A    between atoms: O1_2  and  C2_3 
REMARK    2  A    between atoms: C4_5  and  C5_6 
REMARK    3  A    between atoms: C5_6  and  C6_7 
REMARK    4  A    between atoms: C11_18  and  C12_19 
REMARK    5  A    between atoms: C13_20  and  C14_21 
REMARK       I    between atoms: C14_21  and  N5_23 
REMARK    6  A    between atoms: C22_33  and  C23_34 
REMARK    7  A    between atoms: C23_34  and  C24_35 
REMARK    8  A    between atoms: C27_38  and  O3_39 
ROOT
HETATM    1  C2  UNL     1      15.207 -29.462  -3.377  1.00  0.00     0.102 A 
HETATM    2  C3  UNL     1      14.796 -28.263  -2.872  1.00  0.00     0.047 A 
HETATM    3  C4  UNL     1      15.705 -27.433  -2.262  1.00  0.00    -0.050 A 
HETATM    4  C10 UNL     1      17.047 -27.819  -2.162  1.00  0.00     0.022 A 
HETATM    5  C11 UNL     1      17.478 -29.020  -2.664  1.00  0.00     0.001 A 
HETATM    6  C27 UNL     1      16.541 -29.825  -3.267  1.00  0.00     0.111 A 
ENDROOT
BRANCH   5   7
HETATM    7  C12 UNL     1      18.855 -29.451  -2.573  1.00  0.00     0.020 C 
HETATM    8  C13 UNL     1      19.911 -28.636  -2.517  1.00  0.00     0.077 C 
BRANCH   8   9
HETATM    9  C14 UNL     1      21.236 -29.188  -2.428  1.00  0.00     0.262 C 
HETATM   10  O2  UNL     1      21.435 -30.355  -2.818  1.00  0.00    -0.267 OA
HETATM   11  N5  UNL     1      22.305 -28.440  -1.912  1.00  0.00    -0.252 N 
HETATM   12  N6  UNL     1      22.073 -27.160  -1.477  1.00  0.00    -0.327 N 
HETATM   13  C22 UNL     1      23.666 -29.055  -1.853  1.00  0.00     0.145 C 
HETATM   14  C15 UNL     1      23.091 -26.569  -0.643  1.00  0.00     0.178 C 
ATOM     15  H6  UNL     1      21.225 -26.653  -1.729  1.00  0.00     0.180 HD
HETATM   16  C16 UNL     1      24.400 -26.733  -1.332  1.00  0.00    -0.031 A 
HETATM   17  C17 UNL     1      25.297 -25.714  -1.398  1.00  0.00     0.009 A 
HETATM   18  C21 UNL     1      24.646 -27.982  -1.920  1.00  0.00    -0.025 A 
HETATM   19  C18 UNL     1      26.489 -25.913  -2.067  1.00  0.00     0.001 A 
HETATM   20  C19 UNL     1      26.733 -27.144  -2.650  1.00  0.00     0.001 A 
HETATM   21  C20 UNL     1      25.830 -28.180  -2.587  1.00  0.00     0.010 A 
BRANCH  13  22
HETATM   22  C23 UNL     1      23.648 -29.964  -0.704  1.00  0.00     0.036 C 
BRANCH  22  23
HETATM   23  C24 UNL     1      24.842 -30.145   0.141  1.00  0.00    -0.020 C 
HETATM   24  C25 UNL     1      25.456 -31.520   0.062  1.00  0.00     0.009 C 
HETATM   25  C26 UNL     1      24.624 -29.722   1.586  1.00  0.00     0.009 C 
ENDBRANCH  22  23
ENDBRANCH  13  22
ENDBRANCH   8   9
ENDBRANCH   5   7
BRANCH   6  26
HETATM   26  O3  UNL     1      16.967 -31.049  -3.783  1.00  0.00    -0.352 OA
HETATM   27  C28 UNL     1      16.917 -32.221  -2.979  1.00  0.00     0.210 C 
ENDBRANCH   6  26
BRANCH   3  28
HETATM   28  C5  UNL     1      15.300 -26.109  -1.680  1.00  0.00     0.082 C 
BRANCH  28  29
HETATM   29  C6  UNL     1      14.073 -25.563  -2.261  1.00  0.00     0.003 A 
HETATM   30  C7  UNL     1      12.831 -26.012  -1.790  1.00  0.00     0.101 A 
HETATM   31  N1  UNL     1      11.723 -25.494  -2.353  1.00  0.00    -0.340 N 
HETATM   32  C8  UNL     1      11.785 -24.581  -3.333  1.00  0.00     0.193 A 
ATOM     33  H1  UNL     1      10.809 -25.806  -2.024  1.00  0.00     0.167 HD
HETATM   34  N2  UNL     1      10.562 -24.080  -3.876  1.00  0.00    -0.063 NA
HETATM   35  N3  UNL     1      12.942 -24.138  -3.798  1.00  0.00    -0.318 N 
HETATM   36  C9  UNL     1      14.098 -24.636  -3.256  1.00  0.00     0.126 A 
ATOM     37  H3  UNL     1      12.972 -23.442  -4.543  1.00  0.00     0.169 HD
HETATM   38  N4  UNL     1      15.298 -24.134  -3.776  1.00  0.00    -0.082 NA
ENDBRANCH  28  29
ENDBRANCH   3  28
BRANCH   1  39
HETATM   39  O1  UNL     1      14.358 -30.370  -4.012  1.00  0.00    -0.353 OA
HETATM   40  C1  UNL     1      13.081 -30.583  -3.413  1.00  0.00     0.210 C 
ENDBRANCH   1  39
TORSDOF 8
ENDMDL
