MODEL 2
REMARK VINA RESULT: -9.865637141      3.253     11.052
REMARK  8 active torsions:
REMARK  status: ('A' for Active; 'I' for Inactive)
REMARK    1  A    between atoms: O1_2  and  C2_3 
REMARK    2  A    between atoms: C4_5  and  C5_6 
REMARK    3  A    between atoms: C5_6  and  C6_7 
REMARK    4  A    between atoms: C11_18  and  C12_19 
REMARK    5  A    between atoms: C13_20  and  C14_21 
REMARK       I    between atoms: C14_21  and  N5_23 
REMARK    6  A    between atoms: C22_33  and  C23_34 
REMARK    7  A    between atoms: C23_34  and  C24_35 
REMARK    8  A    between atoms: C27_38  and  O3_39 
ROOT
HETATM    1  C2  UNL     1      14.096 -28.934  -3.917  1.00  0.00     0.102 A 
HETATM    2  C3  UNL     1      13.448 -27.897  -3.314  1.00  0.00     0.047 A 
HETATM    3  C4  UNL     1      14.170 -26.933  -2.653  1.00  0.00    -0.050 A 
HETATM    4  C10 UNL     1      15.567 -27.018  -2.603  1.00  0.00     0.022 A 
HETATM    5  C11 UNL     1      16.236 -28.054  -3.204  1.00  0.00     0.001 A 
HETATM    6  C27 UNL     1      15.480 -29.000  -3.855  1.00  0.00     0.111 A 
ENDROOT
BRANCH   5   7
HETATM    7  C12 UNL     1      17.675 -28.174  -3.168  1.00  0.00     0.020 C 
HETATM    8  C13 UNL     1      18.428 -28.043  -2.073  1.00  0.00     0.077 C 
BRANCH   8   9
HETATM    9  C14 UNL     1      19.857 -28.185  -2.166  1.00  0.00     0.262 C 
HETATM   10  O2  UNL     1      20.344 -28.800  -3.135  1.00  0.00    -0.267 OA
HETATM   11  N5  UNL     1      20.708 -27.646  -1.190  1.00  0.00    -0.252 N 
HETATM   12  N6  UNL     1      20.161 -26.980  -0.123  1.00  0.00    -0.327 N 
HETATM   13  C22 UNL     1      22.187 -27.811  -1.339  1.00  0.00     0.145 C 
HETATM   14  C15 UNL     1      21.024 -26.763   1.012  1.00  0.00     0.178 C 
ATOM     15  H6  UNL     1      19.194 -26.655  -0.132  1.00  0.00     0.180 HD
HETATM   16  C16 UNL     1      22.289 -26.153   0.516  1.00  0.00    -0.031 A 
HETATM   17  C17 UNL     1      22.869 -25.106   1.161  1.00  0.00     0.009 A 
HETATM   18  C21 UNL     1      22.832 -26.702  -0.654  1.00  0.00    -0.025 A 
HETATM   19  C18 UNL     1      24.031 -24.564   0.647  1.00  0.00     0.001 A 
HETATM   20  C19 UNL     1      24.568 -25.103  -0.509  1.00  0.00     0.001 A 
HETATM   21  C20 UNL     1      23.986 -26.162  -1.166  1.00  0.00     0.010 A 
BRANCH  13  22
HETATM   22  C23 UNL     1      22.481 -29.191  -0.943  1.00  0.00     0.036 C 
BRANCH  22  23
HETATM   23  C24 UNL     1      23.468 -29.999  -1.681  1.00  0.00    -0.020 C 
HETATM   24  C25 UNL     1      22.873 -31.139  -2.468  1.00  0.00     0.009 C 
HETATM   25  C26 UNL     1      24.624 -30.474  -0.814  1.00  0.00     0.009 C 
ENDBRANCH  22  23
ENDBRANCH  13  22
ENDBRANCH   8   9
ENDBRANCH   5   7
BRANCH   6  26
HETATM   26  O3  UNL     1      16.148 -30.057  -4.472  1.00  0.00    -0.352 OA
HETATM   27  C28 UNL     1      16.261 -31.314  -3.815  1.00  0.00     0.210 C 
ENDBRANCH   6  26
BRANCH   3  28
HETATM   28  C5  UNL     1      13.503 -25.778  -1.963  1.00  0.00     0.082 C 
BRANCH  28  29
HETATM   29  C6  UNL     1      12.675 -24.962  -2.853  1.00  0.00     0.003 A 
HETATM   30  C7  UNL     1      11.282 -25.121  -2.834  1.00  0.00     0.101 A 
HETATM   31  N1  UNL     1      10.553 -24.360  -3.672  1.00  0.00    -0.340 N 
HETATM   32  C8  UNL     1      11.122 -23.475  -4.503  1.00  0.00     0.193 A 
ATOM     33  H1  UNL     1       9.538 -24.460  -3.673  1.00  0.00     0.167 HD
HETATM   34  N2  UNL     1      10.276 -22.704  -5.360  1.00  0.00    -0.063 NA
HETATM   35  N3  UNL     1      12.433 -23.302  -4.544  1.00  0.00    -0.318 N 
HETATM   36  C9  UNL     1      13.218 -24.055  -3.710  1.00  0.00     0.126 A 
ATOM     37  H3  UNL     1      12.850 -22.624  -5.182  1.00  0.00     0.169 HD
HETATM   38  N4  UNL     1      14.599 -23.834  -3.783  1.00  0.00    -0.082 NA
ENDBRANCH  28  29
ENDBRANCH   3  28
BRANCH   1  39
HETATM   39  O1  UNL     1      13.448 -29.959  -4.610  1.00  0.00    -0.353 OA
HETATM   40  C1  UNL     1      12.388 -29.572  -5.483  1.00  0.00     0.210 C 
ENDBRANCH   1  39
TORSDOF 8
ENDMDL
