MODEL 1
REMARK VINA RESULT: -10.512041489      0.000      0.000
REMARK  8 active torsions:
REMARK  status: ('A' for Active; 'I' for Inactive)
REMARK    1  A    between atoms: O1_2  and  C2_3 
REMARK    2  A    between atoms: C4_5  and  C5_6 
REMARK    3  A    between atoms: C5_6  and  C6_7 
REMARK    4  A    between atoms: C11_18  and  C12_19 
REMARK    5  A    between atoms: C13_20  and  C14_21 
REMARK       I    between atoms: C14_21  and  N5_23 
REMARK    6  A    between atoms: C22_33  and  C23_34 
REMARK    7  A    between atoms: C23_34  and  C24_35 
REMARK    8  A    between atoms: C27_38  and  O3_39 
ROOT
HETATM    1  C2  UNL     1      22.394 -28.317  -0.481  1.00  0.00     0.102 A 
HETATM    2  C3  UNL     1      22.988 -29.374  -1.105  1.00  0.00     0.047 A 
HETATM    3  C4  UNL     1      22.364 -29.975  -2.171  1.00  0.00    -0.050 A 
HETATM    4  C10 UNL     1      21.124 -29.498  -2.614  1.00  0.00     0.022 A 
HETATM    5  C11 UNL     1      20.513 -28.436  -2.000  1.00  0.00     0.001 A 
HETATM    6  C27 UNL     1      21.166 -27.861  -0.935  1.00  0.00     0.111 A 
ENDROOT
BRANCH   5   7
HETATM    7  C12 UNL     1      19.231 -27.923  -2.428  1.00  0.00     0.020 C 
HETATM    8  C13 UNL     1      18.166 -28.672  -2.725  1.00  0.00     0.077 C 
BRANCH   8   9
HETATM    9  C14 UNL     1      16.942 -28.041  -3.142  1.00  0.00     0.262 C 
HETATM   10  O2  UNL     1      16.947 -26.823  -3.409  1.00  0.00    -0.267 OA
HETATM   11  N5  UNL     1      15.748 -28.768  -3.253  1.00  0.00    -0.252 N 
HETATM   12  N6  UNL     1      15.752 -30.105  -2.948  1.00  0.00    -0.327 N 
HETATM   13  C22 UNL     1      14.506 -28.068  -3.702  1.00  0.00     0.145 C 
HETATM   14  C15 UNL     1      14.465 -30.720  -2.732  1.00  0.00     0.178 C 
ATOM     15  H6  UNL     1      16.619 -30.637  -2.878  1.00  0.00     0.180 HD
HETATM   16  C16 UNL     1      13.593 -30.378  -3.889  1.00  0.00    -0.031 A 
HETATM   17  C17 UNL     1      12.805 -31.313  -4.482  1.00  0.00     0.009 A 
HETATM   18  C21 UNL     1      13.644 -29.051  -4.341  1.00  0.00    -0.025 A 
HETATM   19  C18 UNL     1      12.032 -30.948  -5.566  1.00  0.00     0.001 A 
HETATM   20  C19 UNL     1      12.081 -29.640  -6.015  1.00  0.00     0.001 A 
HETATM   21  C20 UNL     1      12.876 -28.688  -5.419  1.00  0.00     0.010 A 
BRANCH  13  22
HETATM   22  C23 UNL     1      14.026 -27.312  -2.543  1.00  0.00     0.036 C 
BRANCH  22  23
HETATM   23  C24 UNL     1      13.845 -25.851  -2.610  1.00  0.00    -0.020 C 
HETATM   24  C25 UNL     1      14.725 -25.072  -1.666  1.00  0.00     0.009 C 
HETATM   25  C26 UNL     1      12.390 -25.421  -2.487  1.00  0.00     0.009 C 
ENDBRANCH  22  23
ENDBRANCH  13  22
ENDBRANCH   8   9
ENDBRANCH   5   7
BRANCH   6  26
HETATM   26  O3  UNL     1      20.554 -26.779  -0.302  1.00  0.00    -0.352 OA
HETATM   27  C28 UNL     1      19.724 -26.989   0.833  1.00  0.00     0.210 C 
ENDBRANCH   6  26
BRANCH   3  28
HETATM   28  C5  UNL     1      22.972 -31.149  -2.885  1.00  0.00     0.082 C 
BRANCH  28  29
HETATM   29  C6  UNL     1      24.379 -30.956  -3.237  1.00  0.00     0.003 A 
HETATM   30  C7  UNL     1      25.277 -30.504  -2.260  1.00  0.00     0.101 A 
HETATM   31  N1  UNL     1      26.562 -30.331  -2.622  1.00  0.00    -0.340 N 
HETATM   32  C8  UNL     1      26.987 -30.577  -3.870  1.00  0.00     0.193 A 
ATOM     33  H1  UNL     1      27.232 -30.003  -1.926  1.00  0.00     0.167 HD
HETATM   34  N2  UNL     1      28.369 -30.370  -4.172  1.00  0.00    -0.063 NA
HETATM   35  N3  UNL     1      26.164 -31.005  -4.813  1.00  0.00    -0.318 N 
HETATM   36  C9  UNL     1      24.845 -31.196  -4.493  1.00  0.00     0.126 A 
ATOM     37  H3  UNL     1      26.504 -31.189  -5.757  1.00  0.00     0.169 HD
HETATM   38  N4  UNL     1      24.013 -31.655  -5.521  1.00  0.00    -0.082 NA
ENDBRANCH  28  29
ENDBRANCH   3  28
BRANCH   1  39
HETATM   39  O1  UNL     1      22.950 -27.644   0.608  1.00  0.00    -0.353 OA
HETATM   40  C1  UNL     1      24.086 -28.250   1.225  1.00  0.00     0.210 C 
ENDBRANCH   1  39
TORSDOF 8
ENDMDL
