MODEL 12
REMARK VINA RESULT: -5.029751349      3.713      5.623
REMARK  5 active torsions:
REMARK  status: ('A' for Active; 'I' for Inactive)
REMARK    1  A    between atoms: O1_2  and  C2_3 
REMARK    2  A    between atoms: C2_3  and  C3_4 
REMARK    3  A    between atoms: C4_5  and  C5_6 
REMARK    4  A    between atoms: C5_6  and  O2_7 
REMARK    5  A    between atoms: C9_14  and  O3_15 
ROOT
HETATM    1  C3  UNL     1      28.878   2.418  41.820  1.00  0.00     0.010 A 
HETATM    2  C4  UNL     1      27.717   2.463  41.129  1.00  0.00    -0.008 A 
HETATM    3  C6  UNL     1      27.532   3.470  40.245  1.00  0.00     0.098 A 
HETATM    4  N1  UNL     1      28.415   4.441  40.080  1.00  0.00    -0.367 N 
ATOM      5  H1  UNL     1      28.220   5.198  39.424  1.00  0.00     0.165 HD
HETATM    6  C7  UNL     1      29.595   4.435  40.791  1.00  0.00     0.039 A 
HETATM    7  C8  UNL     1      30.478   5.688  40.821  1.00  0.00     0.071 C 
HETATM    8  C9  UNL     1      29.861   3.429  41.644  1.00  0.00     0.096 A 
ENDROOT
BRANCH   1   9
HETATM    9  C2  UNL     1      29.253   1.303  42.766  1.00  0.00     0.209 C 
BRANCH   9  10
HETATM   10  O1  UNL     1      29.207   2.047  43.981  1.00  0.00    -0.391 OA
HETATM   11  C1  UNL     1      28.351   1.688  44.939  1.00  0.00     0.201 C 
ENDBRANCH   9  10
ENDBRANCH   1   9
BRANCH   2  12
HETATM   12  C5  UNL     1      26.644   1.494  41.465  1.00  0.00     0.205 C 
BRANCH  12  13
HETATM   13  O2  UNL     1      25.729   2.323  42.191  1.00  0.00    -0.396 OA
ATOM     14  H2  UNL     1      26.178   3.159  42.176  1.00  0.00     0.209 HD
ENDBRANCH  12  13
ENDBRANCH   2  12
BRANCH   8  15
HETATM   15  O3  UNL     1      31.041   3.302  42.389  1.00  0.00    -0.358 OA
ATOM     16  H3  UNL     1      31.028   3.641  43.277  1.00  0.00     0.217 HD
ENDBRANCH   8  15
TORSDOF 5
ENDMDL
