MODEL 7
REMARK VINA RESULT: -5.228242289      2.278      5.001
REMARK  5 active torsions:
REMARK  status: ('A' for Active; 'I' for Inactive)
REMARK    1  A    between atoms: O1_2  and  C2_3 
REMARK    2  A    between atoms: C2_3  and  C3_4 
REMARK    3  A    between atoms: C4_5  and  C5_6 
REMARK    4  A    between atoms: C5_6  and  O2_7 
REMARK    5  A    between atoms: C9_14  and  O3_15 
ROOT
HETATM    1  C3  UNL     1      29.753   5.776  38.472  1.00  0.00     0.010 A 
HETATM    2  C4  UNL     1      28.726   5.777  39.351  1.00  0.00    -0.008 A 
HETATM    3  C6  UNL     1      28.118   6.954  39.630  1.00  0.00     0.098 A 
HETATM    4  N1  UNL     1      28.531   8.103  39.122  1.00  0.00    -0.367 N 
ATOM      5  H1  UNL     1      28.061   8.971  39.383  1.00  0.00     0.165 HD
HETATM    6  C7  UNL     1      29.591   8.134  38.243  1.00  0.00     0.039 A 
HETATM    7  C8  UNL     1      30.249   9.471  37.883  1.00  0.00     0.071 C 
HETATM    8  C9  UNL     1      30.201   6.990  37.884  1.00  0.00     0.096 A 
ENDROOT
BRANCH   1   9
HETATM    9  C2  UNL     1      30.458   4.526  38.003  1.00  0.00     0.209 C 
BRANCH   9  10
HETATM   10  O1  UNL     1      31.699   4.732  38.672  1.00  0.00    -0.391 OA
HETATM   11  C1  UNL     1      32.129   3.825  39.552  1.00  0.00     0.201 C 
ENDBRANCH   9  10
ENDBRANCH   1   9
BRANCH   2  12
HETATM   12  C5  UNL     1      28.401   4.524  40.077  1.00  0.00     0.205 C 
BRANCH  12  13
HETATM   13  O2  UNL     1      27.574   5.015  41.138  1.00  0.00    -0.396 OA
ATOM     14  H2  UNL     1      27.192   4.211  41.468  1.00  0.00     0.209 HD
ENDBRANCH  12  13
ENDBRANCH   2  12
BRANCH   8  15
HETATM   15  O3  UNL     1      31.262   6.899  36.974  1.00  0.00    -0.358 OA
ATOM     16  H3  UNL     1      31.141   6.324  36.228  1.00  0.00     0.217 HD
ENDBRANCH   8  15
TORSDOF 5
ENDMDL
