MODEL 6
REMARK VINA RESULT: -5.248928687      2.140      4.831
REMARK  5 active torsions:
REMARK  status: ('A' for Active; 'I' for Inactive)
REMARK    1  A    between atoms: O1_2  and  C2_3 
REMARK    2  A    between atoms: C2_3  and  C3_4 
REMARK    3  A    between atoms: C4_5  and  C5_6 
REMARK    4  A    between atoms: C5_6  and  O2_7 
REMARK    5  A    between atoms: C9_14  and  O3_15 
ROOT
HETATM    1  C3  UNL     1      30.539   6.311  40.146  1.00  0.00     0.010 A 
HETATM    2  C4  UNL     1      29.228   6.282  40.471  1.00  0.00    -0.008 A 
HETATM    3  C6  UNL     1      28.410   7.217  39.934  1.00  0.00     0.098 A 
HETATM    4  N1  UNL     1      28.858   8.189  39.157  1.00  0.00    -0.367 N 
ATOM      5  H1  UNL     1      28.210   8.891  38.798  1.00  0.00     0.165 HD
HETATM    6  C7  UNL     1      30.195   8.258  38.830  1.00  0.00     0.039 A 
HETATM    7  C8  UNL     1      30.760   9.525  38.179  1.00  0.00     0.071 C 
HETATM    8  C9  UNL     1      31.048   7.323  39.288  1.00  0.00     0.096 A 
ENDROOT
BRANCH   1   9
HETATM    9  C2  UNL     1      31.542   5.277  40.598  1.00  0.00     0.209 C 
BRANCH   9  10
HETATM   10  O1  UNL     1      31.681   4.579  39.363  1.00  0.00    -0.391 OA
HETATM   11  C1  UNL     1      31.190   3.343  39.249  1.00  0.00     0.201 C 
ENDBRANCH   9  10
ENDBRANCH   1   9
BRANCH   2  12
HETATM   12  C5  UNL     1      28.765   5.321  41.504  1.00  0.00     0.205 C 
BRANCH  12  13
HETATM   13  O2  UNL     1      27.451   5.816  41.785  1.00  0.00    -0.396 OA
ATOM     14  H2  UNL     1      26.918   5.054  41.596  1.00  0.00     0.209 HD
ENDBRANCH  12  13
ENDBRANCH   2  12
BRANCH   8  15
HETATM   15  O3  UNL     1      32.416   7.275  38.992  1.00  0.00    -0.358 OA
ATOM     16  H3  UNL     1      32.714   6.553  38.450  1.00  0.00     0.217 HD
ENDBRANCH   8  15
TORSDOF 5
ENDMDL
