MODEL 10
REMARK VINA RESULT: -5.089958422      5.323      7.515
REMARK  5 active torsions:
REMARK  status: ('A' for Active; 'I' for Inactive)
REMARK    1  A    between atoms: O1_2  and  C2_3 
REMARK    2  A    between atoms: C2_3  and  C3_4 
REMARK    3  A    between atoms: C4_5  and  C5_6 
REMARK    4  A    between atoms: C5_6  and  O2_7 
REMARK    5  A    between atoms: C9_14  and  O3_15 
ROOT
HETATM    1  C3  UNL     1      28.185   0.558  43.008  1.00  0.00     0.010 A 
HETATM    2  C4  UNL     1      27.430  -0.507  42.659  1.00  0.00    -0.008 A 
HETATM    3  C6  UNL     1      26.755  -1.164  43.631  1.00  0.00     0.098 A 
HETATM    4  N1  UNL     1      26.859  -0.841  44.910  1.00  0.00    -0.367 N 
ATOM      5  H1  UNL     1      26.355  -1.383  45.612  1.00  0.00     0.165 HD
HETATM    6  C7  UNL     1      27.642   0.225  45.296  1.00  0.00     0.039 A 
HETATM    7  C8  UNL     1      27.991   0.422  46.776  1.00  0.00     0.071 C 
HETATM    8  C9  UNL     1      28.293   0.952  44.370  1.00  0.00     0.096 A 
ENDROOT
BRANCH   1   9
HETATM    9  C2  UNL     1      28.914   1.435  42.018  1.00  0.00     0.209 C 
BRANCH   9  10
HETATM   10  O1  UNL     1      27.941   2.472  41.914  1.00  0.00    -0.391 OA
HETATM   11  C1  UNL     1      27.612   2.945  40.711  1.00  0.00     0.201 C 
ENDBRANCH   9  10
ENDBRANCH   1   9
BRANCH   2  12
HETATM   12  C5  UNL     1      27.481  -0.995  41.259  1.00  0.00     0.205 C 
BRANCH  12  13
HETATM   13  O2  UNL     1      26.209  -0.567  40.761  1.00  0.00    -0.396 OA
ATOM     14  H2  UNL     1      26.407   0.316  40.471  1.00  0.00     0.209 HD
ENDBRANCH  12  13
ENDBRANCH   2  12
BRANCH   8  15
HETATM   15  O3  UNL     1      29.086   2.074  44.644  1.00  0.00    -0.358 OA
ATOM     16  H3  UNL     1      29.995   2.036  44.370  1.00  0.00     0.217 HD
ENDBRANCH   8  15
TORSDOF 5
ENDMDL
