MODEL 2
REMARK VINA RESULT: -6.729981283      0.811      1.032
REMARK  7 active torsions:
REMARK  status: ('A' for Active; 'I' for Inactive)
REMARK    1  A    between atoms: C2_2  and  N1_4 
REMARK    2  A    between atoms: N1_4  and  C4_5 
REMARK       I    between atoms: N1_4  and  C15_19 
REMARK    3  A    between atoms: C6_7  and  C7_8 
REMARK    4  A    between atoms: C7_8  and  C8_9 
REMARK    5  A    between atoms: C8_9  and  C9_10 
REMARK    6  A    between atoms: C13_15  and  C14_16 
REMARK    7  A    between atoms: C15_19  and  C16_21 
ROOT
HETATM    1  C4  UNL     1       7.071  36.826  76.007  1.00  0.00     0.063 A 
HETATM    2  C5  UNL     1       5.814  37.278  76.134  1.00  0.00     0.059 A 
HETATM    3  C6  UNL     1       5.432  37.792  77.337  1.00  0.00     0.061 A 
HETATM    4  S1  UNL     1       6.846  37.631  78.281  1.00  0.00    -0.072 SA
HETATM    5  C13 UNL     1       7.877  36.920  77.120  1.00  0.00     0.109 A 
ENDROOT
BRANCH   1   6
HETATM    6  N1  UNL     1       7.617  36.249  74.784  1.00  0.00    -0.312 N 
HETATM    7  C15 UNL     1       7.530  34.843  74.593  1.00  0.00     0.229 C 
HETATM    8  O3  UNL     1       6.962  34.172  75.501  1.00  0.00    -0.273 OA
BRANCH   6   9
HETATM    9  C2  UNL     1       8.225  37.052  73.778  1.00  0.00     0.085 C 
HETATM   10  C1  UNL     1       9.682  37.386  74.059  1.00  0.00     0.032 C 
HETATM   11  C3  UNL     1       7.429  38.342  73.537  1.00  0.00     0.032 C 
ENDBRANCH   6   9
BRANCH   7  12
HETATM   12  C16 UNL     1       8.059  34.149  73.413  1.00  0.00     0.078 C 
HETATM   13  C17 UNL     1       9.400  33.519  73.577  1.00  0.00     0.014 C 
HETATM   14  C18 UNL     1       9.335  31.992  73.511  1.00  0.00     0.005 C 
HETATM   15  C19 UNL     1       8.765  31.479  72.231  1.00  0.00    -0.019 C 
HETATM   16  C20 UNL     1       9.817  31.213  71.168  1.00  0.00     0.010 C 
HETATM   17  C21 UNL     1       7.714  32.442  71.734  1.00  0.00     0.005 C 
HETATM   18  C22 UNL     1       7.090  33.066  72.993  1.00  0.00     0.014 C 
ENDBRANCH   7  12
ENDBRANCH   1   6
BRANCH   5  19
HETATM   19  C14 UNL     1       9.250  36.538  77.325  1.00  0.00     0.219 C 
HETATM   20  O1  UNL     1       9.651  35.395  77.027  1.00  0.00    -0.643 OA
HETATM   21  O2  UNL     1      10.147  37.435  77.857  1.00  0.00    -0.643 OA
ENDBRANCH   5  19
BRANCH   3  22
HETATM   22  C7  UNL     1       4.132  38.335  77.707  1.00  0.00    -0.059 C 
BRANCH  22  23
HETATM   23  C8  UNL     1       3.060  38.776  78.032  1.00  0.00    -0.092 C 
BRANCH  23  24
HETATM   24  C9  UNL     1       1.738  39.290  78.428  1.00  0.00     0.013 C 
HETATM   25  C10 UNL     1       1.183  40.244  77.370  1.00  0.00     0.028 C 
HETATM   26  C11 UNL     1       1.914  40.007  79.734  1.00  0.00     0.028 C 
HETATM   27  C12 UNL     1       0.755  38.129  78.549  1.00  0.00     0.028 C 
ENDBRANCH  23  24
ENDBRANCH  22  23
ENDBRANCH   3  22
TORSDOF 7
ENDMDL
