MODEL 1
REMARK VINA RESULT: -6.867203222      0.000      0.000
REMARK  7 active torsions:
REMARK  status: ('A' for Active; 'I' for Inactive)
REMARK    1  A    between atoms: C2_2  and  N1_4 
REMARK    2  A    between atoms: N1_4  and  C4_5 
REMARK       I    between atoms: N1_4  and  C15_19 
REMARK    3  A    between atoms: C6_7  and  C7_8 
REMARK    4  A    between atoms: C7_8  and  C8_9 
REMARK    5  A    between atoms: C8_9  and  C9_10 
REMARK    6  A    between atoms: C13_15  and  C14_16 
REMARK    7  A    between atoms: C15_19  and  C16_21 
ROOT
HETATM    1  C4  UNL     1       6.951  37.142  75.931  1.00  0.00     0.063 A 
HETATM    2  C5  UNL     1       5.817  37.860  75.913  1.00  0.00     0.059 A 
HETATM    3  C6  UNL     1       5.390  38.420  77.079  1.00  0.00     0.061 A 
HETATM    4  S1  UNL     1       6.587  37.929  78.193  1.00  0.00    -0.072 SA
HETATM    5  C13 UNL     1       7.591  37.030  77.144  1.00  0.00     0.109 A 
ENDROOT
BRANCH   1   6
HETATM    6  N1  UNL     1       7.525  36.483  74.763  1.00  0.00    -0.312 N 
HETATM    7  C15 UNL     1       7.245  35.106  74.548  1.00  0.00     0.229 C 
HETATM    8  O3  UNL     1       6.492  34.534  75.386  1.00  0.00    -0.273 OA
BRANCH   6   9
HETATM    9  C2  UNL     1       8.347  37.181  73.834  1.00  0.00     0.085 C 
HETATM   10  C1  UNL     1       9.813  37.242  74.239  1.00  0.00     0.032 C 
HETATM   11  C3  UNL     1       7.816  38.597  73.571  1.00  0.00     0.032 C 
ENDBRANCH   6   9
BRANCH   7  12
HETATM   12  C16 UNL     1       7.781  34.335  73.420  1.00  0.00     0.078 C 
HETATM   13  C17 UNL     1       9.082  33.648  73.663  1.00  0.00     0.014 C 
HETATM   14  C18 UNL     1       8.941  32.124  73.660  1.00  0.00     0.005 C 
HETATM   15  C19 UNL     1       8.393  31.583  72.383  1.00  0.00    -0.019 C 
HETATM   16  C20 UNL     1       9.468  31.219  71.374  1.00  0.00     0.010 C 
HETATM   17  C21 UNL     1       7.411  32.573  71.805  1.00  0.00     0.005 C 
HETATM   18  C22 UNL     1       6.774  33.283  73.010  1.00  0.00     0.014 C 
ENDBRANCH   7  12
ENDBRANCH   1   6
BRANCH   5  19
HETATM   19  C14 UNL     1       8.805  36.347  77.511  1.00  0.00     0.219 C 
HETATM   20  O1  UNL     1       8.840  35.105  77.607  1.00  0.00    -0.643 OA
HETATM   21  O2  UNL     1       9.954  37.061  77.763  1.00  0.00    -0.643 OA
ENDBRANCH   5  19
BRANCH   3  22
HETATM   22  C7  UNL     1       4.200  39.232  77.300  1.00  0.00    -0.059 C 
BRANCH  22  23
HETATM   23  C8  UNL     1       3.226  39.910  77.501  1.00  0.00    -0.092 C 
BRANCH  23  24
HETATM   24  C9  UNL     1       2.047  40.750  77.768  1.00  0.00     0.013 C 
HETATM   25  C10 UNL     1       0.825  40.236  77.007  1.00  0.00     0.028 C 
HETATM   26  C11 UNL     1       2.386  42.143  77.328  1.00  0.00     0.028 C 
HETATM   27  C12 UNL     1       1.708  40.694  79.255  1.00  0.00     0.028 C 
ENDBRANCH  23  24
ENDBRANCH  22  23
ENDBRANCH   3  22
TORSDOF 7
ENDMDL
