MODEL 3
REMARK VINA RESULT: -6.560382468      1.837      2.709
REMARK  7 active torsions:
REMARK  status: ('A' for Active; 'I' for Inactive)
REMARK    1  A    between atoms: C2_2  and  N1_4 
REMARK    2  A    between atoms: N1_4  and  C4_5 
REMARK       I    between atoms: N1_4  and  C15_19 
REMARK    3  A    between atoms: C6_7  and  C7_8 
REMARK    4  A    between atoms: C7_8  and  C8_9 
REMARK    5  A    between atoms: C8_9  and  C9_10 
REMARK    6  A    between atoms: C13_15  and  C14_16 
REMARK    7  A    between atoms: C15_19  and  C16_21 
ROOT
HETATM    1  C4  UNL     1       6.326  37.352  75.597  1.00  0.00     0.063 A 
HETATM    2  C5  UNL     1       5.343  37.549  76.490  1.00  0.00     0.059 A 
HETATM    3  C6  UNL     1       4.683  38.740  76.471  1.00  0.00     0.061 A 
HETATM    4  S1  UNL     1       5.453  39.577  75.197  1.00  0.00    -0.072 SA
HETATM    5  C13 UNL     1       6.587  38.388  74.728  1.00  0.00     0.109 A 
ENDROOT
BRANCH   1   6
HETATM    6  N1  UNL     1       7.118  36.131  75.503  1.00  0.00    -0.312 N 
HETATM    7  C15 UNL     1       6.863  35.231  74.433  1.00  0.00     0.229 C 
HETATM    8  O3  UNL     1       5.963  35.557  73.608  1.00  0.00    -0.273 OA
BRANCH   6   9
HETATM    9  C2  UNL     1       8.140  35.823  76.445  1.00  0.00     0.085 C 
HETATM   10  C1  UNL     1       7.635  35.087  77.677  1.00  0.00     0.032 C 
HETATM   11  C3  UNL     1       8.911  37.081  76.866  1.00  0.00     0.032 C 
ENDBRANCH   6   9
BRANCH   7  12
HETATM   12  C16 UNL     1       7.583  33.966  74.247  1.00  0.00     0.078 C 
HETATM   13  C17 UNL     1       6.847  32.904  73.503  1.00  0.00     0.014 C 
HETATM   14  C18 UNL     1       7.488  32.596  72.148  1.00  0.00     0.005 C 
HETATM   15  C19 UNL     1       8.908  32.152  72.253  1.00  0.00    -0.019 C 
HETATM   16  C20 UNL     1       9.060  30.645  72.366  1.00  0.00     0.010 C 
HETATM   17  C21 UNL     1       9.565  32.859  73.412  1.00  0.00     0.005 C 
HETATM   18  C22 UNL     1       8.878  34.230  73.511  1.00  0.00     0.014 C 
ENDBRANCH   7  12
ENDBRANCH   1   6
BRANCH   5  19
HETATM   19  C14 UNL     1       7.553  38.508  73.667  1.00  0.00     0.219 C 
HETATM   20  O1  UNL     1       8.774  38.566  73.913  1.00  0.00    -0.643 OA
HETATM   21  O2  UNL     1       7.140  38.562  72.356  1.00  0.00    -0.643 OA
ENDBRANCH   5  19
BRANCH   3  22
HETATM   22  C7  UNL     1       3.593  39.176  77.335  1.00  0.00    -0.059 C 
BRANCH  22  23
HETATM   23  C8  UNL     1       2.682  39.539  78.031  1.00  0.00    -0.092 C 
BRANCH  23  24
HETATM   24  C9  UNL     1       1.558  39.958  78.886  1.00  0.00     0.013 C 
HETATM   25  C10 UNL     1       0.262  39.267  78.463  1.00  0.00     0.028 C 
HETATM   26  C11 UNL     1       1.425  41.445  78.745  1.00  0.00     0.028 C 
HETATM   27  C12 UNL     1       1.837  39.550  80.330  1.00  0.00     0.028 C 
ENDBRANCH  23  24
ENDBRANCH  22  23
ENDBRANCH   3  22
TORSDOF 7
ENDMDL
