MODEL 13
REMARK VINA RESULT: -5.967497921      4.497      9.199
REMARK  8 active torsions:
REMARK  status: ('A' for Active; 'I' for Inactive)
REMARK    1  A    between atoms: N1_2  and  N2_4 
REMARK    2  A    between atoms: N2_4  and  C3_5 
REMARK    3  A    between atoms: N2_4  and  C14_19 
REMARK    4  A    between atoms: C5_7  and  C6_8 
REMARK    5  A    between atoms: C7_9  and  C8_10 
REMARK    6  A    between atoms: C12_15  and  C13_16 
REMARK    7  A    between atoms: C14_19  and  O3_20 
REMARK    8  A    between atoms: C14_19  and  C15_22 
ROOT
HETATM    1  C3  UNL     1       5.960  37.502  75.436  1.00  0.00     0.079 A 
HETATM    2  C4  UNL     1       4.922  37.785  76.261  1.00  0.00     0.061 A 
HETATM    3  C5  UNL     1       4.331  39.004  76.145  1.00  0.00     0.061 A 
HETATM    4  S1  UNL     1       5.222  39.738  74.897  1.00  0.00    -0.072 SA
HETATM    5  C12 UNL     1       6.338  38.464  74.547  1.00  0.00     0.111 A 
ENDROOT
BRANCH   1   6
HETATM    6  N2  UNL     1       6.623  36.177  75.523  1.00  0.00    -0.256 N 
BRANCH   6   7
HETATM    7  N1  UNL     1       7.478  35.979  76.565  1.00  0.00    -0.231 NA
HETATM    8  C1  UNL     1       8.826  36.420  76.323  1.00  0.00     0.136 C 
HETATM    9  C2  UNL     1       7.569  34.604  77.044  1.00  0.00     0.136 C 
ENDBRANCH   6   7
BRANCH   6  10
HETATM   10  C14 UNL     1       6.296  35.278  74.522  1.00  0.00     0.137 C 
BRANCH  10  11
HETATM   11  O3  UNL     1       5.219  34.563  74.779  1.00  0.00    -0.348 OA
ATOM     12  H3  UNL     1       5.323  33.958  75.503  1.00  0.00     0.219 HD
ENDBRANCH  10  11
BRANCH  10  13
HETATM   13  C15 UNL     1       6.909  34.956  73.237  1.00  0.00     0.062 C 
HETATM   14  C16 UNL     1       8.342  34.510  73.345  1.00  0.00     0.013 C 
HETATM   15  C17 UNL     1       8.442  33.018  73.688  1.00  0.00     0.005 C 
HETATM   16  C18 UNL     1       7.888  32.181  72.555  1.00  0.00    -0.019 C 
HETATM   17  C19 UNL     1       8.948  31.502  71.749  1.00  0.00     0.010 C 
HETATM   18  C20 UNL     1       6.965  33.043  71.681  1.00  0.00     0.005 C 
HETATM   19  C21 UNL     1       6.097  33.803  72.620  1.00  0.00     0.013 C 
ENDBRANCH  10  13
ENDBRANCH   6  10
ENDBRANCH   1   6
BRANCH   5  20
HETATM   20  C13 UNL     1       7.361  38.495  73.534  1.00  0.00     0.219 C 
HETATM   21  O1  UNL     1       7.058  38.608  72.326  1.00  0.00    -0.643 OA
HETATM   22  O2  UNL     1       8.687  38.403  73.872  1.00  0.00    -0.643 OA
ENDBRANCH   5  20
BRANCH   3  23
HETATM   23  C6  UNL     1       3.202  39.524  76.906  1.00  0.00    -0.059 C 
HETATM   24  C7  UNL     1       2.261  39.928  77.535  1.00  0.00    -0.092 C 
BRANCH  24  25
HETATM   25  C8  UNL     1       1.088  40.399  78.315  1.00  0.00     0.013 C 
HETATM   26  C9  UNL     1       1.009  41.911  78.306  1.00  0.00     0.028 C 
HETATM   27  C10 UNL     1       1.348  39.947  79.744  1.00  0.00     0.028 C 
HETATM   28  C11 UNL     1      -0.195  39.786  77.831  1.00  0.00     0.028 C 
ENDBRANCH  24  25
ENDBRANCH   3  23
TORSDOF 8
ENDMDL
