MODEL 2
REMARK VINA RESULT: -6.865307874      1.022      1.107
REMARK  8 active torsions:
REMARK  status: ('A' for Active; 'I' for Inactive)
REMARK    1  A    between atoms: N1_2  and  N2_4 
REMARK    2  A    between atoms: N2_4  and  C3_5 
REMARK    3  A    between atoms: N2_4  and  C14_19 
REMARK    4  A    between atoms: C5_7  and  C6_8 
REMARK    5  A    between atoms: C7_9  and  C8_10 
REMARK    6  A    between atoms: C12_15  and  C13_16 
REMARK    7  A    between atoms: C14_19  and  O3_20 
REMARK    8  A    between atoms: C14_19  and  C15_22 
ROOT
HETATM    1  C3  UNL     1       7.670  33.572  74.358  1.00  0.00     0.079 A 
HETATM    2  C4  UNL     1       8.826  33.438  73.662  1.00  0.00     0.061 A 
HETATM    3  C5  UNL     1       8.966  32.343  72.868  1.00  0.00     0.061 A 
HETATM    4  S1  UNL     1       7.498  31.518  73.099  1.00  0.00    -0.072 SA
HETATM    5  C12 UNL     1       6.730  32.596  74.212  1.00  0.00     0.111 A 
ENDROOT
BRANCH   1   6
HETATM    6  N2  UNL     1       7.473  34.760  75.227  1.00  0.00    -0.256 N 
BRANCH   6   7
HETATM    7  N1  UNL     1       7.710  34.600  76.559  1.00  0.00    -0.231 NA
HETATM    8  C1  UNL     1       6.773  35.275  77.417  1.00  0.00     0.136 C 
HETATM    9  C2  UNL     1       9.042  34.991  77.006  1.00  0.00     0.136 C 
ENDBRANCH   6   7
BRANCH   6  10
HETATM   10  C14 UNL     1       7.065  35.913  74.579  1.00  0.00     0.137 C 
BRANCH  10  11
HETATM   11  O3  UNL     1       6.021  35.742  73.793  1.00  0.00    -0.348 OA
ATOM     12  H3  UNL     1       6.036  34.927  73.305  1.00  0.00     0.219 HD
ENDBRANCH  10  11
BRANCH  10  13
HETATM   13  C15 UNL     1       7.564  37.285  74.584  1.00  0.00     0.062 C 
HETATM   14  C16 UNL     1       9.064  37.383  74.518  1.00  0.00     0.013 C 
HETATM   15  C17 UNL     1       9.571  37.279  73.074  1.00  0.00     0.005 C 
HETATM   16  C18 UNL     1       9.095  38.465  72.264  1.00  0.00    -0.019 C 
HETATM   17  C19 UNL     1      10.174  39.462  71.986  1.00  0.00     0.010 C 
HETATM   18  C20 UNL     1       7.882  39.107  72.952  1.00  0.00     0.005 C 
HETATM   19  C21 UNL     1       6.985  37.985  73.342  1.00  0.00     0.013 C 
ENDBRANCH  10  13
ENDBRANCH   6  10
ENDBRANCH   1   6
BRANCH   5  20
HETATM   20  C13 UNL     1       5.414  32.431  74.772  1.00  0.00     0.219 C 
HETATM   21  O1  UNL     1       4.497  33.234  74.492  1.00  0.00    -0.643 OA
HETATM   22  O2  UNL     1       5.137  31.391  75.622  1.00  0.00    -0.643 OA
ENDBRANCH   5  20
BRANCH   3  23
HETATM   23  C6  UNL     1      10.101  31.994  72.023  1.00  0.00    -0.059 C 
HETATM   24  C7  UNL     1      11.037  31.682  71.336  1.00  0.00    -0.092 C 
BRANCH  24  25
HETATM   25  C8  UNL     1      12.192  31.268  70.499  1.00  0.00     0.013 C 
HETATM   26  C9  UNL     1      11.755  31.011  69.072  1.00  0.00     0.028 C 
HETATM   27  C10 UNL     1      12.667  29.951  71.093  1.00  0.00     0.028 C 
HETATM   28  C11 UNL     1      13.314  32.264  70.551  1.00  0.00     0.028 C 
ENDBRANCH  24  25
ENDBRANCH   3  23
TORSDOF 8
ENDMDL
