MODEL 11
REMARK VINA RESULT: -6.016657277      4.528      8.531
REMARK  8 active torsions:
REMARK  status: ('A' for Active; 'I' for Inactive)
REMARK    1  A    between atoms: N1_2  and  N2_4 
REMARK    2  A    between atoms: N2_4  and  C3_5 
REMARK    3  A    between atoms: N2_4  and  C14_19 
REMARK    4  A    between atoms: C5_7  and  C6_8 
REMARK    5  A    between atoms: C7_9  and  C8_10 
REMARK    6  A    between atoms: C12_15  and  C13_16 
REMARK    7  A    between atoms: C14_19  and  O3_20 
REMARK    8  A    between atoms: C14_19  and  C15_22 
ROOT
HETATM    1  C3  UNL     1       5.350  35.538  76.933  1.00  0.00     0.079 A 
HETATM    2  C4  UNL     1       4.571  36.609  77.225  1.00  0.00     0.061 A 
HETATM    3  C5  UNL     1       3.298  36.376  77.643  1.00  0.00     0.061 A 
HETATM    4  S1  UNL     1       3.200  34.679  77.623  1.00  0.00    -0.072 SA
HETATM    5  C12 UNL     1       4.797  34.300  77.079  1.00  0.00     0.111 A 
ENDROOT
BRANCH   1   6
HETATM    6  N2  UNL     1       6.749  35.750  76.486  1.00  0.00    -0.256 N 
BRANCH   6   7
HETATM    7  N1  UNL     1       7.736  35.470  77.383  1.00  0.00    -0.231 NA
HETATM    8  C1  UNL     1       8.117  36.578  78.218  1.00  0.00     0.136 C 
HETATM    9  C2  UNL     1       8.966  34.937  76.809  1.00  0.00     0.136 C 
ENDBRANCH   6   7
BRANCH   6  10
HETATM   10  C14 UNL     1       6.898  36.216  75.191  1.00  0.00     0.137 C 
BRANCH  10  11
HETATM   11  O3  UNL     1       6.855  35.269  74.276  1.00  0.00    -0.348 OA
ATOM     12  H3  UNL     1       6.282  34.545  74.498  1.00  0.00     0.219 HD
ENDBRANCH  10  11
BRANCH  10  13
HETATM   13  C15 UNL     1       7.103  37.549  74.632  1.00  0.00     0.062 C 
HETATM   14  C16 UNL     1       8.473  38.111  74.893  1.00  0.00     0.013 C 
HETATM   15  C17 UNL     1       9.494  37.601  73.868  1.00  0.00     0.005 C 
HETATM   16  C18 UNL     1       9.151  38.115  72.486  1.00  0.00    -0.019 C 
HETATM   17  C19 UNL     1      10.055  39.210  72.020  1.00  0.00     0.010 C 
HETATM   18  C20 UNL     1       7.673  38.532  72.444  1.00  0.00     0.005 C 
HETATM   19  C21 UNL     1       6.914  37.439  73.109  1.00  0.00     0.013 C 
ENDBRANCH  10  13
ENDBRANCH   6  10
ENDBRANCH   1   6
BRANCH   5  20
HETATM   20  C13 UNL     1       5.328  32.977  76.881  1.00  0.00     0.219 C 
HETATM   21  O1  UNL     1       5.308  32.137  77.807  1.00  0.00    -0.643 OA
HETATM   22  O2  UNL     1       5.864  32.607  75.673  1.00  0.00    -0.643 OA
ENDBRANCH   5  20
BRANCH   3  23
HETATM   23  C6  UNL     1       2.291  37.357  78.023  1.00  0.00    -0.059 C 
HETATM   24  C7  UNL     1       1.470  38.183  78.319  1.00  0.00    -0.092 C 
BRANCH  24  25
HETATM   25  C8  UNL     1       0.467  39.224  78.663  1.00  0.00     0.013 C 
HETATM   26  C9  UNL     1      -0.933  38.647  78.642  1.00  0.00     0.028 C 
HETATM   27  C10 UNL     1       0.568  40.261  77.556  1.00  0.00     0.028 C 
HETATM   28  C11 UNL     1       0.763  39.880  79.981  1.00  0.00     0.028 C 
ENDBRANCH  24  25
ENDBRANCH   3  23
TORSDOF 8
ENDMDL
