MODEL 3
REMARK VINA RESULT: -5.504530219      8.527     10.116
REMARK  0 active torsions:
REMARK  status: ('A' for Active; 'I' for Inactive)
ROOT
HETATM    1  C1  UNL     1      30.010  14.326  44.082  1.00  0.00     0.164 C 
HETATM    2  N1  UNL     1      31.163  14.253  43.201  1.00  0.00    -0.269 N 
HETATM    3  C2  UNL     1      32.225  15.036  43.457  1.00  0.00     0.281 A 
HETATM    4  O1  UNL     1      32.270  15.835  44.427  1.00  0.00    -0.265 OA
HETATM    5  C3  UNL     1      33.309  14.946  42.602  1.00  0.00     0.147 A 
HETATM    6  N2  UNL     1      34.484  15.571  42.582  1.00  0.00    -0.345 N 
ATOM      7  H2  UNL     1      34.802  16.275  43.248  1.00  0.00     0.167 HD
HETATM    8  C4  UNL     1      35.174  15.111  41.531  1.00  0.00     0.182 A 
HETATM    9  N3  UNL     1      34.439  14.186  40.875  1.00  0.00    -0.336 N 
ATOM     10  H3  UNL     1      34.723  13.674  40.039  1.00  0.00     0.168 HD
HETATM   11  C5  UNL     1      33.266  14.061  41.521  1.00  0.00     0.145 A 
HETATM   12  N4  UNL     1      32.178  13.317  41.334  1.00  0.00    -0.287 N 
HETATM   13  C6  UNL     1      32.165  12.411  40.206  1.00  0.00     0.163 C 
HETATM   14  C7  UNL     1      31.128  13.414  42.175  1.00  0.00     0.332 A 
HETATM   15  O2  UNL     1      30.128  12.678  41.935  1.00  0.00    -0.246 OA
ENDROOT
TORSDOF 0
ENDMDL
