MODEL 1
REMARK VINA RESULT: -5.541489527      0.000      0.000
REMARK  0 active torsions:
REMARK  status: ('A' for Active; 'I' for Inactive)
ROOT
HETATM    1  C1  UNL     1      29.205   8.625  37.677  1.00  0.00     0.164 C 
HETATM    2  N1  UNL     1      29.213   7.324  38.322  1.00  0.00    -0.269 N 
HETATM    3  C2  UNL     1      28.220   7.016  39.173  1.00  0.00     0.281 A 
HETATM    4  O1  UNL     1      27.277   7.805  39.443  1.00  0.00    -0.265 OA
HETATM    5  C3  UNL     1      28.252   5.770  39.774  1.00  0.00     0.147 A 
HETATM    6  N2  UNL     1      27.436   5.177  40.643  1.00  0.00    -0.345 N 
ATOM      7  H2  UNL     1      26.587   5.577  41.039  1.00  0.00     0.167 HD
HETATM    8  C4  UNL     1      27.932   3.960  40.903  1.00  0.00     0.182 A 
HETATM    9  N3  UNL     1      29.068   3.772  40.197  1.00  0.00    -0.336 N 
ATOM     10  H3  UNL     1      29.650   2.934  40.206  1.00  0.00     0.168 HD
HETATM   11  C5  UNL     1      29.295   4.887  39.481  1.00  0.00     0.145 A 
HETATM   12  N4  UNL     1      30.243   5.265  38.625  1.00  0.00    -0.287 N 
HETATM   13  C6  UNL     1      31.310   4.328  38.342  1.00  0.00     0.163 C 
HETATM   14  C7  UNL     1      30.200   6.482  38.047  1.00  0.00     0.332 A 
HETATM   15  O2  UNL     1      31.134   6.773  37.246  1.00  0.00    -0.246 OA
ENDROOT
TORSDOF 0
ENDMDL
