MODEL 2
REMARK VINA RESULT: -5.531693682      8.275      9.647
REMARK  0 active torsions:
REMARK  status: ('A' for Active; 'I' for Inactive)
ROOT
HETATM    1  C1  UNL     1      32.089  11.988  39.893  1.00  0.00     0.164 C 
HETATM    2  N1  UNL     1      32.299  12.996  40.918  1.00  0.00    -0.269 N 
HETATM    3  C2  UNL     1      31.333  13.207  41.828  1.00  0.00     0.281 A 
HETATM    4  O1  UNL     1      30.248  12.570  41.837  1.00  0.00    -0.265 OA
HETATM    5  C3  UNL     1      31.560  14.173  42.792  1.00  0.00     0.147 A 
HETATM    6  N2  UNL     1      30.820  14.610  43.809  1.00  0.00    -0.345 N 
ATOM      7  H2  UNL     1      29.891  14.276  44.063  1.00  0.00     0.167 HD
HETATM    8  C4  UNL     1      31.514  15.567  44.438  1.00  0.00     0.182 A 
HETATM    9  N3  UNL     1      32.705  15.743  43.823  1.00  0.00    -0.336 N 
ATOM     10  H3  UNL     1      33.429  16.407  44.095  1.00  0.00     0.168 HD
HETATM   11  C5  UNL     1      32.762  14.885  42.789  1.00  0.00     0.145 A 
HETATM   12  N4  UNL     1      33.671  14.618  41.854  1.00  0.00    -0.287 N 
HETATM   13  C6  UNL     1      34.906  15.373  41.877  1.00  0.00     0.163 C 
HETATM   14  C7  UNL     1      33.438  13.674  40.920  1.00  0.00     0.332 A 
HETATM   15  O2  UNL     1      34.346  13.475  40.062  1.00  0.00    -0.246 OA
ENDROOT
TORSDOF 0
ENDMDL
