MODEL 16
REMARK VINA RESULT: -5.246012316      1.689      4.499
REMARK  0 active torsions:
REMARK  status: ('A' for Active; 'I' for Inactive)
ROOT
HETATM    1  C1  UNL     1      30.327   3.982  39.278  1.00  0.00     0.164 C 
HETATM    2  N1  UNL     1      29.902   5.329  38.942  1.00  0.00    -0.269 N 
HETATM    3  C2  UNL     1      30.525   5.976  37.942  1.00  0.00     0.281 A 
HETATM    4  O1  UNL     1      31.466   5.468  37.278  1.00  0.00    -0.265 OA
HETATM    5  C3  UNL     1      30.100   7.258  37.644  1.00  0.00     0.147 A 
HETATM    6  N2  UNL     1      30.502   8.142  36.733  1.00  0.00    -0.345 N 
ATOM      7  H2  UNL     1      31.248   8.006  36.052  1.00  0.00     0.167 HD
HETATM    8  C4  UNL     1      29.750   9.242  36.871  1.00  0.00     0.182 A 
HETATM    9  N3  UNL     1      28.862   9.062  37.874  1.00  0.00    -0.336 N 
ATOM     10  H3  UNL     1      28.168   9.738  38.192  1.00  0.00     0.168 HD
HETATM   11  C5  UNL     1      29.057   7.830  38.377  1.00  0.00     0.145 A 
HETATM   12  N4  UNL     1      28.489   7.125  39.354  1.00  0.00    -0.287 N 
HETATM   13  C6  UNL     1      27.411   7.745  40.094  1.00  0.00     0.163 C 
HETATM   14  C7  UNL     1      28.912   5.876  39.634  1.00  0.00     0.332 A 
HETATM   15  O2  UNL     1      28.327   5.267  40.575  1.00  0.00    -0.246 OA
ENDROOT
TORSDOF 0
ENDMDL
