MODEL 13
REMARK VINA RESULT: -8.881330854      2.351      4.574
REMARK  7 active torsions:
REMARK  status: ('A' for Active; 'I' for Inactive)
REMARK    1  A    between atoms: N1_1  and  S1_4 
REMARK    2  A    between atoms: S1_4  and  C1_7 
REMARK    3  A    between atoms: C4_10  and  N2_11 
REMARK    4  A    between atoms: N2_11  and  C5_13 
REMARK    5  A    between atoms: C6_16  and  O3_17 
REMARK    6  A    between atoms: O3_17  and  C7_18 
REMARK    7  A    between atoms: C7_18  and  C8_19 
ROOT
HETATM    1  C5  UNL     1      -7.810 -22.799  23.981  1.00  0.00     0.686 A 
HETATM    2  N3  UNL     1      -6.654 -22.290  23.434  1.00  0.00    -0.168 N 
ATOM      3  H3  UNL     1      -5.757 -22.695  23.702  1.00  0.00     0.186 HD
HETATM    4  C6  UNL     1      -6.678 -21.282  22.565  1.00  0.00     0.188 A 
HETATM    5  C14 UNL     1      -7.845 -20.686  22.158  1.00  0.00     0.130 A 
HETATM    6  N4  UNL     1      -8.154 -19.700  21.334  1.00  0.00    -0.346 N 
ATOM      7  H4  UNL     1      -7.505 -19.136  20.786  1.00  0.00     0.167 HD
HETATM    8  C15 UNL     1      -9.496 -19.590  21.364  1.00  0.00     0.182 A 
HETATM    9  N5  UNL     1     -10.014 -20.503  22.201  1.00  0.00    -0.336 N 
ATOM     10  H5  UNL     1     -11.003 -20.640  22.410  1.00  0.00     0.168 HD
HETATM   11  C16 UNL     1      -8.999 -21.196  22.706  1.00  0.00     0.153 A 
HETATM   12  N6  UNL     1      -8.915 -22.198  23.564  1.00  0.00    -0.174 N 
ATOM     13  H6  UNL     1      -9.795 -22.546  23.946  1.00  0.00     0.186 HD
ENDROOT
BRANCH   1  14
HETATM   14  N2  UNL     1      -7.741 -23.867  24.891  1.00  0.00    -0.192 N 
ATOM     15  H2  UNL     1      -8.534 -24.004  25.518  1.00  0.00     0.184 HD
BRANCH  14  16
HETATM   16  C4  UNL     1      -6.667 -24.759  25.002  1.00  0.00     0.049 A 
HETATM   17  C3  UNL     1      -5.960 -25.271  23.954  1.00  0.00     0.031 A 
HETATM   18  C2  UNL     1      -4.881 -26.161  24.133  1.00  0.00     0.027 A 
HETATM   19  C1  UNL     1      -4.490 -26.557  25.390  1.00  0.00     0.079 A 
HETATM   20  C18 UNL     1      -5.201 -26.043  26.441  1.00  0.00     0.027 A 
HETATM   21  C17 UNL     1      -6.249 -25.178  26.282  1.00  0.00     0.031 A 
BRANCH  19  22
HETATM   22  S1  UNL     1      -3.158 -27.659  25.644  1.00  0.00     0.256 S 
HETATM   23  O1  UNL     1      -2.964 -28.525  24.419  1.00  0.00    -0.201 OA
HETATM   24  O2  UNL     1      -1.932 -26.847  25.927  1.00  0.00    -0.201 OA
BRANCH  22  25
HETATM   25  N1  UNL     1      -3.572 -28.666  26.993  1.00  0.00    -0.324 N 
ATOM     26  H12 UNL     1      -3.625 -29.684  26.961  1.00  0.00     0.169 HD
ATOM     27  H11 UNL     1      -3.749 -28.078  27.807  1.00  0.00     0.169 HD
ENDBRANCH  22  25
ENDBRANCH  19  22
ENDBRANCH  14  16
ENDBRANCH   1  14
BRANCH   4  28
HETATM   28  O3  UNL     1      -5.457 -20.841  22.071  1.00  0.00    -0.333 OA
BRANCH  28  29
HETATM   29  C7  UNL     1      -5.066 -20.956  20.738  1.00  0.00     0.182 C 
BRANCH  29  30
HETATM   30  C8  UNL     1      -4.389 -22.312  20.566  1.00  0.00     0.010 C 
HETATM   31  C9  UNL     1      -3.576 -22.354  19.318  1.00  0.00     0.007 C 
HETATM   32  C10 UNL     1      -2.132 -22.700  19.521  1.00  0.00     0.000 C 
HETATM   33  C11 UNL     1      -1.893 -23.851  20.440  1.00  0.00     0.000 C 
HETATM   34  C12 UNL     1      -2.864 -23.902  21.595  1.00  0.00     0.000 C 
HETATM   35  C13 UNL     1      -3.502 -22.536  21.773  1.00  0.00     0.007 C 
ENDBRANCH  29  30
ENDBRANCH  28  29
ENDBRANCH   4  28
TORSDOF 7
ENDMDL
