MODEL 2
REMARK VINA RESULT: -9.509484337      1.515      2.025
REMARK  7 active torsions:
REMARK  status: ('A' for Active; 'I' for Inactive)
REMARK    1  A    between atoms: N1_1  and  S1_4 
REMARK    2  A    between atoms: S1_4  and  C1_7 
REMARK    3  A    between atoms: C4_10  and  N2_11 
REMARK    4  A    between atoms: N2_11  and  C5_13 
REMARK    5  A    between atoms: C6_16  and  O3_17 
REMARK    6  A    between atoms: O3_17  and  C7_18 
REMARK    7  A    between atoms: C7_18  and  C8_19 
ROOT
HETATM    1  C5  UNL     1      -5.182 -25.114  23.278  1.00  0.00     0.686 A 
HETATM    2  N3  UNL     1      -5.861 -23.935  23.071  1.00  0.00    -0.168 N 
ATOM      3  H3  UNL     1      -6.718 -23.756  23.594  1.00  0.00     0.186 HD
HETATM    4  C6  UNL     1      -5.427 -23.022  22.204  1.00  0.00     0.188 A 
HETATM    5  C14 UNL     1      -4.284 -23.192  21.464  1.00  0.00     0.130 A 
HETATM    6  N4  UNL     1      -3.640 -22.475  20.559  1.00  0.00    -0.346 N 
ATOM      7  H4  UNL     1      -3.906 -21.557  20.205  1.00  0.00     0.167 HD
HETATM    8  C15 UNL     1      -2.563 -23.201  20.200  1.00  0.00     0.182 A 
HETATM    9  N5  UNL     1      -2.541 -24.359  20.879  1.00  0.00    -0.336 N 
ATOM     10  H5  UNL     1      -1.837 -25.092  20.800  1.00  0.00     0.168 HD
HETATM   11  C16 UNL     1      -3.607 -24.372  21.671  1.00  0.00     0.153 A 
HETATM   12  N6  UNL     1      -4.085 -25.241  22.545  1.00  0.00    -0.174 N 
ATOM     13  H6  UNL     1      -3.552 -26.102  22.669  1.00  0.00     0.186 HD
ENDROOT
BRANCH   1  14
HETATM   14  N2  UNL     1      -5.671 -26.048  24.205  1.00  0.00    -0.192 N 
ATOM     15  H2  UNL     1      -6.391 -26.696  23.886  1.00  0.00     0.184 HD
BRANCH  14  16
HETATM   16  C4  UNL     1      -5.246 -26.157  25.535  1.00  0.00     0.049 A 
HETATM   17  C3  UNL     1      -5.843 -25.553  26.603  1.00  0.00     0.031 A 
HETATM   18  C2  UNL     1      -5.369 -25.707  27.921  1.00  0.00     0.027 A 
HETATM   19  C1  UNL     1      -4.269 -26.485  28.193  1.00  0.00     0.079 A 
HETATM   20  C18 UNL     1      -3.669 -27.090  27.120  1.00  0.00     0.027 A 
HETATM   21  C17 UNL     1      -4.119 -26.949  25.835  1.00  0.00     0.031 A 
BRANCH  19  22
HETATM   22  S1  UNL     1      -3.656 -26.696  29.816  1.00  0.00     0.256 S 
HETATM   23  O1  UNL     1      -3.220 -28.130  30.019  1.00  0.00    -0.201 OA
HETATM   24  O2  UNL     1      -2.508 -25.754  30.004  1.00  0.00    -0.201 OA
BRANCH  22  25
HETATM   25  N1  UNL     1      -4.953 -26.336  30.907  1.00  0.00    -0.324 N 
ATOM     26  H12 UNL     1      -5.926 -26.605  30.760  1.00  0.00     0.169 HD
ATOM     27  H11 UNL     1      -4.585 -25.820  31.706  1.00  0.00     0.169 HD
ENDBRANCH  22  25
ENDBRANCH  19  22
ENDBRANCH  14  16
ENDBRANCH   1  14
BRANCH   4  28
HETATM   28  O3  UNL     1      -6.183 -21.865  22.068  1.00  0.00    -0.333 OA
BRANCH  28  29
HETATM   29  C7  UNL     1      -7.343 -21.599  22.793  1.00  0.00     0.182 C 
BRANCH  29  30
HETATM   30  C8  UNL     1      -8.079 -20.462  22.094  1.00  0.00     0.010 C 
HETATM   31  C9  UNL     1      -7.283 -19.924  20.954  1.00  0.00     0.007 C 
HETATM   32  C10 UNL     1      -7.983 -19.951  19.630  1.00  0.00     0.000 C 
HETATM   33  C11 UNL     1      -9.395 -19.469  19.665  1.00  0.00     0.000 C 
HETATM   34  C12 UNL     1     -10.126 -19.857  20.928  1.00  0.00     0.000 C 
HETATM   35  C13 UNL     1      -9.398 -21.011  21.592  1.00  0.00     0.007 C 
ENDBRANCH  29  30
ENDBRANCH  28  29
ENDBRANCH   4  28
TORSDOF 7
ENDMDL
