MODEL 14
REMARK VINA RESULT: -8.823678888      2.357      4.625
REMARK  7 active torsions:
REMARK  status: ('A' for Active; 'I' for Inactive)
REMARK    1  A    between atoms: N1_1  and  S1_4 
REMARK    2  A    between atoms: S1_4  and  C1_7 
REMARK    3  A    between atoms: C4_10  and  N2_11 
REMARK    4  A    between atoms: N2_11  and  C5_13 
REMARK    5  A    between atoms: C6_16  and  O3_17 
REMARK    6  A    between atoms: O3_17  and  C7_18 
REMARK    7  A    between atoms: C7_18  and  C8_19 
ROOT
HETATM    1  C5  UNL     1      -7.889 -23.049  24.079  1.00  0.00     0.686 A 
HETATM    2  N3  UNL     1      -6.809 -22.494  23.430  1.00  0.00    -0.168 N 
ATOM      3  H3  UNL     1      -5.875 -22.860  23.615  1.00  0.00     0.186 HD
HETATM    4  C6  UNL     1      -6.954 -21.491  22.566  1.00  0.00     0.188 A 
HETATM    5  C14 UNL     1      -8.177 -20.946  22.266  1.00  0.00     0.130 A 
HETATM    6  N4  UNL     1      -8.600 -19.977  21.474  1.00  0.00    -0.346 N 
ATOM      7  H4  UNL     1      -8.028 -19.388  20.869  1.00  0.00     0.167 HD
HETATM    8  C15 UNL     1      -9.937 -19.922  21.625  1.00  0.00     0.182 A 
HETATM    9  N5  UNL     1     -10.339 -20.853  22.506  1.00  0.00    -0.336 N 
ATOM     10  H5  UNL     1     -11.298 -21.030  22.804  1.00  0.00     0.168 HD
HETATM   11  C16 UNL     1      -9.254 -21.501  22.917  1.00  0.00     0.153 A 
HETATM   12  N6  UNL     1      -9.051 -22.496  23.764  1.00  0.00    -0.174 N 
ATOM     13  H6  UNL     1      -9.877 -22.878  24.224  1.00  0.00     0.186 HD
ENDROOT
BRANCH   1  14
HETATM   14  N2  UNL     1      -7.693 -24.109  24.979  1.00  0.00    -0.192 N 
ATOM     15  H2  UNL     1      -8.460 -24.338  25.611  1.00  0.00     0.184 HD
BRANCH  14  16
HETATM   16  C4  UNL     1      -6.525 -24.876  25.074  1.00  0.00     0.049 A 
HETATM   17  C3  UNL     1      -5.949 -25.289  26.240  1.00  0.00     0.031 A 
HETATM   18  C2  UNL     1      -4.774 -26.066  26.268  1.00  0.00     0.027 A 
HETATM   19  C1  UNL     1      -4.148 -26.448  25.105  1.00  0.00     0.079 A 
HETATM   20  C18 UNL     1      -4.727 -26.033  23.936  1.00  0.00     0.027 A 
HETATM   21  C17 UNL     1      -5.868 -25.278  23.893  1.00  0.00     0.031 A 
BRANCH  19  22
HETATM   22  S1  UNL     1      -2.690 -27.412  25.107  1.00  0.00     0.256 S 
HETATM   23  O1  UNL     1      -2.242 -27.665  26.529  1.00  0.00    -0.201 OA
HETATM   24  O2  UNL     1      -2.984 -28.699  24.400  1.00  0.00    -0.201 OA
BRANCH  22  25
HETATM   25  N1  UNL     1      -1.469 -26.502  24.279  1.00  0.00    -0.324 N 
ATOM     26  H12 UNL     1      -1.608 -25.572  23.883  1.00  0.00     0.169 HD
ATOM     27  H11 UNL     1      -0.606 -27.044  24.256  1.00  0.00     0.169 HD
ENDBRANCH  22  25
ENDBRANCH  19  22
ENDBRANCH  14  16
ENDBRANCH   1  14
BRANCH   4  28
HETATM   28  O3  UNL     1      -5.803 -21.002  21.963  1.00  0.00    -0.333 OA
BRANCH  28  29
HETATM   29  C7  UNL     1      -5.452 -21.242  20.636  1.00  0.00     0.182 C 
BRANCH  29  30
HETATM   30  C8  UNL     1      -4.083 -21.913  20.629  1.00  0.00     0.010 C 
HETATM   31  C9  UNL     1      -3.127 -21.196  21.520  1.00  0.00     0.007 C 
HETATM   32  C10 UNL     1      -2.507 -22.044  22.588  1.00  0.00     0.000 C 
HETATM   33  C11 UNL     1      -2.019 -23.374  22.119  1.00  0.00     0.000 C 
HETATM   34  C12 UNL     1      -2.901 -23.994  21.063  1.00  0.00     0.000 C 
HETATM   35  C13 UNL     1      -4.269 -23.338  21.107  1.00  0.00     0.007 C 
ENDBRANCH  29  30
ENDBRANCH  28  29
ENDBRANCH   4  28
TORSDOF 7
ENDMDL
