MODEL 4
REMARK VINA RESULT: -9.280730874      1.869      2.365
REMARK  7 active torsions:
REMARK  status: ('A' for Active; 'I' for Inactive)
REMARK    1  A    between atoms: N1_1  and  S1_4 
REMARK    2  A    between atoms: S1_4  and  C1_7 
REMARK    3  A    between atoms: C4_10  and  N2_11 
REMARK    4  A    between atoms: N2_11  and  C5_13 
REMARK    5  A    between atoms: C6_16  and  O3_17 
REMARK    6  A    between atoms: O3_17  and  C7_18 
REMARK    7  A    between atoms: C7_18  and  C8_19 
ROOT
HETATM    1  C5  UNL     1      -4.535 -24.875  22.625  1.00  0.00     0.686 A 
HETATM    2  N3  UNL     1      -5.139 -23.639  22.660  1.00  0.00    -0.168 N 
ATOM      3  H3  UNL     1      -5.938 -23.493  23.277  1.00  0.00     0.186 HD
HETATM    4  C6  UNL     1      -4.708 -22.629  21.907  1.00  0.00     0.188 A 
HETATM    5  C14 UNL     1      -3.640 -22.749  21.053  1.00  0.00     0.130 A 
HETATM    6  N4  UNL     1      -3.017 -21.939  20.216  1.00  0.00    -0.346 N 
ATOM      7  H4  UNL     1      -3.241 -20.962  20.030  1.00  0.00     0.167 HD
HETATM    8  C15 UNL     1      -2.027 -22.663  19.658  1.00  0.00     0.182 A 
HETATM    9  N5  UNL     1      -2.038 -23.913  20.148  1.00  0.00    -0.336 N 
ATOM     10  H5  UNL     1      -1.397 -24.666  19.898  1.00  0.00     0.168 HD
HETATM   11  C16 UNL     1      -3.038 -23.986  21.019  1.00  0.00     0.153 A 
HETATM   12  N6  UNL     1      -3.509 -24.952  21.789  1.00  0.00    -0.174 N 
ATOM     13  H6  UNL     1      -3.033 -25.852  21.733  1.00  0.00     0.186 HD
ENDROOT
BRANCH   1  14
HETATM   14  N2  UNL     1      -5.019 -25.913  23.439  1.00  0.00    -0.192 N 
ATOM     15  H2  UNL     1      -5.524 -26.672  22.983  1.00  0.00     0.184 HD
BRANCH  14  16
HETATM   16  C4  UNL     1      -4.860 -25.983  24.829  1.00  0.00     0.049 A 
HETATM   17  C3  UNL     1      -3.721 -26.371  25.470  1.00  0.00     0.031 A 
HETATM   18  C2  UNL     1      -3.623 -26.414  26.876  1.00  0.00     0.027 A 
HETATM   19  C1  UNL     1      -4.686 -26.061  27.672  1.00  0.00     0.079 A 
HETATM   20  C18 UNL     1      -5.829 -25.672  27.027  1.00  0.00     0.027 A 
HETATM   21  C17 UNL     1      -5.939 -25.625  25.664  1.00  0.00     0.031 A 
BRANCH  19  22
HETATM   22  S1  UNL     1      -4.595 -26.104  29.417  1.00  0.00     0.256 S 
HETATM   23  O1  UNL     1      -5.557 -27.139  29.957  1.00  0.00    -0.201 OA
HETATM   24  O2  UNL     1      -3.185 -26.430  29.801  1.00  0.00    -0.201 OA
BRANCH  22  25
HETATM   25  N1  UNL     1      -5.061 -24.538  29.996  1.00  0.00    -0.324 N 
ATOM     26  H12 UNL     1      -5.808 -23.970  29.596  1.00  0.00     0.169 HD
ATOM     27  H11 UNL     1      -4.473 -24.287  30.791  1.00  0.00     0.169 HD
ENDBRANCH  22  25
ENDBRANCH  19  22
ENDBRANCH  14  16
ENDBRANCH   1  14
BRANCH   4  28
HETATM   28  O3  UNL     1      -5.385 -21.422  22.016  1.00  0.00    -0.333 OA
BRANCH  28  29
HETATM   29  C7  UNL     1      -6.627 -21.274  22.630  1.00  0.00     0.182 C 
BRANCH  29  30
HETATM   30  C8  UNL     1      -7.676 -21.131  21.533  1.00  0.00     0.010 C 
HETATM   31  C9  UNL     1      -9.054 -21.134  22.101  1.00  0.00     0.007 C 
HETATM   32  C10 UNL     1      -9.877 -19.929  21.758  1.00  0.00     0.000 C 
HETATM   33  C11 UNL     1      -9.812 -19.521  20.324  1.00  0.00     0.000 C 
HETATM   34  C12 UNL     1      -8.447 -19.718  19.710  1.00  0.00     0.000 C 
HETATM   35  C13 UNL     1      -7.412 -19.825  20.815  1.00  0.00     0.007 C 
ENDBRANCH  29  30
ENDBRANCH  28  29
ENDBRANCH   4  28
TORSDOF 7
ENDMDL
