MODEL 3
REMARK VINA RESULT: -9.398574865      1.946      2.434
REMARK  7 active torsions:
REMARK  status: ('A' for Active; 'I' for Inactive)
REMARK    1  A    between atoms: N1_1  and  S1_4 
REMARK    2  A    between atoms: S1_4  and  C1_7 
REMARK    3  A    between atoms: C4_10  and  N2_11 
REMARK    4  A    between atoms: N2_11  and  C5_13 
REMARK    5  A    between atoms: C6_16  and  O3_17 
REMARK    6  A    between atoms: O3_17  and  C7_18 
REMARK    7  A    between atoms: C7_18  and  C8_19 
ROOT
HETATM    1  C5  UNL     1      -4.472 -24.950  22.629  1.00  0.00     0.686 A 
HETATM    2  N3  UNL     1      -5.259 -23.821  22.626  1.00  0.00    -0.168 N 
ATOM      3  H3  UNL     1      -6.066 -23.775  23.249  1.00  0.00     0.186 HD
HETATM    4  C6  UNL     1      -4.994 -22.787  21.829  1.00  0.00     0.188 A 
HETATM    5  C14 UNL     1      -3.928 -22.776  20.965  1.00  0.00     0.130 A 
HETATM    6  N4  UNL     1      -3.444 -21.915  20.088  1.00  0.00    -0.346 N 
ATOM      7  H4  UNL     1      -3.817 -20.991  19.869  1.00  0.00     0.167 HD
HETATM    8  C15 UNL     1      -2.360 -22.500  19.543  1.00  0.00     0.182 A 
HETATM    9  N5  UNL     1      -2.174 -23.716  20.081  1.00  0.00    -0.336 N 
ATOM     10  H5  UNL     1      -1.428 -24.372  19.850  1.00  0.00     0.168 HD
HETATM   11  C16 UNL     1      -3.144 -23.907  20.969  1.00  0.00     0.153 A 
HETATM   12  N6  UNL     1      -3.455 -24.902  21.782  1.00  0.00    -0.174 N 
ATOM     13  H6  UNL     1      -2.847 -25.720  21.753  1.00  0.00     0.186 HD
ENDROOT
BRANCH   1  14
HETATM   14  N2  UNL     1      -4.784 -26.016  23.489  1.00  0.00    -0.192 N 
ATOM     15  H2  UNL     1      -5.095 -26.890  23.062  1.00  0.00     0.184 HD
BRANCH  14  16
HETATM   16  C4  UNL     1      -4.701 -25.971  24.886  1.00  0.00     0.049 A 
HETATM   17  C3  UNL     1      -3.569 -26.195  25.613  1.00  0.00     0.031 A 
HETATM   18  C2  UNL     1      -3.549 -26.128  27.021  1.00  0.00     0.027 A 
HETATM   19  C1  UNL     1      -4.687 -25.829  27.732  1.00  0.00     0.079 A 
HETATM   20  C18 UNL     1      -5.823 -25.605  27.002  1.00  0.00     0.027 A 
HETATM   21  C17 UNL     1      -5.856 -25.667  25.635  1.00  0.00     0.031 A 
BRANCH  19  22
HETATM   22  S1  UNL     1      -4.695 -25.739  29.478  1.00  0.00     0.256 S 
HETATM   23  O1  UNL     1      -5.328 -24.439  29.923  1.00  0.00    -0.201 OA
HETATM   24  O2  UNL     1      -5.461 -26.915  29.999  1.00  0.00    -0.201 OA
BRANCH  22  25
HETATM   25  N1  UNL     1      -3.044 -25.777  30.004  1.00  0.00    -0.324 N 
ATOM     26  H12 UNL     1      -2.453 -24.954  30.118  1.00  0.00     0.169 HD
ATOM     27  H11 UNL     1      -2.771 -26.744  30.177  1.00  0.00     0.169 HD
ENDBRANCH  22  25
ENDBRANCH  19  22
ENDBRANCH  14  16
ENDBRANCH   1  14
BRANCH   4  28
HETATM   28  O3  UNL     1      -5.848 -21.695  21.902  1.00  0.00    -0.333 OA
BRANCH  28  29
HETATM   29  C7  UNL     1      -6.983 -21.641  22.707  1.00  0.00     0.182 C 
BRANCH  29  30
HETATM   30  C8  UNL     1      -7.876 -20.523  22.180  1.00  0.00     0.010 C 
HETATM   31  C9  UNL     1      -7.315 -19.926  20.935  1.00  0.00     0.007 C 
HETATM   32  C10 UNL     1      -8.236 -19.957  19.753  1.00  0.00     0.000 C 
HETATM   33  C11 UNL     1      -9.638 -19.539  20.049  1.00  0.00     0.000 C 
HETATM   34  C12 UNL     1     -10.118 -19.985  21.409  1.00  0.00     0.000 C 
HETATM   35  C13 UNL     1      -9.240 -21.120  21.902  1.00  0.00     0.007 C 
ENDBRANCH  29  30
ENDBRANCH  28  29
ENDBRANCH   4  28
TORSDOF 7
ENDMDL
