MODEL 1
REMARK VINA RESULT: -8.558655187      0.000      0.000
REMARK  9 active torsions:
REMARK  status: ('A' for Active; 'I' for Inactive)
REMARK    1  A    between atoms: C1_2  and  N1_3 
REMARK    2  A    between atoms: N1_3  and  O2_4 
REMARK    3  A    between atoms: N1_3  and  C2_6 
REMARK    4  A    between atoms: C2_6  and  C3_7 
REMARK    5  A    between atoms: C3_7  and  C4_8 
REMARK    6  A    between atoms: C3_7  and  C10_14 
REMARK    7  A    between atoms: C4_8  and  C5_9 
REMARK       I    between atoms: C10_14  and  N2_16 
REMARK    8  A    between atoms: C14_20  and  C15_21 
REMARK       I    between atoms: C15_21  and  N3_23 
REMARK       I    between atoms: N3_23  and  C16_25 
REMARK    9  A    between atoms: C16_25  and  C17_27 
ROOT
HETATM    1  C10 UNL     1      24.473  -6.017   5.325  1.00  0.00     0.226 C 
HETATM    2  O3  UNL     1      23.763  -5.221   4.659  1.00  0.00    -0.273 OA
HETATM    3  N2  UNL     1      24.005  -7.334   5.500  1.00  0.00    -0.338 N 
HETATM    4  C11 UNL     1      24.716  -8.366   6.235  1.00  0.00     0.127 C 
HETATM    5  C12 UNL     1      24.276  -9.659   5.491  1.00  0.00     0.022 C 
HETATM    6  C13 UNL     1      22.781  -9.329   5.428  1.00  0.00     0.037 C 
HETATM    7  C14 UNL     1      22.793  -7.901   4.991  1.00  0.00     0.179 C 
ENDROOT
BRANCH   1   8
HETATM    8  C3  UNL     1      25.771  -5.469   5.876  1.00  0.00     0.099 C 
BRANCH   8   9
HETATM    9  C2  UNL     1      26.676  -5.255   4.741  1.00  0.00     0.172 C 
BRANCH   9  10
HETATM   10  N1  UNL     1      26.958  -3.941   4.269  1.00  0.00    -0.235 N 
BRANCH  10  11
HETATM   11  C1  UNL     1      28.203  -3.276   4.375  1.00  0.00     0.376 C 
HETATM   12  O1  UNL     1      29.276  -3.855   4.067  1.00  0.00    -0.281 OA
ENDBRANCH  10  11
BRANCH  10  13
HETATM   13  O2  UNL     1      25.950  -3.245   3.635  1.00  0.00    -0.285 OA
ATOM     14  H2  UNL     1      25.443  -2.656   4.180  1.00  0.00     0.245 HD
ENDBRANCH  10  13
ENDBRANCH   9  10
ENDBRANCH   8   9
BRANCH   8  15
HETATM   15  C4  UNL     1      25.461  -4.455   6.855  1.00  0.00     0.020 C 
BRANCH  15  16
HETATM   16  C5  UNL     1      25.762  -4.559   8.282  1.00  0.00    -0.014 C 
HETATM   17  C6  UNL     1      25.295  -3.204   8.892  1.00  0.00     0.005 C 
HETATM   18  C7  UNL     1      25.171  -3.473  10.361  1.00  0.00     0.000 C 
HETATM   19  C8  UNL     1      24.890  -4.954  10.474  1.00  0.00     0.000 C 
HETATM   20  C9  UNL     1      24.832  -5.478   9.055  1.00  0.00     0.005 C 
ENDBRANCH  15  16
ENDBRANCH   8  15
ENDBRANCH   1   8
BRANCH   7  21
HETATM   21  C15 UNL     1      21.574  -7.254   5.525  1.00  0.00     0.247 C 
HETATM   22  O4  UNL     1      21.382  -6.923   6.699  1.00  0.00    -0.271 OA
HETATM   23  N3  UNL     1      20.525  -6.994   4.566  1.00  0.00    -0.292 N 
HETATM   24  C16 UNL     1      19.318  -6.382   4.930  1.00  0.00     0.258 C 
ATOM     25  H3  UNL     1      20.669  -7.263   3.593  1.00  0.00     0.172 HD
HETATM   26  O5  UNL     1      19.174  -6.062   6.145  1.00  0.00    -0.267 OA
BRANCH  24  27
HETATM   27  C17 UNL     1      18.229  -6.105   3.973  1.00  0.00     0.032 A 
HETATM   28  C18 UNL     1      16.925  -6.451   4.300  1.00  0.00     0.017 A 
HETATM   29  C19 UNL     1      15.886  -6.207   3.432  1.00  0.00     0.001 A 
HETATM   30  C20 UNL     1      16.085  -5.610   2.201  1.00  0.00     0.000 A 
HETATM   31  C21 UNL     1      17.385  -5.275   1.895  1.00  0.00     0.001 A 
HETATM   32  C22 UNL     1      18.453  -5.511   2.757  1.00  0.00     0.017 A 
ENDBRANCH  24  27
ENDBRANCH   7  21
TORSDOF 9
ENDMDL
