MODEL 7
REMARK VINA RESULT: -7.991969138      1.242      1.616
REMARK  9 active torsions:
REMARK  status: ('A' for Active; 'I' for Inactive)
REMARK    1  A    between atoms: C1_2  and  N1_3 
REMARK    2  A    between atoms: N1_3  and  O2_4 
REMARK    3  A    between atoms: N1_3  and  C2_6 
REMARK    4  A    between atoms: C2_6  and  C3_7 
REMARK    5  A    between atoms: C3_7  and  C4_8 
REMARK    6  A    between atoms: C3_7  and  C10_14 
REMARK    7  A    between atoms: C4_8  and  C5_9 
REMARK       I    between atoms: C10_14  and  N2_16 
REMARK    8  A    between atoms: C14_20  and  C15_21 
REMARK       I    between atoms: C15_21  and  N3_23 
REMARK       I    between atoms: N3_23  and  C16_25 
REMARK    9  A    between atoms: C16_25  and  C17_27 
ROOT
HETATM    1  C10 UNL     1      24.577  -5.835   5.262  1.00  0.00     0.226 C 
HETATM    2  O3  UNL     1      23.709  -5.140   4.675  1.00  0.00    -0.273 OA
HETATM    3  N2  UNL     1      24.602  -7.219   5.005  1.00  0.00    -0.338 N 
HETATM    4  C11 UNL     1      25.550  -8.146   5.601  1.00  0.00     0.127 C 
HETATM    5  C12 UNL     1      25.700  -9.221   4.487  1.00  0.00     0.022 C 
HETATM    6  C13 UNL     1      24.205  -9.376   4.187  1.00  0.00     0.037 C 
HETATM    7  C14 UNL     1      23.747  -7.956   4.126  1.00  0.00     0.179 C 
ENDROOT
BRANCH   1   8
HETATM    8  C3  UNL     1      25.513  -5.100   6.196  1.00  0.00     0.099 C 
BRANCH   8   9
HETATM    9  C2  UNL     1      25.724  -3.757   5.642  1.00  0.00     0.172 C 
BRANCH   9  10
HETATM   10  N1  UNL     1      26.541  -3.560   4.493  1.00  0.00    -0.235 N 
BRANCH  10  11
HETATM   11  C1  UNL     1      27.956  -3.581   4.473  1.00  0.00     0.376 C 
HETATM   12  O1  UNL     1      28.604  -4.384   5.191  1.00  0.00    -0.281 OA
ENDBRANCH  10  11
BRANCH  10  13
HETATM   13  O2  UNL     1      25.920  -3.347   3.279  1.00  0.00    -0.285 OA
ATOM     14  H2  UNL     1      25.066  -3.748   3.171  1.00  0.00     0.245 HD
ENDBRANCH  10  13
ENDBRANCH   9  10
ENDBRANCH   8   9
BRANCH   8  15
HETATM   15  C4  UNL     1      25.095  -5.349   7.555  1.00  0.00     0.020 C 
BRANCH  15  16
HETATM   16  C5  UNL     1      24.935  -4.315   8.576  1.00  0.00    -0.014 C 
HETATM   17  C6  UNL     1      23.590  -4.655   9.284  1.00  0.00     0.005 C 
HETATM   18  C7  UNL     1      23.648  -3.911  10.583  1.00  0.00     0.000 C 
HETATM   19  C8  UNL     1      25.119  -3.767  10.896  1.00  0.00     0.000 C 
HETATM   20  C9  UNL     1      25.856  -4.465   9.773  1.00  0.00     0.005 C 
ENDBRANCH  15  16
ENDBRANCH   8  15
ENDBRANCH   1   8
BRANCH   7  21
HETATM   21  C15 UNL     1      22.323  -7.922   4.527  1.00  0.00     0.247 C 
HETATM   22  O4  UNL     1      21.858  -8.347   5.589  1.00  0.00    -0.271 OA
HETATM   23  N3  UNL     1      21.413  -7.330   3.574  1.00  0.00    -0.292 N 
HETATM   24  C16 UNL     1      20.038  -7.226   3.824  1.00  0.00     0.258 C 
ATOM     25  H3  UNL     1      21.783  -6.976   2.692  1.00  0.00     0.172 HD
HETATM   26  O5  UNL     1      19.614  -7.676   4.927  1.00  0.00    -0.267 OA
BRANCH  24  27
HETATM   27  C17 UNL     1      19.084  -6.628   2.870  1.00  0.00     0.032 A 
HETATM   28  C18 UNL     1      19.177  -6.940   1.520  1.00  0.00     0.017 A 
HETATM   29  C19 UNL     1      18.305  -6.401   0.604  1.00  0.00     0.001 A 
HETATM   30  C20 UNL     1      17.300  -5.527   0.976  1.00  0.00     0.000 A 
HETATM   31  C21 UNL     1      17.223  -5.230   2.317  1.00  0.00     0.001 A 
HETATM   32  C22 UNL     1      18.094  -5.764   3.264  1.00  0.00     0.017 A 
ENDBRANCH  24  27
ENDBRANCH   7  21
TORSDOF 9
ENDMDL
