MODEL 6
REMARK VINA RESULT: -8.024638859      3.030      6.385
REMARK  9 active torsions:
REMARK  status: ('A' for Active; 'I' for Inactive)
REMARK    1  A    between atoms: C1_2  and  N1_3 
REMARK    2  A    between atoms: N1_3  and  O2_4 
REMARK    3  A    between atoms: N1_3  and  C2_6 
REMARK    4  A    between atoms: C2_6  and  C3_7 
REMARK    5  A    between atoms: C3_7  and  C4_8 
REMARK    6  A    between atoms: C3_7  and  C10_14 
REMARK    7  A    between atoms: C4_8  and  C5_9 
REMARK       I    between atoms: C10_14  and  N2_16 
REMARK    8  A    between atoms: C14_20  and  C15_21 
REMARK       I    between atoms: C15_21  and  N3_23 
REMARK       I    between atoms: N3_23  and  C16_25 
REMARK    9  A    between atoms: C16_25  and  C17_27 
ROOT
HETATM    1  C10 UNL     1      25.133  -6.691   6.387  1.00  0.00     0.226 C 
HETATM    2  O3  UNL     1      25.466  -7.593   7.197  1.00  0.00    -0.273 OA
HETATM    3  N2  UNL     1      24.091  -6.968   5.481  1.00  0.00    -0.338 N 
HETATM    4  C11 UNL     1      23.591  -6.025   4.494  1.00  0.00     0.127 C 
HETATM    5  C12 UNL     1      22.095  -6.437   4.377  1.00  0.00     0.022 C 
HETATM    6  C13 UNL     1      22.334  -7.948   4.284  1.00  0.00     0.037 C 
HETATM    7  C14 UNL     1      23.333  -8.177   5.370  1.00  0.00     0.179 C 
ENDROOT
BRANCH   1   8
HETATM    8  C3  UNL     1      25.896  -5.388   6.471  1.00  0.00     0.099 C 
BRANCH   8   9
HETATM    9  C2  UNL     1      26.666  -5.247   5.230  1.00  0.00     0.172 C 
BRANCH   9  10
HETATM   10  N1  UNL     1      26.911  -3.963   4.664  1.00  0.00    -0.235 N 
BRANCH  10  11
HETATM   11  C1  UNL     1      28.137  -3.258   4.717  1.00  0.00     0.376 C 
HETATM   12  O1  UNL     1      29.140  -3.648   4.067  1.00  0.00    -0.281 OA
ENDBRANCH  10  11
BRANCH  10  13
HETATM   13  O2  UNL     1      25.883  -3.343   3.984  1.00  0.00    -0.285 OA
ATOM     14  H2  UNL     1      25.332  -2.765   4.497  1.00  0.00     0.245 HD
ENDBRANCH  10  13
ENDBRANCH   9  10
ENDBRANCH   8   9
BRANCH   8  15
HETATM   15  C4  UNL     1      25.011  -4.370   6.984  1.00  0.00     0.020 C 
BRANCH  15  16
HETATM   16  C5  UNL     1      25.018  -3.880   8.361  1.00  0.00    -0.014 C 
HETATM   17  C6  UNL     1      23.624  -4.272   8.935  1.00  0.00     0.005 C 
HETATM   18  C7  UNL     1      23.791  -4.197  10.421  1.00  0.00     0.000 C 
HETATM   19  C8  UNL     1      25.260  -4.447  10.672  1.00  0.00     0.000 C 
HETATM   20  C9  UNL     1      25.881  -4.690   9.312  1.00  0.00     0.005 C 
ENDBRANCH  15  16
ENDBRANCH   8  15
ENDBRANCH   1   8
BRANCH   7  21
HETATM   21  C15 UNL     1      24.153  -9.349   4.992  1.00  0.00     0.247 C 
HETATM   22  O4  UNL     1      24.536  -9.630   3.851  1.00  0.00    -0.271 OA
HETATM   23  N3  UNL     1      24.529 -10.232   6.072  1.00  0.00    -0.292 N 
HETATM   24  C16 UNL     1      25.308 -11.378   5.860  1.00  0.00     0.258 C 
ATOM     25  H3  UNL     1      24.219 -10.013   7.018  1.00  0.00     0.172 HD
HETATM   26  O5  UNL     1      25.675 -11.618   4.674  1.00  0.00    -0.267 OA
BRANCH  24  27
HETATM   27  C17 UNL     1      25.707 -12.298   6.943  1.00  0.00     0.032 A 
HETATM   28  C18 UNL     1      24.975 -12.327   8.123  1.00  0.00     0.017 A 
HETATM   29  C19 UNL     1      25.319 -13.171   9.152  1.00  0.00     0.001 A 
HETATM   30  C20 UNL     1      26.402 -14.026   9.067  1.00  0.00     0.000 A 
HETATM   31  C21 UNL     1      27.115 -13.983   7.891  1.00  0.00     0.001 A 
HETATM   32  C22 UNL     1      26.786 -13.137   6.834  1.00  0.00     0.017 A 
ENDBRANCH  24  27
ENDBRANCH   7  21
TORSDOF 9
ENDMDL
