MODEL 3
REMARK VINA RESULT: -8.425712988      3.168      5.485
REMARK  9 active torsions:
REMARK  status: ('A' for Active; 'I' for Inactive)
REMARK    1  A    between atoms: C1_2  and  N1_3 
REMARK    2  A    between atoms: N1_3  and  O2_4 
REMARK    3  A    between atoms: N1_3  and  C2_6 
REMARK    4  A    between atoms: C2_6  and  C3_7 
REMARK    5  A    between atoms: C3_7  and  C4_8 
REMARK    6  A    between atoms: C3_7  and  C10_14 
REMARK    7  A    between atoms: C4_8  and  C5_9 
REMARK       I    between atoms: C10_14  and  N2_16 
REMARK    8  A    between atoms: C14_20  and  C15_21 
REMARK       I    between atoms: C15_21  and  N3_23 
REMARK       I    between atoms: N3_23  and  C16_25 
REMARK    9  A    between atoms: C16_25  and  C17_27 
ROOT
HETATM    1  C10 UNL     1      24.816  -6.468   6.213  1.00  0.00     0.226 C 
HETATM    2  O3  UNL     1      25.111  -7.662   5.953  1.00  0.00    -0.273 OA
HETATM    3  N2  UNL     1      24.784  -6.074   7.564  1.00  0.00    -0.338 N 
HETATM    4  C11 UNL     1      24.469  -4.730   8.019  1.00  0.00     0.127 C 
HETATM    5  C12 UNL     1      25.310  -4.621   9.324  1.00  0.00     0.022 C 
HETATM    6  C13 UNL     1      24.922  -5.987   9.900  1.00  0.00     0.037 C 
HETATM    7  C14 UNL     1      25.063  -6.881   8.713  1.00  0.00     0.179 C 
ENDROOT
BRANCH   1   8
HETATM    8  C3  UNL     1      24.523  -5.569   5.032  1.00  0.00     0.099 C 
BRANCH   8   9
HETATM    9  C2  UNL     1      25.796  -5.306   4.351  1.00  0.00     0.172 C 
BRANCH   9  10
HETATM   10  N1  UNL     1      26.417  -4.027   4.432  1.00  0.00    -0.235 N 
BRANCH  10  11
HETATM   11  C1  UNL     1      27.810  -3.781   4.373  1.00  0.00     0.376 C 
HETATM   12  O1  UNL     1      28.605  -4.360   5.156  1.00  0.00    -0.281 OA
ENDBRANCH  10  11
BRANCH  10  13
HETATM   13  O2  UNL     1      25.609  -2.916   4.562  1.00  0.00    -0.285 OA
ATOM     14  H2  UNL     1      24.810  -3.037   5.060  1.00  0.00     0.245 HD
ENDBRANCH  10  13
ENDBRANCH   9  10
ENDBRANCH   8   9
BRANCH   8  15
HETATM   15  C4  UNL     1      23.344  -6.064   4.361  1.00  0.00     0.020 C 
BRANCH  15  16
HETATM   16  C5  UNL     1      21.978  -5.895   4.852  1.00  0.00    -0.014 C 
HETATM   17  C6  UNL     1      21.068  -6.211   3.627  1.00  0.00     0.005 C 
HETATM   18  C7  UNL     1      19.720  -6.488   4.218  1.00  0.00     0.000 C 
HETATM   19  C8  UNL     1      19.992  -6.985   5.619  1.00  0.00     0.000 C 
HETATM   20  C9  UNL     1      21.498  -7.004   5.771  1.00  0.00     0.005 C 
ENDBRANCH  15  16
ENDBRANCH   8  15
ENDBRANCH   1   8
BRANCH   7  21
HETATM   21  C15 UNL     1      24.119  -8.009   8.880  1.00  0.00     0.247 C 
HETATM   22  O4  UNL     1      24.370  -9.201   8.678  1.00  0.00    -0.271 OA
HETATM   23  N3  UNL     1      22.790  -7.659   9.323  1.00  0.00    -0.292 N 
HETATM   24  C16 UNL     1      21.795  -8.625   9.528  1.00  0.00     0.258 C 
ATOM     25  H3  UNL     1      22.568  -6.678   9.492  1.00  0.00     0.172 HD
HETATM   26  O5  UNL     1      22.105  -9.831   9.309  1.00  0.00    -0.267 OA
BRANCH  24  27
HETATM   27  C17 UNL     1      20.428  -8.298   9.979  1.00  0.00     0.032 A 
HETATM   28  C18 UNL     1      20.124  -8.341  11.333  1.00  0.00     0.017 A 
HETATM   29  C19 UNL     1      18.862  -8.043  11.788  1.00  0.00     0.001 A 
HETATM   30  C20 UNL     1      17.838  -7.689  10.928  1.00  0.00     0.000 A 
HETATM   31  C21 UNL     1      18.158  -7.653   9.590  1.00  0.00     0.001 A 
HETATM   32  C22 UNL     1      19.430  -7.949   9.105  1.00  0.00     0.017 A 
ENDBRANCH  24  27
ENDBRANCH   7  21
TORSDOF 9
ENDMDL
