MODEL 16
REMARK VINA RESULT: -7.077004879      1.996      2.541
REMARK  4 active torsions:
REMARK  status: ('A' for Active; 'I' for Inactive)
REMARK       I    between atoms: C1_2  and  N1_3 
REMARK    1  A    between atoms: C1_2  and  C18_27 
REMARK    2  A    between atoms: N1_3  and  C2_5 
REMARK    3  A    between atoms: C6_11  and  C7_12 
REMARK    4  A    between atoms: C7_12  and  C8_13 
ROOT
HETATM    1  C2  UNL     1      25.807  -5.778  14.043  1.00  0.00     0.014 C 
HETATM    2  C3  UNL     1      27.069  -5.649  13.667  1.00  0.00     0.005 C 
HETATM    3  C4  UNL     1      27.761  -4.311  13.654  1.00  0.00     0.088 C 
HETATM    4  C5  UNL     1      26.777  -3.312  13.236  1.00  0.00     0.037 A 
HETATM    5  N2  UNL     1      26.869  -2.200  12.492  1.00  0.00    -0.347 N 
ATOM      6  H2  UNL     1      27.725  -1.848  12.063  1.00  0.00     0.167 HD
HETATM    7  C6  UNL     1      25.664  -1.625  12.400  1.00  0.00     0.086 A 
HETATM    8  N4  UNL     1      24.799  -2.398  13.104  1.00  0.00    -0.347 N 
ATOM      9  H4  UNL     1      23.802  -2.216  13.220  1.00  0.00     0.167 HD
HETATM   10  C16 UNL     1      25.462  -3.435  13.622  1.00  0.00     0.039 A 
HETATM   11  C17 UNL     1      25.027  -4.583  14.467  1.00  0.00     0.116 C 
ENDROOT
BRANCH   1  12
HETATM   12  N1  UNL     1      25.188  -7.073  14.039  1.00  0.00    -0.329 N 
HETATM   13  C1  UNL     1      25.261  -7.944  15.146  1.00  0.00     0.252 C 
HETATM   14  O1  UNL     1      25.902  -7.523  16.147  1.00  0.00    -0.271 OA
ATOM     15  H1  UNL     1      24.678  -7.373  13.208  1.00  0.00     0.168 HD
BRANCH  13  16
HETATM   16  C18 UNL     1      24.663  -9.289  15.247  1.00  0.00     0.277 C 
HETATM   17  C19 UNL     1      25.614 -10.294  15.858  1.00  0.00     0.044 C 
HETATM   18  C20 UNL     1      26.396 -10.787  14.689  1.00  0.00     0.030 C 
HETATM   19  C21 UNL     1      25.505 -10.493  13.523  1.00  0.00     0.233 C 
HETATM   20  N5  UNL     1      24.303  -9.876  14.003  1.00  0.00    -0.062 N 
ATOM     21  H52 UNL     1      23.506 -10.510  14.061  1.00  0.00     0.278 HD
ATOM     22  H51 UNL     1      23.882  -9.221  13.343  1.00  0.00     0.278 HD
ENDBRANCH  13  16
ENDBRANCH   1  12
BRANCH   7  23
HETATM   23  C7  UNL     1      25.354  -0.389  11.674  1.00  0.00     0.117 C 
BRANCH  23  24
HETATM   24  C8  UNL     1      24.558  -0.697  10.476  1.00  0.00    -0.023 A 
HETATM   25  C9  UNL     1      24.667  -1.872   9.759  1.00  0.00     0.096 A 
HETATM   26  N3  UNL     1      23.793  -1.821   8.740  1.00  0.00    -0.365 N 
HETATM   27  C10 UNL     1      23.129  -0.644   8.787  1.00  0.00     0.042 A 
ATOM     28  H3  UNL     1      23.653  -2.553   8.043  1.00  0.00     0.165 HD
HETATM   29  C11 UNL     1      22.150  -0.081   8.008  1.00  0.00     0.030 A 
HETATM   30  C15 UNL     1      23.607   0.071   9.879  1.00  0.00    -0.001 A 
HETATM   31  C12 UNL     1      21.606   1.167   8.248  1.00  0.00     0.002 A 
HETATM   32  C13 UNL     1      22.087   1.872   9.336  1.00  0.00     0.001 A 
HETATM   33  C14 UNL     1      23.073   1.318  10.130  1.00  0.00     0.014 A 
ENDBRANCH  23  24
ENDBRANCH   7  23
TORSDOF 4
ENDMDL
