MODEL 18
REMARK VINA RESULT: -7.008019854      4.168      6.228
REMARK  4 active torsions:
REMARK  status: ('A' for Active; 'I' for Inactive)
REMARK       I    between atoms: C1_2  and  N1_3 
REMARK    1  A    between atoms: C1_2  and  C18_27 
REMARK    2  A    between atoms: N1_3  and  C2_5 
REMARK    3  A    between atoms: C6_11  and  C7_12 
REMARK    4  A    between atoms: C7_12  and  C8_13 
ROOT
HETATM    1  C2  UNL     1      25.720  -7.840  11.672  1.00  0.00     0.014 C 
HETATM    2  C3  UNL     1      26.946  -7.345  11.683  1.00  0.00     0.005 C 
HETATM    3  C4  UNL     1      27.438  -6.467  12.804  1.00  0.00     0.088 C 
HETATM    4  C5  UNL     1      26.316  -5.629  13.230  1.00  0.00     0.037 A 
HETATM    5  N2  UNL     1      26.241  -4.363  13.664  1.00  0.00    -0.347 N 
ATOM      6  H2  UNL     1      27.033  -3.730  13.775  1.00  0.00     0.167 HD
HETATM    7  C6  UNL     1      24.964  -4.059  13.930  1.00  0.00     0.086 A 
HETATM    8  N4  UNL     1      24.227  -5.164  13.655  1.00  0.00    -0.347 N 
ATOM      9  H4  UNL     1      23.215  -5.241  13.760  1.00  0.00     0.167 HD
HETATM   10  C16 UNL     1      25.036  -6.134  13.224  1.00  0.00     0.039 A 
HETATM   11  C17 UNL     1      24.780  -7.535  12.786  1.00  0.00     0.116 C 
ENDROOT
BRANCH   1  12
HETATM   12  N1  UNL     1      25.293  -8.672  10.582  1.00  0.00    -0.329 N 
HETATM   13  C1  UNL     1      24.573  -8.162   9.483  1.00  0.00     0.252 C 
HETATM   14  O1  UNL     1      24.320  -6.926   9.506  1.00  0.00    -0.271 OA
ATOM     15  H1  UNL     1      25.520  -9.667  10.605  1.00  0.00     0.168 HD
BRANCH  13  16
HETATM   16  C18 UNL     1      24.090  -8.926   8.318  1.00  0.00     0.277 C 
HETATM   17  C19 UNL     1      24.920 -10.164   8.060  1.00  0.00     0.044 C 
HETATM   18  C20 UNL     1      26.034  -9.664   7.205  1.00  0.00     0.030 C 
HETATM   19  C21 UNL     1      25.476  -8.413   6.600  1.00  0.00     0.233 C 
HETATM   20  N5  UNL     1      24.139  -8.222   7.083  1.00  0.00    -0.062 N 
ATOM     21  H52 UNL     1      23.415  -8.501   6.420  1.00  0.00     0.278 HD
ATOM     22  H51 UNL     1      23.861  -7.243   7.153  1.00  0.00     0.278 HD
ENDBRANCH  13  16
ENDBRANCH   1  12
BRANCH   7  23
HETATM   23  C7  UNL     1      24.473  -2.770  14.429  1.00  0.00     0.117 C 
BRANCH  23  24
HETATM   24  C8  UNL     1      25.331  -1.681  13.936  1.00  0.00    -0.023 A 
HETATM   25  C9  UNL     1      26.272  -1.031  14.710  1.00  0.00     0.096 A 
HETATM   26  N3  UNL     1      26.874  -0.106  13.943  1.00  0.00    -0.365 N 
HETATM   27  C10 UNL     1      26.342  -0.149  12.701  1.00  0.00     0.042 A 
ATOM     28  H3  UNL     1      27.613   0.526  14.250  1.00  0.00     0.165 HD
HETATM   29  C11 UNL     1      26.577   0.558  11.548  1.00  0.00     0.030 A 
HETATM   30  C15 UNL     1      25.367  -1.140  12.689  1.00  0.00    -0.001 A 
HETATM   31  C12 UNL     1      25.895   0.341  10.367  1.00  0.00     0.002 A 
HETATM   32  C13 UNL     1      24.927  -0.647  10.362  1.00  0.00     0.001 A 
HETATM   33  C14 UNL     1      24.679  -1.368  11.515  1.00  0.00     0.014 A 
ENDBRANCH  23  24
ENDBRANCH   7  23
TORSDOF 4
ENDMDL
