MODEL 15
REMARK VINA RESULT: -7.107157578      3.284      5.056
REMARK  4 active torsions:
REMARK  status: ('A' for Active; 'I' for Inactive)
REMARK       I    between atoms: C1_2  and  N1_3 
REMARK    1  A    between atoms: C1_2  and  C18_27 
REMARK    2  A    between atoms: N1_3  and  C2_5 
REMARK    3  A    between atoms: C6_11  and  C7_12 
REMARK    4  A    between atoms: C7_12  and  C8_13 
ROOT
HETATM    1  C2  UNL     1      28.072  -2.796  15.363  1.00  0.00     0.014 C 
HETATM    2  C3  UNL     1      26.962  -2.322  15.904  1.00  0.00     0.005 C 
HETATM    3  C4  UNL     1      25.603  -2.650  15.343  1.00  0.00     0.088 C 
HETATM    4  C5  UNL     1      25.731  -2.707  13.886  1.00  0.00     0.037 A 
HETATM    5  N2  UNL     1      24.909  -2.356  12.887  1.00  0.00    -0.347 N 
ATOM      6  H2  UNL     1      23.978  -1.956  13.003  1.00  0.00     0.167 HD
HETATM    7  C6  UNL     1      25.501  -2.611  11.713  1.00  0.00     0.086 A 
HETATM    8  N4  UNL     1      26.721  -3.135  11.989  1.00  0.00    -0.347 N 
ATOM      9  H4  UNL     1      27.408  -3.431  11.296  1.00  0.00     0.167 HD
HETATM   10  C16 UNL     1      26.880  -3.201  13.313  1.00  0.00     0.039 A 
HETATM   11  C17 UNL     1      28.004  -3.680  14.167  1.00  0.00     0.116 C 
ENDROOT
BRANCH   1  12
HETATM   12  N1  UNL     1      29.346  -2.457  15.931  1.00  0.00    -0.329 N 
HETATM   13  C1  UNL     1      30.141  -1.409  15.422  1.00  0.00     0.252 C 
HETATM   14  O1  UNL     1      29.671  -0.780  14.435  1.00  0.00    -0.271 OA
ATOM     15  H1  UNL     1      29.688  -2.992  16.730  1.00  0.00     0.168 HD
BRANCH  13  16
HETATM   16  C18 UNL     1      31.458  -0.979  15.928  1.00  0.00     0.277 C 
HETATM   17  C19 UNL     1      31.657  -1.335  17.385  1.00  0.00     0.044 C 
HETATM   18  C20 UNL     1      31.059  -0.179  18.110  1.00  0.00     0.030 C 
HETATM   19  C21 UNL     1      31.101   0.926  17.101  1.00  0.00     0.233 C 
HETATM   20  N5  UNL     1      31.682   0.425  15.889  1.00  0.00    -0.062 N 
ATOM     21  H52 UNL     1      32.661   0.683  15.761  1.00  0.00     0.278 HD
ATOM     22  H51 UNL     1      31.331   0.876  15.044  1.00  0.00     0.278 HD
ENDBRANCH  13  16
ENDBRANCH   1  12
BRANCH   7  23
HETATM   23  C7  UNL     1      24.922  -2.368  10.388  1.00  0.00     0.117 C 
BRANCH  23  24
HETATM   24  C8  UNL     1      24.464  -0.973  10.288  1.00  0.00    -0.023 A 
HETATM   25  C9  UNL     1      24.940   0.053  11.081  1.00  0.00     0.096 A 
HETATM   26  N3  UNL     1      24.314   1.185  10.717  1.00  0.00    -0.365 N 
HETATM   27  C10 UNL     1      23.451   0.909   9.714  1.00  0.00     0.042 A 
ATOM     28  H3  UNL     1      24.467   2.104  11.131  1.00  0.00     0.165 HD
HETATM   29  C11 UNL     1      22.575   1.672   8.984  1.00  0.00     0.030 A 
HETATM   30  C15 UNL     1      23.539  -0.451   9.438  1.00  0.00    -0.001 A 
HETATM   31  C12 UNL     1      21.770   1.165   7.983  1.00  0.00     0.002 A 
HETATM   32  C13 UNL     1      21.863  -0.188   7.715  1.00  0.00     0.001 A 
HETATM   33  C14 UNL     1      22.740  -0.971   8.441  1.00  0.00     0.014 A 
ENDBRANCH  23  24
ENDBRANCH   7  23
TORSDOF 4
ENDMDL
