MODEL 6
REMARK VINA RESULT: -7.652545807      1.475      1.801
REMARK  4 active torsions:
REMARK  status: ('A' for Active; 'I' for Inactive)
REMARK       I    between atoms: C1_2  and  N1_3 
REMARK    1  A    between atoms: C1_2  and  C18_27 
REMARK    2  A    between atoms: N1_3  and  C2_5 
REMARK    3  A    between atoms: C6_11  and  C7_12 
REMARK    4  A    between atoms: C7_12  and  C8_13 
ROOT
HETATM    1  C2  UNL     1      25.327  -4.820  14.639  1.00  0.00     0.014 C 
HETATM    2  C3  UNL     1      25.226  -3.702  15.338  1.00  0.00     0.005 C 
HETATM    3  C4  UNL     1      24.623  -2.451  14.755  1.00  0.00     0.088 C 
HETATM    4  C5  UNL     1      25.016  -2.390  13.346  1.00  0.00     0.037 A 
HETATM    5  N2  UNL     1      25.328  -1.370  12.533  1.00  0.00    -0.347 N 
ATOM      6  H2  UNL     1      25.338  -0.386  12.799  1.00  0.00     0.167 HD
HETATM    7  C6  UNL     1      25.622  -1.846  11.316  1.00  0.00     0.086 A 
HETATM    8  N4  UNL     1      25.491  -3.195  11.374  1.00  0.00    -0.347 N 
ATOM      9  H4  UNL     1      25.649  -3.839  10.599  1.00  0.00     0.167 HD
HETATM   10  C16 UNL     1      25.122  -3.546  12.608  1.00  0.00     0.039 A 
HETATM   11  C17 UNL     1      24.838  -4.869  13.233  1.00  0.00     0.116 C 
ENDROOT
BRANCH   1  12
HETATM   12  N1  UNL     1      25.910  -5.988  15.236  1.00  0.00    -0.329 N 
HETATM   13  C1  UNL     1      25.130  -7.083  15.662  1.00  0.00     0.252 C 
HETATM   14  O1  UNL     1      23.885  -6.982  15.490  1.00  0.00    -0.271 OA
ATOM     15  H1  UNL     1      26.922  -6.027  15.355  1.00  0.00     0.168 HD
BRANCH  13  16
HETATM   16  C18 UNL     1      25.625  -8.325  16.284  1.00  0.00     0.277 C 
HETATM   17  C19 UNL     1      24.505  -9.172  16.845  1.00  0.00     0.044 C 
HETATM   18  C20 UNL     1      24.309  -8.625  18.217  1.00  0.00     0.030 C 
HETATM   19  C21 UNL     1      25.619  -7.967  18.520  1.00  0.00     0.233 C 
HETATM   20  N5  UNL     1      26.492  -8.131  17.395  1.00  0.00    -0.062 N 
ATOM     21  H52 UNL     1      27.185  -8.871  17.512  1.00  0.00     0.278 HD
ATOM     22  H51 UNL     1      27.157  -7.368  17.272  1.00  0.00     0.278 HD
ENDBRANCH  13  16
ENDBRANCH   1  12
BRANCH   7  23
HETATM   23  C7  UNL     1      26.009  -1.045  10.150  1.00  0.00     0.117 C 
BRANCH  23  24
HETATM   24  C8  UNL     1      24.865  -0.903   9.237  1.00  0.00    -0.023 A 
HETATM   25  C9  UNL     1      24.611  -1.756   8.181  1.00  0.00     0.096 A 
HETATM   26  N3  UNL     1      23.490  -1.339   7.569  1.00  0.00    -0.365 N 
HETATM   27  C10 UNL     1      23.022  -0.242   8.205  1.00  0.00     0.042 A 
ATOM     28  H3  UNL     1      23.061  -1.780   6.755  1.00  0.00     0.165 HD
HETATM   29  C11 UNL     1      21.937   0.574   8.007  1.00  0.00     0.030 A 
HETATM   30  C15 UNL     1      23.885   0.040   9.258  1.00  0.00    -0.001 A 
HETATM   31  C12 UNL     1      21.649   1.668   8.799  1.00  0.00     0.002 A 
HETATM   32  C13 UNL     1      22.512   1.943   9.844  1.00  0.00     0.001 A 
HETATM   33  C14 UNL     1      23.609   1.130  10.057  1.00  0.00     0.014 A 
ENDBRANCH  23  24
ENDBRANCH   7  23
TORSDOF 4
ENDMDL
