MODEL 14
REMARK VINA RESULT: -7.120089614      2.210      9.078
REMARK  4 active torsions:
REMARK  status: ('A' for Active; 'I' for Inactive)
REMARK       I    between atoms: C1_2  and  N1_3 
REMARK    1  A    between atoms: C1_2  and  C18_27 
REMARK    2  A    between atoms: N1_3  and  C2_5 
REMARK    3  A    between atoms: C6_11  and  C7_12 
REMARK    4  A    between atoms: C7_12  and  C8_13 
ROOT
HETATM    1  C2  UNL     1      25.325  -1.566  11.022  1.00  0.00     0.014 C 
HETATM    2  C3  UNL     1      25.011  -0.991  12.171  1.00  0.00     0.005 C 
HETATM    3  C4  UNL     1      25.273  -1.664  13.493  1.00  0.00     0.088 C 
HETATM    4  C5  UNL     1      25.033  -3.096  13.312  1.00  0.00     0.037 A 
HETATM    5  N2  UNL     1      24.520  -4.041  14.114  1.00  0.00    -0.347 N 
ATOM      6  H2  UNL     1      24.187  -3.889  15.066  1.00  0.00     0.167 HD
HETATM    7  C6  UNL     1      24.513  -5.215  13.470  1.00  0.00     0.086 A 
HETATM    8  N4  UNL     1      25.034  -4.996  12.237  1.00  0.00    -0.347 N 
ATOM      9  H4  UNL     1      25.159  -5.703  11.513  1.00  0.00     0.167 HD
HETATM   10  C16 UNL     1      25.357  -3.705  12.122  1.00  0.00     0.039 A 
HETATM   11  C17 UNL     1      25.954  -2.915  11.008  1.00  0.00     0.116 C 
ENDROOT
BRANCH   1  12
HETATM   12  N1  UNL     1      25.057  -0.887   9.785  1.00  0.00    -0.329 N 
HETATM   13  C1  UNL     1      23.974  -1.238   8.954  1.00  0.00     0.252 C 
HETATM   14  O1  UNL     1      23.245  -2.185   9.357  1.00  0.00    -0.271 OA
ATOM     15  H1  UNL     1      25.672  -0.125   9.499  1.00  0.00     0.168 HD
BRANCH  13  16
HETATM   16  C18 UNL     1      23.610  -0.608   7.671  1.00  0.00     0.277 C 
HETATM   17  C19 UNL     1      24.080   0.826   7.582  1.00  0.00     0.044 C 
HETATM   18  C20 UNL     1      22.971   1.596   8.214  1.00  0.00     0.030 C 
HETATM   19  C21 UNL     1      21.793   0.680   8.083  1.00  0.00     0.233 C 
HETATM   20  N5  UNL     1      22.212  -0.523   7.424  1.00  0.00    -0.062 N 
ATOM     21  H52 UNL     1      21.964  -0.561   6.435  1.00  0.00     0.278 HD
ATOM     22  H51 UNL     1      21.691  -1.353   7.707  1.00  0.00     0.278 HD
ENDBRANCH  13  16
ENDBRANCH   1  12
BRANCH   7  23
HETATM   23  C7  UNL     1      24.032  -6.490  14.012  1.00  0.00     0.117 C 
BRANCH  23  24
HETATM   24  C8  UNL     1      24.929  -6.950  15.084  1.00  0.00    -0.023 A 
HETATM   25  C9  UNL     1      26.306  -6.953  14.987  1.00  0.00     0.096 A 
HETATM   26  N3  UNL     1      26.804  -7.425  16.142  1.00  0.00    -0.365 N 
HETATM   27  C10 UNL     1      25.780  -7.724  16.974  1.00  0.00     0.042 A 
ATOM     28  H3  UNL     1      27.794  -7.539  16.358  1.00  0.00     0.165 HD
HETATM   29  C11 UNL     1      25.715  -8.229  18.248  1.00  0.00     0.030 A 
HETATM   30  C15 UNL     1      24.594  -7.427  16.312  1.00  0.00    -0.001 A 
HETATM   31  C12 UNL     1      24.529  -8.461  18.918  1.00  0.00     0.002 A 
HETATM   32  C13 UNL     1      23.353  -8.164  18.254  1.00  0.00     0.001 A 
HETATM   33  C14 UNL     1      23.402  -7.655  16.970  1.00  0.00     0.014 A 
ENDBRANCH  23  24
ENDBRANCH   7  23
TORSDOF 4
ENDMDL
