MODEL 2
REMARK VINA RESULT: -7.276363372      1.004      1.394
REMARK  7 active torsions:
REMARK  status: ('A' for Active; 'I' for Inactive)
REMARK    1  A    between atoms: C2_2  and  C3_3 
REMARK    2  A    between atoms: C3_3  and  C4_4 
REMARK    3  A    between atoms: C3_3  and  N1_8 
REMARK    4  A    between atoms: C4_4  and  O1_6 
REMARK    5  A    between atoms: C7_11  and  C9_13 
REMARK    6  A    between atoms: C9_13  and  C10_14 
REMARK    7  A    between atoms: C12_18  and  C13_19 
ROOT
HETATM    1  N1  UNL     1     -13.627   0.736 -18.410  1.00  0.00    -0.289 N 
HETATM    2  C6  UNL     1     -12.758   1.908 -18.532  1.00  0.00     0.237 C 
HETATM    3  O2  UNL     1     -11.588   1.825 -18.998  1.00  0.00    -0.272 OA
HETATM    4  C7  UNL     1     -13.307   3.233 -18.080  1.00  0.00     0.048 C 
HETATM    5  C8  UNL     1     -12.782   3.611 -16.712  1.00  0.00     0.026 C 
HETATM    6  C11 UNL     1     -14.772   3.378 -18.233  1.00  0.00     0.035 C 
HETATM    7  C12 UNL     1     -15.553   2.041 -18.292  1.00  0.00     0.071 C 
HETATM    8  C19 UNL     1     -14.733   1.041 -17.556  1.00  0.00     0.038 C 
HETATM    9  C20 UNL     1     -15.336  -0.007 -16.779  1.00  0.00    -0.012 A 
HETATM   10  C21 UNL     1     -16.584  -0.472 -17.015  1.00  0.00     0.015 A 
HETATM   11  C22 UNL     1     -17.116  -1.464 -16.196  1.00  0.00     0.024 A 
HETATM   12  C23 UNL     1     -16.396  -1.994 -15.134  1.00  0.00     0.034 A 
HETATM   13 CL2  UNL     1     -17.045  -3.240 -14.091  1.00  0.00    -0.084 Cl
HETATM   14  C24 UNL     1     -15.129  -1.519 -14.899  1.00  0.00     0.024 A 
HETATM   15  C25 UNL     1     -14.629  -0.540 -15.722  1.00  0.00     0.015 A 
ENDROOT
BRANCH   1  16
HETATM   16  C3  UNL     1     -13.208  -0.381 -19.146  1.00  0.00     0.025 C 
BRANCH  16  17
HETATM   17  C2  UNL     1     -12.890  -1.563 -18.272  1.00  0.00     0.051 C 
HETATM   18  C1  UNL     1     -11.627  -1.321 -17.451  1.00  0.00     0.011 C 
ENDBRANCH  16  17
BRANCH  16  19
HETATM   19  C4  UNL     1     -13.932  -0.744 -20.410  1.00  0.00     0.160 C 
HETATM   20  C5  UNL     1     -14.899  -1.872 -20.326  1.00  0.00     0.045 C 
BRANCH  19  21
HETATM   21  O1  UNL     1     -13.002  -1.170 -21.400  1.00  0.00    -0.390 OA
ATOM     22  H1  UNL     1     -12.893  -0.493 -22.057  1.00  0.00     0.210 HD
ENDBRANCH  19  21
ENDBRANCH  16  19
ENDBRANCH   1  16
BRANCH   4  23
HETATM   23  C9  UNL     1     -12.668   4.245 -19.048  1.00  0.00     0.132 C 
BRANCH  23  24
HETATM   24  C10 UNL     1     -12.565   5.558 -18.368  1.00  0.00     0.173 C 
HETATM   25  O3  UNL     1     -13.517   6.343 -18.259  1.00  0.00    -0.648 OA
HETATM   26  O4  UNL     1     -11.332   5.958 -17.807  1.00  0.00    -0.648 OA
ENDBRANCH  23  24
ENDBRANCH   4  23
BRANCH   7  27
HETATM   27  C13 UNL     1     -16.926   2.256 -17.884  1.00  0.00    -0.046 A 
HETATM   28  C14 UNL     1     -17.968   1.890 -18.701  1.00  0.00     0.008 A 
HETATM   29  C15 UNL     1     -19.298   2.073 -18.301  1.00  0.00     0.002 A 
HETATM   30  C16 UNL     1     -19.584   2.620 -17.086  1.00  0.00     0.024 A 
HETATM   31  C17 UNL     1     -18.553   2.992 -16.255  1.00  0.00     0.034 A 
HETATM   32 CL1  UNL     1     -18.921   3.695 -14.694  1.00  0.00    -0.084 Cl
HETATM   33  C18 UNL     1     -17.250   2.804 -16.666  1.00  0.00     0.031 A 
ENDBRANCH   7  27
TORSDOF 7
ENDMDL
