MODEL 1
REMARK VINA RESULT: -7.774642015      0.000      0.000
REMARK  7 active torsions:
REMARK  status: ('A' for Active; 'I' for Inactive)
REMARK    1  A    between atoms: C2_2  and  C3_3 
REMARK    2  A    between atoms: C3_3  and  C4_4 
REMARK    3  A    between atoms: C3_3  and  N1_8 
REMARK    4  A    between atoms: C4_4  and  O1_6 
REMARK    5  A    between atoms: C7_11  and  C9_13 
REMARK    6  A    between atoms: C9_13  and  C10_14 
REMARK    7  A    between atoms: C12_18  and  C13_19 
ROOT
HETATM    1  N1  UNL     1     -13.617   0.769 -18.202  1.00  0.00    -0.289 N 
HETATM    2  C6  UNL     1     -12.624   1.820 -18.435  1.00  0.00     0.237 C 
HETATM    3  O2  UNL     1     -11.608   1.627 -19.157  1.00  0.00    -0.272 OA
HETATM    4  C7  UNL     1     -12.853   3.154 -17.780  1.00  0.00     0.048 C 
HETATM    5  C8  UNL     1     -11.997   3.316 -16.543  1.00  0.00     0.026 C 
HETATM    6  C11 UNL     1     -14.276   3.510 -17.588  1.00  0.00     0.035 C 
HETATM    7  C12 UNL     1     -15.249   2.304 -17.561  1.00  0.00     0.071 C 
HETATM    8  C19 UNL     1     -14.455   1.133 -17.101  1.00  0.00     0.038 C 
HETATM    9  C20 UNL     1     -15.033   0.103 -16.282  1.00  0.00    -0.012 A 
HETATM   10  C21 UNL     1     -16.359  -0.163 -16.261  1.00  0.00     0.015 A 
HETATM   11  C22 UNL     1     -16.850  -1.152 -15.414  1.00  0.00     0.024 A 
HETATM   12  C23 UNL     1     -16.011  -1.880 -14.582  1.00  0.00     0.034 A 
HETATM   13 CL2  UNL     1     -16.606  -3.127 -13.508  1.00  0.00    -0.084 Cl
HETATM   14  C24 UNL     1     -14.665  -1.607 -14.606  1.00  0.00     0.024 A 
HETATM   15  C25 UNL     1     -14.207  -0.626 -15.451  1.00  0.00     0.015 A 
ENDROOT
BRANCH   1  16
HETATM   16  C3  UNL     1     -13.542  -0.313 -19.089  1.00  0.00     0.025 C 
BRANCH  16  17
HETATM   17  C2  UNL     1     -12.900  -1.524 -18.470  1.00  0.00     0.051 C 
HETATM   18  C1  UNL     1     -11.627  -1.917 -19.213  1.00  0.00     0.011 C 
ENDBRANCH  16  17
BRANCH  16  19
HETATM   19  C4  UNL     1     -14.723  -0.635 -19.958  1.00  0.00     0.160 C 
HETATM   20  C5  UNL     1     -15.532  -1.824 -19.574  1.00  0.00     0.045 C 
BRANCH  19  21
HETATM   21  O1  UNL     1     -14.287  -0.938 -21.280  1.00  0.00    -0.390 OA
ATOM     22  H1  UNL     1     -14.294  -0.152 -21.812  1.00  0.00     0.210 HD
ENDBRANCH  19  21
ENDBRANCH  16  19
ENDBRANCH   1  16
BRANCH   4  23
HETATM   23  C9  UNL     1     -12.287   4.164 -18.795  1.00  0.00     0.132 C 
BRANCH  23  24
HETATM   24  C10 UNL     1     -12.439   5.531 -18.244  1.00  0.00     0.173 C 
HETATM   25  O3  UNL     1     -13.453   6.222 -18.413  1.00  0.00    -0.648 OA
HETATM   26  O4  UNL     1     -11.390   6.099 -17.486  1.00  0.00    -0.648 OA
ENDBRANCH  23  24
ENDBRANCH   4  23
BRANCH   7  27
HETATM   27  C13 UNL     1     -16.453   2.660 -16.840  1.00  0.00    -0.046 A 
HETATM   28  C14 UNL     1     -16.384   3.338 -15.647  1.00  0.00     0.008 A 
HETATM   29  C15 UNL     1     -17.546   3.707 -14.957  1.00  0.00     0.002 A 
HETATM   30  C16 UNL     1     -18.774   3.398 -15.460  1.00  0.00     0.024 A 
HETATM   31  C17 UNL     1     -18.863   2.720 -16.653  1.00  0.00     0.034 A 
HETATM   32 CL1  UNL     1     -20.441   2.322 -17.299  1.00  0.00    -0.084 Cl
HETATM   33  C18 UNL     1     -17.708   2.364 -17.318  1.00  0.00     0.031 A 
ENDBRANCH   7  27
TORSDOF 7
ENDMDL
