MODEL 3
REMARK VINA RESULT: -7.032793852      2.066      3.135
REMARK  7 active torsions:
REMARK  status: ('A' for Active; 'I' for Inactive)
REMARK    1  A    between atoms: C2_2  and  C3_3 
REMARK    2  A    between atoms: C3_3  and  C4_4 
REMARK    3  A    between atoms: C3_3  and  N1_8 
REMARK    4  A    between atoms: C4_4  and  O1_6 
REMARK    5  A    between atoms: C7_11  and  C9_13 
REMARK    6  A    between atoms: C9_13  and  C10_14 
REMARK    7  A    between atoms: C12_18  and  C13_19 
ROOT
HETATM    1  N1  UNL     1     -13.776   0.733 -17.135  1.00  0.00    -0.289 N 
HETATM    2  C6  UNL     1     -13.440   2.064 -16.625  1.00  0.00     0.237 C 
HETATM    3  O2  UNL     1     -12.365   2.286 -16.003  1.00  0.00    -0.272 OA
HETATM    4  C7  UNL     1     -14.424   3.174 -16.867  1.00  0.00     0.048 C 
HETATM    5  C8  UNL     1     -15.250   3.459 -15.631  1.00  0.00     0.026 C 
HETATM    6  C11 UNL     1     -15.215   3.037 -18.111  1.00  0.00     0.035 C 
HETATM    7  C12 UNL     1     -15.323   1.589 -18.654  1.00  0.00     0.071 C 
HETATM    8  C19 UNL     1     -15.163   0.687 -17.482  1.00  0.00     0.038 C 
HETATM    9  C20 UNL     1     -15.874  -0.559 -17.386  1.00  0.00    -0.012 A 
HETATM   10  C21 UNL     1     -16.329  -1.232 -18.467  1.00  0.00     0.015 A 
HETATM   11  C22 UNL     1     -17.043  -2.415 -18.293  1.00  0.00     0.024 A 
HETATM   12  C23 UNL     1     -17.303  -2.927 -17.030  1.00  0.00     0.034 A 
HETATM   13 CL2  UNL     1     -18.199  -4.411 -16.787  1.00  0.00    -0.084 Cl
HETATM   14  C24 UNL     1     -16.840  -2.241 -15.935  1.00  0.00     0.024 A 
HETATM   15  C25 UNL     1     -16.139  -1.077 -16.135  1.00  0.00     0.015 A 
ENDROOT
BRANCH   1  16
HETATM   16  C3  UNL     1     -12.700  -0.162 -17.188  1.00  0.00     0.025 C 
BRANCH  16  17
HETATM   17  C2  UNL     1     -13.021  -1.489 -16.556  1.00  0.00     0.051 C 
HETATM   18  C1  UNL     1     -12.768  -2.640 -17.525  1.00  0.00     0.011 C 
ENDBRANCH  16  17
BRANCH  16  19
HETATM   19  C4  UNL     1     -11.898  -0.275 -18.452  1.00  0.00     0.160 C 
HETATM   20  C5  UNL     1     -10.500   0.234 -18.404  1.00  0.00     0.045 C 
BRANCH  19  21
HETATM   21  O1  UNL     1     -12.502   0.498 -19.484  1.00  0.00    -0.390 OA
ATOM     22  H1  UNL     1     -12.314   1.419 -19.353  1.00  0.00     0.210 HD
ENDBRANCH  19  21
ENDBRANCH  16  19
ENDBRANCH   1  16
BRANCH   4  23
HETATM   23  C9  UNL     1     -13.537   4.419 -17.053  1.00  0.00     0.132 C 
BRANCH  23  24
HETATM   24  C10 UNL     1     -13.313   4.634 -18.502  1.00  0.00     0.173 C 
HETATM   25  O3  UNL     1     -13.779   5.597 -19.125  1.00  0.00    -0.648 OA
HETATM   26  O4  UNL     1     -12.534   3.709 -19.233  1.00  0.00    -0.648 OA
ENDBRANCH  23  24
ENDBRANCH   4  23
BRANCH   7  27
HETATM   27  C13 UNL     1     -16.505   1.462 -19.480  1.00  0.00    -0.046 A 
HETATM   28  C14 UNL     1     -16.443   0.848 -20.708  1.00  0.00     0.008 A 
HETATM   29  C15 UNL     1     -17.589   0.700 -21.499  1.00  0.00     0.002 A 
HETATM   30  C16 UNL     1     -18.794   1.164 -21.064  1.00  0.00     0.024 A 
HETATM   31  C17 UNL     1     -18.875   1.781 -19.837  1.00  0.00     0.034 A 
HETATM   32 CL1  UNL     1     -20.423   2.378 -19.278  1.00  0.00    -0.084 Cl
HETATM   33  C18 UNL     1     -17.736   1.918 -19.071  1.00  0.00     0.031 A 
ENDBRANCH   7  27
TORSDOF 7
ENDMDL
