MODEL 11
REMARK VINA RESULT: -3.409742807      9.930     10.504
REMARK  4 active torsions:
REMARK  status: ('A' for Active; 'I' for Inactive)
REMARK    1  A    between atoms: N1_1  and  C1_5 
REMARK    2  A    between atoms: C1_5  and  C2_6 
REMARK    3  A    between atoms: C2_6  and  C3_7 
REMARK    4  A    between atoms: C3_7  and  C4_8 
ROOT
HETATM    1  C1  UNL     1      11.019 -19.333   4.035  1.00  0.00     0.230 C 
ENDROOT
BRANCH   1   2
HETATM    2  N1  UNL     1      10.876 -18.190   3.150  1.00  0.00    -0.079 N 
ATOM      3  H13 UNL     1      11.410 -18.295   2.288  1.00  0.00     0.274 HD
ATOM      4  H12 UNL     1       9.946 -18.133   2.735  1.00  0.00     0.274 HD
ATOM      5  H11 UNL     1      11.126 -17.344   3.664  1.00  0.00     0.274 HD
ENDBRANCH   1   2
BRANCH   1   6
HETATM    6  C2  UNL     1      12.435 -19.865   3.920  1.00  0.00     0.038 C 
BRANCH   6   7
HETATM    7  C3  UNL     1      12.959 -20.301   5.277  1.00  0.00     0.115 C 
BRANCH   7   8
HETATM    8  C4  UNL     1      12.966 -19.215   6.256  1.00  0.00     0.172 C 
HETATM    9  O1  UNL     1      13.652 -18.198   6.060  1.00  0.00    -0.648 OA
HETATM   10  O2  UNL     1      12.216 -19.311   7.403  1.00  0.00    -0.648 OA
ENDBRANCH   7   8
ENDBRANCH   6   7
ENDBRANCH   1   6
TORSDOF 4
ENDMDL
