MODEL 1
REMARK VINA RESULT: -5.289657640      0.000      0.000
REMARK  4 active torsions:
REMARK  status: ('A' for Active; 'I' for Inactive)
REMARK    1  A    between atoms: N1_1  and  C1_5 
REMARK    2  A    between atoms: C1_5  and  C2_6 
REMARK    3  A    between atoms: C2_6  and  C3_7 
REMARK    4  A    between atoms: C3_7  and  C4_8 
ROOT
HETATM    1  C1  UNL     1       6.767 -13.496  10.519  1.00  0.00     0.230 C 
ENDROOT
BRANCH   1   2
HETATM    2  N1  UNL     1       8.012 -14.244  10.530  1.00  0.00    -0.079 N 
ATOM      3  H13 UNL     1       7.887 -15.213  10.238  1.00  0.00     0.274 HD
ATOM      4  H12 UNL     1       8.648 -13.953   9.788  1.00  0.00     0.274 HD
ATOM      5  H11 UNL     1       8.432 -14.167  11.457  1.00  0.00     0.274 HD
ENDBRANCH   1   2
BRANCH   1   6
HETATM    6  C2  UNL     1       6.439 -13.116   9.087  1.00  0.00     0.038 C 
BRANCH   6   7
HETATM    7  C3  UNL     1       5.111 -12.383   9.014  1.00  0.00     0.115 C 
BRANCH   7   8
HETATM    8  C4  UNL     1       4.528 -12.403   7.674  1.00  0.00     0.172 C 
HETATM    9  O1  UNL     1       5.260 -12.400   6.670  1.00  0.00    -0.648 OA
HETATM   10  O2  UNL     1       3.163 -12.421   7.512  1.00  0.00    -0.648 OA
ENDBRANCH   7   8
ENDBRANCH   6   7
ENDBRANCH   1   6
TORSDOF 4
ENDMDL
