MODEL 5
REMARK VINA RESULT: -4.819651792      1.141      1.141
REMARK  4 active torsions:
REMARK  status: ('A' for Active; 'I' for Inactive)
REMARK    1  A    between atoms: N1_1  and  C1_5 
REMARK    2  A    between atoms: C1_5  and  C2_6 
REMARK    3  A    between atoms: C2_6  and  C3_7 
REMARK    4  A    between atoms: C3_7  and  C4_8 
ROOT
HETATM    1  C1  UNL     1       6.655 -13.501  10.418  1.00  0.00     0.230 C 
ENDROOT
BRANCH   1   2
HETATM    2  N1  UNL     1       5.378 -13.145  11.013  1.00  0.00    -0.079 N 
ATOM      3  H13 UNL     1       5.459 -12.924  12.005  1.00  0.00     0.274 HD
ATOM      4  H12 UNL     1       5.039 -12.238  10.693  1.00  0.00     0.274 HD
ATOM      5  H11 UNL     1       4.712 -13.897  10.833  1.00  0.00     0.274 HD
ENDBRANCH   1   2
BRANCH   1   6
HETATM    6  C2  UNL     1       6.636 -13.112   8.952  1.00  0.00     0.038 C 
BRANCH   6   7
HETATM    7  C3  UNL     1       5.582 -12.050   8.689  1.00  0.00     0.115 C 
BRANCH   7   8
HETATM    8  C4  UNL     1       4.741 -12.363   7.535  1.00  0.00     0.172 C 
HETATM    9  O1  UNL     1       5.250 -12.529   6.414  1.00  0.00    -0.648 OA
HETATM   10  O2  UNL     1       3.379 -12.474   7.680  1.00  0.00    -0.648 OA
ENDBRANCH   7   8
ENDBRANCH   6   7
ENDBRANCH   1   6
TORSDOF 4
ENDMDL
