MODEL 10
REMARK VINA RESULT: -3.517437602      9.864     10.412
REMARK  4 active torsions:
REMARK  status: ('A' for Active; 'I' for Inactive)
REMARK    1  A    between atoms: N1_1  and  C1_5 
REMARK    2  A    between atoms: C1_5  and  C2_6 
REMARK    3  A    between atoms: C2_6  and  C3_7 
REMARK    4  A    between atoms: C3_7  and  C4_8 
ROOT
HETATM    1  C1  UNL     1      13.262 -20.308   7.740  1.00  0.00     0.230 C 
ENDROOT
BRANCH   1   2
HETATM    2  N1  UNL     1      12.211 -19.380   8.117  1.00  0.00    -0.079 N 
ATOM      3  H13 UNL     1      11.606 -19.137   7.332  1.00  0.00     0.274 HD
ATOM      4  H12 UNL     1      11.504 -19.812   8.712  1.00  0.00     0.274 HD
ATOM      5  H11 UNL     1      12.637 -18.559   8.550  1.00  0.00     0.274 HD
ENDBRANCH   1   2
BRANCH   1   6
HETATM    6  C2  UNL     1      13.317 -20.395   6.226  1.00  0.00     0.038 C 
BRANCH   6   7
HETATM    7  C3  UNL     1      12.341 -19.418   5.593  1.00  0.00     0.115 C 
BRANCH   7   8
HETATM    8  C4  UNL     1      12.088 -19.706   4.183  1.00  0.00     0.172 C 
HETATM    9  O1  UNL     1      10.927 -19.869   3.773  1.00  0.00    -0.648 OA
HETATM   10  O2  UNL     1      13.135 -19.803   3.297  1.00  0.00    -0.648 OA
ENDBRANCH   7   8
ENDBRANCH   6   7
ENDBRANCH   1   6
TORSDOF 4
ENDMDL
