MODEL 13
REMARK VINA RESULT: -3.363680217      9.338      9.936
REMARK  4 active torsions:
REMARK  status: ('A' for Active; 'I' for Inactive)
REMARK    1  A    between atoms: N1_1  and  C1_5 
REMARK    2  A    between atoms: C1_5  and  C2_6 
REMARK    3  A    between atoms: C2_6  and  C3_7 
REMARK    4  A    between atoms: C3_7  and  C4_8 
ROOT
HETATM    1  C1  UNL     1      12.872 -19.878   7.001  1.00  0.00     0.230 C 
ENDROOT
BRANCH   1   2
HETATM    2  N1  UNL     1      12.276 -19.672   8.309  1.00  0.00    -0.079 N 
ATOM      3  H13 UNL     1      11.272 -19.498   8.257  1.00  0.00     0.274 HD
ATOM      4  H12 UNL     1      12.243 -20.528   8.862  1.00  0.00     0.274 HD
ATOM      5  H11 UNL     1      12.778 -18.920   8.783  1.00  0.00     0.274 HD
ENDBRANCH   1   2
BRANCH   1   6
HETATM    6  C2  UNL     1      11.949 -19.294   5.946  1.00  0.00     0.038 C 
BRANCH   6   7
HETATM    7  C3  UNL     1      12.337 -19.781   4.561  1.00  0.00     0.115 C 
BRANCH   7   8
HETATM    8  C4  UNL     1      11.249 -19.653   3.593  1.00  0.00     0.172 C 
HETATM    9  O1  UNL     1      10.571 -18.612   3.544  1.00  0.00    -0.648 OA
HETATM   10  O2  UNL     1      10.964 -20.684   2.729  1.00  0.00    -0.648 OA
ENDBRANCH   7   8
ENDBRANCH   6   7
ENDBRANCH   1   6
TORSDOF 4
ENDMDL
