MODEL 2
REMARK VINA RESULT: -5.253105864      0.065      1.209
REMARK  4 active torsions:
REMARK  status: ('A' for Active; 'I' for Inactive)
REMARK    1  A    between atoms: N1_1  and  C1_5 
REMARK    2  A    between atoms: C1_5  and  C2_6 
REMARK    3  A    between atoms: C2_6  and  C3_7 
REMARK    4  A    between atoms: C3_7  and  C4_8 
ROOT
HETATM    1  C1  UNL     1       6.746 -13.485  10.513  1.00  0.00     0.230 C 
ENDROOT
BRANCH   1   2
HETATM    2  N1  UNL     1       7.998 -14.221  10.506  1.00  0.00    -0.079 N 
ATOM      3  H13 UNL     1       8.810 -13.610  10.602  1.00  0.00     0.274 HD
ATOM      4  H12 UNL     1       8.132 -14.770  11.355  1.00  0.00     0.274 HD
ATOM      5  H11 UNL     1       8.038 -14.793   9.662  1.00  0.00     0.274 HD
ENDBRANCH   1   2
BRANCH   1   6
HETATM    6  C2  UNL     1       6.392 -13.110   9.085  1.00  0.00     0.038 C 
BRANCH   6   7
HETATM    7  C3  UNL     1       5.048 -12.405   9.031  1.00  0.00     0.115 C 
BRANCH   7   8
HETATM    8  C4  UNL     1       4.455 -12.423   7.694  1.00  0.00     0.172 C 
HETATM    9  O1  UNL     1       3.221 -12.438   7.555  1.00  0.00    -0.648 OA
HETATM   10  O2  UNL     1       5.259 -12.427   6.579  1.00  0.00    -0.648 OA
ENDBRANCH   7   8
ENDBRANCH   6   7
ENDBRANCH   1   6
TORSDOF 4
ENDMDL
