MODEL 1
REMARK VINA RESULT: -6.956913540      0.000      0.000
REMARK  12 active torsions:
REMARK  status: ('A' for Active; 'I' for Inactive)
REMARK    1  A    between atoms: C1_2  and  C2_4 
REMARK    2  A    between atoms: C3_5  and  N1_6 
REMARK    3  A    between atoms: N1_6  and  C4_8 
REMARK    4  A    between atoms: C4_8  and  C5_9 
REMARK    5  A    between atoms: C5_9  and  O3_10 
REMARK    6  A    between atoms: C5_9  and  C6_12 
REMARK    7  A    between atoms: C6_12  and  O4_13 
REMARK    8  A    between atoms: C6_12  and  C7_15 
REMARK    9  A    between atoms: C7_15  and  O5_16 
REMARK   10  A    between atoms: C7_15  and  C8_18 
REMARK   11  A    between atoms: C8_18  and  O6_19 
REMARK   12  A    between atoms: O6_19  and  P1_20 
ROOT
HETATM    1  C5  UNL     1       9.190  19.825  14.713  1.00  0.00     0.167 C 
ENDROOT
BRANCH   1   2
HETATM    2  C4  UNL     1      10.407  19.478  15.554  1.00  0.00     0.154 C 
BRANCH   2   3
HETATM    3  N1  UNL     1      10.618  20.509  16.547  1.00  0.00    -0.390 N 
ATOM      4  H1  UNL     1      10.026  21.339  16.560  1.00  0.00     0.159 HD
BRANCH   3   5
HETATM    5  C3  UNL     1      11.677  20.352  17.524  1.00  0.00     0.022 A 
HETATM    6  C2  UNL     1      12.673  21.206  17.483  1.00  0.00     0.062 A 
HETATM    7  C12 UNL     1      13.798  21.066  18.430  1.00  0.00     0.016 A 
HETATM    8  C11 UNL     1      13.779  20.085  19.291  1.00  0.00    -0.025 A 
HETATM    9  C10 UNL     1      12.729  19.099  19.400  1.00  0.00     0.033 A 
HETATM   10  C9  UNL     1      11.565  19.272  18.519  1.00  0.00     0.061 A 
BRANCH   6  11
HETATM   11  C1  UNL     1      12.755  22.287  16.515  1.00  0.00     0.211 C 
HETATM   12  O1  UNL     1      13.004  22.004  15.290  1.00  0.00    -0.644 OA
HETATM   13  O2  UNL     1      12.574  23.603  16.872  1.00  0.00    -0.644 OA
ENDBRANCH   6  11
ENDBRANCH   3   5
ENDBRANCH   2   3
ENDBRANCH   1   2
BRANCH   1  14
HETATM   14  O3  UNL     1       8.617  18.643  14.216  1.00  0.00    -0.391 OA
ATOM     15  H3  UNL     1       8.781  18.583  13.283  1.00  0.00     0.210 HD
ENDBRANCH   1  14
BRANCH   1  16
HETATM   16  C6  UNL     1       9.561  20.663  13.527  1.00  0.00     0.179 C 
BRANCH  16  17
HETATM   17  O4  UNL     1      10.678  21.446  13.703  1.00  0.00    -0.390 OA
ATOM     18  H4  UNL     1      10.501  22.328  14.006  1.00  0.00     0.210 HD
ENDBRANCH  16  17
BRANCH  16  19
HETATM   19  C7  UNL     1       8.387  21.437  13.017  1.00  0.00     0.173 C 
BRANCH  19  20
HETATM   20  O5  UNL     1       8.208  21.192  11.635  1.00  0.00    -0.391 OA
ATOM     21  H5  UNL     1       8.281  22.005  11.148  1.00  0.00     0.210 HD
ENDBRANCH  19  20
BRANCH  19  22
HETATM   22  C8  UNL     1       8.647  22.938  13.092  1.00  0.00     0.217 C 
BRANCH  22  23
HETATM   23  O6  UNL     1       8.187  23.524  14.214  1.00  0.00    -0.280 OA
BRANCH  23  24
HETATM   24  P1  UNL     1       9.141  24.230  15.287  1.00  0.00     0.422 P 
HETATM   25  O7  UNL     1       9.330  22.973  16.132  1.00  0.00    -0.617 OA
HETATM   26  O8  UNL     1       8.458  25.000  16.625  1.00  0.00    -0.617 OA
HETATM   27  O9  UNL     1       9.032  25.593  14.577  1.00  0.00    -0.617 OA
ENDBRANCH  23  24
ENDBRANCH  22  23
ENDBRANCH  19  22
ENDBRANCH  16  19
ENDBRANCH   1  16
TORSDOF 12
ENDMDL
