MODEL 2
REMARK VINA RESULT: -6.913283277      1.498      2.048
REMARK  12 active torsions:
REMARK  status: ('A' for Active; 'I' for Inactive)
REMARK    1  A    between atoms: C1_2  and  C2_4 
REMARK    2  A    between atoms: C3_5  and  N1_6 
REMARK    3  A    between atoms: N1_6  and  C4_8 
REMARK    4  A    between atoms: C4_8  and  C5_9 
REMARK    5  A    between atoms: C5_9  and  O3_10 
REMARK    6  A    between atoms: C5_9  and  C6_12 
REMARK    7  A    between atoms: C6_12  and  O4_13 
REMARK    8  A    between atoms: C6_12  and  C7_15 
REMARK    9  A    between atoms: C7_15  and  O5_16 
REMARK   10  A    between atoms: C7_15  and  C8_18 
REMARK   11  A    between atoms: C8_18  and  O6_19 
REMARK   12  A    between atoms: O6_19  and  P1_20 
ROOT
HETATM    1  C5  UNL     1       8.814  20.257  13.078  1.00  0.00     0.167 C 
ENDROOT
BRANCH   1   2
HETATM    2  C4  UNL     1       9.696  19.503  14.059  1.00  0.00     0.154 C 
BRANCH   2   3
HETATM    3  N1  UNL     1       9.447  19.986  15.401  1.00  0.00    -0.390 N 
ATOM      4  H1  UNL     1       8.595  20.505  15.611  1.00  0.00     0.159 HD
BRANCH   3   5
HETATM    5  C3  UNL     1      10.419  19.724  16.444  1.00  0.00     0.022 A 
HETATM    6  C2  UNL     1      11.052  20.753  16.957  1.00  0.00     0.062 A 
HETATM    7  C12 UNL     1      12.081  20.538  17.995  1.00  0.00     0.016 A 
HETATM    8  C11 UNL     1      12.344  19.318  18.378  1.00  0.00    -0.025 A 
HETATM    9  C10 UNL     1      11.702  18.131  17.863  1.00  0.00     0.033 A 
HETATM   10  C9  UNL     1      10.620  18.334  16.889  1.00  0.00     0.061 A 
BRANCH   6  11
HETATM   11  C1  UNL     1      10.820  22.123  16.531  1.00  0.00     0.211 C 
HETATM   12  O1  UNL     1      11.828  22.865  16.257  1.00  0.00    -0.644 OA
HETATM   13  O2  UNL     1       9.553  22.647  16.413  1.00  0.00    -0.644 OA
ENDBRANCH   6  11
ENDBRANCH   3   5
ENDBRANCH   2   3
ENDBRANCH   1   2
BRANCH   1  14
HETATM   14  O3  UNL     1       8.822  19.591  11.842  1.00  0.00    -0.391 OA
ATOM     15  H3  UNL     1       8.113  18.959  11.821  1.00  0.00     0.210 HD
ENDBRANCH   1  14
BRANCH   1  16
HETATM   16  C6  UNL     1       9.326  21.643  12.831  1.00  0.00     0.179 C 
BRANCH  16  17
HETATM   17  O4  UNL     1      10.472  21.965  13.519  1.00  0.00    -0.390 OA
ATOM     18  H4  UNL     1      10.514  22.864  13.823  1.00  0.00     0.210 HD
ENDBRANCH  16  17
BRANCH  16  19
HETATM   19  C7  UNL     1       8.244  22.663  13.000  1.00  0.00     0.173 C 
BRANCH  19  20
HETATM   20  O5  UNL     1       7.004  22.131  12.576  1.00  0.00    -0.391 OA
ATOM     21  H5  UNL     1       6.633  22.674  11.891  1.00  0.00     0.210 HD
ENDBRANCH  19  20
BRANCH  19  22
HETATM   22  C8  UNL     1       8.466  23.855  12.075  1.00  0.00     0.217 C 
BRANCH  22  23
HETATM   23  O6  UNL     1       9.669  24.447  12.212  1.00  0.00    -0.280 OA
BRANCH  23  24
HETATM   24  P1  UNL     1       9.962  25.594  13.288  1.00  0.00     0.422 P 
HETATM   25  O7  UNL     1      11.168  24.885  13.900  1.00  0.00    -0.617 OA
HETATM   26  O8  UNL     1       9.196  25.536  14.791  1.00  0.00    -0.617 OA
HETATM   27  O9  UNL     1       8.755  26.427  12.819  1.00  0.00    -0.617 OA
ENDBRANCH  23  24
ENDBRANCH  22  23
ENDBRANCH  19  22
ENDBRANCH  16  19
ENDBRANCH   1  16
TORSDOF 12
ENDMDL
