MODEL 3
REMARK VINA RESULT: -6.825299402      1.598      2.252
REMARK  12 active torsions:
REMARK  status: ('A' for Active; 'I' for Inactive)
REMARK    1  A    between atoms: C1_2  and  C2_4 
REMARK    2  A    between atoms: C3_5  and  N1_6 
REMARK    3  A    between atoms: N1_6  and  C4_8 
REMARK    4  A    between atoms: C4_8  and  C5_9 
REMARK    5  A    between atoms: C5_9  and  O3_10 
REMARK    6  A    between atoms: C5_9  and  C6_12 
REMARK    7  A    between atoms: C6_12  and  O4_13 
REMARK    8  A    between atoms: C6_12  and  C7_15 
REMARK    9  A    between atoms: C7_15  and  O5_16 
REMARK   10  A    between atoms: C7_15  and  C8_18 
REMARK   11  A    between atoms: C8_18  and  O6_19 
REMARK   12  A    between atoms: O6_19  and  P1_20 
ROOT
HETATM    1  C5  UNL     1       9.262  19.841  14.683  1.00  0.00     0.167 C 
ENDROOT
BRANCH   1   2
HETATM    2  C4  UNL     1      10.493  19.535  15.519  1.00  0.00     0.154 C 
BRANCH   2   3
HETATM    3  N1  UNL     1      10.569  20.463  16.626  1.00  0.00    -0.390 N 
ATOM      4  H1  UNL     1       9.716  20.822  17.055  1.00  0.00     0.159 HD
BRANCH   3   5
HETATM    5  C3  UNL     1      11.866  20.877  17.122  1.00  0.00     0.022 A 
HETATM    6  C2  UNL     1      12.215  20.473  18.322  1.00  0.00     0.062 A 
HETATM    7  C12 UNL     1      13.510  20.901  18.891  1.00  0.00     0.016 A 
HETATM    8  C11 UNL     1      14.283  21.681  18.185  1.00  0.00    -0.025 A 
HETATM    9  C10 UNL     1      13.974  22.177  16.863  1.00  0.00     0.033 A 
HETATM   10  C9  UNL     1      12.727  21.696  16.252  1.00  0.00     0.061 A 
BRANCH   6  11
HETATM   11  C1  UNL     1      11.369  19.639  19.158  1.00  0.00     0.211 C 
HETATM   12  O1  UNL     1      10.232  20.094  19.537  1.00  0.00    -0.644 OA
HETATM   13  O2  UNL     1      11.750  18.379  19.556  1.00  0.00    -0.644 OA
ENDBRANCH   6  11
ENDBRANCH   3   5
ENDBRANCH   2   3
ENDBRANCH   1   2
BRANCH   1  14
HETATM   14  O3  UNL     1       8.736  18.643  14.176  1.00  0.00    -0.391 OA
ATOM     15  H3  UNL     1       8.617  18.026  14.889  1.00  0.00     0.210 HD
ENDBRANCH   1  14
BRANCH   1  16
HETATM   16  C6  UNL     1       9.597  20.705  13.505  1.00  0.00     0.179 C 
BRANCH  16  17
HETATM   17  O4  UNL     1      10.695  21.514  13.679  1.00  0.00    -0.390 OA
ATOM     18  H4  UNL     1      10.521  22.328  14.136  1.00  0.00     0.210 HD
ENDBRANCH  16  17
BRANCH  16  19
HETATM   19  C7  UNL     1       8.397  21.455  13.020  1.00  0.00     0.173 C 
BRANCH  19  20
HETATM   20  O5  UNL     1       8.189  21.200  11.644  1.00  0.00    -0.391 OA
ATOM     21  H5  UNL     1       7.650  21.885  11.263  1.00  0.00     0.210 HD
ENDBRANCH  19  20
BRANCH  19  22
HETATM   22  C8  UNL     1       8.631  22.961  13.081  1.00  0.00     0.217 C 
BRANCH  22  23
HETATM   23  O6  UNL     1       8.176  23.547  14.206  1.00  0.00    -0.280 OA
BRANCH  23  24
HETATM   24  P1  UNL     1       9.135  24.250  15.277  1.00  0.00     0.422 P 
HETATM   25  O7  UNL     1       9.323  22.991  16.120  1.00  0.00    -0.617 OA
HETATM   26  O8  UNL     1       8.456  25.018  16.618  1.00  0.00    -0.617 OA
HETATM   27  O9  UNL     1       9.026  25.613  14.569  1.00  0.00    -0.617 OA
ENDBRANCH  23  24
ENDBRANCH  22  23
ENDBRANCH  19  22
ENDBRANCH  16  19
ENDBRANCH   1  16
TORSDOF 12
ENDMDL
