MODEL 3
REMARK VINA RESULT: -5.004934472      1.381      1.644
REMARK  3 active torsions:
REMARK  status: ('A' for Active; 'I' for Inactive)
REMARK    1  A    between atoms: C2_2  and  C3_3 
REMARK    2  A    between atoms: C2_2  and  C4_5 
REMARK       I    between atoms: C4_5  and  N1_7 
REMARK    3  A    between atoms: C8_11  and  C9_12 
ROOT
HETATM    1  C4  UNL     1     -44.354   8.999   0.020  1.00  0.00     0.225 C 
HETATM    2  O1  UNL     1     -43.614  10.003  -0.111  1.00  0.00    -0.273 OA
HETATM    3  N1  UNL     1     -43.953   7.757  -0.534  1.00  0.00    -0.337 N 
HETATM    4  C5  UNL     1     -44.696   6.507  -0.469  1.00  0.00     0.127 C 
HETATM    5  C6  UNL     1     -43.531   5.542  -0.202  1.00  0.00     0.022 C 
HETATM    6  C7  UNL     1     -42.617   5.969  -1.332  1.00  0.00     0.038 C 
HETATM    7  C8  UNL     1     -42.735   7.475  -1.268  1.00  0.00     0.188 C 
ENDROOT
BRANCH   1   8
HETATM    8  C2  UNL     1     -45.631   9.157   0.753  1.00  0.00     0.084 C 
HETATM    9  C1  UNL     1     -45.677   8.407   2.046  1.00  0.00     0.020 C 
BRANCH   8  10
HETATM   10  C3  UNL     1     -46.806   8.811  -0.121  1.00  0.00     0.099 C 
HETATM   11  S1  UNL     1     -46.886   9.878  -1.572  1.00  0.00    -0.097 SA
ENDBRANCH   8  10
ENDBRANCH   1   8
BRANCH   7  12
HETATM   12  C9  UNL     1     -42.857   8.051  -2.650  1.00  0.00     0.196 C 
HETATM   13  O2  UNL     1     -41.820   8.460  -3.197  1.00  0.00    -0.646 OA
HETATM   14  O3  UNL     1     -44.073   8.131  -3.300  1.00  0.00    -0.646 OA
ENDBRANCH   7  12
TORSDOF 3
ENDMDL
