MODEL 2
REMARK VINA RESULT: -5.068885774      1.140      1.176
REMARK  3 active torsions:
REMARK  status: ('A' for Active; 'I' for Inactive)
REMARK    1  A    between atoms: C2_2  and  C3_3 
REMARK    2  A    between atoms: C2_2  and  C4_5 
REMARK       I    between atoms: C4_5  and  N1_7 
REMARK    3  A    between atoms: C8_11  and  C9_12 
ROOT
HETATM    1  C4  UNL     1     -44.394   8.394  -0.333  1.00  0.00     0.225 C 
HETATM    2  O1  UNL     1     -43.962   9.565  -0.452  1.00  0.00    -0.273 OA
HETATM    3  N1  UNL     1     -43.636   7.313  -0.850  1.00  0.00    -0.337 N 
HETATM    4  C5  UNL     1     -44.000   5.905  -0.793  1.00  0.00     0.127 C 
HETATM    5  C6  UNL     1     -42.622   5.308  -0.465  1.00  0.00     0.022 C 
HETATM    6  C7  UNL     1     -41.819   5.970  -1.567  1.00  0.00     0.038 C 
HETATM    7  C8  UNL     1     -42.360   7.382  -1.532  1.00  0.00     0.188 C 
ENDROOT
BRANCH   1   8
HETATM    8  C2  UNL     1     -45.693   8.189   0.349  1.00  0.00     0.084 C 
HETATM    9  C1  UNL     1     -46.865   8.183  -0.581  1.00  0.00     0.020 C 
BRANCH   8  10
HETATM   10  C3  UNL     1     -45.884   9.185   1.461  1.00  0.00     0.099 C 
HETATM   11  S1  UNL     1     -47.327  10.226   1.174  1.00  0.00    -0.097 SA
ENDBRANCH   8  10
ENDBRANCH   1   8
BRANCH   7  12
HETATM   12  C9  UNL     1     -42.581   7.894  -2.927  1.00  0.00     0.196 C 
HETATM   13  O2  UNL     1     -41.622   8.430  -3.503  1.00  0.00    -0.646 OA
HETATM   14  O3  UNL     1     -43.804   7.779  -3.557  1.00  0.00    -0.646 OA
ENDBRANCH   7  12
TORSDOF 3
ENDMDL
