MODEL 1
REMARK VINA RESULT: -5.217300924      0.000      0.000
REMARK  3 active torsions:
REMARK  status: ('A' for Active; 'I' for Inactive)
REMARK    1  A    between atoms: C2_2  and  C3_3 
REMARK    2  A    between atoms: C2_2  and  C4_5 
REMARK       I    between atoms: C4_5  and  N1_7 
REMARK    3  A    between atoms: C8_11  and  C9_12 
ROOT
HETATM    1  C4  UNL     1     -44.458   8.840  -0.231  1.00  0.00     0.225 C 
HETATM    2  O1  UNL     1     -43.772   9.884  -0.341  1.00  0.00    -0.273 OA
HETATM    3  N1  UNL     1     -43.958   7.616  -0.745  1.00  0.00    -0.337 N 
HETATM    4  C5  UNL     1     -44.630   6.326  -0.697  1.00  0.00     0.127 C 
HETATM    5  C6  UNL     1     -43.426   5.435  -0.359  1.00  0.00     0.022 C 
HETATM    6  C7  UNL     1     -42.483   5.900  -1.450  1.00  0.00     0.038 C 
HETATM    7  C8  UNL     1     -42.692   7.398  -1.415  1.00  0.00     0.188 C 
ENDROOT
BRANCH   1   8
HETATM    8  C2  UNL     1     -45.776   8.932   0.438  1.00  0.00     0.084 C 
HETATM    9  C1  UNL     1     -46.546  10.163   0.081  1.00  0.00     0.020 C 
BRANCH   8  10
HETATM   10  C3  UNL     1     -45.639   8.787   1.930  1.00  0.00     0.099 C 
HETATM   11  S1  UNL     1     -46.429   7.279   2.522  1.00  0.00    -0.097 SA
ENDBRANCH   8  10
ENDBRANCH   1   8
BRANCH   7  12
HETATM   12  C9  UNL     1     -42.778   7.948  -2.809  1.00  0.00     0.196 C 
HETATM   13  O2  UNL     1     -41.775   8.517  -3.267  1.00  0.00    -0.646 OA
HETATM   14  O3  UNL     1     -43.928   7.834  -3.566  1.00  0.00    -0.646 OA
ENDBRANCH   7  12
TORSDOF 3
ENDMDL
