MODEL 13
REMARK VINA RESULT: -6.989557593      1.356      4.748
REMARK  1 active torsions:
REMARK  status: ('A' for Active; 'I' for Inactive)
REMARK    1  A    between atoms: N4_16  and  C10_17 
ROOT
HETATM    1  C1  UNL     1      13.038  11.434  10.504  1.00  0.00     0.089 C 
HETATM    2  C2  UNL     1      13.001   9.962  10.726  1.00  0.00     0.080 A 
HETATM    3  N1  UNL     1      11.983   9.184  10.283  1.00  0.00    -0.343 N 
ATOM      4  H1  UNL     1      11.169   9.516   9.766  1.00  0.00     0.167 HD
HETATM    5  C3  UNL     1      12.208   7.926  10.625  1.00  0.00     0.077 A 
HETATM    6  C4  UNL     1      11.479   6.751  10.414  1.00  0.00     0.121 A 
HETATM    7  N2  UNL     1      11.929   5.579  10.871  1.00  0.00    -0.349 N 
ATOM      8  H2  UNL     1      11.390   4.727  10.712  1.00  0.00     0.167 HD
HETATM    9  C5  UNL     1      13.103   5.524  11.546  1.00  0.00     0.117 A 
HETATM   10  N3  UNL     1      13.757   4.497  12.100  1.00  0.00    -0.352 N 
ATOM     11  H3  UNL     1      13.446   3.525  12.093  1.00  0.00     0.166 HD
HETATM   12  C6  UNL     1      14.885   4.947  12.666  1.00  0.00     0.090 A 
HETATM   13  C7  UNL     1      14.942   6.322  12.458  1.00  0.00     0.034 A 
HETATM   14  C8  UNL     1      13.837   6.686  11.762  1.00  0.00     0.038 A 
HETATM   15  C9  UNL     1      13.406   7.911  11.305  1.00  0.00     0.078 A 
HETATM   16  N4  UNL     1      13.893   9.183  11.362  1.00  0.00    -0.329 N 
ENDROOT
BRANCH  16  17
HETATM   17  C10 UNL     1      15.121   9.539  11.979  1.00  0.00     0.095 C 
HETATM   18  C11 UNL     1      15.378  11.024  11.996  1.00  0.00     0.053 C 
HETATM   19  C12 UNL     1      16.702  11.245  12.681  1.00  0.00     0.234 C 
HETATM   20  N5  UNL     1      17.182  10.080  13.385  1.00  0.00    -0.075 N 
HETATM   21  C13 UNL     1      17.408   8.935  12.525  1.00  0.00     0.234 C 
ATOM     22  H52 UNL     1      18.022  10.302  13.918  1.00  0.00     0.277 HD
ATOM     23  H51 UNL     1      16.554   9.836  14.151  1.00  0.00     0.277 HD
HETATM   24  C14 UNL     1      16.370   8.935  11.373  1.00  0.00     0.053 C 
ENDBRANCH  16  17
TORSDOF 1
ENDMDL
