MODEL 11
REMARK VINA RESULT: -7.088131553      2.145      5.297
REMARK  1 active torsions:
REMARK  status: ('A' for Active; 'I' for Inactive)
REMARK    1  A    between atoms: N4_16  and  C10_17 
ROOT
HETATM    1  C1  UNL     1      11.725   5.144  10.873  1.00  0.00     0.089 C 
HETATM    2  C2  UNL     1      13.074   4.918  11.458  1.00  0.00     0.080 A 
HETATM    3  N1  UNL     1      13.502   3.694  11.855  1.00  0.00    -0.343 N 
ATOM      4  H1  UNL     1      12.961   2.832  11.789  1.00  0.00     0.167 HD
HETATM    5  C3  UNL     1      14.729   3.791  12.340  1.00  0.00     0.077 A 
HETATM    6  C4  UNL     1      15.605   2.839  12.872  1.00  0.00     0.121 A 
HETATM    7  N2  UNL     1      16.817   3.196  13.305  1.00  0.00    -0.349 N 
ATOM      8  H2  UNL     1      17.450   2.495  13.690  1.00  0.00     0.167 HD
HETATM    9  C5  UNL     1      17.205   4.493  13.231  1.00  0.00     0.117 A 
HETATM   10  N3  UNL     1      18.341   5.098  13.595  1.00  0.00    -0.352 N 
ATOM     11  H3  UNL     1      19.149   4.636  14.012  1.00  0.00     0.166 HD
HETATM   12  C6  UNL     1      18.248   6.408  13.325  1.00  0.00     0.090 A 
HETATM   13  C7  UNL     1      16.995   6.635  12.766  1.00  0.00     0.034 A 
HETATM   14  C8  UNL     1      16.342   5.448  12.704  1.00  0.00     0.038 A 
HETATM   15  C9  UNL     1      15.086   5.117  12.246  1.00  0.00     0.078 A 
HETATM   16  N4  UNL     1      14.050   5.812  11.695  1.00  0.00    -0.329 N 
ENDROOT
BRANCH  16  17
HETATM   17  C10 UNL     1      14.076   7.208  11.438  1.00  0.00     0.095 C 
HETATM   18  C11 UNL     1      12.787   7.908  11.789  1.00  0.00     0.053 C 
HETATM   19  C12 UNL     1      12.966   9.370  11.470  1.00  0.00     0.234 C 
HETATM   20  N5  UNL     1      14.343   9.739  11.239  1.00  0.00    -0.075 N 
HETATM   21  C13 UNL     1      14.947   9.048  10.117  1.00  0.00     0.234 C 
ATOM     22  H52 UNL     1      14.431  10.749  11.130  1.00  0.00     0.277 HD
ATOM     23  H51 UNL     1      14.898   9.609  12.084  1.00  0.00     0.277 HD
HETATM   24  C14 UNL     1      14.363   7.617  10.008  1.00  0.00     0.053 C 
ENDBRANCH  16  17
TORSDOF 1
ENDMDL
