MODEL 6
REMARK VINA RESULT: -7.554472264      2.039      4.665
REMARK  1 active torsions:
REMARK  status: ('A' for Active; 'I' for Inactive)
REMARK    1  A    between atoms: N4_16  and  C10_17 
ROOT
HETATM    1  C1  UNL     1      14.555   9.992  10.952  1.00  0.00     0.089 C 
HETATM    2  C2  UNL     1      15.261   8.792  11.479  1.00  0.00     0.080 A 
HETATM    3  N1  UNL     1      16.567   8.816  11.845  1.00  0.00    -0.343 N 
ATOM      4  H1  UNL     1      17.175   9.633  11.802  1.00  0.00     0.167 HD
HETATM    5  C3  UNL     1      16.929   7.615  12.266  1.00  0.00     0.077 A 
HETATM    6  C4  UNL     1      18.145   7.116  12.744  1.00  0.00     0.121 A 
HETATM    7  N2  UNL     1      18.259   5.837  13.113  1.00  0.00    -0.349 N 
ATOM      8  H2  UNL     1      19.149   5.483  13.461  1.00  0.00     0.167 HD
HETATM    9  C5  UNL     1      17.187   5.012  13.025  1.00  0.00     0.117 A 
HETATM   10  N3  UNL     1      17.043   3.716  13.319  1.00  0.00    -0.352 N 
ATOM     11  H3  UNL     1      17.776   3.108  13.687  1.00  0.00     0.166 HD
HETATM   12  C6  UNL     1      15.783   3.341  13.054  1.00  0.00     0.090 A 
HETATM   13  C7  UNL     1      15.105   4.455  12.571  1.00  0.00     0.034 A 
HETATM   14  C8  UNL     1      15.972   5.497  12.551  1.00  0.00     0.038 A 
HETATM   15  C9  UNL     1      15.817   6.809  12.162  1.00  0.00     0.078 A 
HETATM   16  N4  UNL     1      14.783   7.551  11.673  1.00  0.00    -0.329 N 
ENDROOT
BRANCH  16  17
HETATM   17  C10 UNL     1      13.476   7.043  11.449  1.00  0.00     0.095 C 
HETATM   18  C11 UNL     1      13.097   6.977   9.992  1.00  0.00     0.053 C 
HETATM   19  C12 UNL     1      11.699   6.420   9.913  1.00  0.00     0.234 C 
HETATM   20  N5  UNL     1      11.251   5.828  11.151  1.00  0.00    -0.075 N 
HETATM   21  C13 UNL     1      11.204   6.764  12.257  1.00  0.00     0.234 C 
ATOM     22  H52 UNL     1      10.347   5.372  11.026  1.00  0.00     0.277 HD
ATOM     23  H51 UNL     1      11.819   5.016  11.391  1.00  0.00     0.277 HD
HETATM   24  C14 UNL     1      12.345   7.803  12.111  1.00  0.00     0.053 C 
ENDBRANCH  16  17
TORSDOF 1
ENDMDL
