MODEL 3
REMARK VINA RESULT: -7.756553306      1.368      3.588
REMARK  1 active torsions:
REMARK  status: ('A' for Active; 'I' for Inactive)
REMARK    1  A    between atoms: N4_16  and  C10_17 
ROOT
HETATM    1  C1  UNL     1      15.898   4.974  12.124  1.00  0.00     0.089 C 
HETATM    2  C2  UNL     1      16.029   6.457  12.130  1.00  0.00     0.080 A 
HETATM    3  N1  UNL     1      17.148   7.088  12.563  1.00  0.00    -0.343 N 
ATOM      4  H1  UNL     1      17.988   6.626  12.911  1.00  0.00     0.167 HD
HETATM    5  C3  UNL     1      16.982   8.397  12.463  1.00  0.00     0.077 A 
HETATM    6  C4  UNL     1      17.819   9.475  12.772  1.00  0.00     0.121 A 
HETATM    7  N2  UNL     1      17.411  10.732  12.578  1.00  0.00    -0.349 N 
ATOM      8  H2  UNL     1      18.028  11.511  12.805  1.00  0.00     0.167 HD
HETATM    9  C5  UNL     1      16.173  10.969  12.078  1.00  0.00     0.117 A 
HETATM   10  N3  UNL     1      15.536  12.112  11.801  1.00  0.00    -0.352 N 
ATOM     11  H3  UNL     1      15.918  13.049  11.933  1.00  0.00     0.166 HD
HETATM   12  C6  UNL     1      14.315  11.831  11.324  1.00  0.00     0.090 A 
HETATM   13  C7  UNL     1      14.180  10.447  11.300  1.00  0.00     0.034 A 
HETATM   14  C8  UNL     1      15.332   9.905  11.767  1.00  0.00     0.038 A 
HETATM   15  C9  UNL     1      15.720   8.597  11.952  1.00  0.00     0.078 A 
HETATM   16  N4  UNL     1      15.133   7.383  11.746  1.00  0.00    -0.329 N 
ENDROOT
BRANCH  16  17
HETATM   17  C10 UNL     1      13.829   7.209  11.213  1.00  0.00     0.095 C 
HETATM   18  C11 UNL     1      12.794   6.869  12.255  1.00  0.00     0.053 C 
HETATM   19  C12 UNL     1      11.472   6.722  11.546  1.00  0.00     0.234 C 
HETATM   20  N5  UNL     1      11.487   7.236  10.197  1.00  0.00    -0.075 N 
HETATM   21  C13 UNL     1      12.437   6.565   9.332  1.00  0.00     0.234 C 
ATOM     22  H52 UNL     1      10.552   7.213   9.792  1.00  0.00     0.277 HD
ATOM     23  H51 UNL     1      11.648   8.243  10.196  1.00  0.00     0.277 HD
HETATM   24  C14 UNL     1      13.681   6.138  10.153  1.00  0.00     0.053 C 
ENDBRANCH  16  17
TORSDOF 1
ENDMDL
