MODEL 2
REMARK VINA RESULT: -8.039083622      1.525      3.476
REMARK  1 active torsions:
REMARK  status: ('A' for Active; 'I' for Inactive)
REMARK    1  A    between atoms: N4_16  and  C10_17 
ROOT
HETATM    1  C1  UNL     1      16.706   6.052  12.072  1.00  0.00     0.089 C 
HETATM    2  C2  UNL     1      16.295   7.480  11.992  1.00  0.00     0.080 A 
HETATM    3  N1  UNL     1      17.119   8.497  12.345  1.00  0.00    -0.343 N 
ATOM      4  H1  UNL     1      18.075   8.391  12.684  1.00  0.00     0.167 HD
HETATM    5  C3  UNL     1      16.491   9.651  12.181  1.00  0.00     0.077 A 
HETATM    6  C4  UNL     1      16.890  10.974  12.397  1.00  0.00     0.121 A 
HETATM    7  N2  UNL     1      16.053  11.986  12.151  1.00  0.00    -0.349 N 
ATOM      8  H2  UNL     1      16.352  12.948  12.311  1.00  0.00     0.167 HD
HETATM    9  C5  UNL     1      14.804  11.731  11.688  1.00  0.00     0.117 A 
HETATM   10  N3  UNL     1      13.794  12.549  11.375  1.00  0.00    -0.352 N 
ATOM     11  H3  UNL     1      13.815  13.567  11.440  1.00  0.00     0.166 HD
HETATM   12  C6  UNL     1      12.748  11.819  10.962  1.00  0.00     0.090 A 
HETATM   13  C7  UNL     1      13.120  10.480  11.020  1.00  0.00     0.034 A 
HETATM   14  C8  UNL     1      14.397  10.419  11.469  1.00  0.00     0.038 A 
HETATM   15  C9  UNL     1      15.233   9.351  11.710  1.00  0.00     0.078 A 
HETATM   16  N4  UNL     1      15.119   7.997  11.594  1.00  0.00    -0.329 N 
ENDROOT
BRANCH  16  17
HETATM   17  C10 UNL     1      13.956   7.334  11.124  1.00  0.00     0.095 C 
HETATM   18  C11 UNL     1      13.241   6.543  12.190  1.00  0.00     0.053 C 
HETATM   19  C12 UNL     1      12.036   5.906  11.548  1.00  0.00     0.234 C 
HETATM   20  N5  UNL     1      11.725   6.453  10.249  1.00  0.00    -0.075 N 
HETATM   21  C13 UNL     1      12.786   6.278   9.277  1.00  0.00     0.234 C 
ATOM     22  H52 UNL     1      10.847   6.071   9.897  1.00  0.00     0.277 HD
ATOM     23  H51 UNL     1      11.464   7.436  10.324  1.00  0.00     0.277 HD
HETATM   24  C14 UNL     1      14.162   6.355   9.987  1.00  0.00     0.053 C 
ENDBRANCH  16  17
TORSDOF 1
ENDMDL
