MODEL 1
REMARK VINA RESULT: -7.787599112      0.000      0.000
REMARK  4 active torsions:
REMARK  status: ('A' for Active; 'I' for Inactive)
REMARK    1  A    between atoms: C1_2  and  C2_4 
REMARK    2  A    between atoms: C6_8  and  N2_9 
REMARK       I    between atoms: N2_9  and  C7_11 
REMARK    3  A    between atoms: C7_11  and  C8_13 
REMARK    4  A    between atoms: C9_14  and  C10_15 
ROOT
HETATM    1  C2  UNL     1       2.508  10.661   2.805  1.00  0.00     0.031 A 
HETATM    2  C3  UNL     1       1.913   9.755   3.633  1.00  0.00     0.017 A 
HETATM    3  C4  UNL     1       1.278   8.676   3.131  1.00  0.00     0.003 A 
HETATM    4  C5  UNL     1       1.212   8.460   1.778  1.00  0.00     0.029 A 
HETATM    5  C6  UNL     1       1.781   9.320   0.900  1.00  0.00     0.035 A 
HETATM    6  C11 UNL     1       2.436  10.435   1.446  1.00  0.00     0.046 A 
ENDROOT
BRANCH   5   7
HETATM    7  N2  UNL     1       1.792   9.224  -0.512  1.00  0.00    -0.324 N 
HETATM    8  C7  UNL     1       2.888   8.898  -1.339  1.00  0.00     0.245 C 
HETATM    9  O2  UNL     1       3.992   8.663  -0.795  1.00  0.00    -0.268 OA
ATOM     10  H2  UNL     1       0.908   9.410  -0.985  1.00  0.00     0.169 HD
BRANCH   8  11
HETATM   11  C8  UNL     1       2.743   8.835  -2.805  1.00  0.00     0.081 C 
HETATM   12  C9  UNL     1       3.504   9.560  -3.601  1.00  0.00     0.090 C 
BRANCH  12  13
HETATM   13  C10 UNL     1       3.368   9.505  -5.038  1.00  0.00     0.198 C 
HETATM   14  O3  UNL     1       3.474   8.417  -5.637  1.00  0.00    -0.645 OA
HETATM   15  O4  UNL     1       3.120  10.656  -5.745  1.00  0.00    -0.645 OA
ENDBRANCH  12  13
ENDBRANCH   8  11
ENDBRANCH   5   7
BRANCH   1  16
HETATM   16  C1  UNL     1       3.177  11.802   3.377  1.00  0.00     0.265 C 
HETATM   17  N1  UNL     1       3.917  12.662   2.541  1.00  0.00    -0.057 NA
HETATM   18  O1  UNL     1       3.109  12.033   4.596  1.00  0.00    -0.271 OA
ENDBRANCH   1  16
TORSDOF 4
ENDMDL
