MODEL 10
REMARK VINA RESULT: -7.156809600      2.479      6.897
REMARK  4 active torsions:
REMARK  status: ('A' for Active; 'I' for Inactive)
REMARK    1  A    between atoms: C1_2  and  C2_4 
REMARK    2  A    between atoms: C6_8  and  N2_9 
REMARK       I    between atoms: N2_9  and  C7_11 
REMARK    3  A    between atoms: C7_11  and  C8_13 
REMARK    4  A    between atoms: C9_14  and  C10_15 
ROOT
HETATM    1  C2  UNL     1       1.758   9.026   0.783  1.00  0.00     0.031 A 
HETATM    2  C3  UNL     1       0.997   8.180   1.535  1.00  0.00     0.017 A 
HETATM    3  C4  UNL     1       0.851   8.381   2.861  1.00  0.00     0.003 A 
HETATM    4  C5  UNL     1       1.461   9.437   3.489  1.00  0.00     0.029 A 
HETATM    5  C6  UNL     1       2.231  10.313   2.801  1.00  0.00     0.035 A 
HETATM    6  C11 UNL     1       2.368  10.084   1.424  1.00  0.00     0.046 A 
ENDROOT
BRANCH   5   7
HETATM    7  N2  UNL     1       2.916  11.441   3.315  1.00  0.00    -0.324 N 
HETATM    8  C7  UNL     1       3.963  12.159   2.700  1.00  0.00     0.245 C 
HETATM    9  O2  UNL     1       4.358  11.783   1.573  1.00  0.00    -0.268 OA
ATOM     10  H2  UNL     1       2.618  11.771   4.233  1.00  0.00     0.169 HD
BRANCH   8  11
HETATM   11  C8  UNL     1       4.581  13.322   3.364  1.00  0.00     0.081 C 
HETATM   12  C9  UNL     1       4.973  13.265   4.622  1.00  0.00     0.090 C 
BRANCH  12  13
HETATM   13  C10 UNL     1       5.578  14.400   5.280  1.00  0.00     0.198 C 
HETATM   14  O3  UNL     1       6.470  14.229   6.133  1.00  0.00    -0.645 OA
HETATM   15  O4  UNL     1       5.169  15.672   4.961  1.00  0.00    -0.645 OA
ENDBRANCH  12  13
ENDBRANCH   8  11
ENDBRANCH   5   7
BRANCH   1  16
HETATM   16  C1  UNL     1       1.893   8.780  -0.630  1.00  0.00     0.265 C 
HETATM   17  N1  UNL     1       0.901   8.037  -1.302  1.00  0.00    -0.057 NA
HETATM   18  O1  UNL     1       2.871   9.214  -1.260  1.00  0.00    -0.271 OA
ENDBRANCH   1  16
TORSDOF 4
ENDMDL
