MODEL 9
REMARK VINA RESULT: -7.227389206      2.941      7.794
REMARK  4 active torsions:
REMARK  status: ('A' for Active; 'I' for Inactive)
REMARK    1  A    between atoms: C1_2  and  C2_4 
REMARK    2  A    between atoms: C6_8  and  N2_9 
REMARK       I    between atoms: N2_9  and  C7_11 
REMARK    3  A    between atoms: C7_11  and  C8_13 
REMARK    4  A    between atoms: C9_14  and  C10_15 
ROOT
HETATM    1  C2  UNL     1       3.823  10.136  -6.244  1.00  0.00     0.031 A 
HETATM    2  C3  UNL     1       4.871  10.975  -6.004  1.00  0.00     0.017 A 
HETATM    3  C4  UNL     1       5.270  11.234  -4.742  1.00  0.00     0.003 A 
HETATM    4  C5  UNL     1       4.636  10.664  -3.667  1.00  0.00     0.029 A 
HETATM    5  C6  UNL     1       3.588   9.823  -3.835  1.00  0.00     0.035 A 
HETATM    6  C11 UNL     1       3.191   9.568  -5.157  1.00  0.00     0.046 A 
ENDROOT
BRANCH   5   7
HETATM    7  N2  UNL     1       2.844   9.166  -2.825  1.00  0.00    -0.324 N 
HETATM    8  C7  UNL     1       3.117   9.141  -1.441  1.00  0.00     0.245 C 
HETATM    9  O2  UNL     1       4.123   9.759  -1.024  1.00  0.00    -0.268 OA
ATOM     10  H2  UNL     1       2.018   8.652  -3.134  1.00  0.00     0.169 HD
BRANCH   8  11
HETATM   11  C8  UNL     1       2.242   8.409  -0.507  1.00  0.00     0.081 C 
HETATM   12  C9  UNL     1       1.670   9.014   0.515  1.00  0.00     0.090 C 
BRANCH  12  13
HETATM   13  C10 UNL     1       0.813   8.304   1.435  1.00  0.00     0.198 C 
HETATM   14  O3  UNL     1       0.114   7.353   1.036  1.00  0.00    -0.645 OA
HETATM   15  O4  UNL     1       0.771   8.679   2.756  1.00  0.00    -0.645 OA
ENDBRANCH  12  13
ENDBRANCH   8  11
ENDBRANCH   5   7
BRANCH   1  16
HETATM   16  C1  UNL     1       3.423   9.883  -7.605  1.00  0.00     0.265 C 
HETATM   17  N1  UNL     1       4.148   8.953  -8.378  1.00  0.00    -0.057 NA
HETATM   18  O1  UNL     1       2.451  10.475  -8.102  1.00  0.00    -0.271 OA
ENDBRANCH   1  16
TORSDOF 4
ENDMDL
