MODEL 6
REMARK VINA RESULT: -7.543118247      2.811      6.718
REMARK  4 active torsions:
REMARK  status: ('A' for Active; 'I' for Inactive)
REMARK    1  A    between atoms: C1_2  and  C2_4 
REMARK    2  A    between atoms: C6_8  and  N2_9 
REMARK       I    between atoms: N2_9  and  C7_11 
REMARK    3  A    between atoms: C7_11  and  C8_13 
REMARK    4  A    between atoms: C9_14  and  C10_15 
ROOT
HETATM    1  C2  UNL     1       1.403   9.099   1.150  1.00  0.00     0.031 A 
HETATM    2  C3  UNL     1       0.988   8.237   2.123  1.00  0.00     0.017 A 
HETATM    3  C4  UNL     1       1.228   8.501   3.424  1.00  0.00     0.003 A 
HETATM    4  C5  UNL     1       1.895   9.637   3.806  1.00  0.00     0.029 A 
HETATM    5  C6  UNL     1       2.335  10.534   2.891  1.00  0.00     0.035 A 
HETATM    6  C11 UNL     1       2.074  10.239   1.544  1.00  0.00     0.046 A 
ENDROOT
BRANCH   5   7
HETATM    7  N2  UNL     1       3.031  11.741   3.139  1.00  0.00    -0.324 N 
HETATM    8  C7  UNL     1       4.195  12.207   2.491  1.00  0.00     0.245 C 
HETATM    9  O2  UNL     1       4.697  11.495   1.590  1.00  0.00    -0.268 OA
ATOM     10  H2  UNL     1       2.648  12.343   3.868  1.00  0.00     0.169 HD
BRANCH   8  11
HETATM   11  C8  UNL     1       4.808  13.496   2.861  1.00  0.00     0.081 C 
HETATM   12  C9  UNL     1       4.367  14.195   3.887  1.00  0.00     0.090 C 
BRANCH  12  13
HETATM   13  C10 UNL     1       4.962  15.459   4.256  1.00  0.00     0.198 C 
HETATM   14  O3  UNL     1       5.071  16.371   3.414  1.00  0.00    -0.645 OA
HETATM   15  O4  UNL     1       5.408  15.654   5.540  1.00  0.00    -0.645 OA
ENDBRANCH  12  13
ENDBRANCH   8  11
ENDBRANCH   5   7
BRANCH   1  16
HETATM   16  C1  UNL     1       1.130   8.785  -0.229  1.00  0.00     0.265 C 
HETATM   17  N1  UNL     1      -0.180   8.432  -0.612  1.00  0.00    -0.057 NA
HETATM   18  O1  UNL     1       2.034   8.821  -1.080  1.00  0.00    -0.271 OA
ENDBRANCH   1  16
TORSDOF 4
ENDMDL
