MODEL 3
REMARK VINA RESULT: -7.682331942      1.089      1.600
REMARK  4 active torsions:
REMARK  status: ('A' for Active; 'I' for Inactive)
REMARK    1  A    between atoms: C1_2  and  C2_4 
REMARK    2  A    between atoms: C6_8  and  N2_9 
REMARK       I    between atoms: N2_9  and  C7_11 
REMARK    3  A    between atoms: C7_11  and  C8_13 
REMARK    4  A    between atoms: C9_14  and  C10_15 
ROOT
HETATM    1  C2  UNL     1       1.827   9.668   1.848  1.00  0.00     0.031 A 
HETATM    2  C3  UNL     1       0.925   8.756   2.313  1.00  0.00     0.017 A 
HETATM    3  C4  UNL     1       0.352   7.866   1.477  1.00  0.00     0.003 A 
HETATM    4  C5  UNL     1       0.658   7.852   0.139  1.00  0.00     0.029 A 
HETATM    5  C6  UNL     1       1.545   8.730  -0.387  1.00  0.00     0.035 A 
HETATM    6  C11 UNL     1       2.128   9.646   0.502  1.00  0.00     0.046 A 
ENDROOT
BRANCH   5   7
HETATM    7  N2  UNL     1       1.954   8.830  -1.739  1.00  0.00    -0.324 N 
HETATM    8  C7  UNL     1       3.274   8.890  -2.231  1.00  0.00     0.245 C 
HETATM    9  O2  UNL     1       4.217   8.855  -1.406  1.00  0.00    -0.268 OA
ATOM     10  H2  UNL     1       1.209   8.861  -2.436  1.00  0.00     0.169 HD
BRANCH   8  11
HETATM   11  C8  UNL     1       3.544   8.992  -3.677  1.00  0.00     0.081 C 
HETATM   12  C9  UNL     1       2.929   9.884  -4.428  1.00  0.00     0.090 C 
BRANCH  12  13
HETATM   13  C10 UNL     1       3.187   9.990  -5.845  1.00  0.00     0.198 C 
HETATM   14  O3  UNL     1       3.114  11.095  -6.416  1.00  0.00    -0.645 OA
HETATM   15  O4  UNL     1       3.515   8.867  -6.565  1.00  0.00    -0.645 OA
ENDBRANCH  12  13
ENDBRANCH   8  11
ENDBRANCH   5   7
BRANCH   1  16
HETATM   16  C1  UNL     1       2.419  10.603   2.770  1.00  0.00     0.265 C 
HETATM   17  N1  UNL     1       2.999  11.790   2.276  1.00  0.00    -0.057 NA
HETATM   18  O1  UNL     1       2.424  10.375   3.991  1.00  0.00    -0.271 OA
ENDBRANCH   1  16
TORSDOF 4
ENDMDL
