MODEL 8
REMARK VINA RESULT: -6.168468091      1.364      5.227
REMARK  4 active torsions:
REMARK  status: ('A' for Active; 'I' for Inactive)
REMARK    1  A    between atoms: N1_1  and  C1_5 
REMARK    2  A    between atoms: C1_5  and  C2_6 
REMARK    3  A    between atoms: C1_5  and  C5_15 
REMARK    4  A    between atoms: C2_6  and  N2_7 
ROOT
HETATM    1  C2  UNL     1       0.085  -5.460 -16.428  1.00  0.00     0.205 C 
ENDROOT
BRANCH   1   2
HETATM    2  C1  UNL     1      -1.267  -5.271 -15.794  1.00  0.00     0.303 C 
BRANCH   2   3
HETATM    3  N1  UNL     1      -2.059  -6.438 -16.119  1.00  0.00    -0.064 N 
ATOM      4  H13 UNL     1      -1.504  -7.290 -16.193  1.00  0.00     0.275 HD
ATOM      5  H12 UNL     1      -2.660  -6.740 -15.352  1.00  0.00     0.275 HD
ATOM      6  H11 UNL     1      -2.577  -6.223 -16.971  1.00  0.00     0.275 HD
ENDBRANCH   2   3
BRANCH   2   7
HETATM    7  C5  UNL     1      -1.982  -4.083 -16.227  1.00  0.00     0.206 C 
HETATM    8  O4  UNL     1      -2.302  -3.215 -15.379  1.00  0.00    -0.646 OA
HETATM    9  O5  UNL     1      -2.356  -3.815 -17.540  1.00  0.00    -0.646 OA
ENDBRANCH   2   7
ENDBRANCH   1   2
BRANCH   1  10
HETATM   10  N2  UNL     1       1.136  -4.771 -15.729  1.00  0.00    -0.194 N 
HETATM   11  O1  UNL     1       2.003  -5.218 -14.878  1.00  0.00    -0.174 OA
HETATM   12  C3  UNL     1       2.803  -4.287 -14.456  1.00  0.00     0.391 A 
HETATM   13  O2  UNL     1       3.762  -4.386 -13.622  1.00  0.00    -0.236 OA
HETATM   14  N3  UNL     1       2.444  -3.164 -15.061  1.00  0.00    -0.251 N 
HETATM   15  C4  UNL     1       1.410  -3.448 -15.856  1.00  0.00     0.351 A 
ATOM     16  H3  UNL     1       2.880  -2.249 -14.942  1.00  0.00     0.176 HD
HETATM   17  O3  UNL     1       0.768  -2.668 -16.607  1.00  0.00    -0.244 OA
ENDBRANCH   1  10
TORSDOF 4
ENDMDL
