MODEL 5
REMARK VINA RESULT: -6.817584897      1.539      5.094
REMARK  4 active torsions:
REMARK  status: ('A' for Active; 'I' for Inactive)
REMARK    1  A    between atoms: N1_1  and  C1_5 
REMARK    2  A    between atoms: C1_5  and  C2_6 
REMARK    3  A    between atoms: C1_5  and  C5_15 
REMARK    4  A    between atoms: C2_6  and  N2_7 
ROOT
HETATM    1  C2  UNL     1       0.323  -4.134 -16.622  1.00  0.00     0.205 C 
ENDROOT
BRANCH   1   2
HETATM    2  C1  UNL     1      -1.019  -3.932 -15.973  1.00  0.00     0.303 C 
BRANCH   2   3
HETATM    3  N1  UNL     1      -1.387  -5.188 -15.352  1.00  0.00    -0.064 N 
ATOM      4  H13 UNL     1      -1.348  -5.978 -15.995  1.00  0.00     0.275 HD
ATOM      5  H12 UNL     1      -0.689  -5.525 -14.689  1.00  0.00     0.275 HD
ATOM      6  H11 UNL     1      -2.307  -5.058 -14.932  1.00  0.00     0.275 HD
ENDBRANCH   2   3
BRANCH   2   7
HETATM    7  C5  UNL     1      -2.080  -3.530 -16.881  1.00  0.00     0.206 C 
HETATM    8  O4  UNL     1      -2.711  -2.469 -16.657  1.00  0.00    -0.646 OA
HETATM    9  O5  UNL     1      -2.471  -4.242 -18.011  1.00  0.00    -0.646 OA
ENDBRANCH   2   7
ENDBRANCH   1   2
BRANCH   1  10
HETATM   10  N2  UNL     1       1.406  -4.166 -15.675  1.00  0.00    -0.194 N 
HETATM   11  O1  UNL     1       2.149  -3.206 -15.227  1.00  0.00    -0.174 OA
HETATM   12  C3  UNL     1       3.033  -3.625 -14.374  1.00  0.00     0.391 A 
HETATM   13  O2  UNL     1       3.913  -2.947 -13.748  1.00  0.00    -0.236 OA
HETATM   14  N3  UNL     1       2.865  -4.934 -14.253  1.00  0.00    -0.251 N 
HETATM   15  C4  UNL     1       1.857  -5.286 -15.056  1.00  0.00     0.351 A 
ATOM     16  H3  UNL     1       3.406  -5.559 -13.656  1.00  0.00     0.176 HD
HETATM   17  O3  UNL     1       1.374  -6.434 -15.242  1.00  0.00    -0.244 OA
ENDBRANCH   1  10
TORSDOF 4
ENDMDL
