MODEL 2
REMARK VINA RESULT: -7.265081059      1.215      1.762
REMARK  4 active torsions:
REMARK  status: ('A' for Active; 'I' for Inactive)
REMARK    1  A    between atoms: N1_1  and  C1_5 
REMARK    2  A    between atoms: C1_5  and  C2_6 
REMARK    3  A    between atoms: C1_5  and  C5_15 
REMARK    4  A    between atoms: C2_6  and  N2_7 
ROOT
HETATM    1  C2  UNL     1       2.393  -4.530 -15.918  1.00  0.00     0.205 C 
ENDROOT
BRANCH   1   2
HETATM    2  C1  UNL     1       2.852  -4.053 -14.567  1.00  0.00     0.303 C 
BRANCH   2   3
HETATM    3  N1  UNL     1       2.564  -2.636 -14.493  1.00  0.00    -0.064 N 
ATOM      4  H13 UNL     1       1.569  -2.426 -14.569  1.00  0.00     0.275 HD
ATOM      5  H12 UNL     1       2.709  -2.246 -13.561  1.00  0.00     0.275 HD
ATOM      6  H11 UNL     1       3.126  -2.176 -15.210  1.00  0.00     0.275 HD
ENDBRANCH   2   3
BRANCH   2   7
HETATM    7  C5  UNL     1       4.265  -4.259 -14.296  1.00  0.00     0.206 C 
HETATM    8  O4  UNL     1       4.796  -5.354 -14.604  1.00  0.00    -0.646 OA
HETATM    9  O5  UNL     1       5.106  -3.321 -13.706  1.00  0.00    -0.646 OA
ENDBRANCH   2   7
ENDBRANCH   1   2
BRANCH   1  10
HETATM   10  N2  UNL     1       0.963  -4.658 -16.013  1.00  0.00    -0.194 N 
HETATM   11  O1  UNL     1       0.195  -5.654 -15.708  1.00  0.00    -0.174 OA
HETATM   12  C3  UNL     1      -1.057  -5.396 -15.934  1.00  0.00     0.391 A 
HETATM   13  O2  UNL     1      -2.068  -6.151 -15.746  1.00  0.00    -0.236 OA
HETATM   14  N3  UNL     1      -1.119  -4.163 -16.415  1.00  0.00    -0.251 N 
HETATM   15  C4  UNL     1       0.129  -3.690 -16.470  1.00  0.00     0.351 A 
ATOM     16  H3  UNL     1      -1.965  -3.665 -16.692  1.00  0.00     0.176 HD
HETATM   17  O3  UNL     1       0.517  -2.560 -16.866  1.00  0.00    -0.244 OA
ENDBRANCH   1  10
TORSDOF 4
ENDMDL
