MODEL 9
REMARK VINA RESULT: -6.146126909      1.555      4.997
REMARK  4 active torsions:
REMARK  status: ('A' for Active; 'I' for Inactive)
REMARK    1  A    between atoms: N1_1  and  C1_5 
REMARK    2  A    between atoms: C1_5  and  C2_6 
REMARK    3  A    between atoms: C1_5  and  C5_15 
REMARK    4  A    between atoms: C2_6  and  N2_7 
ROOT
HETATM    1  C2  UNL     1       0.548  -3.363 -16.508  1.00  0.00     0.205 C 
ENDROOT
BRANCH   1   2
HETATM    2  C1  UNL     1      -0.750  -3.687 -15.819  1.00  0.00     0.303 C 
BRANCH   2   3
HETATM    3  N1  UNL     1      -0.636  -5.037 -15.307  1.00  0.00    -0.064 N 
ATOM      4  H13 UNL     1       0.325  -5.304 -15.093  1.00  0.00     0.275 HD
ATOM      5  H12 UNL     1      -1.012  -5.140 -14.364  1.00  0.00     0.275 HD
ATOM      6  H11 UNL     1      -1.081  -5.655 -15.984  1.00  0.00     0.275 HD
ENDBRANCH   2   3
BRANCH   2   7
HETATM    7  C5  UNL     1      -1.927  -3.606 -16.667  1.00  0.00     0.206 C 
HETATM    8  O4  UNL     1      -2.217  -4.576 -17.409  1.00  0.00    -0.646 OA
HETATM    9  O5  UNL     1      -2.785  -2.513 -16.732  1.00  0.00    -0.646 OA
ENDBRANCH   2   7
ENDBRANCH   1   2
BRANCH   1  10
HETATM   10  N2  UNL     1       1.703  -3.724 -15.730  1.00  0.00    -0.194 N 
HETATM   11  O1  UNL     1       2.414  -3.012 -14.915  1.00  0.00    -0.174 OA
HETATM   12  C3  UNL     1       3.390  -3.690 -14.393  1.00  0.00     0.391 A 
HETATM   13  O2  UNL     1       4.270  -3.296 -13.558  1.00  0.00    -0.236 OA
HETATM   14  N3  UNL     1       3.319  -4.917 -14.890  1.00  0.00    -0.251 N 
HETATM   15  C4  UNL     1       2.276  -4.954 -15.723  1.00  0.00     0.351 A 
ATOM     16  H3  UNL     1       3.948  -5.691 -14.675  1.00  0.00     0.176 HD
HETATM   17  O3  UNL     1       1.857  -5.927 -16.404  1.00  0.00    -0.244 OA
ENDBRANCH   1  10
TORSDOF 4
ENDMDL
