MODEL 1
REMARK VINA RESULT: -8.110193143      0.000      0.000
REMARK  4 active torsions:
REMARK  status: ('A' for Active; 'I' for Inactive)
REMARK    1  A    between atoms: N1_1  and  C1_5 
REMARK    2  A    between atoms: C1_5  and  C2_6 
REMARK    3  A    between atoms: C1_5  and  C5_15 
REMARK    4  A    between atoms: C2_6  and  N2_7 
ROOT
HETATM    1  C2  UNL     1       2.449  -4.111 -15.716  1.00  0.00     0.205 C 
ENDROOT
BRANCH   1   2
HETATM    2  C1  UNL     1       3.066  -4.001 -14.348  1.00  0.00     0.303 C 
BRANCH   2   3
HETATM    3  N1  UNL     1       2.851  -2.644 -13.890  1.00  0.00    -0.064 N 
ATOM      4  H13 UNL     1       3.206  -1.942 -14.539  1.00  0.00     0.275 HD
ATOM      5  H12 UNL     1       1.870  -2.363 -13.918  1.00  0.00     0.275 HD
ATOM      6  H11 UNL     1       3.260  -2.572 -12.959  1.00  0.00     0.275 HD
ENDBRANCH   2   3
BRANCH   2   7
HETATM    7  C5  UNL     1       4.488  -4.293 -14.295  1.00  0.00     0.206 C 
HETATM    8  O4  UNL     1       4.895  -5.427 -14.646  1.00  0.00    -0.646 OA
HETATM    9  O5  UNL     1       5.468  -3.399 -13.876  1.00  0.00    -0.646 OA
ENDBRANCH   2   7
ENDBRANCH   1   2
BRANCH   1  10
HETATM   10  N2  UNL     1       1.022  -4.286 -15.677  1.00  0.00    -0.194 N 
HETATM   11  O1  UNL     1       0.073  -3.406 -15.692  1.00  0.00    -0.174 OA
HETATM   12  C3  UNL     1      -1.104  -3.950 -15.643  1.00  0.00     0.391 A 
HETATM   13  O2  UNL     1      -2.242  -3.375 -15.641  1.00  0.00    -0.236 OA
HETATM   14  N3  UNL     1      -0.923  -5.262 -15.593  1.00  0.00    -0.251 N 
HETATM   15  C4  UNL     1       0.393  -5.487 -15.614  1.00  0.00     0.351 A 
ATOM     16  H3  UNL     1      -1.656  -5.970 -15.548  1.00  0.00     0.176 HD
HETATM   17  O3  UNL     1       0.994  -6.593 -15.582  1.00  0.00    -0.244 OA
ENDBRANCH   1  10
TORSDOF 4
ENDMDL
