MODEL 13
REMARK VINA RESULT: -5.745385409      1.140      1.240
REMARK  4 active torsions:
REMARK  status: ('A' for Active; 'I' for Inactive)
REMARK    1  A    between atoms: N1_1  and  C1_5 
REMARK    2  A    between atoms: C1_5  and  C2_6 
REMARK    3  A    between atoms: C1_5  and  C5_15 
REMARK    4  A    between atoms: C2_6  and  N2_7 
ROOT
HETATM    1  C2  UNL     1       1.858  -3.239 -15.747  1.00  0.00     0.205 C 
ENDROOT
BRANCH   1   2
HETATM    2  C1  UNL     1       2.546  -4.000 -14.646  1.00  0.00     0.303 C 
BRANCH   2   3
HETATM    3  N1  UNL     1       2.998  -3.028 -13.672  1.00  0.00    -0.064 N 
ATOM      4  H13 UNL     1       2.266  -2.379 -13.386  1.00  0.00     0.275 HD
ATOM      5  H12 UNL     1       3.177  -3.436 -12.754  1.00  0.00     0.275 HD
ATOM      6  H11 UNL     1       3.814  -2.562 -14.068  1.00  0.00     0.275 HD
ENDBRANCH   2   3
BRANCH   2   7
HETATM    7  C5  UNL     1       3.683  -4.797 -15.075  1.00  0.00     0.206 C 
HETATM    8  O4  UNL     1       3.678  -5.306 -16.222  1.00  0.00    -0.646 OA
HETATM    9  O5  UNL     1       4.810  -5.055 -14.301  1.00  0.00    -0.646 OA
ENDBRANCH   2   7
ENDBRANCH   1   2
BRANCH   1  10
HETATM   10  N2  UNL     1       0.551  -3.754 -16.055  1.00  0.00    -0.194 N 
HETATM   11  O1  UNL     1      -0.387  -3.255 -16.794  1.00  0.00    -0.174 OA
HETATM   12  C3  UNL     1      -1.438  -4.016 -16.835  1.00  0.00     0.391 A 
HETATM   13  O2  UNL     1      -2.530  -3.825 -17.464  1.00  0.00    -0.236 OA
HETATM   14  N3  UNL     1      -1.179  -5.076 -16.082  1.00  0.00    -0.251 N 
HETATM   15  C4  UNL     1       0.054  -4.927 -15.590  1.00  0.00     0.351 A 
ATOM     16  H3  UNL     1      -1.806  -5.861 -15.909  1.00  0.00     0.176 HD
HETATM   17  O3  UNL     1       0.687  -5.705 -14.828  1.00  0.00    -0.244 OA
ENDBRANCH   1  10
TORSDOF 4
ENDMDL
