MODEL 6
REMARK VINA RESULT: -6.434144076      1.276      1.365
REMARK  4 active torsions:
REMARK  status: ('A' for Active; 'I' for Inactive)
REMARK    1  A    between atoms: N1_1  and  C1_5 
REMARK    2  A    between atoms: C1_5  and  C2_6 
REMARK    3  A    between atoms: C1_5  and  C5_15 
REMARK    4  A    between atoms: C2_6  and  N2_7 
ROOT
HETATM    1  C2  UNL     1       1.859  -4.485 -16.249  1.00  0.00     0.205 C 
ENDROOT
BRANCH   1   2
HETATM    2  C1  UNL     1       2.565  -5.229 -15.149  1.00  0.00     0.303 C 
BRANCH   2   3
HETATM    3  N1  UNL     1       1.557  -5.636 -14.192  1.00  0.00    -0.064 N 
ATOM      4  H13 UNL     1       1.044  -4.849 -13.793  1.00  0.00     0.275 HD
ATOM      5  H12 UNL     1       0.761  -6.105 -14.624  1.00  0.00     0.275 HD
ATOM      6  H11 UNL     1       2.023  -6.207 -13.487  1.00  0.00     0.275 HD
ENDBRANCH   2   3
BRANCH   2   7
HETATM    7  C5  UNL     1       3.588  -4.465 -14.456  1.00  0.00     0.206 C 
HETATM    8  O4  UNL     1       4.737  -4.954 -14.325  1.00  0.00    -0.646 OA
HETATM    9  O5  UNL     1       3.401  -3.201 -13.907  1.00  0.00    -0.646 OA
ENDBRANCH   2   7
ENDBRANCH   1   2
BRANCH   1  10
HETATM   10  N2  UNL     1       0.435  -4.411 -16.054  1.00  0.00    -0.194 N 
HETATM   11  O1  UNL     1      -0.311  -3.401 -15.741  1.00  0.00    -0.174 OA
HETATM   12  C3  UNL     1      -1.565  -3.725 -15.653  1.00  0.00     0.391 A 
HETATM   13  O2  UNL     1      -2.557  -2.977 -15.367  1.00  0.00    -0.236 OA
HETATM   14  N3  UNL     1      -1.651  -5.020 -15.924  1.00  0.00    -0.251 N 
HETATM   15  C4  UNL     1      -0.416  -5.461 -16.175  1.00  0.00     0.351 A 
ATOM     16  H3  UNL     1      -2.505  -5.577 -15.937  1.00  0.00     0.176 HD
HETATM   17  O3  UNL     1      -0.052  -6.629 -16.474  1.00  0.00    -0.244 OA
ENDBRANCH   1  10
TORSDOF 4
ENDMDL
