MODEL 1
REMARK VINA RESULT: -8.442328101      0.000      0.000
REMARK  5 active torsions:
REMARK  status: ('A' for Active; 'I' for Inactive)
REMARK    1  A    between atoms: S1_2  and  C2_3 
REMARK    2  A    between atoms: C2_3  and  C3_4 
REMARK    3  A    between atoms: N1_6  and  C5_7 
REMARK    4  A    between atoms: C5_7  and  C6_8 
REMARK    5  A    between atoms: C13_22  and  O1_23 
ROOT
HETATM    1  C6  UNL     1       4.191 -19.187 -13.193  1.00  0.00     0.014 A 
HETATM    2  C7  UNL     1       4.852 -19.712 -14.277  1.00  0.00     0.099 A 
HETATM    3  N2  UNL     1       4.790 -21.067 -14.263  1.00  0.00    -0.361 N 
ATOM      4  H2  UNL     1       5.200 -21.694 -14.956  1.00  0.00     0.165 HD
HETATM    5  C8  UNL     1       4.089 -21.442 -13.167  1.00  0.00     0.101 A 
HETATM    6  C9  UNL     1       3.721 -22.680 -12.657  1.00  0.00     0.146 A 
HETATM    7  N3  UNL     1       4.124 -23.835 -13.373  1.00  0.00    -0.080 NA
HETATM    8  N4  UNL     1       3.007 -22.741 -11.520  1.00  0.00    -0.339 N 
ATOM      9  H4  UNL     1       2.740 -23.654 -11.149  1.00  0.00     0.167 HD
HETATM   10  C10 UNL     1       2.635 -21.633 -10.859  1.00  0.00     0.182 A 
HETATM   11  N5  UNL     1       2.994 -20.434 -11.359  1.00  0.00    -0.350 N 
ATOM     12  H5  UNL     1       2.713 -19.592 -10.858  1.00  0.00     0.166 HD
HETATM   13  C11 UNL     1       3.711 -20.302 -12.494  1.00  0.00     0.072 A 
ENDROOT
BRANCH   1  14
HETATM   14  C5  UNL     1       3.978 -17.789 -12.767  1.00  0.00     0.315 C 
BRANCH  14  15
HETATM   15  N1  UNL     1       5.038 -17.359 -11.934  1.00  0.00     0.095 N 
HETATM   16  C4  UNL     1       6.258 -18.102 -12.076  1.00  0.00     0.280 C 
HETATM   17  C3  UNL     1       7.024 -17.851 -10.789  1.00  0.00     0.054 C 
HETATM   18  C13 UNL     1       6.058 -17.077  -9.925  1.00  0.00     0.152 C 
HETATM   19  C12 UNL     1       4.741 -17.562 -10.505  1.00  0.00     0.304 C 
BRANCH  17  20
HETATM   20  C2  UNL     1       7.410 -19.150 -10.120  1.00  0.00     0.082 C 
BRANCH  20  21
HETATM   21  S1  UNL     1       8.928 -19.068  -9.186  1.00  0.00    -0.173 SA
HETATM   22  C1  UNL     1      10.380 -18.649 -10.141  1.00  0.00     0.089 C 
ENDBRANCH  20  21
ENDBRANCH  17  20
BRANCH  18  23
HETATM   23  O1  UNL     1       6.270 -15.735 -10.150  1.00  0.00    -0.393 OA
ATOM     24  H1  UNL     1       5.679 -15.247  -9.589  1.00  0.00     0.210 HD
ENDBRANCH  18  23
ENDBRANCH  14  15
ENDBRANCH   1  14
TORSDOF 5
ENDMDL
