MODEL 7
REMARK VINA RESULT: -5.647472448      3.262      5.814
REMARK  5 active torsions:
REMARK  status: ('A' for Active; 'I' for Inactive)
REMARK    1  A    between atoms: S1_2  and  C2_3 
REMARK    2  A    between atoms: C2_3  and  C3_4 
REMARK    3  A    between atoms: N1_6  and  C5_7 
REMARK    4  A    between atoms: C5_7  and  C6_8 
REMARK    5  A    between atoms: C13_22  and  O1_23 
ROOT
HETATM    1  C6  UNL     1       6.381 -17.490 -11.081  1.00  0.00     0.014 A 
HETATM    2  C7  UNL     1       5.681 -17.126  -9.957  1.00  0.00     0.099 A 
HETATM    3  N2  UNL     1       6.277 -17.619  -8.843  1.00  0.00    -0.361 N 
ATOM      4  H2  UNL     1       5.955 -17.489  -7.883  1.00  0.00     0.165 HD
HETATM    5  C8  UNL     1       7.374 -18.312  -9.228  1.00  0.00     0.101 A 
HETATM    6  C9  UNL     1       8.343 -19.016  -8.526  1.00  0.00     0.146 A 
HETATM    7  N3  UNL     1       8.229 -19.064  -7.114  1.00  0.00    -0.080 NA
HETATM    8  N4  UNL     1       9.340 -19.619  -9.197  1.00  0.00    -0.339 N 
ATOM      9  H4  UNL     1      10.048 -20.136  -8.676  1.00  0.00     0.167 HD
HETATM   10  C10 UNL     1       9.427 -19.559 -10.536  1.00  0.00     0.182 A 
HETATM   11  N5  UNL     1       8.484 -18.874 -11.212  1.00  0.00    -0.350 N 
ATOM     12  H5  UNL     1       8.548 -18.827 -12.228  1.00  0.00     0.166 HD
HETATM   13  C11 UNL     1       7.458 -18.247 -10.600  1.00  0.00     0.072 A 
ENDROOT
BRANCH   1  14
HETATM   14  C5  UNL     1       6.143 -17.206 -12.511  1.00  0.00     0.315 C 
BRANCH  14  15
HETATM   15  N1  UNL     1       5.348 -18.224 -13.091  1.00  0.00     0.095 N 
HETATM   16  C4  UNL     1       4.129 -18.512 -12.391  1.00  0.00     0.280 C 
HETATM   17  C3  UNL     1       3.740 -19.910 -12.839  1.00  0.00     0.054 C 
HETATM   18  C13 UNL     1       4.908 -20.373 -13.675  1.00  0.00     0.152 C 
HETATM   19  C12 UNL     1       6.017 -19.537 -13.061  1.00  0.00     0.304 C 
BRANCH  17  20
HETATM   20  C2  UNL     1       3.536 -20.827 -11.656  1.00  0.00     0.082 C 
BRANCH  20  21
HETATM   21  S1  UNL     1       2.738 -22.371 -12.057  1.00  0.00    -0.173 SA
HETATM   22  C1  UNL     1       3.754 -23.536 -12.953  1.00  0.00     0.089 C 
ENDBRANCH  20  21
ENDBRANCH  17  20
BRANCH  18  23
HETATM   23  O1  UNL     1       4.654 -20.032 -14.985  1.00  0.00    -0.393 OA
ATOM     24  H1  UNL     1       5.402 -20.297 -15.507  1.00  0.00     0.210 HD
ENDBRANCH  18  23
ENDBRANCH  14  15
ENDBRANCH   1  14
TORSDOF 5
ENDMDL
