MODEL 3
REMARK VINA RESULT: -6.413787747      3.108      5.497
REMARK  5 active torsions:
REMARK  status: ('A' for Active; 'I' for Inactive)
REMARK    1  A    between atoms: S1_2  and  C2_3 
REMARK    2  A    between atoms: C2_3  and  C3_4 
REMARK    3  A    between atoms: N1_6  and  C5_7 
REMARK    4  A    between atoms: C5_7  and  C6_8 
REMARK    5  A    between atoms: C13_22  and  O1_23 
ROOT
HETATM    1  C6  UNL     1       7.558 -18.336 -10.113  1.00  0.00     0.014 A 
HETATM    2  C7  UNL     1       7.278 -17.083  -9.626  1.00  0.00     0.099 A 
HETATM    3  N2  UNL     1       6.276 -16.508 -10.337  1.00  0.00    -0.361 N 
ATOM      4  H2  UNL     1       5.881 -15.581 -10.176  1.00  0.00     0.165 HD
HETATM    5  C8  UNL     1       5.891 -17.381 -11.298  1.00  0.00     0.101 A 
HETATM    6  C9  UNL     1       4.928 -17.325 -12.295  1.00  0.00     0.146 A 
HETATM    7  N3  UNL     1       4.145 -16.148 -12.392  1.00  0.00    -0.080 NA
HETATM    8  N4  UNL     1       4.771 -18.373 -13.123  1.00  0.00    -0.339 N 
ATOM      9  H4  UNL     1       4.062 -18.327 -13.855  1.00  0.00     0.167 HD
HETATM   10  C10 UNL     1       5.524 -19.480 -13.012  1.00  0.00     0.182 A 
HETATM   11  N5  UNL     1       6.458 -19.527 -12.042  1.00  0.00    -0.350 N 
ATOM     12  H5  UNL     1       7.030 -20.367 -11.956  1.00  0.00     0.166 HD
HETATM   13  C11 UNL     1       6.666 -18.512 -11.179  1.00  0.00     0.072 A 
ENDROOT
BRANCH   1  14
HETATM   14  C5  UNL     1       8.548 -19.346  -9.687  1.00  0.00     0.315 C 
BRANCH  14  15
HETATM   15  N1  UNL     1       9.822 -18.751  -9.526  1.00  0.00     0.095 N 
HETATM   16  C4  UNL     1      10.607 -18.668 -10.725  1.00  0.00     0.280 C 
HETATM   17  C3  UNL     1      12.041 -18.520 -10.247  1.00  0.00     0.054 C 
HETATM   18  C13 UNL     1      11.956 -18.695  -8.750  1.00  0.00     0.152 C 
HETATM   19  C12 UNL     1      10.705 -19.551  -8.658  1.00  0.00     0.304 C 
BRANCH  17  20
HETATM   20  C2  UNL     1      12.932 -19.577 -10.856  1.00  0.00     0.082 C 
BRANCH  20  21
HETATM   21  S1  UNL     1      14.552 -19.682 -10.116  1.00  0.00    -0.173 SA
HETATM   22  C1  UNL     1      15.816 -20.389 -11.165  1.00  0.00     0.089 C 
ENDBRANCH  20  21
ENDBRANCH  17  20
BRANCH  18  23
HETATM   23  O1  UNL     1      11.785 -17.451  -8.187  1.00  0.00    -0.393 OA
ATOM     24  H1  UNL     1      12.074 -17.496  -7.283  1.00  0.00     0.210 HD
ENDBRANCH  18  23
ENDBRANCH  14  15
ENDBRANCH   1  14
TORSDOF 5
ENDMDL
