MODEL 6
REMARK VINA RESULT: -5.696919661      3.524      5.602
REMARK  5 active torsions:
REMARK  status: ('A' for Active; 'I' for Inactive)
REMARK    1  A    between atoms: S1_2  and  C2_3 
REMARK    2  A    between atoms: C2_3  and  C3_4 
REMARK    3  A    between atoms: N1_6  and  C5_7 
REMARK    4  A    between atoms: C5_7  and  C6_8 
REMARK    5  A    between atoms: C13_22  and  O1_23 
ROOT
HETATM    1  C6  UNL     1       7.280 -18.706  -9.985  1.00  0.00     0.014 A 
HETATM    2  C7  UNL     1       6.830 -19.641 -10.885  1.00  0.00     0.099 A 
HETATM    3  N2  UNL     1       5.995 -19.070 -11.789  1.00  0.00    -0.361 N 
ATOM      4  H2  UNL     1       5.528 -19.548 -12.560  1.00  0.00     0.165 HD
HETATM    5  C8  UNL     1       5.891 -17.754 -11.488  1.00  0.00     0.101 A 
HETATM    6  C9  UNL     1       5.186 -16.705 -12.063  1.00  0.00     0.146 A 
HETATM    7  N3  UNL     1       4.391 -16.991 -13.201  1.00  0.00    -0.080 NA
HETATM    8  N4  UNL     1       5.279 -15.474 -11.531  1.00  0.00    -0.339 N 
ATOM      9  H4  UNL     1       4.758 -14.708 -11.956  1.00  0.00     0.167 HD
HETATM   10  C10 UNL     1       6.040 -15.228 -10.452  1.00  0.00     0.182 A 
HETATM   11  N5  UNL     1       6.722 -16.250  -9.898  1.00  0.00    -0.350 N 
ATOM     12  H5  UNL     1       7.300 -16.064  -9.079  1.00  0.00     0.166 HD
HETATM   13  C11 UNL     1       6.673 -17.508 -10.382  1.00  0.00     0.072 A 
ENDROOT
BRANCH   1  14
HETATM   14  C5  UNL     1       8.193 -18.827  -8.830  1.00  0.00     0.315 C 
BRANCH  14  15
HETATM   15  N1  UNL     1       9.521 -19.043  -9.271  1.00  0.00     0.095 N 
HETATM   16  C4  UNL     1      10.515 -19.006  -8.237  1.00  0.00     0.280 C 
HETATM   17  C3  UNL     1      11.822 -18.726  -8.958  1.00  0.00     0.054 C 
HETATM   18  C13 UNL     1      11.412 -18.463 -10.387  1.00  0.00     0.152 C 
HETATM   19  C12 UNL     1       9.993 -17.971 -10.165  1.00  0.00     0.304 C 
BRANCH  17  20
HETATM   20  C2  UNL     1      12.520 -17.519  -8.375  1.00  0.00     0.082 C 
BRANCH  20  21
HETATM   21  S1  UNL     1      13.805 -16.846  -9.414  1.00  0.00    -0.173 SA
HETATM   22  C1  UNL     1      15.107 -17.994  -9.842  1.00  0.00     0.089 C 
ENDBRANCH  20  21
ENDBRANCH  17  20
BRANCH  18  23
HETATM   23  O1  UNL     1      11.453 -19.660 -11.066  1.00  0.00    -0.393 OA
ATOM     24  H1  UNL     1      12.304 -19.731 -11.483  1.00  0.00     0.210 HD
ENDBRANCH  18  23
ENDBRANCH  14  15
ENDBRANCH   1  14
TORSDOF 5
ENDMDL
