MODEL 2
REMARK VINA RESULT: -8.333407455      0.191      1.224
REMARK  4 active torsions:
REMARK  status: ('A' for Active; 'I' for Inactive)
REMARK    1  A    between atoms: C2_2  and  C4_4 
REMARK    2  A    between atoms: C6_9  and  C7_10 
REMARK    3  A    between atoms: C8_13  and  C9_14 
REMARK    4  A    between atoms: C9_14  and  C10_15 
ROOT
HETATM    1  C4  UNL     1       2.978  23.059  16.347  1.00  0.00     0.046 C 
HETATM    2  C5  UNL     1       2.727  22.560  14.962  1.00  0.00     0.242 C 
HETATM    3  N1  UNL     1       2.815  23.658  14.051  1.00  0.00    -0.060 N 
ATOM      4  H11 UNL     1       1.997  23.742  13.448  1.00  0.00     0.278 HD
ATOM      5  H12 UNL     1       3.507  23.513  13.316  1.00  0.00     0.278 HD
HETATM    6  C6  UNL     1       3.060  24.830  14.824  1.00  0.00     0.291 C 
HETATM    7  C8  UNL     1       2.494  24.501  16.193  1.00  0.00     0.046 C 
ENDROOT
BRANCH   7   8
HETATM    8  C9  UNL     1       1.004  24.574  16.117  1.00  0.00     0.121 C 
BRANCH   8   9
HETATM    9  C10 UNL     1       0.504  25.805  16.773  1.00  0.00     0.172 C 
HETATM   10  O3  UNL     1       1.275  26.789  16.858  1.00  0.00    -0.648 OA
HETATM   11  O4  UNL     1      -0.775  25.903  17.289  1.00  0.00    -0.648 OA
ENDBRANCH   8   9
ENDBRANCH   7   8
BRANCH   1  12
HETATM   12  C2  UNL     1       2.321  22.322  17.423  1.00  0.00    -0.087 C 
HETATM   13  C1  UNL     1       1.474  21.355  17.190  1.00  0.00     0.014 C 
HETATM   14  C3  UNL     1       2.608  22.683  18.855  1.00  0.00     0.043 C 
ENDBRANCH   1  12
BRANCH   6  15
HETATM   15  C7  UNL     1       4.517  25.083  14.883  1.00  0.00     0.205 C 
HETATM   16  O1  UNL     1       5.305  24.584  14.032  1.00  0.00    -0.646 OA
HETATM   17  O2  UNL     1       5.024  25.873  15.879  1.00  0.00    -0.646 OA
ENDBRANCH   6  15
TORSDOF 4
ENDMDL
