MODEL 1
REMARK VINA RESULT: -8.353074504      0.000      0.000
REMARK  4 active torsions:
REMARK  status: ('A' for Active; 'I' for Inactive)
REMARK    1  A    between atoms: C2_2  and  C4_4 
REMARK    2  A    between atoms: C6_9  and  C7_10 
REMARK    3  A    between atoms: C8_13  and  C9_14 
REMARK    4  A    between atoms: C9_14  and  C10_15 
ROOT
HETATM    1  C4  UNL     1       2.946  23.068  16.287  1.00  0.00     0.046 C 
HETATM    2  C5  UNL     1       2.738  22.672  14.862  1.00  0.00     0.242 C 
HETATM    3  N1  UNL     1       2.851  23.835  14.038  1.00  0.00    -0.060 N 
ATOM      4  H11 UNL     1       2.052  23.963  13.418  1.00  0.00     0.278 HD
ATOM      5  H12 UNL     1       3.566  23.744  13.316  1.00  0.00     0.278 HD
HETATM    6  C6  UNL     1       3.070  24.946  14.902  1.00  0.00     0.291 C 
HETATM    7  C8  UNL     1       2.464  24.518  16.225  1.00  0.00     0.046 C 
ENDROOT
BRANCH   7   8
HETATM    8  C9  UNL     1       0.977  24.595  16.110  1.00  0.00     0.121 C 
BRANCH   8   9
HETATM    9  C10 UNL     1       0.458  25.796  16.807  1.00  0.00     0.172 C 
HETATM   10  O3  UNL     1       1.227  26.773  16.961  1.00  0.00    -0.648 OA
HETATM   11  O4  UNL     1      -0.836  25.873  17.286  1.00  0.00    -0.648 OA
ENDBRANCH   8   9
ENDBRANCH   7   8
BRANCH   1  12
HETATM   12  C2  UNL     1       2.258  22.253  17.285  1.00  0.00    -0.087 C 
HETATM   13  C1  UNL     1       2.434  22.426  18.568  1.00  0.00     0.014 C 
HETATM   14  C3  UNL     1       1.320  21.165  16.838  1.00  0.00     0.043 C 
ENDBRANCH   1  12
BRANCH   6  15
HETATM   15  C7  UNL     1       4.525  25.194  15.024  1.00  0.00     0.205 C 
HETATM   16  O1  UNL     1       4.992  25.912  15.951  1.00  0.00    -0.646 OA
HETATM   17  O2  UNL     1       5.382  24.637  14.116  1.00  0.00    -0.646 OA
ENDBRANCH   6  15
TORSDOF 4
ENDMDL
