MODEL 1
REMARK VINA RESULT: -9.049345695      0.000      0.000
REMARK  8 active torsions:
REMARK  status: ('A' for Active; 'I' for Inactive)
REMARK    1  A    between atoms: C2_2  and  C3_3 
REMARK    2  A    between atoms: C3_3  and  C4_4 
REMARK    3  A    between atoms: C4_4  and  S1_5 
REMARK    4  A    between atoms: S1_5  and  C5_6 
REMARK    5  A    between atoms: C5_6  and  C6_7 
REMARK    6  A    between atoms: N1_9  and  C8_10 
REMARK    7  A    between atoms: C8_10  and  C9_11 
REMARK    8  A    between atoms: C16_25  and  O1_26 
ROOT
HETATM    1  C8  UNL     1     -36.761  -2.651   8.329  1.00  0.00     0.074 C 
ENDROOT
BRANCH   1   2
HETATM    2  N1  UNL     1     -35.824  -1.692   7.955  1.00  0.00    -0.289 NA
HETATM    3  C7  UNL     1     -35.439  -1.562   6.594  1.00  0.00     0.102 C 
HETATM    4  C6  UNL     1     -34.663  -0.238   6.666  1.00  0.00     0.038 C 
HETATM    5  C16 UNL     1     -33.975  -0.375   8.004  1.00  0.00     0.137 C 
HETATM    6  C15 UNL     1     -34.593  -1.611   8.666  1.00  0.00     0.127 C 
BRANCH   4   7
HETATM    7  C5  UNL     1     -33.675  -0.142   5.529  1.00  0.00     0.082 C 
BRANCH   7   8
HETATM    8  S1  UNL     1     -34.637  -0.004   3.975  1.00  0.00    -0.169 SA
BRANCH   8   9
HETATM    9  C4  UNL     1     -34.644   1.727   3.405  1.00  0.00     0.073 C 
BRANCH   9  10
HETATM   10  C3  UNL     1     -33.532   1.884   2.382  1.00  0.00     0.010 C 
BRANCH  10  11
HETATM   11  C2  UNL     1     -33.998   2.651   1.177  1.00  0.00    -0.004 C 
HETATM   12  C1  UNL     1     -35.509   2.639   1.052  1.00  0.00     0.005 C 
ENDBRANCH  10  11
ENDBRANCH   9  10
ENDBRANCH   8   9
ENDBRANCH   7   8
ENDBRANCH   4   7
BRANCH   5  13
HETATM   13  O1  UNL     1     -34.307   0.774   8.748  1.00  0.00    -0.394 OA
ATOM     14  H1  UNL     1     -33.944   0.650   9.617  1.00  0.00     0.210 HD
ENDBRANCH   5  13
ENDBRANCH   1   2
BRANCH   1  15
HETATM   15  C9  UNL     1     -37.048  -3.778   7.470  1.00  0.00     0.019 A 
HETATM   16  C10 UNL     1     -38.156  -4.106   6.734  1.00  0.00     0.103 A 
HETATM   17  N2  UNL     1     -37.938  -5.274   6.090  1.00  0.00    -0.360 N 
HETATM   18  C11 UNL     1     -36.705  -5.738   6.379  1.00  0.00     0.101 A 
ATOM     19  H2  UNL     1     -38.608  -5.737   5.475  1.00  0.00     0.165 HD
HETATM   20  C12 UNL     1     -36.015  -6.867   5.985  1.00  0.00     0.146 A 
HETATM   21  C14 UNL     1     -36.153  -4.809   7.237  1.00  0.00     0.076 A 
HETATM   22  N3  UNL     1     -36.588  -7.808   5.108  1.00  0.00    -0.080 NA
HETATM   23  N4  UNL     1     -34.780  -7.064   6.445  1.00  0.00    -0.339 N 
HETATM   24  C13 UNL     1     -34.207  -6.179   7.284  1.00  0.00     0.182 A 
ATOM     25  H4  UNL     1     -34.263  -7.896   6.160  1.00  0.00     0.167 HD
HETATM   26  N5  UNL     1     -34.898  -5.089   7.653  1.00  0.00    -0.350 N 
ATOM     27  H5  UNL     1     -34.447  -4.430   8.288  1.00  0.00     0.166 HD
ENDBRANCH   1  15
TORSDOF 8
ENDMDL
