MODEL 2
REMARK VINA RESULT: -6.673461113      3.806      8.050
REMARK  8 active torsions:
REMARK  status: ('A' for Active; 'I' for Inactive)
REMARK    1  A    between atoms: C2_2  and  C3_3 
REMARK    2  A    between atoms: C3_3  and  C4_4 
REMARK    3  A    between atoms: C4_4  and  S1_5 
REMARK    4  A    between atoms: S1_5  and  C5_6 
REMARK    5  A    between atoms: C5_6  and  C6_7 
REMARK    6  A    between atoms: N1_9  and  C8_10 
REMARK    7  A    between atoms: C8_10  and  C9_11 
REMARK    8  A    between atoms: C16_25  and  O1_26 
ROOT
HETATM    1  C8  UNL     1     -35.136  -0.370   4.073  1.00  0.00     0.074 C 
ENDROOT
BRANCH   1   2
HETATM    2  N1  UNL     1     -34.973  -0.648   5.427  1.00  0.00    -0.289 NA
HETATM    3  C7  UNL     1     -35.653  -1.747   6.017  1.00  0.00     0.102 C 
HETATM    4  C6  UNL     1     -34.935  -1.802   7.374  1.00  0.00     0.038 C 
HETATM    5  C16 UNL     1     -34.745  -0.331   7.664  1.00  0.00     0.137 C 
HETATM    6  C15 UNL     1     -35.135   0.401   6.375  1.00  0.00     0.127 C 
BRANCH   4   7
HETATM    7  C5  UNL     1     -35.807  -2.473   8.407  1.00  0.00     0.082 C 
BRANCH   7   8
HETATM    8  S1  UNL     1     -37.152  -3.339   7.512  1.00  0.00    -0.169 SA
BRANCH   8   9
HETATM    9  C4  UNL     1     -36.794  -5.124   7.435  1.00  0.00     0.073 C 
BRANCH   9  10
HETATM   10  C3  UNL     1     -35.316  -5.287   7.120  1.00  0.00     0.010 C 
BRANCH  10  11
HETATM   11  C2  UNL     1     -35.028  -6.636   6.524  1.00  0.00    -0.004 C 
HETATM   12  C1  UNL     1     -36.194  -7.149   5.703  1.00  0.00     0.005 C 
ENDBRANCH  10  11
ENDBRANCH   9  10
ENDBRANCH   8   9
ENDBRANCH   7   8
ENDBRANCH   4   7
BRANCH   5  13
HETATM   13  O1  UNL     1     -33.372  -0.143   7.915  1.00  0.00    -0.394 OA
ATOM     14  H1  UNL     1     -33.090   0.579   7.366  1.00  0.00     0.210 HD
ENDBRANCH   5  13
ENDBRANCH   1   2
BRANCH   1  15
HETATM   15  C9  UNL     1     -34.342   0.651   3.427  1.00  0.00     0.019 A 
HETATM   16  C10 UNL     1     -33.017   0.984   3.538  1.00  0.00     0.103 A 
HETATM   17  N2  UNL     1     -32.745   2.023   2.719  1.00  0.00    -0.360 N 
HETATM   18  C11 UNL     1     -33.861   2.396   2.058  1.00  0.00     0.101 A 
ATOM     19  H2  UNL     1     -31.830   2.462   2.615  1.00  0.00     0.165 HD
HETATM   20  C12 UNL     1     -34.109   3.384   1.126  1.00  0.00     0.146 A 
HETATM   21  C14 UNL     1     -34.852   1.544   2.499  1.00  0.00     0.076 A 
HETATM   22  N3  UNL     1     -33.088   4.247   0.684  1.00  0.00    -0.080 NA
HETATM   23  N4  UNL     1     -35.341   3.517   0.638  1.00  0.00    -0.339 N 
HETATM   24  C13 UNL     1     -36.336   2.704   1.043  1.00  0.00     0.182 A 
ATOM     25  H4  UNL     1     -35.534   4.245  -0.050  1.00  0.00     0.167 HD
HETATM   26  N5  UNL     1     -36.070   1.751   1.950  1.00  0.00    -0.350 N 
ATOM     27  H5  UNL     1     -36.836   1.144   2.244  1.00  0.00     0.166 HD
ENDBRANCH   1  15
TORSDOF 8
ENDMDL
