MODEL 4
REMARK VINA RESULT: -6.507444887      5.042      9.337
REMARK  8 active torsions:
REMARK  status: ('A' for Active; 'I' for Inactive)
REMARK    1  A    between atoms: C2_2  and  C3_3 
REMARK    2  A    between atoms: C3_3  and  C4_4 
REMARK    3  A    between atoms: C4_4  and  S1_5 
REMARK    4  A    between atoms: S1_5  and  C5_6 
REMARK    5  A    between atoms: C5_6  and  C6_7 
REMARK    6  A    between atoms: N1_9  and  C8_10 
REMARK    7  A    between atoms: C8_10  and  C9_11 
REMARK    8  A    between atoms: C16_25  and  O1_26 
ROOT
HETATM    1  C8  UNL     1     -35.042   1.695   2.383  1.00  0.00     0.074 C 
ENDROOT
BRANCH   1   2
HETATM    2  N1  UNL     1     -34.490   0.895   3.379  1.00  0.00    -0.289 NA
HETATM    3  C7  UNL     1     -34.909   1.043   4.728  1.00  0.00     0.102 C 
HETATM    4  C6  UNL     1     -34.266  -0.208   5.343  1.00  0.00     0.038 C 
HETATM    5  C16 UNL     1     -32.958  -0.266   4.588  1.00  0.00     0.137 C 
HETATM    6  C15 UNL     1     -33.075   0.780   3.473  1.00  0.00     0.127 C 
BRANCH   4   7
HETATM    7  C5  UNL     1     -34.055  -0.021   6.825  1.00  0.00     0.082 C 
BRANCH   7   8
HETATM    8  S1  UNL     1     -35.507  -0.740   7.682  1.00  0.00    -0.169 SA
BRANCH   8   9
HETATM    9  C4  UNL     1     -35.019  -2.268   8.548  1.00  0.00     0.073 C 
BRANCH   9  10
HETATM   10  C3  UNL     1     -35.707  -3.433   7.857  1.00  0.00     0.010 C 
BRANCH  10  11
HETATM   11  C2  UNL     1     -36.697  -2.956   6.832  1.00  0.00    -0.004 C 
HETATM   12  C1  UNL     1     -37.991  -3.743   6.890  1.00  0.00     0.005 C 
ENDBRANCH  10  11
ENDBRANCH   9  10
ENDBRANCH   8   9
ENDBRANCH   7   8
ENDBRANCH   4   7
BRANCH   5  13
HETATM   13  O1  UNL     1     -32.874  -1.552   4.021  1.00  0.00    -0.394 OA
ATOM     14  H1  UNL     1     -31.969  -1.828   4.102  1.00  0.00     0.210 HD
ENDBRANCH   5  13
ENDBRANCH   1   2
BRANCH   1  15
HETATM   15  C9  UNL     1     -34.343   2.868   1.905  1.00  0.00     0.019 A 
HETATM   16  C10 UNL     1     -33.415   3.682   2.498  1.00  0.00     0.103 A 
HETATM   17  N2  UNL     1     -33.057   4.658   1.635  1.00  0.00    -0.360 N 
HETATM   18  C11 UNL     1     -33.726   4.516   0.472  1.00  0.00     0.101 A 
ATOM     19  H2  UNL     1     -32.379   5.394   1.834  1.00  0.00     0.165 HD
HETATM   20  C12 UNL     1     -33.719   5.237  -0.704  1.00  0.00     0.146 A 
HETATM   21  C14 UNL     1     -34.525   3.404   0.641  1.00  0.00     0.076 A 
HETATM   22  N3  UNL     1     -32.898   6.370  -0.864  1.00  0.00    -0.080 NA
HETATM   23  N4  UNL     1     -34.506   4.849  -1.706  1.00  0.00    -0.339 N 
HETATM   24  C13 UNL     1     -35.301   3.768  -1.580  1.00  0.00     0.182 A 
ATOM     25  H4  UNL     1     -34.508   5.376  -2.579  1.00  0.00     0.167 HD
HETATM   26  N5  UNL     1     -35.290   3.082  -0.426  1.00  0.00    -0.350 N 
ATOM     27  H5  UNL     1     -35.897   2.266  -0.350  1.00  0.00     0.166 HD
ENDBRANCH   1  15
TORSDOF 8
ENDMDL
