MODEL 3
REMARK VINA RESULT: -6.538668677      3.281      7.399
REMARK  8 active torsions:
REMARK  status: ('A' for Active; 'I' for Inactive)
REMARK    1  A    between atoms: C2_2  and  C3_3 
REMARK    2  A    between atoms: C3_3  and  C4_4 
REMARK    3  A    between atoms: C4_4  and  S1_5 
REMARK    4  A    between atoms: S1_5  and  C5_6 
REMARK    5  A    between atoms: C5_6  and  C6_7 
REMARK    6  A    between atoms: N1_9  and  C8_10 
REMARK    7  A    between atoms: C8_10  and  C9_11 
REMARK    8  A    between atoms: C16_25  and  O1_26 
ROOT
HETATM    1  C8  UNL     1     -35.490   0.166   6.290  1.00  0.00     0.074 C 
ENDROOT
BRANCH   1   2
HETATM    2  N1  UNL     1     -35.508  -0.893   7.193  1.00  0.00    -0.289 NA
HETATM    3  C7  UNL     1     -36.150  -2.114   6.850  1.00  0.00     0.102 C 
HETATM    4  C6  UNL     1     -35.647  -3.006   7.994  1.00  0.00     0.038 C 
HETATM    5  C16 UNL     1     -35.659  -2.033   9.151  1.00  0.00     0.137 C 
HETATM    6  C15 UNL     1     -35.923  -0.656   8.533  1.00  0.00     0.127 C 
BRANCH   4   7
HETATM    7  C5  UNL     1     -36.591  -4.162   8.218  1.00  0.00     0.082 C 
BRANCH   7   8
HETATM    8  S1  UNL     1     -37.651  -4.302   6.729  1.00  0.00    -0.169 SA
BRANCH   8   9
HETATM    9  C4  UNL     1     -37.282  -5.856   5.852  1.00  0.00     0.073 C 
BRANCH   9  10
HETATM   10  C3  UNL     1     -36.340  -6.669   6.724  1.00  0.00     0.010 C 
BRANCH  10  11
HETATM   11  C2  UNL     1     -34.942  -6.664   6.175  1.00  0.00    -0.004 C 
HETATM   12  C1  UNL     1     -33.905  -6.588   7.278  1.00  0.00     0.005 C 
ENDBRANCH  10  11
ENDBRANCH   9  10
ENDBRANCH   8   9
ENDBRANCH   7   8
ENDBRANCH   4   7
BRANCH   5  13
HETATM   13  O1  UNL     1     -34.368  -2.059   9.714  1.00  0.00    -0.394 OA
ATOM     14  H1  UNL     1     -34.471  -2.321  10.621  1.00  0.00     0.210 HD
ENDBRANCH   5  13
ENDBRANCH   1   2
BRANCH   1  15
HETATM   15  C9  UNL     1     -34.445   0.273   5.296  1.00  0.00     0.019 A 
HETATM   16  C10 UNL     1     -33.216  -0.323   5.197  1.00  0.00     0.103 A 
HETATM   17  N2  UNL     1     -32.599   0.104   4.073  1.00  0.00    -0.360 N 
HETATM   18  C11 UNL     1     -33.389   0.976   3.415  1.00  0.00     0.101 A 
ATOM     19  H2  UNL     1     -31.671  -0.191   3.767  1.00  0.00     0.165 HD
HETATM   20  C12 UNL     1     -33.226   1.682   2.240  1.00  0.00     0.146 A 
HETATM   21  C14 UNL     1     -34.536   1.081   4.175  1.00  0.00     0.076 A 
HETATM   22  N3  UNL     1     -32.052   1.566   1.472  1.00  0.00    -0.080 NA
HETATM   23  N4  UNL     1     -34.204   2.489   1.829  1.00  0.00    -0.339 N 
HETATM   24  C13 UNL     1     -35.339   2.618   2.544  1.00  0.00     0.182 A 
ATOM     25  H4  UNL     1     -34.092   3.015   0.962  1.00  0.00     0.167 HD
HETATM   26  N5  UNL     1     -35.474   1.920   3.683  1.00  0.00    -0.350 N 
ATOM     27  H5  UNL     1     -36.341   2.030   4.210  1.00  0.00     0.166 HD
ENDBRANCH   1  15
TORSDOF 8
ENDMDL
