MODEL 1
REMARK VINA RESULT: -8.135839901      0.000      0.000
REMARK  10 active torsions:
REMARK  status: ('A' for Active; 'I' for Inactive)
REMARK    1  A    between atoms: C4_9  and  C5_10 
REMARK    2  A    between atoms: C5_10  and  N4_11 
REMARK    3  A    between atoms: C7_13  and  C8_14 
REMARK    4  A    between atoms: C8_14  and  S1_15 
REMARK    5  A    between atoms: S1_15  and  C9_16 
REMARK    6  A    between atoms: C9_16  and  C10_17 
REMARK    7  A    between atoms: C10_17  and  C11_18 
REMARK    8  A    between atoms: C11_18  and  N5_19 
REMARK    9  A    between atoms: C11_18  and  C12_23 
REMARK   10  A    between atoms: C13_26  and  O3_27 
ROOT
HETATM    1  N4  UNL     1      -6.226  -0.238  22.120  1.00  0.00     0.095 N 
HETATM    2  C6  UNL     1      -5.429  -0.694  21.024  1.00  0.00     0.280 C 
HETATM    3  C7  UNL     1      -6.286  -1.640  20.201  1.00  0.00     0.054 C 
HETATM    4  C13 UNL     1      -7.689  -1.437  20.726  1.00  0.00     0.152 C 
HETATM    5  C14 UNL     1      -7.429  -1.046  22.176  1.00  0.00     0.304 C 
ENDROOT
BRANCH   1   6
HETATM    6  C5  UNL     1      -6.644   1.140  22.012  1.00  0.00     0.315 C 
BRANCH   6   7
HETATM    7  C4  UNL     1      -5.458   2.002  21.868  1.00  0.00     0.014 A 
HETATM    8  C3  UNL     1      -5.357   3.022  20.917  1.00  0.00     0.072 A 
HETATM    9  N3  UNL     1      -6.192   3.483  19.963  1.00  0.00    -0.350 N 
HETATM   10  C16 UNL     1      -4.109   3.569  21.124  1.00  0.00     0.101 A 
HETATM   11  C2  UNL     1      -5.822   4.513  19.164  1.00  0.00     0.182 A 
ATOM     12  H3  UNL     1      -7.108   3.052  19.841  1.00  0.00     0.166 HD
HETATM   13  N2  UNL     1      -4.607   5.045  19.363  1.00  0.00    -0.339 N 
HETATM   14  C1  UNL     1      -3.743   4.624  20.297  1.00  0.00     0.146 A 
ATOM     15  H2  UNL     1      -4.323   5.821  18.764  1.00  0.00     0.167 HD
HETATM   16  N1  UNL     1      -2.464   5.184  20.508  1.00  0.00    -0.080 NA
HETATM   17  N6  UNL     1      -3.505   2.913  22.133  1.00  0.00    -0.361 N 
HETATM   18  C15 UNL     1      -4.301   1.944  22.617  1.00  0.00     0.099 A 
ATOM     19  H6  UNL     1      -2.570   3.124  22.482  1.00  0.00     0.165 HD
ENDBRANCH   6   7
ENDBRANCH   1   6
BRANCH   3  20
HETATM   20  C8  UNL     1      -6.129  -1.267  18.762  1.00  0.00     0.082 C 
BRANCH  20  21
HETATM   21  S1  UNL     1      -5.372  -2.587  17.782  1.00  0.00    -0.169 SA
BRANCH  21  22
HETATM   22  C9  UNL     1      -4.513  -3.738  18.887  1.00  0.00     0.076 C 
BRANCH  22  23
HETATM   23  C10 UNL     1      -3.103  -3.991  18.434  1.00  0.00     0.054 C 
BRANCH  23  24
HETATM   24  C11 UNL     1      -2.827  -5.431  18.144  1.00  0.00     0.284 C 
BRANCH  24  25
HETATM   25  N5  UNL     1      -1.365  -5.593  18.247  1.00  0.00    -0.065 N 
ATOM     26  H53 UNL     1      -0.840  -4.885  17.733  1.00  0.00     0.275 HD
ATOM     27  H52 UNL     1      -0.996  -5.374  19.172  1.00  0.00     0.275 HD
ATOM     28  H51 UNL     1      -1.166  -6.546  17.944  1.00  0.00     0.275 HD
ENDBRANCH  24  25
BRANCH  24  29
HETATM   29  C12 UNL     1      -3.269  -5.781  16.768  1.00  0.00     0.204 C 
HETATM   30  O1  UNL     1      -3.198  -4.887  15.868  1.00  0.00    -0.646 OA
HETATM   31  O2  UNL     1      -3.753  -7.000  16.379  1.00  0.00    -0.646 OA
ENDBRANCH  24  29
ENDBRANCH  23  24
ENDBRANCH  22  23
ENDBRANCH  21  22
ENDBRANCH  20  21
ENDBRANCH   3  20
BRANCH   4  32
HETATM   32  O3  UNL     1      -8.411  -2.631  20.753  1.00  0.00    -0.393 OA
ATOM     33  H3  UNL     1      -9.090  -2.618  21.417  1.00  0.00     0.210 HD
ENDBRANCH   4  32
TORSDOF 10
ENDMDL
