MODEL 2
REMARK VINA RESULT: -8.127178486      1.199      1.244
REMARK  10 active torsions:
REMARK  status: ('A' for Active; 'I' for Inactive)
REMARK    1  A    between atoms: C4_9  and  C5_10 
REMARK    2  A    between atoms: C5_10  and  N4_11 
REMARK    3  A    between atoms: C7_13  and  C8_14 
REMARK    4  A    between atoms: C8_14  and  S1_15 
REMARK    5  A    between atoms: S1_15  and  C9_16 
REMARK    6  A    between atoms: C9_16  and  C10_17 
REMARK    7  A    between atoms: C10_17  and  C11_18 
REMARK    8  A    between atoms: C11_18  and  N5_19 
REMARK    9  A    between atoms: C11_18  and  C12_23 
REMARK   10  A    between atoms: C13_26  and  O3_27 
ROOT
HETATM    1  N4  UNL     1      -6.400  -0.256  22.131  1.00  0.00     0.095 N 
HETATM    2  C6  UNL     1      -5.556  -0.835  21.133  1.00  0.00     0.280 C 
HETATM    3  C7  UNL     1      -6.389  -1.844  20.361  1.00  0.00     0.054 C 
HETATM    4  C13 UNL     1      -7.814  -1.564  20.784  1.00  0.00     0.152 C 
HETATM    5  C14 UNL     1      -7.623  -1.032  22.199  1.00  0.00     0.304 C 
ENDROOT
BRANCH   1   6
HETATM    6  C5  UNL     1      -6.780   1.111  21.862  1.00  0.00     0.315 C 
BRANCH   6   7
HETATM    7  C4  UNL     1      -5.571   1.951  21.792  1.00  0.00     0.014 A 
HETATM    8  C3  UNL     1      -5.412   3.000  20.881  1.00  0.00     0.072 A 
HETATM    9  N3  UNL     1      -6.198   3.510  19.912  1.00  0.00    -0.350 N 
HETATM   10  C16 UNL     1      -4.160   3.510  21.154  1.00  0.00     0.101 A 
HETATM   11  C2  UNL     1      -5.776   4.557  19.163  1.00  0.00     0.182 A 
ATOM     12  H3  UNL     1      -7.118   3.104  19.741  1.00  0.00     0.166 HD
HETATM   13  N2  UNL     1      -4.559   5.055  19.426  1.00  0.00    -0.339 N 
HETATM   14  C1  UNL     1      -3.741   4.584  20.377  1.00  0.00     0.146 A 
ATOM     15  H2  UNL     1      -4.235   5.844  18.866  1.00  0.00     0.167 HD
HETATM   16  N1  UNL     1      -2.459   5.108  20.656  1.00  0.00    -0.080 NA
HETATM   17  N6  UNL     1      -3.611   2.808  22.162  1.00  0.00    -0.361 N 
HETATM   18  C15 UNL     1      -4.445   1.842  22.583  1.00  0.00     0.099 A 
ATOM     19  H6  UNL     1      -2.685   2.986  22.554  1.00  0.00     0.165 HD
ENDBRANCH   6   7
ENDBRANCH   1   6
BRANCH   3  20
HETATM   20  C8  UNL     1      -6.146  -1.622  18.903  1.00  0.00     0.082 C 
BRANCH  20  21
HETATM   21  S1  UNL     1      -4.449  -2.016  18.416  1.00  0.00    -0.169 SA
BRANCH  21  22
HETATM   22  C9  UNL     1      -4.474  -3.278  17.117  1.00  0.00     0.076 C 
BRANCH  22  23
HETATM   23  C10 UNL     1      -4.086  -4.628  17.650  1.00  0.00     0.054 C 
BRANCH  23  24
HETATM   24  C11 UNL     1      -3.155  -5.373  16.748  1.00  0.00     0.284 C 
BRANCH  24  25
HETATM   25  N5  UNL     1      -3.827  -6.646  16.433  1.00  0.00    -0.065 N 
ATOM     26  H53 UNL     1      -3.198  -7.356  16.056  1.00  0.00     0.275 HD
ATOM     27  H52 UNL     1      -4.120  -7.167  17.259  1.00  0.00     0.275 HD
ATOM     28  H51 UNL     1      -4.596  -6.410  15.806  1.00  0.00     0.275 HD
ENDBRANCH  24  25
BRANCH  24  29
HETATM   29  C12 UNL     1      -1.867  -5.649  17.440  1.00  0.00     0.204 C 
HETATM   30  O1  UNL     1      -1.567  -4.946  18.454  1.00  0.00    -0.646 OA
HETATM   31  O2  UNL     1      -0.965  -6.610  17.075  1.00  0.00    -0.646 OA
ENDBRANCH  24  29
ENDBRANCH  23  24
ENDBRANCH  22  23
ENDBRANCH  21  22
ENDBRANCH  20  21
ENDBRANCH   3  20
BRANCH   4  32
HETATM   32  O3  UNL     1      -8.563  -2.736  20.890  1.00  0.00    -0.393 OA
ATOM     33  H3  UNL     1      -8.434  -3.162  21.728  1.00  0.00     0.210 HD
ENDBRANCH   4  32
TORSDOF 10
ENDMDL
