MODEL 3
REMARK VINA RESULT: -7.569654197      3.166      8.761
REMARK  10 active torsions:
REMARK  status: ('A' for Active; 'I' for Inactive)
REMARK    1  A    between atoms: C4_9  and  C5_10 
REMARK    2  A    between atoms: C5_10  and  N4_11 
REMARK    3  A    between atoms: C7_13  and  C8_14 
REMARK    4  A    between atoms: C8_14  and  S1_15 
REMARK    5  A    between atoms: S1_15  and  C9_16 
REMARK    6  A    between atoms: C9_16  and  C10_17 
REMARK    7  A    between atoms: C10_17  and  C11_18 
REMARK    8  A    between atoms: C11_18  and  N5_19 
REMARK    9  A    between atoms: C11_18  and  C12_23 
REMARK   10  A    between atoms: C13_26  and  O3_27 
ROOT
HETATM    1  N4  UNL     1      -4.855  -2.300  18.690  1.00  0.00     0.095 N 
HETATM    2  C6  UNL     1      -4.602  -1.208  19.577  1.00  0.00     0.280 C 
HETATM    3  C7  UNL     1      -5.926  -0.823  20.215  1.00  0.00     0.054 C 
HETATM    4  C13 UNL     1      -6.861  -1.959  19.867  1.00  0.00     0.152 C 
HETATM    5  C14 UNL     1      -6.291  -2.440  18.538  1.00  0.00     0.304 C 
ENDROOT
BRANCH   1   6
HETATM    6  C5  UNL     1      -4.353  -3.570  19.159  1.00  0.00     0.315 C 
BRANCH   6   7
HETATM    7  C4  UNL     1      -3.722  -4.290  18.039  1.00  0.00     0.014 A 
HETATM    8  C3  UNL     1      -2.777  -5.307  18.210  1.00  0.00     0.072 A 
HETATM    9  N3  UNL     1      -2.219  -5.877  19.297  1.00  0.00    -0.350 N 
HETATM   10  C16 UNL     1      -2.453  -5.701  16.929  1.00  0.00     0.101 A 
HETATM   11  C2  UNL     1      -1.307  -6.870  19.162  1.00  0.00     0.182 A 
ATOM     12  H3  UNL     1      -2.485  -5.558  20.229  1.00  0.00     0.166 HD
HETATM   13  N2  UNL     1      -0.990  -7.254  17.917  1.00  0.00    -0.339 N 
HETATM   14  C1  UNL     1      -1.516  -6.720  16.806  1.00  0.00     0.146 A 
ATOM     15  H2  UNL     1      -0.303  -8.000  17.809  1.00  0.00     0.167 HD
HETATM   16  N1  UNL     1      -1.184  -7.123  15.494  1.00  0.00    -0.080 NA
HETATM   17  N6  UNL     1      -3.160  -4.964  16.052  1.00  0.00    -0.361 N 
HETATM   18  C15 UNL     1      -3.952  -4.086  16.693  1.00  0.00     0.099 A 
ATOM     19  H6  UNL     1      -3.102  -5.058  15.037  1.00  0.00     0.165 HD
ENDBRANCH   6   7
ENDBRANCH   1   6
BRANCH   3  20
HETATM   20  C8  UNL     1      -5.700  -0.667  21.684  1.00  0.00     0.082 C 
BRANCH  20  21
HETATM   21  S1  UNL     1      -5.499   1.063  22.174  1.00  0.00    -0.169 SA
BRANCH  21  22
HETATM   22  C9  UNL     1      -6.480   2.118  21.075  1.00  0.00     0.076 C 
BRANCH  22  23
HETATM   23  C10 UNL     1      -5.642   2.694  19.968  1.00  0.00     0.054 C 
BRANCH  23  24
HETATM   24  C11 UNL     1      -5.410   4.164  20.110  1.00  0.00     0.284 C 
BRANCH  24  25
HETATM   25  N5  UNL     1      -5.723   4.753  18.795  1.00  0.00    -0.065 N 
ATOM     26  H53 UNL     1      -5.932   4.058  18.078  1.00  0.00     0.275 HD
ATOM     27  H52 UNL     1      -6.622   5.233  18.768  1.00  0.00     0.275 HD
ATOM     28  H51 UNL     1      -4.933   5.353  18.561  1.00  0.00     0.275 HD
ENDBRANCH  24  25
BRANCH  24  29
HETATM   29  C12 UNL     1      -3.988   4.437  20.451  1.00  0.00     0.204 C 
HETATM   30  O1  UNL     1      -3.528   3.964  21.537  1.00  0.00    -0.646 OA
HETATM   31  O2  UNL     1      -3.117   5.162  19.684  1.00  0.00    -0.646 OA
ENDBRANCH  24  29
ENDBRANCH  23  24
ENDBRANCH  22  23
ENDBRANCH  21  22
ENDBRANCH  20  21
ENDBRANCH   3  20
BRANCH   4  32
HETATM   32  O3  UNL     1      -8.155  -1.505  19.611  1.00  0.00    -0.393 OA
ATOM     33  H3  UNL     1      -8.763  -1.771  20.291  1.00  0.00     0.210 HD
ENDBRANCH   4  32
TORSDOF 10
ENDMDL
