MODEL 4
REMARK VINA RESULT: -8.843693366      1.472      4.764
REMARK  7 active torsions:
REMARK  status: ('A' for Active; 'I' for Inactive)
REMARK    1  A    between atoms: C5_5  and  N1_6 
REMARK    2  A    between atoms: C6_9  and  C7_10 
REMARK    3  A    between atoms: C12_15  and  N3_16 
REMARK       I    between atoms: N3_16  and  C13_18 
REMARK       I    between atoms: C13_18  and  N4_20 
REMARK    4  A    between atoms: N4_20  and  C14_22 
REMARK    5  A    between atoms: C14_22  and  C15_23 
REMARK    6  A    between atoms: C15_23  and  C16_24 
REMARK    7  A    between atoms: C16_24  and  N5_25 
ROOT
HETATM    1  N1  UNL     1     -38.498  19.944 105.585  1.00  0.00    -0.240 N 
HETATM    2  N2  UNL     1     -38.240  18.834 106.304  1.00  0.00    -0.295 N 
ATOM      3  H2  UNL     1     -37.878  18.840 107.258  1.00  0.00     0.187 HD
HETATM    4  C6  UNL     1     -38.514  17.741 105.623  1.00  0.00     0.037 A 
HETATM    5  C11 UNL     1     -38.967  18.151 104.411  1.00  0.00     0.077 A 
HETATM    6  C12 UNL     1     -38.947  19.565 104.414  1.00  0.00     0.133 A 
ENDROOT
BRANCH   6   7
HETATM    7  N3  UNL     1     -39.340  20.300 103.296  1.00  0.00    -0.293 N 
HETATM    8  C13 UNL     1     -40.083  21.472 103.174  1.00  0.00     0.321 C 
HETATM    9  O1  UNL     1     -40.494  22.057 104.179  1.00  0.00    -0.247 OA
HETATM   10  N4  UNL     1     -40.410  22.055 101.897  1.00  0.00    -0.343 N 
ATOM     11  H4  UNL     1     -40.106  21.623 101.025  1.00  0.00     0.164 HD
ATOM     12  H3  UNL     1     -39.026  19.909 102.408  1.00  0.00     0.172 HD
BRANCH  10  13
HETATM   13  C14 UNL     1     -41.186  23.278 101.900  1.00  0.00     0.126 C 
BRANCH  13  14
HETATM   14  C15 UNL     1     -41.066  23.838 100.476  1.00  0.00     0.050 C 
BRANCH  14  15
HETATM   15  C16 UNL     1     -42.388  23.878  99.791  1.00  0.00     0.274 C 
BRANCH  15  16
HETATM   16  N5  UNL     1     -42.371  24.446  98.484  1.00  0.00     0.092 N 
HETATM   17  C17 UNL     1     -42.456  23.361  97.493  1.00  0.00     0.298 C 
HETATM   18  C18 UNL     1     -42.336  24.001  96.130  1.00  0.00     0.198 C 
HETATM   19  O2  UNL     1     -42.011  25.335  96.229  1.00  0.00    -0.388 OA
HETATM   20  C19 UNL     1     -42.971  26.086  96.882  1.00  0.00     0.198 C 
HETATM   21  C20 UNL     1     -43.412  25.373  98.175  1.00  0.00     0.298 C 
ENDBRANCH  15  16
ENDBRANCH  14  15
ENDBRANCH  13  14
ENDBRANCH  10  13
ENDBRANCH   6   7
BRANCH   1  22
HETATM   22  C5  UNL     1     -38.271  21.198 106.217  1.00  0.00     0.058 A 
HETATM   23  C4  UNL     1     -37.333  22.109 105.823  1.00  0.00     0.032 A 
HETATM   24  C3  UNL     1     -37.123  23.309 106.513  1.00  0.00     0.009 A 
HETATM   25  C2  UNL     1     -37.872  23.579 107.612  1.00  0.00    -0.062 A 
HETATM   26  C1  UNL     1     -37.645  24.864 108.352  1.00  0.00     0.048 C 
HETATM   27  C22 UNL     1     -38.832  22.679 108.042  1.00  0.00     0.009 A 
HETATM   28  C21 UNL     1     -39.035  21.498 107.358  1.00  0.00     0.032 A 
ENDBRANCH   1  22
BRANCH   4  29
HETATM   29  C7  UNL     1     -38.330  16.362 106.176  1.00  0.00    -0.007 C 
HETATM   30  C8  UNL     1     -36.862  16.119 106.283  1.00  0.00     0.021 C 
HETATM   31  C9  UNL     1     -38.896  16.436 107.600  1.00  0.00     0.021 C 
HETATM   32  C10 UNL     1     -39.083  15.356 105.376  1.00  0.00     0.021 C 
ENDBRANCH   4  29
TORSDOF 7
ENDMDL
