MODEL 3
REMARK VINA RESULT: -9.701479051      1.208      1.394
REMARK  7 active torsions:
REMARK  status: ('A' for Active; 'I' for Inactive)
REMARK    1  A    between atoms: C5_5  and  N1_6 
REMARK    2  A    between atoms: C6_9  and  C7_10 
REMARK    3  A    between atoms: C12_15  and  N3_16 
REMARK       I    between atoms: N3_16  and  C13_18 
REMARK       I    between atoms: C13_18  and  N4_20 
REMARK    4  A    between atoms: N4_20  and  C14_22 
REMARK    5  A    between atoms: C14_22  and  C15_23 
REMARK    6  A    between atoms: C15_23  and  C16_24 
REMARK    7  A    between atoms: C16_24  and  N5_25 
ROOT
HETATM    1  N1  UNL     1     -38.640  20.418 106.017  1.00  0.00    -0.240 N 
HETATM    2  N2  UNL     1     -37.728  20.839 106.917  1.00  0.00    -0.295 N 
ATOM      3  H2  UNL     1     -37.169  20.217 107.500  1.00  0.00     0.187 HD
HETATM    4  C6  UNL     1     -37.650  22.154 106.948  1.00  0.00     0.037 A 
HETATM    5  C11 UNL     1     -38.544  22.610 106.035  1.00  0.00     0.077 A 
HETATM    6  C12 UNL     1     -39.163  21.479 105.454  1.00  0.00     0.133 A 
ENDROOT
BRANCH   6   7
HETATM    7  N3  UNL     1     -40.154  21.611 104.483  1.00  0.00    -0.293 N 
HETATM    8  C13 UNL     1     -40.269  22.464 103.387  1.00  0.00     0.321 C 
HETATM    9  O1  UNL     1     -39.372  23.270 103.128  1.00  0.00    -0.247 OA
HETATM   10  N4  UNL     1     -41.415  22.457 102.513  1.00  0.00    -0.343 N 
ATOM     11  H4  UNL     1     -42.196  21.820 102.670  1.00  0.00     0.164 HD
ATOM     12  H3  UNL     1     -40.937  20.966 104.594  1.00  0.00     0.172 HD
BRANCH  10  13
HETATM   13  C14 UNL     1     -41.417  23.389 101.405  1.00  0.00     0.126 C 
BRANCH  13  14
HETATM   14  C15 UNL     1     -41.105  22.544 100.164  1.00  0.00     0.050 C 
BRANCH  14  15
HETATM   15  C16 UNL     1     -42.258  22.509  99.221  1.00  0.00     0.274 C 
BRANCH  15  16
HETATM   16  N5  UNL     1     -42.286  23.565  98.265  1.00  0.00     0.092 N 
HETATM   17  C17 UNL     1     -42.512  22.992  96.929  1.00  0.00     0.298 C 
HETATM   18  C18 UNL     1     -42.436  24.133  95.942  1.00  0.00     0.198 C 
HETATM   19  O2  UNL     1     -42.011  25.293  96.549  1.00  0.00    -0.388 OA
HETATM   20  C19 UNL     1     -42.870  25.743  97.535  1.00  0.00     0.198 C 
HETATM   21  C20 UNL     1     -43.276  24.576  98.457  1.00  0.00     0.298 C 
ENDBRANCH  15  16
ENDBRANCH  14  15
ENDBRANCH  13  14
ENDBRANCH  10  13
ENDBRANCH   6   7
BRANCH   1  22
HETATM   22  C5  UNL     1     -38.803  19.013 105.864  1.00  0.00     0.058 A 
HETATM   23  C4  UNL     1     -38.817  18.116 106.893  1.00  0.00     0.032 A 
HETATM   24  C3  UNL     1     -38.935  16.738 106.678  1.00  0.00     0.009 A 
HETATM   25  C2  UNL     1     -39.040  16.274 105.408  1.00  0.00    -0.062 A 
HETATM   26  C1  UNL     1     -39.166  14.796 105.178  1.00  0.00     0.048 C 
HETATM   27  C22 UNL     1     -39.030  17.154 104.338  1.00  0.00     0.009 A 
HETATM   28  C21 UNL     1     -38.913  18.511 104.556  1.00  0.00     0.032 A 
ENDBRANCH   1  22
BRANCH   4  29
HETATM   29  C7  UNL     1     -36.714  22.898 107.850  1.00  0.00    -0.007 C 
HETATM   30  C8  UNL     1     -35.607  21.963 108.208  1.00  0.00     0.021 C 
HETATM   31  C9  UNL     1     -36.124  24.005 106.968  1.00  0.00     0.021 C 
HETATM   32  C10 UNL     1     -37.442  23.494 109.006  1.00  0.00     0.021 C 
ENDBRANCH   4  29
TORSDOF 7
ENDMDL
