MODEL 5
REMARK VINA RESULT: -8.657457838      1.253      4.712
REMARK  7 active torsions:
REMARK  status: ('A' for Active; 'I' for Inactive)
REMARK    1  A    between atoms: C5_5  and  N1_6 
REMARK    2  A    between atoms: C6_9  and  C7_10 
REMARK    3  A    between atoms: C12_15  and  N3_16 
REMARK       I    between atoms: N3_16  and  C13_18 
REMARK       I    between atoms: C13_18  and  N4_20 
REMARK    4  A    between atoms: N4_20  and  C14_22 
REMARK    5  A    between atoms: C14_22  and  C15_23 
REMARK    6  A    between atoms: C15_23  and  C16_24 
REMARK    7  A    between atoms: C16_24  and  N5_25 
ROOT
HETATM    1  N1  UNL     1     -38.852  21.148 105.115  1.00  0.00    -0.240 N 
HETATM    2  N2  UNL     1     -38.515  20.001 105.738  1.00  0.00    -0.295 N 
ATOM      3  H2  UNL     1     -38.088  19.956 106.663  1.00  0.00     0.187 HD
HETATM    4  C6  UNL     1     -38.806  18.948 105.003  1.00  0.00     0.037 A 
HETATM    5  C11 UNL     1     -39.354  19.423 103.856  1.00  0.00     0.077 A 
HETATM    6  C12 UNL     1     -39.371  20.833 103.954  1.00  0.00     0.133 A 
ENDROOT
BRANCH   6   7
HETATM    7  N3  UNL     1     -39.860  21.629 102.919  1.00  0.00    -0.293 N 
HETATM    8  C13 UNL     1     -40.554  21.309 101.754  1.00  0.00     0.321 C 
HETATM    9  O1  UNL     1     -40.862  20.138 101.513  1.00  0.00    -0.247 OA
HETATM   10  N4  UNL     1     -40.941  22.300 100.782  1.00  0.00    -0.343 N 
ATOM     11  H4  UNL     1     -40.717  23.286 100.914  1.00  0.00     0.164 HD
ATOM     12  H3  UNL     1     -39.676  22.626 103.035  1.00  0.00     0.172 HD
BRANCH  10  13
HETATM   13  C14 UNL     1     -41.662  21.844  99.612  1.00  0.00     0.126 C 
BRANCH  13  14
HETATM   14  C15 UNL     1     -42.416  23.076  99.095  1.00  0.00     0.050 C 
BRANCH  14  15
HETATM   15  C16 UNL     1     -42.700  22.970  97.636  1.00  0.00     0.274 C 
BRANCH  15  16
HETATM   16  N5  UNL     1     -42.800  24.215  96.950  1.00  0.00     0.092 N 
HETATM   17  C17 UNL     1     -42.970  25.291  97.940  1.00  0.00     0.298 C 
HETATM   18  C18 UNL     1     -43.168  26.573  97.166  1.00  0.00     0.198 C 
HETATM   19  O2  UNL     1     -43.310  26.329  95.819  1.00  0.00    -0.388 OA
HETATM   20  C19 UNL     1     -42.193  25.747  95.247  1.00  0.00     0.198 C 
HETATM   21  C20 UNL     1     -41.695  24.581  96.123  1.00  0.00     0.298 C 
ENDBRANCH  15  16
ENDBRANCH  14  15
ENDBRANCH  13  14
ENDBRANCH  10  13
ENDBRANCH   6   7
BRANCH   1  22
HETATM   22  C5  UNL     1     -38.615  22.364 105.815  1.00  0.00     0.058 A 
HETATM   23  C4  UNL     1     -38.504  23.591 105.227  1.00  0.00     0.032 A 
HETATM   24  C3  UNL     1     -38.224  24.748 105.963  1.00  0.00     0.009 A 
HETATM   25  C2  UNL     1     -38.055  24.652 107.306  1.00  0.00    -0.062 A 
HETATM   26  C1  UNL     1     -37.753  25.893 108.094  1.00  0.00     0.048 C 
HETATM   27  C22 UNL     1     -38.160  23.425 107.938  1.00  0.00     0.009 A 
HETATM   28  C21 UNL     1     -38.436  22.287 107.207  1.00  0.00     0.032 A 
ENDBRANCH   1  22
BRANCH   4  29
HETATM   29  C7  UNL     1     -38.548  17.541 105.448  1.00  0.00    -0.007 C 
HETATM   30  C8  UNL     1     -37.068  17.357 105.497  1.00  0.00     0.021 C 
HETATM   31  C9  UNL     1     -39.073  17.487 106.888  1.00  0.00     0.021 C 
HETATM   32  C10 UNL     1     -39.282  16.564 104.595  1.00  0.00     0.021 C 
ENDBRANCH   4  29
TORSDOF 7
ENDMDL
