MODEL 6
REMARK VINA RESULT: -8.345894560      3.074      8.010
REMARK  7 active torsions:
REMARK  status: ('A' for Active; 'I' for Inactive)
REMARK    1  A    between atoms: C5_5  and  N1_6 
REMARK    2  A    between atoms: C6_9  and  C7_10 
REMARK    3  A    between atoms: C12_15  and  N3_16 
REMARK       I    between atoms: N3_16  and  C13_18 
REMARK       I    between atoms: C13_18  and  N4_20 
REMARK    4  A    between atoms: N4_20  and  C14_22 
REMARK    5  A    between atoms: C14_22  and  C15_23 
REMARK    6  A    between atoms: C15_23  and  C16_24 
REMARK    7  A    between atoms: C16_24  and  N5_25 
ROOT
HETATM    1  N1  UNL     1     -39.656  21.244 103.805  1.00  0.00    -0.240 N 
HETATM    2  N2  UNL     1     -40.104  21.059 102.548  1.00  0.00    -0.295 N 
ATOM      3  H2  UNL     1     -40.040  20.176 102.041  1.00  0.00     0.187 HD
HETATM    4  C6  UNL     1     -40.635  22.159 102.056  1.00  0.00     0.037 A 
HETATM    5  C11 UNL     1     -40.530  23.100 103.028  1.00  0.00     0.077 A 
HETATM    6  C12 UNL     1     -39.899  22.489 104.136  1.00  0.00     0.133 A 
ENDROOT
BRANCH   6   7
HETATM    7  N3  UNL     1     -39.625  23.201 105.302  1.00  0.00    -0.293 N 
HETATM    8  C13 UNL     1     -38.659  24.162 105.595  1.00  0.00     0.321 C 
HETATM    9  O1  UNL     1     -37.870  24.538 104.724  1.00  0.00    -0.247 OA
HETATM   10  N4  UNL     1     -38.526  24.758 106.900  1.00  0.00    -0.343 N 
ATOM     11  H4  UNL     1     -39.142  24.492 107.668  1.00  0.00     0.164 HD
ATOM     12  H3  UNL     1     -40.244  22.979 106.083  1.00  0.00     0.172 HD
BRANCH  10  13
HETATM   13  C14 UNL     1     -37.485  25.748 107.080  1.00  0.00     0.126 C 
BRANCH  13  14
HETATM   14  C15 UNL     1     -36.563  25.176 108.164  1.00  0.00     0.050 C 
BRANCH  14  15
HETATM   15  C16 UNL     1     -35.369  24.511 107.570  1.00  0.00     0.274 C 
BRANCH  15  16
HETATM   16  N5  UNL     1     -35.283  23.108 107.804  1.00  0.00     0.092 N 
HETATM   17  C17 UNL     1     -36.518  22.659 108.466  1.00  0.00     0.298 C 
HETATM   18  C18 UNL     1     -36.341  21.193 108.779  1.00  0.00     0.198 C 
HETATM   19  O2  UNL     1     -35.053  20.778 108.528  1.00  0.00    -0.388 OA
HETATM   20  C19 UNL     1     -34.689  20.895 107.198  1.00  0.00     0.198 C 
HETATM   21  C20 UNL     1     -35.100  22.278 106.657  1.00  0.00     0.298 C 
ENDBRANCH  15  16
ENDBRANCH  14  15
ENDBRANCH  13  14
ENDBRANCH  10  13
ENDBRANCH   6   7
BRANCH   1  22
HETATM   22  C5  UNL     1     -39.082  20.122 104.465  1.00  0.00     0.058 A 
HETATM   23  C4  UNL     1     -38.446  20.170 105.672  1.00  0.00     0.032 A 
HETATM   24  C3  UNL     1     -37.859  19.039 106.252  1.00  0.00     0.009 A 
HETATM   25  C2  UNL     1     -37.920  17.854 105.595  1.00  0.00    -0.062 A 
HETATM   26  C1  UNL     1     -37.290  16.642 106.217  1.00  0.00     0.048 C 
HETATM   27  C22 UNL     1     -38.556  17.765 104.369  1.00  0.00     0.009 A 
HETATM   28  C21 UNL     1     -39.133  18.883 103.802  1.00  0.00     0.032 A 
ENDBRANCH   1  22
BRANCH   4  29
HETATM   29  C7  UNL     1     -41.221  22.243 100.681  1.00  0.00    -0.007 C 
HETATM   30  C8  UNL     1     -41.888  23.573 100.564  1.00  0.00     0.021 C 
HETATM   31  C9  UNL     1     -40.009  22.244  99.741  1.00  0.00     0.021 C 
HETATM   32  C10 UNL     1     -42.093  21.068 100.395  1.00  0.00     0.021 C 
ENDBRANCH   4  29
TORSDOF 7
ENDMDL
