MODEL 2
REMARK VINA RESULT: -10.786307193      0.616      1.612
REMARK  7 active torsions:
REMARK  status: ('A' for Active; 'I' for Inactive)
REMARK    1  A    between atoms: C5_5  and  N1_6 
REMARK    2  A    between atoms: C6_9  and  C7_10 
REMARK    3  A    between atoms: C12_15  and  N3_16 
REMARK       I    between atoms: N3_16  and  C13_18 
REMARK       I    between atoms: C13_18  and  N4_20 
REMARK    4  A    between atoms: N4_20  and  C14_22 
REMARK    5  A    between atoms: C14_22  and  C15_23 
REMARK    6  A    between atoms: C15_23  and  C16_24 
REMARK    7  A    between atoms: C16_24  and  N5_25 
ROOT
HETATM    1  N1  UNL     1     -38.969  21.331 105.124  1.00  0.00    -0.240 N 
HETATM    2  N2  UNL     1     -38.145  22.024 105.936  1.00  0.00    -0.295 N 
ATOM      3  H2  UNL     1     -37.504  21.595 106.602  1.00  0.00     0.187 HD
HETATM    4  C6  UNL     1     -38.272  23.323 105.760  1.00  0.00     0.037 A 
HETATM    5  C11 UNL     1     -39.215  23.486 104.797  1.00  0.00     0.077 A 
HETATM    6  C12 UNL     1     -39.644  22.197 104.408  1.00  0.00     0.133 A 
ENDROOT
BRANCH   6   7
HETATM    7  N3  UNL     1     -40.631  22.020 103.440  1.00  0.00    -0.293 N 
HETATM    8  C13 UNL     1     -40.598  22.136 102.052  1.00  0.00     0.321 C 
HETATM    9  O1  UNL     1     -39.546  22.419 101.475  1.00  0.00    -0.247 OA
HETATM   10  N4  UNL     1     -41.764  21.940 101.228  1.00  0.00    -0.343 N 
ATOM     11  H4  UNL     1     -42.669  21.707 101.638  1.00  0.00     0.164 HD
ATOM     12  H3  UNL     1     -41.543  21.757 103.816  1.00  0.00     0.172 HD
BRANCH  10  13
HETATM   13  C14 UNL     1     -41.603  22.085  99.796  1.00  0.00     0.126 C 
BRANCH  13  14
HETATM   14  C15 UNL     1     -42.505  23.262  99.404  1.00  0.00     0.050 C 
BRANCH  14  15
HETATM   15  C16 UNL     1     -43.018  23.117  98.012  1.00  0.00     0.274 C 
BRANCH  15  16
HETATM   16  N5  UNL     1     -43.007  24.315  97.240  1.00  0.00     0.092 N 
HETATM   17  C17 UNL     1     -43.109  25.468  98.147  1.00  0.00     0.298 C 
HETATM   18  C18 UNL     1     -43.191  26.703  97.282  1.00  0.00     0.198 C 
HETATM   19  O2  UNL     1     -43.328  26.375  95.951  1.00  0.00    -0.388 OA
HETATM   20  C19 UNL     1     -42.250  25.669  95.448  1.00  0.00     0.198 C 
HETATM   21  C20 UNL     1     -41.862  24.534  96.415  1.00  0.00     0.298 C 
ENDBRANCH  15  16
ENDBRANCH  14  15
ENDBRANCH  13  14
ENDBRANCH  10  13
ENDBRANCH   6   7
BRANCH   1  22
HETATM   22  C5  UNL     1     -38.911  19.911 105.195  1.00  0.00     0.058 A 
HETATM   23  C4  UNL     1     -38.982  19.076 104.117  1.00  0.00     0.032 A 
HETATM   24  C3  UNL     1     -38.967  17.682 104.252  1.00  0.00     0.009 A 
HETATM   25  C2  UNL     1     -38.879  17.140 105.492  1.00  0.00    -0.062 A 
HETATM   26  C1  UNL     1     -38.863  15.646 105.636  1.00  0.00     0.048 C 
HETATM   27  C22 UNL     1     -38.805  17.955 106.609  1.00  0.00     0.009 A 
HETATM   28  C21 UNL     1     -38.821  19.328 106.470  1.00  0.00     0.032 A 
ENDBRANCH   1  22
BRANCH   4  29
HETATM   29  C7  UNL     1     -37.474  24.335 106.522  1.00  0.00    -0.007 C 
HETATM   30  C8  UNL     1     -38.409  25.015 107.467  1.00  0.00     0.021 C 
HETATM   31  C9  UNL     1     -36.490  23.506 107.355  1.00  0.00     0.021 C 
HETATM   32  C10 UNL     1     -36.733  25.241 105.600  1.00  0.00     0.021 C 
ENDBRANCH   4  29
TORSDOF 7
ENDMDL
