MODEL 1
REMARK VINA RESULT: -10.797437868      0.000      0.000
REMARK  7 active torsions:
REMARK  status: ('A' for Active; 'I' for Inactive)
REMARK    1  A    between atoms: C5_5  and  N1_6 
REMARK    2  A    between atoms: C6_9  and  C7_10 
REMARK    3  A    between atoms: C12_15  and  N3_16 
REMARK       I    between atoms: N3_16  and  C13_18 
REMARK       I    between atoms: C13_18  and  N4_20 
REMARK    4  A    between atoms: N4_20  and  C14_22 
REMARK    5  A    between atoms: C14_22  and  C15_23 
REMARK    6  A    between atoms: C15_23  and  C16_24 
REMARK    7  A    between atoms: C16_24  and  N5_25 
ROOT
HETATM    1  N1  UNL     1     -38.846  21.332 105.402  1.00  0.00    -0.240 N 
HETATM    2  N2  UNL     1     -37.932  21.991 106.142  1.00  0.00    -0.295 N 
ATOM      3  H2  UNL     1     -37.278  21.539 106.780  1.00  0.00     0.187 HD
HETATM    4  C6  UNL     1     -37.991  23.291 105.939  1.00  0.00     0.037 A 
HETATM    5  C11 UNL     1     -38.981  23.491 105.032  1.00  0.00     0.077 A 
HETATM    6  C12 UNL     1     -39.511  22.221 104.705  1.00  0.00     0.133 A 
ENDROOT
BRANCH   6   7
HETATM    7  N3  UNL     1     -40.566  22.083 103.805  1.00  0.00    -0.293 N 
HETATM    8  C13 UNL     1     -40.622  22.208 102.418  1.00  0.00     0.321 C 
HETATM    9  O1  UNL     1     -39.601  22.460 101.773  1.00  0.00    -0.247 OA
HETATM   10  N4  UNL     1     -41.846  22.055 101.673  1.00  0.00    -0.343 N 
ATOM     11  H4  UNL     1     -42.729  21.850 102.142  1.00  0.00     0.164 HD
ATOM     12  H3  UNL     1     -41.458  21.848 104.240  1.00  0.00     0.172 HD
BRANCH  10  13
HETATM   13  C14 UNL     1     -41.777  22.205 100.235  1.00  0.00     0.126 C 
BRANCH  13  14
HETATM   14  C15 UNL     1     -42.213  23.648  99.955  1.00  0.00     0.050 C 
BRANCH  14  15
HETATM   15  C16 UNL     1     -41.308  24.313  98.975  1.00  0.00     0.274 C 
BRANCH  15  16
HETATM   16  N5  UNL     1     -41.966  25.102  97.988  1.00  0.00     0.092 N 
HETATM   17  C17 UNL     1     -41.939  24.380  96.705  1.00  0.00     0.298 C 
HETATM   18  C18 UNL     1     -42.558  25.292  95.674  1.00  0.00     0.198 C 
HETATM   19  O2  UNL     1     -42.785  26.550  96.187  1.00  0.00    -0.388 OA
HETATM   20  C19 UNL     1     -43.681  26.558  97.241  1.00  0.00     0.198 C 
HETATM   21  C20 UNL     1     -43.329  25.442  98.244  1.00  0.00     0.298 C 
ENDBRANCH  15  16
ENDBRANCH  14  15
ENDBRANCH  13  14
ENDBRANCH  10  13
ENDBRANCH   6   7
BRANCH   1  22
HETATM   22  C5  UNL     1     -38.870  19.914 105.507  1.00  0.00     0.058 A 
HETATM   23  C4  UNL     1     -38.818  19.221 106.683  1.00  0.00     0.032 A 
HETATM   24  C3  UNL     1     -38.798  17.822 106.723  1.00  0.00     0.009 A 
HETATM   25  C2  UNL     1     -38.831  17.127 105.558  1.00  0.00    -0.062 A 
HETATM   26  C1  UNL     1     -38.809  15.627 105.602  1.00  0.00     0.048 C 
HETATM   27  C22 UNL     1     -38.884  17.795 104.347  1.00  0.00     0.009 A 
HETATM   28  C21 UNL     1     -38.903  19.174 104.313  1.00  0.00     0.032 A 
ENDBRANCH   1  22
BRANCH   4  29
HETATM   29  C7  UNL     1     -37.087  24.269 106.623  1.00  0.00    -0.007 C 
HETATM   30  C8  UNL     1     -35.889  23.512 107.092  1.00  0.00     0.021 C 
HETATM   31  C9  UNL     1     -36.632  25.222 105.511  1.00  0.00     0.021 C 
HETATM   32  C10 UNL     1     -37.815  25.025 107.682  1.00  0.00     0.021 C 
ENDBRANCH   4  29
TORSDOF 7
ENDMDL
