MODEL 2
REMARK VINA RESULT: -10.754810943      1.011     12.434
REMARK  9 active torsions:
REMARK  status: ('A' for Active; 'I' for Inactive)
REMARK    1  A    between atoms: C5_5  and  N1_6 
REMARK    2  A    between atoms: C6_9  and  C7_10 
REMARK    3  A    between atoms: C12_15  and  N3_16 
REMARK       I    between atoms: N3_16  and  C13_18 
REMARK       I    between atoms: C13_18  and  N4_20 
REMARK    4  A    between atoms: N4_20  and  C14_22 
REMARK    5  A    between atoms: C14_22  and  C15_23 
REMARK    6  A    between atoms: C15_23  and  N5_24 
REMARK       I    between atoms: N6_27  and  C18_28 
REMARK       I    between atoms: C18_28  and  N7_30 
REMARK    7  A    between atoms: N7_30  and  C19_32 
REMARK    8  A    between atoms: C21_34  and  C22_35 
REMARK    9  A    between atoms: N9_41  and  C26_42 
ROOT
HETATM    1  N5  UNL     1      38.452  59.366 142.481  1.00  0.00     0.093 N 
HETATM    2  C16 UNL     1      39.307  58.188 142.462  1.00  0.00     0.292 C 
HETATM    3  C17 UNL     1      39.567  57.824 143.899  1.00  0.00     0.158 C 
HETATM    4  N6  UNL     1      39.649  58.922 144.812  1.00  0.00    -0.331 N 
HETATM    5  C18 UNL     1      39.857  58.599 146.176  1.00  0.00     0.324 C 
HETATM    6  O2  UNL     1      39.963  59.512 147.011  1.00  0.00    -0.247 OA
HETATM    7  N7  UNL     1      39.952  57.255 146.626  1.00  0.00    -0.293 N 
ATOM      8  H7  UNL     1      39.844  56.527 145.920  1.00  0.00     0.172 HD
HETATM    9  C33 UNL     1      39.514  60.277 144.403  1.00  0.00     0.158 C 
HETATM   10  C34 UNL     1      39.227  60.473 142.923  1.00  0.00     0.292 C 
ENDROOT
BRANCH   1  11
HETATM   11  C15 UNL     1      37.766  59.566 141.253  1.00  0.00     0.292 C 
BRANCH  11  12
HETATM   12  C14 UNL     1      36.853  58.404 140.951  1.00  0.00     0.154 C 
BRANCH  12  13
HETATM   13  N4  UNL     1      37.516  57.268 140.433  1.00  0.00    -0.341 N 
HETATM   14  C13 UNL     1      38.033  57.100 139.129  1.00  0.00     0.321 C 
HETATM   15  N3  UNL     1      38.653  55.899 138.717  1.00  0.00    -0.293 N 
HETATM   16  O1  UNL     1      37.935  58.022 138.334  1.00  0.00    -0.247 OA
ATOM     17  H3  UNL     1      38.669  55.167 139.428  1.00  0.00     0.172 HD
ATOM     18  H4  UNL     1      37.634  56.482 141.073  1.00  0.00     0.164 HD
BRANCH  15  19
HETATM   19  C12 UNL     1      39.248  55.541 137.508  1.00  0.00     0.133 A 
HETATM   20  N1  UNL     1      40.059  56.147 136.686  1.00  0.00    -0.240 N 
HETATM   21  N2  UNL     1      40.241  55.362 135.593  1.00  0.00    -0.295 N 
HETATM   22  C6  UNL     1      39.552  54.253 135.715  1.00  0.00     0.037 A 
ATOM     23  H2  UNL     1      40.829  55.600 134.794  1.00  0.00     0.187 HD
HETATM   24  C11 UNL     1      38.893  54.300 136.915  1.00  0.00     0.077 A 
BRANCH  20  25
HETATM   25  C5  UNL     1      40.750  57.368 136.797  1.00  0.00     0.058 A 
HETATM   26  C4  UNL     1      40.389  58.453 135.967  1.00  0.00     0.032 A 
HETATM   27  C3  UNL     1      41.000  59.675 136.093  1.00  0.00     0.009 A 
HETATM   28  C2  UNL     1      41.992  59.917 137.021  1.00  0.00    -0.062 A 
HETATM   29  C1  UNL     1      42.631  61.273 137.132  1.00  0.00     0.048 C 
HETATM   30  C36 UNL     1      42.359  58.877 137.836  1.00  0.00     0.009 A 
HETATM   31  C35 UNL     1      41.742  57.629 137.716  1.00  0.00     0.032 A 
ENDBRANCH  20  25
BRANCH  22  32
HETATM   32  C7  UNL     1      39.446  53.099 134.761  1.00  0.00    -0.007 C 
HETATM   33  C8  UNL     1      38.333  52.177 135.243  1.00  0.00     0.021 C 
HETATM   34  C9  UNL     1      40.706  52.288 134.732  1.00  0.00     0.021 C 
HETATM   35  C10 UNL     1      39.115  53.568 133.370  1.00  0.00     0.021 C 
ENDBRANCH  22  32
ENDBRANCH  15  19
ENDBRANCH  12  13
ENDBRANCH  11  12
ENDBRANCH   1  11
BRANCH   7  36
HETATM   36  C19 UNL     1      40.182  56.827 147.944  1.00  0.00     0.133 A 
HETATM   37  C20 UNL     1      41.404  56.516 148.534  1.00  0.00     0.077 A 
HETATM   38  C21 UNL     1      41.179  56.155 149.835  1.00  0.00     0.037 A 
HETATM   39  N8  UNL     1      39.852  56.248 150.021  1.00  0.00    -0.295 N 
HETATM   40  N9  UNL     1      39.253  56.647 148.897  1.00  0.00    -0.240 N 
ATOM     41  H8  UNL     1      39.371  56.042 150.896  1.00  0.00     0.187 HD
BRANCH  38  42
HETATM   42  C22 UNL     1      42.181  55.734 150.871  1.00  0.00    -0.007 C 
HETATM   43  C23 UNL     1      43.305  54.989 150.209  1.00  0.00     0.021 C 
HETATM   44  C24 UNL     1      41.531  54.889 151.939  1.00  0.00     0.021 C 
HETATM   45  C25 UNL     1      42.711  56.983 151.549  1.00  0.00     0.021 C 
ENDBRANCH  38  42
BRANCH  40  46
HETATM   46  C26 UNL     1      37.853  56.855 148.777  1.00  0.00     0.058 A 
HETATM   47  C27 UNL     1      37.245  56.943 147.547  1.00  0.00     0.032 A 
HETATM   48  C28 UNL     1      35.883  57.129 147.434  1.00  0.00     0.009 A 
HETATM   49  C29 UNL     1      35.133  57.226 148.577  1.00  0.00    -0.062 A 
HETATM   50  C30 UNL     1      33.645  57.425 148.465  1.00  0.00     0.048 C 
HETATM   51  C31 UNL     1      35.724  57.141 149.807  1.00  0.00     0.009 A 
HETATM   52  C32 UNL     1      37.082  56.955 149.921  1.00  0.00     0.032 A 
ENDBRANCH  40  46
ENDBRANCH   7  36
TORSDOF 9
ENDMDL
