MODEL 11
REMARK VINA RESULT: -9.432542736      3.216      6.460
REMARK  9 active torsions:
REMARK  status: ('A' for Active; 'I' for Inactive)
REMARK    1  A    between atoms: C5_5  and  N1_6 
REMARK    2  A    between atoms: C6_9  and  C7_10 
REMARK    3  A    between atoms: C12_15  and  N3_16 
REMARK       I    between atoms: N3_16  and  C13_18 
REMARK       I    between atoms: C13_18  and  N4_20 
REMARK    4  A    between atoms: N4_20  and  C14_22 
REMARK    5  A    between atoms: C14_22  and  C15_23 
REMARK    6  A    between atoms: C15_23  and  N5_24 
REMARK       I    between atoms: N6_27  and  C18_28 
REMARK       I    between atoms: C18_28  and  N7_30 
REMARK    7  A    between atoms: N7_30  and  C19_32 
REMARK    8  A    between atoms: C21_34  and  C22_35 
REMARK    9  A    between atoms: N9_41  and  C26_42 
ROOT
HETATM    1  N5  UNL     1      41.851  60.046 137.824  1.00  0.00     0.093 N 
HETATM    2  C16 UNL     1      41.538  60.313 136.428  1.00  0.00     0.292 C 
HETATM    3  C17 UNL     1      40.625  59.205 135.974  1.00  0.00     0.158 C 
HETATM    4  N6  UNL     1      40.864  57.924 136.564  1.00  0.00    -0.331 N 
HETATM    5  C18 UNL     1      39.992  56.876 136.178  1.00  0.00     0.324 C 
HETATM    6  O2  UNL     1      40.167  55.735 136.638  1.00  0.00    -0.247 OA
HETATM    7  N7  UNL     1      38.917  57.084 135.273  1.00  0.00    -0.293 N 
ATOM      8  H7  UNL     1      38.788  58.035 134.927  1.00  0.00     0.172 HD
HETATM    9  C33 UNL     1      41.902  57.691 137.506  1.00  0.00     0.158 C 
HETATM   10  C34 UNL     1      42.716  58.919 137.880  1.00  0.00     0.292 C 
ENDROOT
BRANCH   1  11
HETATM   11  C15 UNL     1      42.322  61.197 138.511  1.00  0.00     0.292 C 
BRANCH  11  12
HETATM   12  C14 UNL     1      43.300  60.815 139.593  1.00  0.00     0.154 C 
BRANCH  12  13
HETATM   13  N4  UNL     1      42.772  60.889 140.902  1.00  0.00    -0.341 N 
HETATM   14  C13 UNL     1      41.955  59.935 141.550  1.00  0.00     0.321 C 
HETATM   15  N3  UNL     1      41.461  60.136 142.858  1.00  0.00    -0.293 N 
HETATM   16  O1  UNL     1      41.664  58.909 140.955  1.00  0.00    -0.247 OA
ATOM     17  H3  UNL     1      41.722  61.030 143.275  1.00  0.00     0.172 HD
ATOM     18  H4  UNL     1      43.007  61.724 141.439  1.00  0.00     0.164 HD
BRANCH  15  19
HETATM   19  C12 UNL     1      40.679  59.325 143.678  1.00  0.00     0.133 A 
HETATM   20  N1  UNL     1      39.688  58.506 143.458  1.00  0.00    -0.240 N 
HETATM   21  N2  UNL     1      39.224  58.048 144.650  1.00  0.00    -0.295 N 
HETATM   22  C6  UNL     1      39.919  58.570 145.633  1.00  0.00     0.037 A 
ATOM     23  H2  UNL     1      38.450  57.395 144.764  1.00  0.00     0.187 HD
HETATM   24  C11 UNL     1      40.865  59.395 145.085  1.00  0.00     0.077 A 
BRANCH  20  25
HETATM   25  C5  UNL     1      39.124  58.033 142.258  1.00  0.00     0.058 A 
HETATM   26  C4  UNL     1      39.489  56.759 141.769  1.00  0.00     0.032 A 
HETATM   27  C3  UNL     1      38.912  56.243 140.636  1.00  0.00     0.009 A 
HETATM   28  C2  UNL     1      37.956  56.927 139.912  1.00  0.00    -0.062 A 
HETATM   29  C1  UNL     1      37.343  56.323 138.680  1.00  0.00     0.048 C 
HETATM   30  C36 UNL     1      37.589  58.166 140.369  1.00  0.00     0.009 A 
HETATM   31  C35 UNL     1      38.170  58.700 141.522  1.00  0.00     0.032 A 
ENDBRANCH  20  25
BRANCH  22  32
HETATM   32  C7  UNL     1      39.766  58.358 147.111  1.00  0.00    -0.007 C 
HETATM   33  C8  UNL     1      38.435  57.660 147.361  1.00  0.00     0.021 C 
HETATM   34  C9  UNL     1      39.726  59.658 147.855  1.00  0.00     0.021 C 
HETATM   35  C10 UNL     1      40.872  57.497 147.657  1.00  0.00     0.021 C 
ENDBRANCH  22  32
ENDBRANCH  15  19
ENDBRANCH  12  13
ENDBRANCH  11  12
ENDBRANCH   1  11
BRANCH   7  36
HETATM   36  C19 UNL     1      38.014  56.114 134.807  1.00  0.00     0.133 A 
HETATM   37  C20 UNL     1      37.069  55.410 135.547  1.00  0.00     0.077 A 
HETATM   38  C21 UNL     1      36.388  54.575 134.703  1.00  0.00     0.037 A 
HETATM   39  N8  UNL     1      36.915  54.774 133.483  1.00  0.00    -0.295 N 
HETATM   40  N9  UNL     1      37.884  55.690 133.539  1.00  0.00    -0.240 N 
ATOM     41  H8  UNL     1      36.616  54.294 132.634  1.00  0.00     0.187 HD
BRANCH  38  42
HETATM   42  C22 UNL     1      35.281  53.617 135.033  1.00  0.00    -0.007 C 
HETATM   43  C23 UNL     1      34.418  54.201 136.114  1.00  0.00     0.021 C 
HETATM   44  C24 UNL     1      35.833  52.276 135.450  1.00  0.00     0.021 C 
HETATM   45  C25 UNL     1      34.463  53.392 133.776  1.00  0.00     0.021 C 
ENDBRANCH  38  42
BRANCH  40  46
HETATM   46  C26 UNL     1      38.623  56.132 132.409  1.00  0.00     0.058 A 
HETATM   47  C27 UNL     1      39.984  56.314 132.470  1.00  0.00     0.032 A 
HETATM   48  C28 UNL     1      40.701  56.727 131.367  1.00  0.00     0.009 A 
HETATM   49  C29 UNL     1      40.031  56.957 130.193  1.00  0.00    -0.062 A 
HETATM   50  C30 UNL     1      40.804  57.405 128.981  1.00  0.00     0.048 C 
HETATM   51  C31 UNL     1      38.677  56.782 130.118  1.00  0.00     0.009 A 
HETATM   52  C32 UNL     1      37.961  56.369 131.218  1.00  0.00     0.032 A 
ENDBRANCH  40  46
ENDBRANCH   7  36
TORSDOF 9
ENDMDL
