MODEL 1
REMARK VINA RESULT: -12.148250847      0.000      0.000
REMARK  9 active torsions:
REMARK  status: ('A' for Active; 'I' for Inactive)
REMARK    1  A    between atoms: C5_5  and  N1_6 
REMARK    2  A    between atoms: C6_9  and  C7_10 
REMARK    3  A    between atoms: C12_15  and  N3_16 
REMARK       I    between atoms: N3_16  and  C13_18 
REMARK       I    between atoms: C13_18  and  N4_20 
REMARK    4  A    between atoms: N4_20  and  C14_22 
REMARK    5  A    between atoms: C14_22  and  C15_23 
REMARK    6  A    between atoms: C15_23  and  N5_24 
REMARK       I    between atoms: N6_27  and  C18_28 
REMARK       I    between atoms: C18_28  and  N7_30 
REMARK    7  A    between atoms: N7_30  and  C19_32 
REMARK    8  A    between atoms: C21_34  and  C22_35 
REMARK    9  A    between atoms: N9_41  and  C26_42 
ROOT
HETATM    1  N5  UNL     1      38.381  59.011 142.782  1.00  0.00     0.093 N 
HETATM    2  C16 UNL     1      39.250  57.856 142.954  1.00  0.00     0.292 C 
HETATM    3  C17 UNL     1      39.394  57.222 141.596  1.00  0.00     0.158 C 
HETATM    4  N6  UNL     1      38.245  57.304 140.749  1.00  0.00    -0.331 N 
HETATM    5  C18 UNL     1      38.372  56.745 139.453  1.00  0.00     0.324 C 
HETATM    6  O2  UNL     1      37.398  56.764 138.682  1.00  0.00    -0.247 OA
HETATM    7  N7  UNL     1      39.582  56.156 139.001  1.00  0.00    -0.293 N 
ATOM      8  H7  UNL     1      40.369  56.171 139.650  1.00  0.00     0.172 HD
HETATM    9  C33 UNL     1      37.032  57.926 141.152  1.00  0.00     0.158 C 
HETATM   10  C34 UNL     1      37.060  58.543 142.541  1.00  0.00     0.292 C 
ENDROOT
BRANCH   1  11
HETATM   11  C15 UNL     1      38.500  59.951 143.840  1.00  0.00     0.292 C 
BRANCH  11  12
HETATM   12  C14 UNL     1      39.802  59.766 144.579  1.00  0.00     0.154 C 
BRANCH  12  13
HETATM   13  N4  UNL     1      39.651  59.550 145.968  1.00  0.00    -0.341 N 
HETATM   14  C13 UNL     1      39.746  58.319 146.657  1.00  0.00     0.321 C 
HETATM   15  N3  UNL     1      39.546  58.223 148.052  1.00  0.00    -0.293 N 
HETATM   16  O1  UNL     1      40.006  57.308 146.022  1.00  0.00    -0.247 OA
ATOM     17  H3  UNL     1      39.305  59.105 148.505  1.00  0.00     0.172 HD
ATOM     18  H4  UNL     1      39.452  60.373 146.536  1.00  0.00     0.164 HD
BRANCH  15  19
HETATM   19  C12 UNL     1      39.622  57.133 148.917  1.00  0.00     0.133 A 
HETATM   20  N1  UNL     1      38.753  56.513 149.666  1.00  0.00    -0.240 N 
HETATM   21  N2  UNL     1      39.399  55.566 150.394  1.00  0.00    -0.295 N 
HETATM   22  C6  UNL     1      40.680  55.576 150.110  1.00  0.00     0.037 A 
ATOM     23  H2  UNL     1      38.954  54.938 151.063  1.00  0.00     0.187 HD
HETATM   24  C11 UNL     1      40.893  56.553 149.175  1.00  0.00     0.077 A 
BRANCH  20  25
HETATM   25  C5  UNL     1      37.355  56.644 149.768  1.00  0.00     0.058 A 
HETATM   26  C4  UNL     1      36.559  56.563 148.604  1.00  0.00     0.032 A 
HETATM   27  C3  UNL     1      35.191  56.625 148.675  1.00  0.00     0.009 A 
HETATM   28  C2  UNL     1      34.515  56.770 149.870  1.00  0.00    -0.062 A 
HETATM   29  C1  UNL     1      33.014  56.826 149.906  1.00  0.00     0.048 C 
HETATM   30  C36 UNL     1      35.269  56.852 151.013  1.00  0.00     0.009 A 
HETATM   31  C35 UNL     1      36.664  56.789 150.951  1.00  0.00     0.032 A 
ENDBRANCH  20  25
BRANCH  22  32
HETATM   32  C7  UNL     1      41.775  54.715 150.667  1.00  0.00    -0.007 C 
HETATM   33  C8  UNL     1      42.718  54.340 149.531  1.00  0.00     0.021 C 
HETATM   34  C9  UNL     1      41.239  53.435 151.233  1.00  0.00     0.021 C 
HETATM   35  C10 UNL     1      42.561  55.444 151.724  1.00  0.00     0.021 C 
ENDBRANCH  22  32
ENDBRANCH  15  19
ENDBRANCH  12  13
ENDBRANCH  11  12
ENDBRANCH   1  11
BRANCH   7  36
HETATM   36  C19 UNL     1      39.807  55.553 137.752  1.00  0.00     0.133 A 
HETATM   37  C20 UNL     1      39.501  54.249 137.373  1.00  0.00     0.077 A 
HETATM   38  C21 UNL     1      39.874  54.077 136.067  1.00  0.00     0.037 A 
HETATM   39  N8  UNL     1      40.391  55.252 135.672  1.00  0.00    -0.295 N 
HETATM   40  N9  UNL     1      40.355  56.135 136.673  1.00  0.00    -0.240 N 
ATOM     41  H8  UNL     1      40.760  55.443 134.741  1.00  0.00     0.187 HD
BRANCH  38  42
HETATM   42  C22 UNL     1      39.749  52.846 135.218  1.00  0.00    -0.007 C 
HETATM   43  C23 UNL     1      38.636  51.984 135.742  1.00  0.00     0.021 C 
HETATM   44  C24 UNL     1      41.050  52.081 135.181  1.00  0.00     0.021 C 
HETATM   45  C25 UNL     1      39.447  53.282 133.797  1.00  0.00     0.021 C 
ENDBRANCH  38  42
BRANCH  40  46
HETATM   46  C26 UNL     1      40.814  57.475 136.564  1.00  0.00     0.058 A 
HETATM   47  C27 UNL     1      40.297  58.335 135.625  1.00  0.00     0.032 A 
HETATM   48  C28 UNL     1      40.733  59.640 135.533  1.00  0.00     0.009 A 
HETATM   49  C29 UNL     1      41.701  60.075 136.402  1.00  0.00    -0.062 A 
HETATM   50  C30 UNL     1      42.182  61.499 136.313  1.00  0.00     0.048 C 
HETATM   51  C31 UNL     1      42.225  59.231 137.340  1.00  0.00     0.009 A 
HETATM   52  C32 UNL     1      41.790  57.929 137.433  1.00  0.00     0.032 A 
ENDBRANCH  40  46
ENDBRANCH   7  36
TORSDOF 9
ENDMDL
