MODEL 13
REMARK VINA RESULT: -9.237533130      4.922     12.108
REMARK  9 active torsions:
REMARK  status: ('A' for Active; 'I' for Inactive)
REMARK    1  A    between atoms: C5_5  and  N1_6 
REMARK    2  A    between atoms: C6_9  and  C7_10 
REMARK    3  A    between atoms: C12_15  and  N3_16 
REMARK       I    between atoms: N3_16  and  C13_18 
REMARK       I    between atoms: C13_18  and  N4_20 
REMARK    4  A    between atoms: N4_20  and  C14_22 
REMARK    5  A    between atoms: C14_22  and  C15_23 
REMARK    6  A    between atoms: C15_23  and  N5_24 
REMARK       I    between atoms: N6_27  and  C18_28 
REMARK       I    between atoms: C18_28  and  N7_30 
REMARK    7  A    between atoms: N7_30  and  C19_32 
REMARK    8  A    between atoms: C21_34  and  C22_35 
REMARK    9  A    between atoms: N9_41  and  C26_42 
ROOT
HETATM    1  N5  UNL     1      38.136  53.991 135.787  1.00  0.00     0.093 N 
HETATM    2  C16 UNL     1      37.016  54.587 136.500  1.00  0.00     0.292 C 
HETATM    3  C17 UNL     1      37.607  55.453 137.581  1.00  0.00     0.158 C 
HETATM    4  N6  UNL     1      38.828  54.978 138.155  1.00  0.00    -0.331 N 
HETATM    5  C18 UNL     1      39.420  55.796 139.150  1.00  0.00     0.324 C 
HETATM    6  O2  UNL     1      40.468  55.423 139.703  1.00  0.00    -0.247 OA
HETATM    7  N7  UNL     1      38.853  57.038 139.541  1.00  0.00    -0.293 N 
ATOM      8  H7  UNL     1      38.003  57.326 139.056  1.00  0.00     0.172 HD
HETATM    9  C33 UNL     1      39.447  53.763 137.757  1.00  0.00     0.158 C 
HETATM   10  C34 UNL     1      38.739  53.021 136.634  1.00  0.00     0.292 C 
ENDROOT
BRANCH   1  11
HETATM   11  C15 UNL     1      37.777  53.519 134.496  1.00  0.00     0.292 C 
BRANCH  11  12
HETATM   12  C14 UNL     1      36.294  53.257 134.413  1.00  0.00     0.154 C 
BRANCH  12  13
HETATM   13  N4  UNL     1      35.952  51.886 134.346  1.00  0.00    -0.341 N 
HETATM   14  C13 UNL     1      35.343  51.106 135.354  1.00  0.00     0.321 C 
HETATM   15  N3  UNL     1      35.076  49.731 135.180  1.00  0.00    -0.293 N 
HETATM   16  O1  UNL     1      35.044  51.642 136.411  1.00  0.00    -0.247 OA
ATOM     17  H3  UNL     1      35.382  49.352 134.283  1.00  0.00     0.172 HD
ATOM     18  H4  UNL     1      36.169  51.408 133.472  1.00  0.00     0.164 HD
BRANCH  15  19
HETATM   19  C12 UNL     1      34.466  48.800 136.019  1.00  0.00     0.133 A 
HETATM   20  N1  UNL     1      34.900  47.772 136.695  1.00  0.00    -0.240 N 
HETATM   21  N2  UNL     1      33.841  47.148 137.272  1.00  0.00    -0.295 N 
HETATM   22  C6  UNL     1      32.730  47.776 136.970  1.00  0.00     0.037 A 
ATOM     23  H2  UNL     1      33.901  46.313 137.854  1.00  0.00     0.187 HD
HETATM   24  C11 UNL     1      33.054  48.841 136.173  1.00  0.00     0.077 A 
BRANCH  20  25
HETATM   25  C5  UNL     1      36.206  47.301 136.930  1.00  0.00     0.058 A 
HETATM   26  C4  UNL     1      36.396  46.018 137.489  1.00  0.00     0.032 A 
HETATM   27  C3  UNL     1      37.655  45.504 137.673  1.00  0.00     0.009 A 
HETATM   28  C2  UNL     1      38.797  46.199 137.331  1.00  0.00    -0.062 A 
HETATM   29  C1  UNL     1      40.158  45.597 137.542  1.00  0.00     0.048 C 
HETATM   30  C36 UNL     1      38.635  47.448 136.787  1.00  0.00     0.009 A 
HETATM   31  C35 UNL     1      37.357  47.979 136.595  1.00  0.00     0.032 A 
ENDBRANCH  20  25
BRANCH  22  32
HETATM   32  C7  UNL     1      31.322  47.450 137.377  1.00  0.00    -0.007 C 
HETATM   33  C8  UNL     1      30.768  46.416 136.406  1.00  0.00     0.021 C 
HETATM   34  C9  UNL     1      30.430  48.651 137.296  1.00  0.00     0.021 C 
HETATM   35  C10 UNL     1      31.275  46.878 138.769  1.00  0.00     0.021 C 
ENDBRANCH  22  32
ENDBRANCH  15  19
ENDBRANCH  12  13
ENDBRANCH  11  12
ENDBRANCH   1  11
BRANCH   7  36
HETATM   36  C19 UNL     1      39.342  57.910 140.528  1.00  0.00     0.133 A 
HETATM   37  C20 UNL     1      39.137  57.833 141.903  1.00  0.00     0.077 A 
HETATM   38  C21 UNL     1      39.800  58.872 142.500  1.00  0.00     0.037 A 
HETATM   39  N8  UNL     1      40.390  59.555 141.504  1.00  0.00    -0.295 N 
HETATM   40  N9  UNL     1      40.119  58.986 140.327  1.00  0.00    -0.240 N 
ATOM     41  H8  UNL     1      40.962  60.389 141.629  1.00  0.00     0.187 HD
BRANCH  38  42
HETATM   42  C22 UNL     1      39.875  59.213 143.959  1.00  0.00    -0.007 C 
HETATM   43  C23 UNL     1      41.020  60.155 144.197  1.00  0.00     0.021 C 
HETATM   44  C24 UNL     1      40.021  57.966 144.798  1.00  0.00     0.021 C 
HETATM   45  C25 UNL     1      38.567  59.869 144.358  1.00  0.00     0.021 C 
ENDBRANCH  38  42
BRANCH  40  46
HETATM   46  C26 UNL     1      40.613  59.465 139.084  1.00  0.00     0.058 A 
HETATM   47  C27 UNL     1      40.049  59.076 137.892  1.00  0.00     0.032 A 
HETATM   48  C28 UNL     1      40.519  59.555 136.688  1.00  0.00     0.009 A 
HETATM   49  C29 UNL     1      41.569  60.436 136.693  1.00  0.00    -0.062 A 
HETATM   50  C30 UNL     1      42.089  60.969 135.385  1.00  0.00     0.048 C 
HETATM   51  C31 UNL     1      42.141  60.831 137.871  1.00  0.00     0.009 A 
HETATM   52  C32 UNL     1      41.672  60.354 139.073  1.00  0.00     0.032 A 
ENDBRANCH  40  46
ENDBRANCH   7  36
TORSDOF 9
ENDMDL
