MODEL 6
REMARK VINA RESULT: -9.268748396      3.439      9.508
REMARK  11 active torsions:
REMARK  status: ('A' for Active; 'I' for Inactive)
REMARK    1  A    between atoms: C8_18  and  C9_19 
REMARK       I    between atoms: C9_19  and  N6_21 
REMARK    2  A    between atoms: N6_21  and  C10_23 
REMARK    3  A    between atoms: C10_23  and  C11_24 
REMARK       I    between atoms: C11_24  and  N7_26 
REMARK    4  A    between atoms: N7_26  and  C12_28 
REMARK    5  A    between atoms: C12_28  and  C13_29 
REMARK    6  A    between atoms: C13_29  and  S1_30 
REMARK    7  A    between atoms: S1_30  and  C14_33 
REMARK    8  A    between atoms: C14_33  and  C15_34 
REMARK    9  A    between atoms: C16_36  and  N8_37 
REMARK   10  A    between atoms: C22_50  and  O7_51 
REMARK   11  A    between atoms: C23_53  and  O8_54 
ROOT
HETATM    1  C12 UNL     1       4.756  21.127  11.275  1.00  0.00     0.137 C 
ENDROOT
BRANCH   1   2
HETATM    2  N7  UNL     1       4.828  19.764  11.768  1.00  0.00    -0.359 N 
HETATM    3  C11 UNL     1       5.384  19.457  13.013  1.00  0.00     0.235 C 
HETATM    4  O3  UNL     1       5.827  20.466  13.677  1.00  0.00    -0.272 OA
ATOM      5  H7  UNL     1       4.461  19.008  11.190  1.00  0.00     0.162 HD
BRANCH   3   6
HETATM    6  C10 UNL     1       5.508  18.126  13.621  1.00  0.00     0.225 C 
BRANCH   6   7
HETATM    7  N6  UNL     1       4.337  17.329  13.382  1.00  0.00    -0.347 N 
HETATM    8  C9  UNL     1       4.386  15.891  13.553  1.00  0.00     0.266 C 
HETATM    9  O2  UNL     1       5.461  15.364  13.911  1.00  0.00    -0.266 OA
ATOM     10  H6  UNL     1       3.468  17.776  13.091  1.00  0.00     0.163 HD
BRANCH   8  11
HETATM   11  C8  UNL     1       3.174  15.124  13.299  1.00  0.00     0.102 C 
HETATM   12  C2  UNL     1       3.129  14.186  12.139  1.00  0.00     0.072 C 
HETATM   13  C1  UNL     1       3.943  12.940  12.516  1.00  0.00     0.045 C 
HETATM   14  C3  UNL     1       3.832  14.841  10.986  1.00  0.00     0.045 C 
HETATM   15  N1  UNL     1       1.820  13.719  11.812  1.00  0.00    -0.363 N 
HETATM   16  C4  UNL     1       0.782  13.839  12.559  1.00  0.00     0.113 C 
ATOM     17  H1  UNL     1       1.700  13.253  10.913  1.00  0.00     0.162 HD
HETATM   18  N2  UNL     1      -0.475  13.341  12.143  1.00  0.00    -0.318 N 
HETATM   19  C7  UNL     1       0.899  14.502  13.860  1.00  0.00     0.243 C 
HETATM   20  C5  UNL     1      -1.598  13.769  12.620  1.00  0.00     0.196 C 
ATOM     21  H2  UNL     1      -0.496  12.610  11.433  1.00  0.00     0.169 HD
HETATM   22  N3  UNL     1      -2.847  13.233  12.166  1.00  0.00    -0.063 NA
HETATM   23  N4  UNL     1      -1.549  14.791  13.609  1.00  0.00    -0.299 N 
HETATM   24  C6  UNL     1      -0.312  15.325  14.060  1.00  0.00     0.254 C 
ATOM     25  H4  UNL     1      -2.420  15.147  14.002  1.00  0.00     0.171 HD
HETATM   26  O1  UNL     1      -0.279  16.458  14.607  1.00  0.00    -0.270 OA
HETATM   27  N5  UNL     1       2.128  15.214  14.034  1.00  0.00    -0.367 N 
ATOM     28  H5  UNL     1       2.176  15.859  14.823  1.00  0.00     0.161 HD
ENDBRANCH   8  11
ENDBRANCH   6   7
ENDBRANCH   3   6
ENDBRANCH   1   2
BRANCH   1  29
HETATM   29  C13 UNL     1       3.579  21.357  10.359  1.00  0.00     0.160 C 
BRANCH  29  30
HETATM   30  S1  UNL     1       2.669  22.754  10.980  1.00  0.00     0.148 S 
HETATM   31  O4  UNL     1       1.224  22.348  11.083  1.00  0.00    -0.228 OA
HETATM   32  O5  UNL     1       3.161  23.065  12.343  1.00  0.00    -0.228 OA
BRANCH  30  33
HETATM   33  C14 UNL     1       2.765  24.131   9.870  1.00  0.00     0.175 C 
BRANCH  33  34
HETATM   34  C15 UNL     1       4.002  24.952  10.084  1.00  0.00     0.169 C 
HETATM   35  O6  UNL     1       5.104  24.151   9.784  1.00  0.00    -0.355 OA
HETATM   36  C16 UNL     1       6.121  25.065   9.521  1.00  0.00     0.262 C 
HETATM   37  C22 UNL     1       5.440  25.999   8.533  1.00  0.00     0.198 C 
HETATM   38  C23 UNL     1       4.069  26.140   9.153  1.00  0.00     0.181 C 
BRANCH  36  39
HETATM   39  N8  UNL     1       7.279  24.434   8.976  1.00  0.00    -0.297 N 
HETATM   40  C17 UNL     1       8.506  24.966   8.902  1.00  0.00     0.188 A 
HETATM   41  N9  UNL     1       9.354  24.077   8.323  1.00  0.00    -0.346 N 
HETATM   42  C18 UNL     1       8.673  22.956   8.017  1.00  0.00     0.119 A 
ATOM     43  H9  UNL     1      10.347  24.232   8.148  1.00  0.00     0.167 HD
HETATM   44  C19 UNL     1       9.018  21.762   7.433  1.00  0.00     0.148 A 
HETATM   45  C21 UNL     1       7.364  23.205   8.440  1.00  0.00     0.142 A 
HETATM   46  N10 UNL     1      10.345  21.534   7.016  1.00  0.00    -0.080 NA
HETATM   47  N11 UNL     1       8.076  20.826   7.268  1.00  0.00    -0.339 N 
HETATM   48  C20 UNL     1       6.797  21.049   7.671  1.00  0.00     0.183 A 
ATOM     49  H11 UNL     1       8.321  19.936   6.834  1.00  0.00     0.167 HD
HETATM   50  N12 UNL     1       6.479  22.220   8.240  1.00  0.00    -0.336 N 
ATOM     51  H12 UNL     1       5.513  22.368   8.535  1.00  0.00     0.168 HD
ENDBRANCH  36  39
BRANCH  37  52
HETATM   52  O7  UNL     1       6.146  27.181   8.500  1.00  0.00    -0.388 OA
ATOM     53  H7  UNL     1       5.532  27.890   8.348  1.00  0.00     0.210 HD
ENDBRANCH  37  52
BRANCH  38  54
HETATM   54  O8  UNL     1       3.932  27.315   9.878  1.00  0.00    -0.390 OA
ATOM     55  H8  UNL     1       4.111  28.061   9.318  1.00  0.00     0.210 HD
ENDBRANCH  38  54
ENDBRANCH  33  34
ENDBRANCH  30  33
ENDBRANCH  29  30
ENDBRANCH   1  29
TORSDOF 11
ENDMDL
