MODEL 7
REMARK VINA RESULT: -9.223016415      3.201      4.477
REMARK  11 active torsions:
REMARK  status: ('A' for Active; 'I' for Inactive)
REMARK    1  A    between atoms: C8_18  and  C9_19 
REMARK       I    between atoms: C9_19  and  N6_21 
REMARK    2  A    between atoms: N6_21  and  C10_23 
REMARK    3  A    between atoms: C10_23  and  C11_24 
REMARK       I    between atoms: C11_24  and  N7_26 
REMARK    4  A    between atoms: N7_26  and  C12_28 
REMARK    5  A    between atoms: C12_28  and  C13_29 
REMARK    6  A    between atoms: C13_29  and  S1_30 
REMARK    7  A    between atoms: S1_30  and  C14_33 
REMARK    8  A    between atoms: C14_33  and  C15_34 
REMARK    9  A    between atoms: C16_36  and  N8_37 
REMARK   10  A    between atoms: C22_50  and  O7_51 
REMARK   11  A    between atoms: C23_53  and  O8_54 
ROOT
HETATM    1  C12 UNL     1       3.485  19.304  11.583  1.00  0.00     0.137 C 
ENDROOT
BRANCH   1   2
HETATM    2  N7  UNL     1       3.070  20.693  11.653  1.00  0.00    -0.359 N 
HETATM    3  C11 UNL     1       2.948  21.487  10.510  1.00  0.00     0.235 C 
HETATM    4  O3  UNL     1       3.234  20.896   9.402  1.00  0.00    -0.272 OA
ATOM      5  H7  UNL     1       2.862  21.102  12.564  1.00  0.00     0.162 HD
BRANCH   3   6
HETATM    6  C10 UNL     1       2.535  22.895  10.451  1.00  0.00     0.225 C 
BRANCH   6   7
HETATM    7  N6  UNL     1       3.405  23.661   9.602  1.00  0.00    -0.347 N 
HETATM    8  C9  UNL     1       3.945  24.924  10.063  1.00  0.00     0.266 C 
HETATM    9  O2  UNL     1       3.641  25.328  11.206  1.00  0.00    -0.266 OA
ATOM     10  H6  UNL     1       3.643  23.315   8.673  1.00  0.00     0.163 HD
BRANCH   8  11
HETATM   11  C8  UNL     1       4.823  25.667   9.168  1.00  0.00     0.102 C 
HETATM   12  C2  UNL     1       4.252  26.743   8.308  1.00  0.00     0.072 C 
HETATM   13  C1  UNL     1       3.987  27.963   9.202  1.00  0.00     0.045 C 
HETATM   14  C3  UNL     1       2.921  26.272   7.797  1.00  0.00     0.045 C 
HETATM   15  N1  UNL     1       5.127  27.194   7.273  1.00  0.00    -0.363 N 
HETATM   16  C4  UNL     1       6.383  26.935   7.199  1.00  0.00     0.113 C 
ATOM     17  H1  UNL     1       4.722  27.766   6.533  1.00  0.00     0.162 HD
HETATM   18  N2  UNL     1       7.166  27.430   6.131  1.00  0.00    -0.318 N 
HETATM   19  C7  UNL     1       7.015  26.116   8.236  1.00  0.00     0.243 C 
HETATM   20  C5  UNL     1       8.288  26.898   5.771  1.00  0.00     0.196 C 
ATOM     21  H2  UNL     1       6.829  28.245   5.619  1.00  0.00     0.169 HD
HETATM   22  N3  UNL     1       9.047  27.436   4.680  1.00  0.00    -0.063 NA
HETATM   23  N4  UNL     1       8.742  25.761   6.495  1.00  0.00    -0.299 N 
HETATM   24  C6  UNL     1       7.992  25.225   7.577  1.00  0.00     0.254 C 
ATOM     25  H4  UNL     1       9.624  25.321   6.232  1.00  0.00     0.171 HD
HETATM   26  O1  UNL     1       8.175  24.033   7.937  1.00  0.00    -0.270 OA
HETATM   27  N5  UNL     1       6.082  25.439   9.083  1.00  0.00    -0.367 N 
ATOM     28  H5  UNL     1       6.455  24.700   9.679  1.00  0.00     0.161 HD
ENDBRANCH   8  11
ENDBRANCH   6   7
ENDBRANCH   3   6
ENDBRANCH   1   2
BRANCH   1  29
HETATM   29  C13 UNL     1       2.446  18.354  12.126  1.00  0.00     0.160 C 
BRANCH  29  30
HETATM   30  S1  UNL     1       2.272  18.671  13.868  1.00  0.00     0.148 S 
HETATM   31  O4  UNL     1       1.386  19.877  14.026  1.00  0.00    -0.228 OA
HETATM   32  O5  UNL     1       1.592  17.511  14.490  1.00  0.00    -0.228 OA
BRANCH  30  33
HETATM   33  C14 UNL     1       3.834  19.049  14.613  1.00  0.00     0.175 C 
BRANCH  33  34
HETATM   34  C15 UNL     1       4.550  17.820  15.093  1.00  0.00     0.169 C 
HETATM   35  O6  UNL     1       4.385  16.825  14.129  1.00  0.00    -0.355 OA
HETATM   36  C16 UNL     1       5.432  15.942  14.375  1.00  0.00     0.262 C 
HETATM   37  C22 UNL     1       6.619  16.891  14.440  1.00  0.00     0.198 C 
HETATM   38  C23 UNL     1       6.038  18.041  15.230  1.00  0.00     0.181 C 
BRANCH  36  39
HETATM   39  N8  UNL     1       5.562  14.965  13.344  1.00  0.00    -0.297 N 
HETATM   40  C17 UNL     1       6.711  14.455  12.879  1.00  0.00     0.188 A 
HETATM   41  N9  UNL     1       6.446  13.553  11.899  1.00  0.00    -0.346 N 
HETATM   42  C18 UNL     1       5.113  13.475  11.723  1.00  0.00     0.119 A 
ATOM     43  H9  UNL     1       7.143  13.021  11.380  1.00  0.00     0.167 HD
HETATM   44  C19 UNL     1       4.305  12.744  10.889  1.00  0.00     0.148 A 
HETATM   45  C21 UNL     1       4.575  14.376  12.648  1.00  0.00     0.142 A 
HETATM   46  N10 UNL     1       4.869  11.841   9.965  1.00  0.00    -0.080 NA
HETATM   47  N11 UNL     1       2.978  12.904  10.967  1.00  0.00    -0.339 N 
HETATM   48  C20 UNL     1       2.436  13.776  11.858  1.00  0.00     0.183 A 
ATOM     49  H11 UNL     1       2.368  12.367  10.351  1.00  0.00     0.167 HD
HETATM   50  N12 UNL     1       3.240  14.481  12.666  1.00  0.00    -0.336 N 
ATOM     51  H12 UNL     1       2.814  15.130  13.327  1.00  0.00     0.168 HD
ENDBRANCH  36  39
BRANCH  37  52
HETATM   52  O7  UNL     1       7.650  16.251  15.089  1.00  0.00    -0.388 OA
ATOM     53  H7  UNL     1       7.442  15.325  15.137  1.00  0.00     0.210 HD
ENDBRANCH  37  52
BRANCH  38  54
HETATM   54  O8  UNL     1       6.399  18.001  16.569  1.00  0.00    -0.390 OA
ATOM     55  H8  UNL     1       5.620  17.959  17.111  1.00  0.00     0.210 HD
ENDBRANCH  38  54
ENDBRANCH  33  34
ENDBRANCH  30  33
ENDBRANCH  29  30
ENDBRANCH   1  29
TORSDOF 11
ENDMDL
