MODEL 1
REMARK VINA RESULT: -9.779146100      0.000      0.000
REMARK  11 active torsions:
REMARK  status: ('A' for Active; 'I' for Inactive)
REMARK    1  A    between atoms: C8_18  and  C9_19 
REMARK       I    between atoms: C9_19  and  N6_21 
REMARK    2  A    between atoms: N6_21  and  C10_23 
REMARK    3  A    between atoms: C10_23  and  C11_24 
REMARK       I    between atoms: C11_24  and  N7_26 
REMARK    4  A    between atoms: N7_26  and  C12_28 
REMARK    5  A    between atoms: C12_28  and  C13_29 
REMARK    6  A    between atoms: C13_29  and  S1_30 
REMARK    7  A    between atoms: S1_30  and  C14_33 
REMARK    8  A    between atoms: C14_33  and  C15_34 
REMARK    9  A    between atoms: C16_36  and  N8_37 
REMARK   10  A    between atoms: C22_50  and  O7_51 
REMARK   11  A    between atoms: C23_53  and  O8_54 
ROOT
HETATM    1  C12 UNL     1      -1.174  23.210  13.622  1.00  0.00     0.137 C 
ENDROOT
BRANCH   1   2
HETATM    2  N7  UNL     1      -0.589  24.208  12.746  1.00  0.00    -0.359 N 
HETATM    3  C11 UNL     1      -0.243  23.919  11.423  1.00  0.00     0.235 C 
HETATM    4  O3  UNL     1      -0.477  22.710  11.049  1.00  0.00    -0.272 OA
ATOM      5  H7  UNL     1      -0.425  25.148  13.106  1.00  0.00     0.162 HD
BRANCH   3   6
HETATM    6  C10 UNL     1       0.347  24.839  10.442  1.00  0.00     0.225 C 
BRANCH   6   7
HETATM    7  N6  UNL     1       1.780  24.739  10.425  1.00  0.00    -0.347 N 
HETATM    8  C9  UNL     1       2.506  24.881   9.179  1.00  0.00     0.266 C 
HETATM    9  O2  UNL     1       1.863  25.093   8.129  1.00  0.00    -0.266 OA
ATOM     10  H6  UNL     1       2.288  24.566  11.293  1.00  0.00     0.163 HD
BRANCH   8  11
HETATM   11  C8  UNL     1       3.958  24.771   9.211  1.00  0.00     0.102 C 
HETATM   12  C2  UNL     1       4.791  25.969   8.895  1.00  0.00     0.072 C 
HETATM   13  C1  UNL     1       4.748  26.901  10.114  1.00  0.00     0.045 C 
HETATM   14  C3  UNL     1       4.141  26.698   7.756  1.00  0.00     0.045 C 
HETATM   15  N1  UNL     1       6.170  25.680   8.667  1.00  0.00    -0.363 N 
HETATM   16  C4  UNL     1       6.754  24.571   8.950  1.00  0.00     0.113 C 
ATOM     17  H1  UNL     1       6.739  26.413   8.244  1.00  0.00     0.162 HD
HETATM   18  N2  UNL     1       8.130  24.383   8.684  1.00  0.00    -0.318 N 
HETATM   19  C7  UNL     1       5.983  23.483   9.558  1.00  0.00     0.243 C 
HETATM   20  C5  UNL     1       8.672  23.216   8.556  1.00  0.00     0.196 C 
ATOM     21  H2  UNL     1       8.722  25.207   8.589  1.00  0.00     0.169 HD
HETATM   22  N3  UNL     1      10.073  23.077   8.286  1.00  0.00    -0.063 NA
HETATM   23  N4  UNL     1       7.830  22.078   8.691  1.00  0.00    -0.299 N 
HETATM   24  C6  UNL     1       6.441  22.213   8.959  1.00  0.00     0.254 C 
ATOM     25  H4  UNL     1       8.232  21.145   8.595  1.00  0.00     0.171 HD
HETATM   26  O1  UNL     1       5.654  21.269   8.685  1.00  0.00    -0.270 OA
HETATM   27  N5  UNL     1       4.567  23.681   9.503  1.00  0.00    -0.367 N 
ATOM     28  H5  UNL     1       3.982  22.873   9.717  1.00  0.00     0.161 HD
ENDBRANCH   8  11
ENDBRANCH   6   7
ENDBRANCH   3   6
ENDBRANCH   1   2
BRANCH   1  29
HETATM   29  C13 UNL     1      -0.544  23.193  14.993  1.00  0.00     0.160 C 
BRANCH  29  30
HETATM   30  S1  UNL     1       1.130  22.617  14.818  1.00  0.00     0.148 S 
HETATM   31  O4  UNL     1       1.953  23.760  14.288  1.00  0.00    -0.228 OA
HETATM   32  O5  UNL     1       1.645  22.258  16.160  1.00  0.00    -0.228 OA
BRANCH  30  33
HETATM   33  C14 UNL     1       1.236  21.290  13.649  1.00  0.00     0.175 C 
BRANCH  33  34
HETATM   34  C15 UNL     1       2.518  21.316  12.870  1.00  0.00     0.169 C 
HETATM   35  O6  UNL     1       3.470  20.592  13.587  1.00  0.00    -0.355 OA
HETATM   36  C16 UNL     1       4.418  20.242  12.630  1.00  0.00     0.262 C 
HETATM   37  C22 UNL     1       3.539  19.660  11.533  1.00  0.00     0.198 C 
HETATM   38  C23 UNL     1       2.385  20.636  11.527  1.00  0.00     0.181 C 
BRANCH  36  39
HETATM   39  N8  UNL     1       5.366  19.304  13.134  1.00  0.00    -0.297 N 
HETATM   40  C17 UNL     1       6.698  19.386  13.016  1.00  0.00     0.188 A 
HETATM   41  N9  UNL     1       7.277  18.315  13.618  1.00  0.00    -0.346 N 
HETATM   42  C18 UNL     1       6.313  17.526  14.131  1.00  0.00     0.119 A 
ATOM     43  H9  UNL     1       8.279  18.135  13.672  1.00  0.00     0.167 HD
HETATM   44  C19 UNL     1       6.322  16.343  14.828  1.00  0.00     0.148 A 
HETATM   45  C21 UNL     1       5.114  18.172  13.814  1.00  0.00     0.142 A 
HETATM   46  N10 UNL     1       7.543  15.711  15.137  1.00  0.00    -0.080 NA
HETATM   47  N11 UNL     1       5.157  15.805  15.204  1.00  0.00    -0.339 N 
HETATM   48  C20 UNL     1       3.980  16.416  14.905  1.00  0.00     0.183 A 
ATOM     49  H11 UNL     1       5.151  14.926  15.722  1.00  0.00     0.167 HD
HETATM   50  N12 UNL     1       3.990  17.571  14.225  1.00  0.00    -0.336 N 
ATOM     51  H12 UNL     1       3.097  18.014  14.009  1.00  0.00     0.168 HD
ENDBRANCH  36  39
BRANCH  37  52
HETATM   52  O7  UNL     1       4.257  19.659  10.359  1.00  0.00    -0.388 OA
ATOM     53  H7  UNL     1       4.000  18.897   9.853  1.00  0.00     0.210 HD
ENDBRANCH  37  52
BRANCH  38  54
HETATM   54  O8  UNL     1       2.489  21.575  10.511  1.00  0.00    -0.390 OA
ATOM     55  H8  UNL     1       1.643  21.698  10.099  1.00  0.00     0.210 HD
ENDBRANCH  38  54
ENDBRANCH  33  34
ENDBRANCH  30  33
ENDBRANCH  29  30
ENDBRANCH   1  29
TORSDOF 11
ENDMDL
