MODEL 8
REMARK VINA RESULT: -9.203173226      2.436      7.787
REMARK  11 active torsions:
REMARK  status: ('A' for Active; 'I' for Inactive)
REMARK    1  A    between atoms: C8_18  and  C9_19 
REMARK       I    between atoms: C9_19  and  N6_21 
REMARK    2  A    between atoms: N6_21  and  C10_23 
REMARK    3  A    between atoms: C10_23  and  C11_24 
REMARK       I    between atoms: C11_24  and  N7_26 
REMARK    4  A    between atoms: N7_26  and  C12_28 
REMARK    5  A    between atoms: C12_28  and  C13_29 
REMARK    6  A    between atoms: C13_29  and  S1_30 
REMARK    7  A    between atoms: S1_30  and  C14_33 
REMARK    8  A    between atoms: C14_33  and  C15_34 
REMARK    9  A    between atoms: C16_36  and  N8_37 
REMARK   10  A    between atoms: C22_50  and  O7_51 
REMARK   11  A    between atoms: C23_53  and  O8_54 
ROOT
HETATM    1  C12 UNL     1       0.645  23.664  13.424  1.00  0.00     0.137 C 
ENDROOT
BRANCH   1   2
HETATM    2  N7  UNL     1       1.309  22.521  14.022  1.00  0.00    -0.359 N 
HETATM    3  C11 UNL     1       2.091  22.639  15.174  1.00  0.00     0.235 C 
HETATM    4  O3  UNL     1       2.179  23.830  15.654  1.00  0.00    -0.272 OA
ATOM      5  H7  UNL     1       1.202  21.604  13.588  1.00  0.00     0.162 HD
BRANCH   3   6
HETATM    6  C10 UNL     1       2.805  21.562  15.872  1.00  0.00     0.225 C 
BRANCH   6   7
HETATM    7  N6  UNL     1       2.745  20.330  15.135  1.00  0.00    -0.347 N 
HETATM    8  C9  UNL     1       3.877  19.902  14.337  1.00  0.00     0.266 C 
HETATM    9  O2  UNL     1       4.897  20.622  14.306  1.00  0.00    -0.266 OA
ATOM     10  H6  UNL     1       1.904  19.755  15.173  1.00  0.00     0.163 HD
BRANCH   8  11
HETATM   11  C8  UNL     1       3.770  18.646  13.607  1.00  0.00     0.102 C 
HETATM   12  C2  UNL     1       2.922  18.580  12.382  1.00  0.00     0.072 C 
HETATM   13  C1  UNL     1       3.687  19.276  11.247  1.00  0.00     0.045 C 
HETATM   14  C3  UNL     1       1.679  19.383  12.634  1.00  0.00     0.045 C 
HETATM   15  N1  UNL     1       2.655  17.254  11.924  1.00  0.00    -0.363 N 
HETATM   16  C4  UNL     1       3.268  16.196  12.317  1.00  0.00     0.113 C 
ATOM     17  H1  UNL     1       1.918  17.138  11.229  1.00  0.00     0.162 HD
HETATM   18  N2  UNL     1       2.928  14.924  11.801  1.00  0.00    -0.318 N 
HETATM   19  C7  UNL     1       4.334  16.306  13.316  1.00  0.00     0.243 C 
HETATM   20  C5  UNL     1       3.190  13.818  12.417  1.00  0.00     0.196 C 
ATOM     21  H2  UNL     1       2.453  14.877  10.900  1.00  0.00     0.169 HD
HETATM   22  N3  UNL     1       2.825  12.552  11.853  1.00  0.00    -0.063 NA
HETATM   23  N4  UNL     1       3.852  13.902  13.673  1.00  0.00    -0.299 N 
HETATM   24  C6  UNL     1       4.214  15.156  14.236  1.00  0.00     0.254 C 
ATOM     25  H4  UNL     1       4.071  13.045  14.181  1.00  0.00     0.171 HD
HETATM   26  O1  UNL     1       4.420  15.253  15.473  1.00  0.00    -0.270 OA
HETATM   27  N5  UNL     1       4.380  17.578  13.969  1.00  0.00    -0.367 N 
ATOM     28  H5  UNL     1       4.957  17.642  14.809  1.00  0.00     0.161 HD
ENDBRANCH   8  11
ENDBRANCH   6   7
ENDBRANCH   3   6
ENDBRANCH   1   2
BRANCH   1  29
HETATM   29  C13 UNL     1       1.532  24.424  12.469  1.00  0.00     0.160 C 
BRANCH  29  30
HETATM   30  S1  UNL     1       2.200  23.261  11.301  1.00  0.00     0.148 S 
HETATM   31  O4  UNL     1       3.401  22.615  11.936  1.00  0.00    -0.228 OA
HETATM   32  O5  UNL     1       1.185  22.211  11.052  1.00  0.00    -0.228 OA
BRANCH  30  33
HETATM   33  C14 UNL     1       2.743  24.073   9.822  1.00  0.00     0.175 C 
BRANCH  33  34
HETATM   34  C15 UNL     1       3.971  24.907  10.047  1.00  0.00     0.169 C 
HETATM   35  O6  UNL     1       5.083  24.119   9.751  1.00  0.00    -0.355 OA
HETATM   36  C16 UNL     1       6.092  25.044   9.497  1.00  0.00     0.262 C 
HETATM   37  C22 UNL     1       5.407  25.974   8.508  1.00  0.00     0.198 C 
HETATM   38  C23 UNL     1       4.030  26.098   9.119  1.00  0.00     0.181 C 
BRANCH  36  39
HETATM   39  N8  UNL     1       7.259  24.427   8.958  1.00  0.00    -0.297 N 
HETATM   40  C17 UNL     1       8.481  24.974   8.888  1.00  0.00     0.188 A 
HETATM   41  N9  UNL     1       9.342  24.095   8.314  1.00  0.00    -0.346 N 
HETATM   42  C18 UNL     1       8.676  22.966   8.005  1.00  0.00     0.119 A 
ATOM     43  H9  UNL     1      10.333  24.263   8.143  1.00  0.00     0.167 HD
HETATM   44  C19 UNL     1       9.038  21.776   7.423  1.00  0.00     0.148 A 
HETATM   45  C21 UNL     1       7.362  23.199   8.422  1.00  0.00     0.142 A 
HETATM   46  N10 UNL     1      10.369  21.564   7.012  1.00  0.00    -0.080 NA
HETATM   47  N11 UNL     1       8.108  20.829   7.254  1.00  0.00    -0.339 N 
HETATM   48  C20 UNL     1       6.825  21.036   7.652  1.00  0.00     0.183 A 
ATOM     49  H11 UNL     1       8.366  19.942   6.822  1.00  0.00     0.167 HD
HETATM   50  N12 UNL     1       6.489  22.203   8.219  1.00  0.00    -0.336 N 
ATOM     51  H12 UNL     1       5.521  22.340   8.509  1.00  0.00     0.168 HD
ENDBRANCH  36  39
BRANCH  37  52
HETATM   52  O7  UNL     1       6.100  27.163   8.481  1.00  0.00    -0.388 OA
ATOM     53  H7  UNL     1       5.517  27.854   8.773  1.00  0.00     0.210 HD
ENDBRANCH  37  52
BRANCH  38  54
HETATM   54  O8  UNL     1       3.876  27.270   9.846  1.00  0.00    -0.390 OA
ATOM     55  H8  UNL     1       2.952  27.452   9.971  1.00  0.00     0.210 HD
ENDBRANCH  38  54
ENDBRANCH  33  34
ENDBRANCH  30  33
ENDBRANCH  29  30
ENDBRANCH   1  29
TORSDOF 11
ENDMDL
