MODEL 1
REMARK VINA RESULT: -6.446858991      0.000      0.000
REMARK  8 active torsions:
REMARK  status: ('A' for Active; 'I' for Inactive)
REMARK    1  A    between atoms: O1_2  and  C2_3 
REMARK    2  A    between atoms: C5_6  and  N1_7 
REMARK    3  A    between atoms: N1_7  and  C6_9 
REMARK    4  A    between atoms: N2_11  and  C7_13 
REMARK    5  A    between atoms: C7_13  and  C8_14 
REMARK    6  A    between atoms: C8_14  and  C9_15 
REMARK    7  A    between atoms: C9_15  and  N3_16 
REMARK    8  A    between atoms: C14_23  and  O2_24 
ROOT
HETATM    1  C6  UNL     1     -54.720  24.382 -31.430  1.00  0.00     0.151 C 
HETATM    2  S1  UNL     1     -55.308  25.535 -32.678  1.00  0.00    -0.013 SA
HETATM    3  N2  UNL     1     -53.464  24.137 -31.389  1.00  0.00    -0.370 N 
ATOM      4  H2  UNL     1     -53.091  23.483 -30.702  1.00  0.00     0.161 HD
ENDROOT
BRANCH   1   5
HETATM    5  N1  UNL     1     -55.617  23.768 -30.542  1.00  0.00    -0.336 N 
ATOM      6  H1  UNL     1     -56.251  23.048 -30.888  1.00  0.00     0.168 HD
BRANCH   5   7
HETATM    7  C5  UNL     1     -55.656  24.131 -29.179  1.00  0.00     0.036 A 
HETATM    8  C4  UNL     1     -54.696  23.781 -28.263  1.00  0.00     0.032 A 
HETATM    9  C3  UNL     1     -54.758  24.140 -26.918  1.00  0.00     0.042 A 
HETATM   10  C2  UNL     1     -55.810  24.878 -26.455  1.00  0.00     0.101 A 
HETATM   11  C14 UNL     1     -56.803  25.248 -27.373  1.00  0.00     0.103 A 
HETATM   12  C13 UNL     1     -56.729  24.888 -28.686  1.00  0.00     0.069 A 
BRANCH  10  13
HETATM   13  O1  UNL     1     -55.989  25.298 -25.152  1.00  0.00    -0.353 OA
HETATM   14  C1  UNL     1     -56.695  24.429 -24.255  1.00  0.00     0.210 C 
ENDBRANCH  10  13
BRANCH  11  15
HETATM   15  O2  UNL     1     -57.891  25.998 -26.949  1.00  0.00    -0.353 OA
HETATM   16  C15 UNL     1     -59.162  25.431 -26.918  1.00  0.00     0.210 C 
ENDBRANCH  11  15
ENDBRANCH   5   7
ENDBRANCH   1   5
BRANCH   3  17
HETATM   17  C7  UNL     1     -52.585  24.786 -32.314  1.00  0.00     0.123 C 
BRANCH  17  18
HETATM   18  C8  UNL     1     -51.124  24.569 -31.992  1.00  0.00     0.040 C 
BRANCH  18  19
HETATM   19  C9  UNL     1     -50.951  23.065 -31.844  1.00  0.00     0.130 C 
BRANCH  19  20
HETATM   20  N3  UNL     1     -49.828  22.754 -30.952  1.00  0.00    -0.352 N 
HETATM   21  C10 UNL     1     -48.862  21.883 -31.336  1.00  0.00     0.108 A 
HETATM   22  C11 UNL     1     -47.977  21.826 -30.275  1.00  0.00     0.106 A 
HETATM   23  N4  UNL     1     -48.439  22.639 -29.334  1.00  0.00    -0.361 N 
HETATM   24  C12 UNL     1     -49.573  23.219 -29.729  1.00  0.00     0.182 A 
ATOM     25  H4  UNL     1     -47.988  22.799 -28.433  1.00  0.00     0.166 HD
ENDBRANCH  19  20
ENDBRANCH  18  19
ENDBRANCH  17  18
ENDBRANCH   3  17
TORSDOF 8
ENDMDL
