MODEL 2
REMARK VINA RESULT: -6.332273849      1.853      2.333
REMARK  8 active torsions:
REMARK  status: ('A' for Active; 'I' for Inactive)
REMARK    1  A    between atoms: O1_2  and  C2_3 
REMARK    2  A    between atoms: C5_6  and  N1_7 
REMARK    3  A    between atoms: N1_7  and  C6_9 
REMARK    4  A    between atoms: N2_11  and  C7_13 
REMARK    5  A    between atoms: C7_13  and  C8_14 
REMARK    6  A    between atoms: C8_14  and  C9_15 
REMARK    7  A    between atoms: C9_15  and  N3_16 
REMARK    8  A    between atoms: C14_23  and  O2_24 
ROOT
HETATM    1  C6  UNL     1     -54.798  24.126 -32.000  1.00  0.00     0.151 C 
HETATM    2  S1  UNL     1     -54.615  22.682 -33.057  1.00  0.00    -0.013 SA
HETATM    3  N2  UNL     1     -53.836  24.970 -31.972  1.00  0.00    -0.370 N 
ATOM      4  H2  UNL     1     -53.897  25.797 -31.380  1.00  0.00     0.161 HD
ENDROOT
BRANCH   1   5
HETATM    5  N1  UNL     1     -55.955  24.307 -31.227  1.00  0.00    -0.336 N 
ATOM      6  H1  UNL     1     -56.749  24.811 -31.623  1.00  0.00     0.168 HD
BRANCH   5   7
HETATM    7  C5  UNL     1     -56.040  23.802 -29.913  1.00  0.00     0.036 A 
HETATM    8  C4  UNL     1     -57.013  22.934 -29.484  1.00  0.00     0.032 A 
HETATM    9  C3  UNL     1     -57.087  22.454 -28.178  1.00  0.00     0.042 A 
HETATM   10  C2  UNL     1     -56.161  22.845 -27.253  1.00  0.00     0.101 A 
HETATM   11  C14 UNL     1     -55.157  23.731 -27.668  1.00  0.00     0.103 A 
HETATM   12  C13 UNL     1     -55.099  24.193 -28.949  1.00  0.00     0.069 A 
BRANCH  10  13
HETATM   13  O1  UNL     1     -56.122  22.444 -25.933  1.00  0.00    -0.353 OA
HETATM   14  C1  UNL     1     -56.238  21.043 -25.651  1.00  0.00     0.210 C 
ENDBRANCH  10  13
BRANCH  11  15
HETATM   15  O2  UNL     1     -54.194  24.157 -26.764  1.00  0.00    -0.353 OA
HETATM   16  C15 UNL     1     -53.104  24.904 -27.201  1.00  0.00     0.210 C 
ENDBRANCH  11  15
ENDBRANCH   5   7
ENDBRANCH   1   5
BRANCH   3  17
HETATM   17  C7  UNL     1     -52.674  24.747 -32.778  1.00  0.00     0.123 C 
BRANCH  17  18
HETATM   18  C8  UNL     1     -51.404  24.632 -31.965  1.00  0.00     0.040 C 
BRANCH  18  19
HETATM   19  C9  UNL     1     -51.046  23.153 -31.964  1.00  0.00     0.130 C 
BRANCH  19  20
HETATM   20  N3  UNL     1     -49.967  22.878 -31.007  1.00  0.00    -0.352 N 
HETATM   21  C10 UNL     1     -48.980  22.000 -31.312  1.00  0.00     0.108 A 
HETATM   22  C11 UNL     1     -48.149  21.984 -30.207  1.00  0.00     0.106 A 
HETATM   23  N4  UNL     1     -48.661  22.826 -29.318  1.00  0.00    -0.361 N 
HETATM   24  C12 UNL     1     -49.777  23.386 -29.789  1.00  0.00     0.182 A 
ATOM     25  H4  UNL     1     -48.257  23.018 -28.401  1.00  0.00     0.166 HD
ENDBRANCH  19  20
ENDBRANCH  18  19
ENDBRANCH  17  18
ENDBRANCH   3  17
TORSDOF 8
ENDMDL
