MODEL 8
REMARK VINA RESULT: -6.089552465      6.643      8.496
REMARK  8 active torsions:
REMARK  status: ('A' for Active; 'I' for Inactive)
REMARK    1  A    between atoms: O1_2  and  C2_3 
REMARK    2  A    between atoms: C5_6  and  N1_7 
REMARK    3  A    between atoms: N1_7  and  C6_9 
REMARK    4  A    between atoms: N2_11  and  C7_13 
REMARK    5  A    between atoms: C7_13  and  C8_14 
REMARK    6  A    between atoms: C8_14  and  C9_15 
REMARK    7  A    between atoms: C9_15  and  N3_16 
REMARK    8  A    between atoms: C14_23  and  O2_24 
ROOT
HETATM    1  C6  UNL     1     -54.362  22.353 -35.109  1.00  0.00     0.151 C 
HETATM    2  S1  UNL     1     -53.583  23.323 -36.409  1.00  0.00    -0.013 SA
HETATM    3  N2  UNL     1     -53.916  22.485 -33.917  1.00  0.00    -0.370 N 
ATOM      4  H2  UNL     1     -54.325  21.947 -33.154  1.00  0.00     0.161 HD
ENDROOT
BRANCH   1   5
HETATM    5  N1  UNL     1     -55.417  21.475 -35.405  1.00  0.00    -0.336 N 
ATOM      6  H1  UNL     1     -56.370  21.837 -35.459  1.00  0.00     0.168 HD
BRANCH   5   7
HETATM    7  C5  UNL     1     -55.182  20.103 -35.629  1.00  0.00     0.036 A 
HETATM    8  C4  UNL     1     -55.562  19.107 -34.763  1.00  0.00     0.032 A 
HETATM    9  C3  UNL     1     -55.312  17.756 -34.997  1.00  0.00     0.042 A 
HETATM   10  C2  UNL     1     -54.662  17.368 -36.134  1.00  0.00     0.101 A 
HETATM   11  C14 UNL     1     -54.266  18.367 -37.033  1.00  0.00     0.103 A 
HETATM   12  C13 UNL     1     -54.517  19.685 -36.791  1.00  0.00     0.069 A 
BRANCH  10  13
HETATM   13  O1  UNL     1     -54.355  16.068 -36.482  1.00  0.00    -0.353 OA
HETATM   14  C1  UNL     1     -55.043  15.008 -35.803  1.00  0.00     0.210 C 
ENDBRANCH  10  13
BRANCH  11  15
HETATM   15  O2  UNL     1     -53.602  18.021 -38.202  1.00  0.00    -0.353 OA
HETATM   16  C15 UNL     1     -53.147  19.011 -39.068  1.00  0.00     0.210 C 
ENDBRANCH  11  15
ENDBRANCH   5   7
ENDBRANCH   1   5
BRANCH   3  17
HETATM   17  C7  UNL     1     -52.839  23.393 -33.660  1.00  0.00     0.123 C 
BRANCH  17  18
HETATM   18  C8  UNL     1     -52.177  23.160 -32.321  1.00  0.00     0.040 C 
BRANCH  18  19
HETATM   19  C9  UNL     1     -50.717  22.859 -32.628  1.00  0.00     0.130 C 
BRANCH  19  20
HETATM   20  N3  UNL     1     -49.917  22.847 -31.397  1.00  0.00    -0.352 N 
HETATM   21  C10 UNL     1     -48.916  21.949 -31.233  1.00  0.00     0.108 A 
HETATM   22  C11 UNL     1     -48.384  22.215 -29.985  1.00  0.00     0.106 A 
HETATM   23  N4  UNL     1     -49.070  23.229 -29.474  1.00  0.00    -0.361 N 
HETATM   24  C12 UNL     1     -50.016  23.633 -30.324  1.00  0.00     0.182 A 
ATOM     25  H4  UNL     1     -48.899  23.644 -28.558  1.00  0.00     0.166 HD
ENDBRANCH  19  20
ENDBRANCH  18  19
ENDBRANCH  17  18
ENDBRANCH   3  17
TORSDOF 8
ENDMDL
