MODEL 4
REMARK VINA RESULT: -6.274519509      5.725      7.896
REMARK  8 active torsions:
REMARK  status: ('A' for Active; 'I' for Inactive)
REMARK    1  A    between atoms: O1_2  and  C2_3 
REMARK    2  A    between atoms: C5_6  and  N1_7 
REMARK    3  A    between atoms: N1_7  and  C6_9 
REMARK    4  A    between atoms: N2_11  and  C7_13 
REMARK    5  A    between atoms: C7_13  and  C8_14 
REMARK    6  A    between atoms: C8_14  and  C9_15 
REMARK    7  A    between atoms: C9_15  and  N3_16 
REMARK    8  A    between atoms: C14_23  and  O2_24 
ROOT
HETATM    1  C6  UNL     1     -53.188  24.524 -34.868  1.00  0.00     0.151 C 
HETATM    2  S1  UNL     1     -54.524  25.624 -34.380  1.00  0.00    -0.013 SA
HETATM    3  N2  UNL     1     -52.195  24.402 -34.070  1.00  0.00    -0.370 N 
ATOM      4  H2  UNL     1     -51.413  23.794 -34.314  1.00  0.00     0.161 HD
ENDROOT
BRANCH   1   5
HETATM    5  N1  UNL     1     -53.238  23.835 -36.090  1.00  0.00    -0.336 N 
ATOM      6  H1  UNL     1     -52.863  24.276 -36.930  1.00  0.00     0.168 HD
BRANCH   5   7
HETATM    7  C5  UNL     1     -53.798  22.543 -36.176  1.00  0.00     0.036 A 
HETATM    8  C4  UNL     1     -54.616  21.995 -35.220  1.00  0.00     0.032 A 
HETATM    9  C3  UNL     1     -55.152  20.713 -35.318  1.00  0.00     0.042 A 
HETATM   10  C2  UNL     1     -54.872  19.935 -36.406  1.00  0.00     0.101 A 
HETATM   11  C14 UNL     1     -54.039  20.475 -37.396  1.00  0.00     0.103 A 
HETATM   12  C13 UNL     1     -53.521  21.731 -37.286  1.00  0.00     0.069 A 
BRANCH  10  13
HETATM   13  O1  UNL     1     -55.338  18.655 -36.623  1.00  0.00    -0.353 OA
HETATM   14  C1  UNL     1     -55.030  17.651 -35.646  1.00  0.00     0.210 C 
ENDBRANCH  10  13
BRANCH  11  15
HETATM   15  O2  UNL     1     -53.725  19.723 -38.520  1.00  0.00    -0.353 OA
HETATM   16  C15 UNL     1     -53.496  20.351 -39.741  1.00  0.00     0.210 C 
ENDBRANCH  11  15
ENDBRANCH   5   7
ENDBRANCH   1   5
BRANCH   3  17
HETATM   17  C7  UNL     1     -52.185  25.122 -32.834  1.00  0.00     0.123 C 
BRANCH  17  18
HETATM   18  C8  UNL     1     -52.058  24.222 -31.626  1.00  0.00     0.040 C 
BRANCH  18  19
HETATM   19  C9  UNL     1     -51.129  23.093 -32.046  1.00  0.00     0.130 C 
BRANCH  19  20
HETATM   20  N3  UNL     1     -50.066  22.895 -31.053  1.00  0.00    -0.352 N 
HETATM   21  C10 UNL     1     -49.056  22.022 -31.288  1.00  0.00     0.108 A 
HETATM   22  C11 UNL     1     -48.249  22.084 -30.167  1.00  0.00     0.106 A 
HETATM   23  N4  UNL     1     -48.796  22.964 -29.338  1.00  0.00    -0.361 N 
HETATM   24  C12 UNL     1     -49.912  23.474 -29.862  1.00  0.00     0.182 A 
ATOM     25  H4  UNL     1     -48.416  23.216 -28.425  1.00  0.00     0.166 HD
ENDBRANCH  19  20
ENDBRANCH  18  19
ENDBRANCH  17  18
ENDBRANCH   3  17
TORSDOF 8
ENDMDL
