MODEL 17
REMARK VINA RESULT: -5.928280217      6.028      7.621
REMARK  8 active torsions:
REMARK  status: ('A' for Active; 'I' for Inactive)
REMARK    1  A    between atoms: O1_2  and  C2_3 
REMARK    2  A    between atoms: C5_6  and  N1_7 
REMARK    3  A    between atoms: N1_7  and  C6_9 
REMARK    4  A    between atoms: N2_11  and  C7_13 
REMARK    5  A    between atoms: C7_13  and  C8_14 
REMARK    6  A    between atoms: C8_14  and  C9_15 
REMARK    7  A    between atoms: C9_15  and  N3_16 
REMARK    8  A    between atoms: C14_23  and  O2_24 
ROOT
HETATM    1  C6  UNL     1     -54.191  22.571 -34.232  1.00  0.00     0.151 C 
HETATM    2  S1  UNL     1     -53.415  23.389 -35.633  1.00  0.00    -0.013 SA
HETATM    3  N2  UNL     1     -53.599  22.638 -33.099  1.00  0.00    -0.370 N 
ATOM      4  H2  UNL     1     -54.002  22.181 -32.282  1.00  0.00     0.161 HD
ENDROOT
BRANCH   1   5
HETATM    5  N1  UNL     1     -55.401  21.877 -34.388  1.00  0.00    -0.336 N 
ATOM      6  H1  UNL     1     -56.276  22.399 -34.442  1.00  0.00     0.168 HD
BRANCH   5   7
HETATM    7  C5  UNL     1     -55.428  20.469 -34.471  1.00  0.00     0.036 A 
HETATM    8  C4  UNL     1     -55.849  19.647 -33.455  1.00  0.00     0.032 A 
HETATM    9  C3  UNL     1     -55.859  18.257 -33.552  1.00  0.00     0.042 A 
HETATM   10  C2  UNL     1     -55.437  17.648 -34.700  1.00  0.00     0.101 A 
HETATM   11  C14 UNL     1     -55.002  18.468 -35.752  1.00  0.00     0.103 A 
HETATM   12  C13 UNL     1     -54.998  19.826 -35.641  1.00  0.00     0.069 A 
BRANCH  10  13
HETATM   13  O1  UNL     1     -55.397  16.287 -34.923  1.00  0.00    -0.353 OA
HETATM   14  C1  UNL     1     -55.670  15.416 -33.817  1.00  0.00     0.210 C 
ENDBRANCH  10  13
BRANCH  11  15
HETATM   15  O2  UNL     1     -54.564  17.896 -36.938  1.00  0.00    -0.353 OA
HETATM   16  C15 UNL     1     -54.178  18.702 -38.004  1.00  0.00     0.210 C 
ENDBRANCH  11  15
ENDBRANCH   5   7
ENDBRANCH   1   5
BRANCH   3  17
HETATM   17  C7  UNL     1     -52.367  23.359 -32.984  1.00  0.00     0.123 C 
BRANCH  17  18
HETATM   18  C8  UNL     1     -52.063  23.787 -31.567  1.00  0.00     0.040 C 
BRANCH  18  19
HETATM   19  C9  UNL     1     -50.665  24.388 -31.607  1.00  0.00     0.130 C 
BRANCH  19  20
HETATM   20  N3  UNL     1     -49.647  23.357 -31.373  1.00  0.00    -0.352 N 
HETATM   21  C10 UNL     1     -49.489  22.811 -30.142  1.00  0.00     0.108 A 
HETATM   22  C11 UNL     1     -48.463  21.892 -30.278  1.00  0.00     0.106 A 
HETATM   23  N4  UNL     1     -48.067  21.930 -31.543  1.00  0.00    -0.361 N 
HETATM   24  C12 UNL     1     -48.780  22.822 -32.233  1.00  0.00     0.182 A 
ATOM     25  H4  UNL     1     -47.319  21.357 -31.935  1.00  0.00     0.166 HD
ENDBRANCH  19  20
ENDBRANCH  18  19
ENDBRANCH  17  18
ENDBRANCH   3  17
TORSDOF 8
ENDMDL
