MODEL 3
REMARK VINA RESULT: -6.281307589      5.349      7.801
REMARK  8 active torsions:
REMARK  status: ('A' for Active; 'I' for Inactive)
REMARK    1  A    between atoms: O1_2  and  C2_3 
REMARK    2  A    between atoms: C5_6  and  N1_7 
REMARK    3  A    between atoms: N1_7  and  C6_9 
REMARK    4  A    between atoms: N2_11  and  C7_13 
REMARK    5  A    between atoms: C7_13  and  C8_14 
REMARK    6  A    between atoms: C8_14  and  C9_15 
REMARK    7  A    between atoms: C9_15  and  N3_16 
REMARK    8  A    between atoms: C14_23  and  O2_24 
ROOT
HETATM    1  C6  UNL     1     -53.292  24.333 -34.319  1.00  0.00     0.151 C 
HETATM    2  S1  UNL     1     -54.900  23.804 -33.710  1.00  0.00    -0.013 SA
HETATM    3  N2  UNL     1     -53.015  24.105 -35.547  1.00  0.00    -0.370 N 
ATOM      4  H2  UNL     1     -52.111  24.382 -35.929  1.00  0.00     0.161 HD
ENDROOT
BRANCH   1   5
HETATM    5  N1  UNL     1     -52.374  24.964 -33.464  1.00  0.00    -0.336 N 
ATOM      6  H1  UNL     1     -52.216  25.968 -33.552  1.00  0.00     0.168 HD
BRANCH   5   7
HETATM    7  C5  UNL     1     -51.667  24.234 -32.487  1.00  0.00     0.036 A 
HETATM    8  C4  UNL     1     -51.717  24.501 -31.141  1.00  0.00     0.032 A 
HETATM    9  C3  UNL     1     -51.003  23.774 -30.191  1.00  0.00     0.042 A 
HETATM   10  C2  UNL     1     -50.205  22.736 -30.582  1.00  0.00     0.101 A 
HETATM   11  C14 UNL     1     -50.139  22.444 -31.952  1.00  0.00     0.103 A 
HETATM   12  C13 UNL     1     -50.843  23.165 -32.869  1.00  0.00     0.069 A 
BRANCH  10  13
HETATM   13  O1  UNL     1     -49.449  21.941 -29.745  1.00  0.00    -0.353 OA
HETATM   14  C1  UNL     1     -48.045  22.212 -29.644  1.00  0.00     0.210 C 
ENDBRANCH  10  13
BRANCH  11  15
HETATM   15  O2  UNL     1     -49.341  21.399 -32.397  1.00  0.00    -0.353 OA
HETATM   16  C15 UNL     1     -48.219  21.659 -33.179  1.00  0.00     0.210 C 
ENDBRANCH  11  15
ENDBRANCH   5   7
ENDBRANCH   1   5
BRANCH   3  17
HETATM   17  C7  UNL     1     -53.981  23.460 -36.384  1.00  0.00     0.123 C 
BRANCH  17  18
HETATM   18  C8  UNL     1     -53.517  22.115 -36.894  1.00  0.00     0.040 C 
BRANCH  18  19
HETATM   19  C9  UNL     1     -54.617  21.130 -36.527  1.00  0.00     0.130 C 
BRANCH  19  20
HETATM   20  N3  UNL     1     -54.294  19.782 -37.013  1.00  0.00    -0.352 N 
HETATM   21  C10 UNL     1     -53.591  19.612 -38.159  1.00  0.00     0.108 A 
HETATM   22  C11 UNL     1     -53.469  18.243 -38.315  1.00  0.00     0.106 A 
HETATM   23  N4  UNL     1     -54.086  17.675 -37.287  1.00  0.00    -0.361 N 
HETATM   24  C12 UNL     1     -54.599  18.601 -36.475  1.00  0.00     0.182 A 
ATOM     25  H4  UNL     1     -54.158  16.668 -37.137  1.00  0.00     0.166 HD
ENDBRANCH  19  20
ENDBRANCH  18  19
ENDBRANCH  17  18
ENDBRANCH   3  17
TORSDOF 8
ENDMDL
