MODEL 8
REMARK VINA RESULT: -8.400360067      2.214      4.385
REMARK  3 active torsions:
REMARK  status: ('A' for Active; 'I' for Inactive)
REMARK    1  A    between atoms: N1_2  and  C3_4 
REMARK    2  A    between atoms: C5_6  and  C6_7 
REMARK    3  A    between atoms: C11_14  and  C12_15 
ROOT
HETATM    1  C3  UNL     1      -1.936   0.576  25.291  1.00  0.00     0.118 A 
HETATM    2  C4  UNL     1      -1.742   1.743  24.605  1.00  0.00     0.064 A 
HETATM    3  C5  UNL     1      -2.115   1.858  23.244  1.00  0.00     0.007 A 
HETATM    4  C11 UNL     1      -2.667   0.800  22.615  1.00  0.00     0.069 A 
HETATM    5  N3  UNL     1      -2.839  -0.348  23.351  1.00  0.00    -0.298 N 
ATOM      6  H3  UNL     1      -3.256  -1.161  22.897  1.00  0.00     0.187 HD
HETATM    7  N4  UNL     1      -2.491  -0.445  24.613  1.00  0.00    -0.285 N 
ATOM      8  H4  UNL     1      -2.647  -1.328  25.098  1.00  0.00     0.188 HD
ENDROOT
BRANCH   4   9
HETATM    9  C12 UNL     1      -3.075   0.825  21.226  1.00  0.00    -0.006 A 
HETATM   10  C13 UNL     1      -2.177   1.145  20.196  1.00  0.00     0.014 A 
HETATM   11  C14 UNL     1      -2.564   1.151  18.874  1.00  0.00     0.013 A 
HETATM   12  C15 UNL     1      -3.852   0.840  18.494  1.00  0.00    -0.026 A 
HETATM   13  C16 UNL     1      -4.252   0.849  17.170  1.00  0.00     0.012 A 
HETATM   14  C20 UNL     1      -4.760   0.520  19.488  1.00  0.00    -0.025 A 
HETATM   15  C17 UNL     1      -5.556   0.533  16.889  1.00  0.00     0.001 A 
HETATM   16  C18 UNL     1      -6.486   0.210  17.859  1.00  0.00     0.001 A 
HETATM   17  C19 UNL     1      -6.053   0.210  19.185  1.00  0.00     0.012 A 
HETATM   18  C21 UNL     1      -4.357   0.516  20.837  1.00  0.00     0.026 A 
ENDBRANCH   4   9
BRANCH   3  19
HETATM   19  C6  UNL     1      -1.910   3.144  22.606  1.00  0.00    -0.021 A 
HETATM   20  C7  UNL     1      -2.895   4.101  22.552  1.00  0.00     0.029 A 
HETATM   21  C8  UNL     1      -2.688   5.353  21.968  1.00  0.00     0.088 A 
HETATM   22  N2  UNL     1      -1.486   5.648  21.432  1.00  0.00    -0.375 N 
HETATM   23  C9  UNL     1      -0.484   4.749  21.456  1.00  0.00     0.088 A 
ATOM     24  H2  UNL     1      -1.335   6.562  21.004  1.00  0.00     0.164 HD
HETATM   25  C10 UNL     1      -0.681   3.503  22.034  1.00  0.00     0.029 A 
ENDBRANCH   3  19
BRANCH   1  26
HETATM   26  N1  UNL     1      -1.569   0.388  26.642  1.00  0.00    -0.375 N 
HETATM   27  C1  UNL     1      -1.559   1.523  27.539  1.00  0.00     0.150 C 
HETATM   28  C2  UNL     1      -1.205  -0.905  27.194  1.00  0.00     0.150 C 
ENDBRANCH   1  26
TORSDOF 3
ENDMDL
