MODEL 6
REMARK VINA RESULT: -8.599114357      0.809      1.614
REMARK  3 active torsions:
REMARK  status: ('A' for Active; 'I' for Inactive)
REMARK    1  A    between atoms: N1_2  and  C3_4 
REMARK    2  A    between atoms: C5_6  and  C6_7 
REMARK    3  A    between atoms: C11_14  and  C12_15 
ROOT
HETATM    1  C3  UNL     1      -0.406   2.986  23.434  1.00  0.00     0.118 A 
HETATM    2  C4  UNL     1      -1.000   1.758  23.522  1.00  0.00     0.064 A 
HETATM    3  C5  UNL     1      -1.746   1.230  22.441  1.00  0.00     0.007 A 
HETATM    4  C11 UNL     1      -1.874   1.952  21.307  1.00  0.00     0.069 A 
HETATM    5  N3  UNL     1      -1.257   3.180  21.272  1.00  0.00    -0.298 N 
ATOM      6  H3  UNL     1      -1.339   3.743  20.426  1.00  0.00     0.187 HD
HETATM    7  N4  UNL     1      -0.567   3.660  22.280  1.00  0.00    -0.285 N 
ATOM      8  H4  UNL     1      -0.136   4.579  22.186  1.00  0.00     0.188 HD
ENDROOT
BRANCH   4   9
HETATM    9  C12 UNL     1      -2.621   1.495  20.154  1.00  0.00    -0.006 A 
HETATM   10  C13 UNL     1      -2.009   1.292  18.907  1.00  0.00     0.014 A 
HETATM   11  C14 UNL     1      -2.719   0.841  17.818  1.00  0.00     0.013 A 
HETATM   12  C15 UNL     1      -4.067   0.562  17.895  1.00  0.00    -0.026 A 
HETATM   13  C16 UNL     1      -4.789   0.113  16.804  1.00  0.00     0.012 A 
HETATM   14  C20 UNL     1      -4.697   0.752  19.111  1.00  0.00    -0.025 A 
HETATM   15  C17 UNL     1      -6.128  -0.131  16.975  1.00  0.00     0.001 A 
HETATM   16  C18 UNL     1      -6.787   0.049  18.176  1.00  0.00     0.001 A 
HETATM   17  C19 UNL     1      -6.031   0.503  19.257  1.00  0.00     0.012 A 
HETATM   18  C21 UNL     1      -3.965   1.214  20.221  1.00  0.00     0.026 A 
ENDBRANCH   4   9
BRANCH   3  19
HETATM   19  C6  UNL     1      -2.308  -0.096  22.605  1.00  0.00    -0.021 A 
HETATM   20  C7  UNL     1      -1.847  -1.181  21.900  1.00  0.00     0.029 A 
HETATM   21  C8  UNL     1      -2.364  -2.465  22.083  1.00  0.00     0.088 A 
HETATM   22  N2  UNL     1      -3.353  -2.665  22.978  1.00  0.00    -0.375 N 
HETATM   23  C9  UNL     1      -3.844  -1.638  23.699  1.00  0.00     0.088 A 
ATOM     24  H2  UNL     1      -3.732  -3.603  23.112  1.00  0.00     0.164 HD
HETATM   25  C10 UNL     1      -3.336  -0.359  23.522  1.00  0.00     0.029 A 
ENDBRANCH   3  19
BRANCH   1  26
HETATM   26  N1  UNL     1       0.334   3.578  24.481  1.00  0.00    -0.375 N 
HETATM   27  C1  UNL     1       0.323   5.017  24.632  1.00  0.00     0.150 C 
HETATM   28  C2  UNL     1       1.111   2.810  25.438  1.00  0.00     0.150 C 
ENDBRANCH   1  26
TORSDOF 3
ENDMDL
