MODEL 1
REMARK VINA RESULT: -9.703802191      0.000      0.000
REMARK  3 active torsions:
REMARK  status: ('A' for Active; 'I' for Inactive)
REMARK    1  A    between atoms: N1_2  and  C3_4 
REMARK    2  A    between atoms: C5_6  and  C6_7 
REMARK    3  A    between atoms: C11_14  and  C12_15 
ROOT
HETATM    1  C3  UNL     1      -0.426   2.960  22.656  1.00  0.00     0.118 A 
HETATM    2  C4  UNL     1      -0.979   1.739  22.924  1.00  0.00     0.064 A 
HETATM    3  C5  UNL     1      -1.969   1.186  22.076  1.00  0.00     0.007 A 
HETATM    4  C11 UNL     1      -2.374   1.877  20.990  1.00  0.00     0.069 A 
HETATM    5  N3  UNL     1      -1.786   3.099  20.768  1.00  0.00    -0.298 N 
ATOM      6  H3  UNL     1      -2.075   3.639  19.953  1.00  0.00     0.187 HD
HETATM    7  N4  UNL     1      -0.868   3.602  21.560  1.00  0.00    -0.285 N 
ATOM      8  H4  UNL     1      -0.475   4.516  21.335  1.00  0.00     0.188 HD
ENDROOT
BRANCH   4   9
HETATM    9  C12 UNL     1      -3.383   1.393  20.071  1.00  0.00    -0.006 A 
HETATM   10  C13 UNL     1      -4.684   1.083  20.494  1.00  0.00     0.014 A 
HETATM   11  C14 UNL     1      -5.646   0.639  19.615  1.00  0.00     0.013 A 
HETATM   12  C15 UNL     1      -5.381   0.479  18.271  1.00  0.00    -0.026 A 
HETATM   13  C16 UNL     1      -6.339   0.028  17.381  1.00  0.00     0.012 A 
HETATM   14  C20 UNL     1      -4.107   0.777  17.824  1.00  0.00    -0.025 A 
HETATM   15  C17 UNL     1      -5.980  -0.107  16.064  1.00  0.00     0.001 A 
HETATM   16  C18 UNL     1      -4.716   0.183  15.586  1.00  0.00     0.001 A 
HETATM   17  C19 UNL     1      -3.773   0.634  16.509  1.00  0.00     0.012 A 
HETATM   18  C21 UNL     1      -3.129   1.230  18.730  1.00  0.00     0.026 A 
ENDBRANCH   4   9
BRANCH   3  19
HETATM   19  C6  UNL     1      -2.472  -0.132  22.413  1.00  0.00    -0.021 A 
HETATM   20  C7  UNL     1      -2.112  -1.255  21.710  1.00  0.00     0.029 A 
HETATM   21  C8  UNL     1      -2.569  -2.530  22.055  1.00  0.00     0.088 A 
HETATM   22  N2  UNL     1      -3.394  -2.679  23.112  1.00  0.00    -0.375 N 
HETATM   23  C9  UNL     1      -3.780  -1.612  23.838  1.00  0.00     0.088 A 
ATOM     24  H2  UNL     1      -3.729  -3.610  23.363  1.00  0.00     0.164 HD
HETATM   25  C10 UNL     1      -3.331  -0.343  23.501  1.00  0.00     0.029 A 
ENDBRANCH   3  19
BRANCH   1  26
HETATM   26  N1  UNL     1       0.550   3.577  23.470  1.00  0.00    -0.375 N 
HETATM   27  C1  UNL     1       1.383   4.620  22.912  1.00  0.00     0.150 C 
HETATM   28  C2  UNL     1       0.761   3.224  24.863  1.00  0.00     0.150 C 
ENDBRANCH   1  26
TORSDOF 3
ENDMDL
