MODEL 10
REMARK VINA RESULT: -8.168061209      3.354      5.831
REMARK  3 active torsions:
REMARK  status: ('A' for Active; 'I' for Inactive)
REMARK    1  A    between atoms: N1_2  and  C3_4 
REMARK    2  A    between atoms: C5_6  and  C6_7 
REMARK    3  A    between atoms: C11_14  and  C12_15 
ROOT
HETATM    1  C3  UNL     1       0.500   5.986  19.785  1.00  0.00     0.118 A 
HETATM    2  C4  UNL     1      -0.259   6.118  20.913  1.00  0.00     0.064 A 
HETATM    3  C5  UNL     1      -0.944   5.008  21.463  1.00  0.00     0.007 A 
HETATM    4  C11 UNL     1      -0.847   3.803  20.862  1.00  0.00     0.069 A 
HETATM    5  N3  UNL     1      -0.070   3.727  19.731  1.00  0.00    -0.298 N 
ATOM      6  H3  UNL     1       0.019   2.827  19.260  1.00  0.00     0.187 HD
HETATM    7  N4  UNL     1       0.561   4.763  19.230  1.00  0.00    -0.285 N 
ATOM      8  H4  UNL     1       1.120   4.634  18.386  1.00  0.00     0.188 HD
ENDROOT
BRANCH   4   9
HETATM    9  C12 UNL     1      -1.515   2.615  21.351  1.00  0.00    -0.006 A 
HETATM   10  C13 UNL     1      -2.808   2.265  20.931  1.00  0.00     0.014 A 
HETATM   11  C14 UNL     1      -3.433   1.126  21.384  1.00  0.00     0.013 A 
HETATM   12  C15 UNL     1      -2.821   0.267  22.272  1.00  0.00    -0.026 A 
HETATM   13  C16 UNL     1      -3.443  -0.877  22.737  1.00  0.00     0.012 A 
HETATM   14  C20 UNL     1      -1.546   0.585  22.703  1.00  0.00    -0.025 A 
HETATM   15  C17 UNL     1      -2.758  -1.667  23.624  1.00  0.00     0.001 A 
HETATM   16  C18 UNL     1      -1.484  -1.377  24.075  1.00  0.00     0.001 A 
HETATM   17  C19 UNL     1      -0.884  -0.216  23.588  1.00  0.00     0.012 A 
HETATM   18  C21 UNL     1      -0.913   1.752  22.235  1.00  0.00     0.026 A 
ENDBRANCH   4   9
BRANCH   3  19
HETATM   19  C6  UNL     1      -1.695   5.228  22.685  1.00  0.00    -0.021 A 
HETATM   20  C7  UNL     1      -1.100   5.217  23.922  1.00  0.00     0.029 A 
HETATM   21  C8  UNL     1      -1.816   5.463  25.097  1.00  0.00     0.088 A 
HETATM   22  N2  UNL     1      -3.138   5.721  25.030  1.00  0.00    -0.375 N 
HETATM   23  C9  UNL     1      -3.774   5.745  23.843  1.00  0.00     0.088 A 
ATOM     24  H2  UNL     1      -3.661   5.900  25.888  1.00  0.00     0.164 HD
HETATM   25  C10 UNL     1      -3.070   5.501  22.672  1.00  0.00     0.029 A 
ENDBRANCH   3  19
BRANCH   1  26
HETATM   26  N1  UNL     1       1.192   7.056  19.174  1.00  0.00    -0.375 N 
HETATM   27  C1  UNL     1       0.570   8.360  19.110  1.00  0.00     0.150 C 
HETATM   28  C2  UNL     1       2.522   6.921  18.605  1.00  0.00     0.150 C 
ENDBRANCH   1  26
TORSDOF 3
ENDMDL
