MODEL 9
REMARK VINA RESULT: -8.250561925      2.919      5.819
REMARK  3 active torsions:
REMARK  status: ('A' for Active; 'I' for Inactive)
REMARK    1  A    between atoms: N1_2  and  C3_4 
REMARK    2  A    between atoms: C5_6  and  C6_7 
REMARK    3  A    between atoms: C11_14  and  C12_15 
ROOT
HETATM    1  C3  UNL     1      -2.821  -2.205  27.396  1.00  0.00     0.118 A 
HETATM    2  C4  UNL     1      -1.821  -1.418  26.900  1.00  0.00     0.064 A 
HETATM    3  C5  UNL     1      -1.756  -1.105  25.520  1.00  0.00     0.007 A 
HETATM    4  C11 UNL     1      -2.697  -1.593  24.684  1.00  0.00     0.069 A 
HETATM    5  N3  UNL     1      -3.680  -2.379  25.236  1.00  0.00    -0.298 N 
ATOM      6  H3  UNL     1      -4.401  -2.759  24.624  1.00  0.00     0.187 HD
HETATM    7  N4  UNL     1      -3.730  -2.663  26.516  1.00  0.00    -0.285 N 
ATOM      8  H4  UNL     1      -4.488  -3.254  26.858  1.00  0.00     0.188 HD
ENDROOT
BRANCH   4   9
HETATM    9  C12 UNL     1      -2.708  -1.329  23.260  1.00  0.00    -0.006 A 
HETATM   10  C13 UNL     1      -1.921  -2.067  22.363  1.00  0.00     0.014 A 
HETATM   11  C14 UNL     1      -1.948  -1.825  21.008  1.00  0.00     0.013 A 
HETATM   12  C15 UNL     1      -2.752  -0.847  20.462  1.00  0.00    -0.026 A 
HETATM   13  C16 UNL     1      -2.781  -0.593  19.103  1.00  0.00     0.012 A 
HETATM   14  C20 UNL     1      -3.540  -0.104  21.322  1.00  0.00    -0.025 A 
HETATM   15  C17 UNL     1      -3.607   0.405  18.653  1.00  0.00     0.001 A 
HETATM   16  C18 UNL     1      -4.406   1.165  19.486  1.00  0.00     0.001 A 
HETATM   17  C19 UNL     1      -4.353   0.885  20.851  1.00  0.00     0.012 A 
HETATM   18  C21 UNL     1      -3.507  -0.357  22.706  1.00  0.00     0.026 A 
ENDBRANCH   4   9
BRANCH   3  19
HETATM   19  C6  UNL     1      -0.684  -0.230  25.086  1.00  0.00    -0.021 A 
HETATM   20  C7  UNL     1      -0.815   1.137  25.067  1.00  0.00     0.029 A 
HETATM   21  C8  UNL     1       0.229   1.982  24.682  1.00  0.00     0.088 A 
HETATM   22  N2  UNL     1       1.413   1.453  24.312  1.00  0.00    -0.375 N 
HETATM   23  C9  UNL     1       1.598   0.118  24.311  1.00  0.00     0.088 A 
ATOM     24  H2  UNL     1       2.175   2.069  24.029  1.00  0.00     0.164 HD
HETATM   25  C10 UNL     1       0.566  -0.727  24.692  1.00  0.00     0.029 A 
ENDBRANCH   3  19
BRANCH   1  26
HETATM   26  N1  UNL     1      -2.932  -2.571  28.755  1.00  0.00    -0.375 N 
HETATM   27  C1  UNL     1      -3.679  -3.758  29.113  1.00  0.00     0.150 C 
HETATM   28  C2  UNL     1      -2.319  -1.816  29.835  1.00  0.00     0.150 C 
ENDBRANCH   1  26
TORSDOF 3
ENDMDL
