MODEL 5
REMARK VINA RESULT: -8.506195328      2.519      6.643
REMARK  2 active torsions:
REMARK  status: ('A' for Active; 'I' for Inactive)
REMARK    1  A    between atoms: N1_2  and  C3_4 
REMARK    2  A    between atoms: C11_14  and  C12_15 
ROOT
HETATM    1  C3  UNL     1      -4.579   1.088  19.194  1.00  0.00     0.118 A 
HETATM    2  C4  UNL     1      -3.794   2.159  19.563  1.00  0.00     0.064 A 
HETATM    3  C5  UNL     1      -3.274   2.296  20.848  1.00  0.00     0.007 A 
HETATM    4  C6  UNL     1      -2.454   3.407  21.250  1.00  0.00    -0.021 A 
HETATM    5  C7  UNL     1      -1.149   3.232  21.645  1.00  0.00     0.029 A 
HETATM    6  C8  UNL     1      -0.393   4.326  22.024  1.00  0.00     0.088 A 
HETATM    7  N2  UNL     1      -0.907   5.574  22.016  1.00  0.00    -0.375 N 
ATOM      8  H2  UNL     1      -0.328   6.363  22.302  1.00  0.00     0.164 HD
HETATM    9  C9  UNL     1      -2.178   5.781  21.635  1.00  0.00     0.088 A 
HETATM   10  C10 UNL     1      -2.936   4.705  21.257  1.00  0.00     0.029 A 
HETATM   11  C11 UNL     1      -3.556   1.315  21.789  1.00  0.00     0.070 A 
HETATM   12  N3  UNL     1      -4.330   0.292  21.364  1.00  0.00    -0.297 N 
ATOM     13  H3  UNL     1      -4.554  -0.443  22.035  1.00  0.00     0.187 HD
HETATM   14  N4  UNL     1      -4.814   0.174  20.151  1.00  0.00    -0.285 N 
ATOM     15  H4  UNL     1      -5.389  -0.638  19.927  1.00  0.00     0.188 HD
ENDROOT
BRANCH  11  16
HETATM   16  C12 UNL     1      -3.058   1.376  23.152  1.00  0.00     0.004 A 
HETATM   17  C13 UNL     1      -3.578   2.201  24.118  1.00  0.00     0.014 A 
HETATM   18  C14 UNL     1      -3.074   2.230  25.415  1.00  0.00     0.002 A 
HETATM   19  C15 UNL     1      -2.034   1.415  25.734  1.00  0.00     0.012 A 
HETATM   20  C16 UNL     1      -1.497   0.588  24.796  1.00  0.00    -0.025 A 
HETATM   21  C17 UNL     1      -0.449  -0.217  25.165  1.00  0.00     0.012 A 
HETATM   22  C21 UNL     1      -2.004   0.557  23.490  1.00  0.00    -0.013 A 
HETATM   23  C18 UNL     1       0.109  -1.063  24.234  1.00  0.00     0.001 A 
HETATM   24  C19 UNL     1      -0.372  -1.109  22.944  1.00  0.00     0.001 A 
HETATM   25  C20 UNL     1      -1.421  -0.303  22.584  1.00  0.00     0.013 A 
ENDBRANCH  11  16
BRANCH   1  26
HETATM   26  N1  UNL     1      -5.118   0.940  17.880  1.00  0.00    -0.375 N 
HETATM   27  C1  UNL     1      -4.333   1.303  16.722  1.00  0.00     0.150 C 
HETATM   28  C2  UNL     1      -6.453   0.428  17.646  1.00  0.00     0.150 C 
ENDBRANCH   1  26
TORSDOF 2
ENDMDL
