MODEL 2
REMARK VINA RESULT: -9.033315749      1.735      4.903
REMARK  2 active torsions:
REMARK  status: ('A' for Active; 'I' for Inactive)
REMARK    1  A    between atoms: N1_2  and  C3_4 
REMARK    2  A    between atoms: C11_14  and  C12_15 
ROOT
HETATM    1  C3  UNL     1      -1.913   4.334  20.876  1.00  0.00     0.118 A 
HETATM    2  C4  UNL     1      -2.925   3.712  20.179  1.00  0.00     0.064 A 
HETATM    3  C5  UNL     1      -3.154   2.340  20.260  1.00  0.00     0.007 A 
HETATM    4  C6  UNL     1      -4.206   1.675  19.539  1.00  0.00    -0.021 A 
HETATM    5  C7  UNL     1      -5.233   1.037  20.192  1.00  0.00     0.029 A 
HETATM    6  C8  UNL     1      -6.227   0.409  19.463  1.00  0.00     0.088 A 
HETATM    7  N2  UNL     1      -6.214   0.405  18.113  1.00  0.00    -0.375 N 
ATOM      8  H2  UNL     1      -6.958  -0.066  17.600  1.00  0.00     0.164 HD
HETATM    9  C9  UNL     1      -5.225   1.020  17.443  1.00  0.00     0.088 A 
HETATM   10  C10 UNL     1      -4.236   1.645  18.155  1.00  0.00     0.029 A 
HETATM   11  C11 UNL     1      -2.331   1.574  21.074  1.00  0.00     0.070 A 
HETATM   12  N3  UNL     1      -1.358   2.244  21.730  1.00  0.00    -0.297 N 
ATOM     13  H3  UNL     1      -0.738   1.705  22.335  1.00  0.00     0.187 HD
HETATM   14  N4  UNL     1      -1.153   3.536  21.646  1.00  0.00    -0.285 N 
ATOM     15  H4  UNL     1      -0.390   3.949  22.183  1.00  0.00     0.188 HD
ENDROOT
BRANCH  11  16
HETATM   16  C12 UNL     1      -2.495   0.138  21.217  1.00  0.00     0.004 A 
HETATM   17  C13 UNL     1      -2.136  -0.771  20.253  1.00  0.00     0.014 A 
HETATM   18  C14 UNL     1      -2.307  -2.141  20.428  1.00  0.00     0.002 A 
HETATM   19  C15 UNL     1      -2.848  -2.592  21.591  1.00  0.00     0.012 A 
HETATM   20  C16 UNL     1      -3.215  -1.714  22.564  1.00  0.00    -0.025 A 
HETATM   21  C17 UNL     1      -3.756  -2.217  23.720  1.00  0.00     0.012 A 
HETATM   22  C21 UNL     1      -3.043  -0.335  22.390  1.00  0.00    -0.013 A 
HETATM   23  C18 UNL     1      -4.133  -1.348  24.719  1.00  0.00     0.001 A 
HETATM   24  C19 UNL     1      -3.974   0.012  24.569  1.00  0.00     0.001 A 
HETATM   25  C20 UNL     1      -3.431   0.506  23.410  1.00  0.00     0.013 A 
ENDBRANCH  11  16
BRANCH   1  26
HETATM   26  N1  UNL     1      -1.669   5.738  20.799  1.00  0.00    -0.375 N 
HETATM   27  C1  UNL     1      -0.386   6.280  21.182  1.00  0.00     0.150 C 
HETATM   28  C2  UNL     1      -2.676   6.674  20.342  1.00  0.00     0.150 C 
ENDBRANCH   1  26
TORSDOF 2
ENDMDL
