MODEL 4
REMARK VINA RESULT: -8.565332467      1.702      4.578
REMARK  2 active torsions:
REMARK  status: ('A' for Active; 'I' for Inactive)
REMARK    1  A    between atoms: N1_2  and  C3_4 
REMARK    2  A    between atoms: C11_14  and  C12_15 
ROOT
HETATM    1  C3  UNL     1      -1.842  -0.553  23.004  1.00  0.00     0.118 A 
HETATM    2  C4  UNL     1      -1.761   0.791  22.710  1.00  0.00     0.064 A 
HETATM    3  C5  UNL     1      -2.047   1.296  21.444  1.00  0.00     0.007 A 
HETATM    4  C6  UNL     1      -1.967   2.695  21.121  1.00  0.00    -0.021 A 
HETATM    5  C7  UNL     1      -3.078   3.409  20.737  1.00  0.00     0.029 A 
HETATM    6  C8  UNL     1      -2.961   4.754  20.434  1.00  0.00     0.088 A 
HETATM    7  N2  UNL     1      -1.773   5.390  20.505  1.00  0.00    -0.375 N 
ATOM      8  H2  UNL     1      -1.714   6.382  20.275  1.00  0.00     0.164 HD
HETATM    9  C9  UNL     1      -0.667   4.723  20.877  1.00  0.00     0.088 A 
HETATM   10  C10 UNL     1      -0.772   3.391  21.179  1.00  0.00     0.029 A 
HETATM   11  C11 UNL     1      -2.428   0.413  20.443  1.00  0.00     0.070 A 
HETATM   12  N3  UNL     1      -2.487  -0.891  20.796  1.00  0.00    -0.297 N 
ATOM     13  H3  UNL     1      -2.764  -1.562  20.080  1.00  0.00     0.187 HD
HETATM   14  N4  UNL     1      -2.216  -1.355  21.992  1.00  0.00    -0.285 N 
ATOM     15  H4  UNL     1      -2.292  -2.358  22.159  1.00  0.00     0.188 HD
ENDROOT
BRANCH  11  16
HETATM   16  C12 UNL     1      -2.742   0.850  19.094  1.00  0.00     0.004 A 
HETATM   17  C13 UNL     1      -1.803   1.303  18.201  1.00  0.00     0.014 A 
HETATM   18  C14 UNL     1      -2.143   1.713  16.916  1.00  0.00     0.002 A 
HETATM   19  C15 UNL     1      -3.447   1.663  16.534  1.00  0.00     0.012 A 
HETATM   20  C16 UNL     1      -4.400   1.220  17.399  1.00  0.00    -0.025 A 
HETATM   21  C17 UNL     1      -5.702   1.187  16.968  1.00  0.00     0.012 A 
HETATM   22  C21 UNL     1      -4.059   0.807  18.693  1.00  0.00    -0.013 A 
HETATM   23  C18 UNL     1      -6.682   0.741  17.825  1.00  0.00     0.001 A 
HETATM   24  C19 UNL     1      -6.370   0.331  19.102  1.00  0.00     0.001 A 
HETATM   25  C20 UNL     1      -5.066   0.366  19.524  1.00  0.00     0.013 A 
ENDBRANCH  11  16
BRANCH   1  26
HETATM   26  N1  UNL     1      -1.550  -1.081  24.298  1.00  0.00    -0.375 N 
HETATM   27  C1  UNL     1      -2.518  -0.979  25.365  1.00  0.00     0.150 C 
HETATM   28  C2  UNL     1      -0.293  -1.734  24.600  1.00  0.00     0.150 C 
ENDBRANCH   1  26
TORSDOF 2
ENDMDL
