MODEL 1
REMARK VINA RESULT: -9.661103126      0.000      0.000
REMARK  2 active torsions:
REMARK  status: ('A' for Active; 'I' for Inactive)
REMARK    1  A    between atoms: N1_2  and  C3_4 
REMARK    2  A    between atoms: C11_14  and  C12_15 
ROOT
HETATM    1  C3  UNL     1      -1.155   3.363  21.739  1.00  0.00     0.118 A 
HETATM    2  C4  UNL     1      -1.367   2.006  21.848  1.00  0.00     0.064 A 
HETATM    3  C5  UNL     1      -2.388   1.352  21.163  1.00  0.00     0.007 A 
HETATM    4  C6  UNL     1      -2.622  -0.063  21.265  1.00  0.00    -0.021 A 
HETATM    5  C7  UNL     1      -2.500  -0.893  20.176  1.00  0.00     0.029 A 
HETATM    6  C8  UNL     1      -2.733  -2.250  20.315  1.00  0.00     0.088 A 
HETATM    7  N2  UNL     1      -3.082  -2.785  21.504  1.00  0.00    -0.375 N 
ATOM      8  H2  UNL     1      -3.249  -3.788  21.578  1.00  0.00     0.164 HD
HETATM    9  C9  UNL     1      -3.210  -2.003  22.588  1.00  0.00     0.088 A 
HETATM   10  C10 UNL     1      -2.981  -0.659  22.462  1.00  0.00     0.029 A 
HETATM   11  C11 UNL     1      -3.222   2.097  20.340  1.00  0.00     0.070 A 
HETATM   12  N3  UNL     1      -2.962   3.422  20.277  1.00  0.00    -0.297 N 
ATOM     13  H3  UNL     1      -3.561   3.993  19.680  1.00  0.00     0.187 HD
HETATM   14  N4  UNL     1      -1.997   4.026  20.927  1.00  0.00    -0.285 N 
ATOM     15  H4  UNL     1      -1.882   5.033  20.812  1.00  0.00     0.188 HD
ENDROOT
BRANCH  11  16
HETATM   16  C12 UNL     1      -4.314   1.499  19.590  1.00  0.00     0.004 A 
HETATM   17  C13 UNL     1      -5.494   1.089  20.157  1.00  0.00     0.014 A 
HETATM   18  C14 UNL     1      -6.518   0.522  19.405  1.00  0.00     0.002 A 
HETATM   19  C15 UNL     1      -6.342   0.370  18.065  1.00  0.00     0.012 A 
HETATM   20  C16 UNL     1      -5.182   0.767  17.476  1.00  0.00    -0.025 A 
HETATM   21  C17 UNL     1      -5.051   0.594  16.121  1.00  0.00     0.012 A 
HETATM   22  C21 UNL     1      -4.150   1.338  18.232  1.00  0.00    -0.013 A 
HETATM   23  C18 UNL     1      -3.886   0.989  15.503  1.00  0.00     0.001 A 
HETATM   24  C19 UNL     1      -2.859   1.552  16.226  1.00  0.00     0.001 A 
HETATM   25  C20 UNL     1      -2.998   1.722  17.580  1.00  0.00     0.013 A 
ENDBRANCH  11  16
BRANCH   1  26
HETATM   26  N1  UNL     1      -0.113   4.043  22.437  1.00  0.00    -0.375 N 
HETATM   27  C1  UNL     1       0.377   3.533  23.698  1.00  0.00     0.150 C 
HETATM   28  C2  UNL     1       0.497   5.255  21.929  1.00  0.00     0.150 C 
ENDBRANCH   1  26
TORSDOF 2
ENDMDL
