MODEL 12
REMARK VINA RESULT: -5.607443989      4.635      6.455
REMARK  9 active torsions:
REMARK  status: ('A' for Active; 'I' for Inactive)
REMARK    1  A    between atoms: O1_2  and  C2_3 
REMARK    2  A    between atoms: C5_6  and  N1_7 
REMARK    3  A    between atoms: N1_7  and  C6_9 
REMARK    4  A    between atoms: C6_9  and  N2_11 
REMARK    5  A    between atoms: N2_11  and  C7_13 
REMARK    6  A    between atoms: C7_13  and  C8_14 
REMARK    7  A    between atoms: C8_14  and  C9_15 
REMARK    8  A    between atoms: C9_15  and  N3_16 
REMARK    9  A    between atoms: C14_23  and  O2_24 
ROOT
HETATM    1  C6  UNL     1     -32.357  -0.744  40.266  1.00  0.00     0.172 C 
HETATM    2  S1  UNL     1     -32.444  -2.304  40.778  1.00  0.00    -0.041 SA
ENDROOT
BRANCH   1   3
HETATM    3  N1  UNL     1     -33.403   0.167  40.277  1.00  0.00    -0.333 N 
ATOM      4  H1  UNL     1     -34.011   0.223  39.460  1.00  0.00     0.168 HD
BRANCH   3   5
HETATM    5  C5  UNL     1     -33.662   1.023  41.378  1.00  0.00     0.037 A 
HETATM    6  C4  UNL     1     -32.740   1.201  42.379  1.00  0.00     0.032 A 
HETATM    7  C3  UNL     1     -33.015   2.011  43.494  1.00  0.00     0.042 A 
HETATM    8  C2  UNL     1     -34.237   2.627  43.560  1.00  0.00     0.101 A 
HETATM    9  C14 UNL     1     -35.181   2.457  42.552  1.00  0.00     0.103 A 
HETATM   10  C13 UNL     1     -34.913   1.665  41.462  1.00  0.00     0.069 A 
BRANCH   8  11
HETATM   11  O1  UNL     1     -34.576   3.436  44.626  1.00  0.00    -0.353 OA
HETATM   12  C1  UNL     1     -35.293   2.880  45.703  1.00  0.00     0.210 C 
ENDBRANCH   8  11
BRANCH   9  13
HETATM   13  O2  UNL     1     -36.396   3.105  42.675  1.00  0.00    -0.353 OA
HETATM   14  C15 UNL     1     -37.099   3.477  41.511  1.00  0.00     0.210 C 
ENDBRANCH   9  13
ENDBRANCH   3   5
ENDBRANCH   1   3
BRANCH   1  15
HETATM   15  N2  UNL     1     -31.074  -0.335  39.735  1.00  0.00    -0.367 N 
ATOM     16  H2  UNL     1     -31.033   0.369  38.997  1.00  0.00     0.161 HD
BRANCH  15  17
HETATM   17  C7  UNL     1     -29.865  -0.909  40.234  1.00  0.00     0.123 C 
BRANCH  17  18
HETATM   18  C8  UNL     1     -29.464  -0.295  41.537  1.00  0.00     0.040 C 
BRANCH  18  19
HETATM   19  C9  UNL     1     -29.136  -1.251  42.619  1.00  0.00     0.130 C 
BRANCH  19  20
HETATM   20  N3  UNL     1     -28.431  -0.799  43.755  1.00  0.00    -0.352 N 
HETATM   21  C10 UNL     1     -27.613  -1.521  44.554  1.00  0.00     0.108 A 
HETATM   22  C11 UNL     1     -27.176  -0.683  45.558  1.00  0.00     0.106 A 
HETATM   23  N4  UNL     1     -27.716   0.516  45.373  1.00  0.00    -0.361 N 
HETATM   24  C12 UNL     1     -28.486   0.456  44.272  1.00  0.00     0.182 A 
ATOM     25  H4  UNL     1     -27.572   1.337  45.962  1.00  0.00     0.166 HD
ENDBRANCH  19  20
ENDBRANCH  18  19
ENDBRANCH  17  18
ENDBRANCH  15  17
ENDBRANCH   1  15
TORSDOF 9
ENDMDL
