MODEL 8
REMARK VINA RESULT: -5.766985867      5.694      7.476
REMARK  9 active torsions:
REMARK  status: ('A' for Active; 'I' for Inactive)
REMARK    1  A    between atoms: O1_2  and  C2_3 
REMARK    2  A    between atoms: C5_6  and  N1_7 
REMARK    3  A    between atoms: N1_7  and  C6_9 
REMARK    4  A    between atoms: C6_9  and  N2_11 
REMARK    5  A    between atoms: N2_11  and  C7_13 
REMARK    6  A    between atoms: C7_13  and  C8_14 
REMARK    7  A    between atoms: C8_14  and  C9_15 
REMARK    8  A    between atoms: C9_15  and  N3_16 
REMARK    9  A    between atoms: C14_23  and  O2_24 
ROOT
HETATM    1  C6  UNL     1     -33.616   0.531  41.145  1.00  0.00     0.172 C 
HETATM    2  S1  UNL     1     -33.546   0.412  39.505  1.00  0.00    -0.041 SA
ENDROOT
BRANCH   1   3
HETATM    3  N1  UNL     1     -34.776   0.642  41.894  1.00  0.00    -0.333 N 
ATOM      4  H1  UNL     1     -35.470  -0.103  41.836  1.00  0.00     0.168 HD
BRANCH   3   5
HETATM    5  C5  UNL     1     -35.039   1.750  42.741  1.00  0.00     0.037 A 
HETATM    6  C4  UNL     1     -35.316   2.993  42.228  1.00  0.00     0.032 A 
HETATM    7  C3  UNL     1     -35.528   4.101  43.066  1.00  0.00     0.042 A 
HETATM    8  C2  UNL     1     -35.451   3.913  44.420  1.00  0.00     0.101 A 
HETATM    9  C14 UNL     1     -35.172   2.658  44.954  1.00  0.00     0.103 A 
HETATM   10  C13 UNL     1     -34.964   1.574  44.137  1.00  0.00     0.069 A 
BRANCH   8  11
HETATM   11  O1  UNL     1     -35.647   4.956  45.303  1.00  0.00    -0.353 OA
HETATM   12  C1  UNL     1     -36.953   5.440  45.507  1.00  0.00     0.210 C 
ENDBRANCH   8  11
BRANCH   9  13
HETATM   13  O2  UNL     1     -35.109   2.530  46.330  1.00  0.00    -0.353 OA
HETATM   14  C15 UNL     1     -36.194   1.950  47.019  1.00  0.00     0.210 C 
ENDBRANCH   9  13
ENDBRANCH   3   5
ENDBRANCH   1   3
BRANCH   1  15
HETATM   15  N2  UNL     1     -32.336   0.553  41.821  1.00  0.00    -0.367 N 
ATOM     16  H2  UNL     1     -32.196   1.175  42.618  1.00  0.00     0.161 HD
BRANCH  15  17
HETATM   17  C7  UNL     1     -31.269  -0.290  41.383  1.00  0.00     0.123 C 
BRANCH  17  18
HETATM   18  C8  UNL     1     -29.967   0.110  41.998  1.00  0.00     0.040 C 
BRANCH  18  19
HETATM   19  C9  UNL     1     -29.221  -0.974  42.677  1.00  0.00     0.130 C 
BRANCH  19  20
HETATM   20  N3  UNL     1     -28.458  -0.678  43.827  1.00  0.00    -0.352 N 
HETATM   21  C10 UNL     1     -27.703  -1.534  44.554  1.00  0.00     0.108 A 
HETATM   22  C11 UNL     1     -27.172  -0.819  45.606  1.00  0.00     0.106 A 
HETATM   23  N4  UNL     1     -27.594   0.437  45.520  1.00  0.00    -0.361 N 
HETATM   24  C12 UNL     1     -28.382   0.534  44.434  1.00  0.00     0.182 A 
ATOM     25  H4  UNL     1     -27.362   1.194  46.164  1.00  0.00     0.166 HD
ENDBRANCH  19  20
ENDBRANCH  18  19
ENDBRANCH  17  18
ENDBRANCH  15  17
ENDBRANCH   1  15
TORSDOF 9
ENDMDL
