MODEL 1
REMARK VINA RESULT: -6.132184515      0.000      0.000
REMARK  9 active torsions:
REMARK  status: ('A' for Active; 'I' for Inactive)
REMARK    1  A    between atoms: O1_2  and  C2_3 
REMARK    2  A    between atoms: C5_6  and  N1_7 
REMARK    3  A    between atoms: N1_7  and  C6_9 
REMARK    4  A    between atoms: C6_9  and  N2_11 
REMARK    5  A    between atoms: N2_11  and  C7_13 
REMARK    6  A    between atoms: C7_13  and  C8_14 
REMARK    7  A    between atoms: C8_14  and  C9_15 
REMARK    8  A    between atoms: C9_15  and  N3_16 
REMARK    9  A    between atoms: C14_23  and  O2_24 
ROOT
HETATM    1  C6  UNL     1     -30.195  -1.618  39.118  1.00  0.00     0.172 C 
HETATM    2  S1  UNL     1     -31.090  -0.999  37.885  1.00  0.00    -0.041 SA
ENDROOT
BRANCH   1   3
HETATM    3  N1  UNL     1     -29.982  -2.966  39.361  1.00  0.00    -0.333 N 
ATOM      4  H1  UNL     1     -29.072  -3.366  39.133  1.00  0.00     0.168 HD
BRANCH   3   5
HETATM    5  C5  UNL     1     -30.978  -3.813  39.913  1.00  0.00     0.037 A 
HETATM    6  C4  UNL     1     -31.918  -3.333  40.791  1.00  0.00     0.032 A 
HETATM    7  C3  UNL     1     -32.874  -4.181  41.376  1.00  0.00     0.042 A 
HETATM    8  C2  UNL     1     -32.848  -5.511  41.047  1.00  0.00     0.101 A 
HETATM    9  C14 UNL     1     -31.901  -6.010  40.158  1.00  0.00     0.103 A 
HETATM   10  C13 UNL     1     -30.965  -5.183  39.586  1.00  0.00     0.069 A 
BRANCH   8  11
HETATM   11  O1  UNL     1     -33.755  -6.401  41.584  1.00  0.00    -0.353 OA
HETATM   12  C1  UNL     1     -33.588  -6.824  42.917  1.00  0.00     0.210 C 
ENDBRANCH   8  11
BRANCH   9  13
HETATM   13  O2  UNL     1     -31.925  -7.361  39.865  1.00  0.00    -0.353 OA
HETATM   14  C15 UNL     1     -30.915  -8.197  40.385  1.00  0.00     0.210 C 
ENDBRANCH   9  13
ENDBRANCH   3   5
ENDBRANCH   1   3
BRANCH   1  15
HETATM   15  N2  UNL     1     -29.628  -0.642  40.025  1.00  0.00    -0.367 N 
ATOM     16  H2  UNL     1     -28.630  -0.434  39.985  1.00  0.00     0.161 HD
BRANCH  15  17
HETATM   17  C7  UNL     1     -30.454   0.031  40.976  1.00  0.00     0.123 C 
BRANCH  17  18
HETATM   18  C8  UNL     1     -29.878  -0.044  42.353  1.00  0.00     0.040 C 
BRANCH  18  19
HETATM   19  C9  UNL     1     -29.119  -1.278  42.661  1.00  0.00     0.130 C 
BRANCH  19  20
HETATM   20  N3  UNL     1     -28.287  -1.315  43.801  1.00  0.00    -0.352 N 
HETATM   21  C10 UNL     1     -28.157  -0.363  44.753  1.00  0.00     0.108 A 
HETATM   22  C11 UNL     1     -27.208  -0.807  45.649  1.00  0.00     0.106 A 
HETATM   23  N4  UNL     1     -26.773  -1.996  45.250  1.00  0.00    -0.361 N 
HETATM   24  C12 UNL     1     -27.426  -2.317  44.119  1.00  0.00     0.182 A 
ATOM     25  H4  UNL     1     -26.068  -2.566  45.719  1.00  0.00     0.166 HD
ENDBRANCH  19  20
ENDBRANCH  18  19
ENDBRANCH  17  18
ENDBRANCH  15  17
ENDBRANCH   1  15
TORSDOF 9
ENDMDL
