MODEL 3
REMARK VINA RESULT: -5.964083220      1.661      2.197
REMARK  9 active torsions:
REMARK  status: ('A' for Active; 'I' for Inactive)
REMARK    1  A    between atoms: O1_2  and  C2_3 
REMARK    2  A    between atoms: C5_6  and  N1_7 
REMARK    3  A    between atoms: N1_7  and  C6_9 
REMARK    4  A    between atoms: C6_9  and  N2_11 
REMARK    5  A    between atoms: N2_11  and  C7_13 
REMARK    6  A    between atoms: C7_13  and  C8_14 
REMARK    7  A    between atoms: C8_14  and  C9_15 
REMARK    8  A    between atoms: C9_15  and  N3_16 
REMARK    9  A    between atoms: C14_23  and  O2_24 
ROOT
HETATM    1  C6  UNL     1     -31.673  -3.478  40.190  1.00  0.00     0.172 C 
HETATM    2  S1  UNL     1     -30.653  -3.564  38.902  1.00  0.00    -0.041 SA
ENDROOT
BRANCH   1   3
HETATM    3  N1  UNL     1     -32.834  -4.218  40.347  1.00  0.00    -0.333 N 
ATOM      4  H1  UNL     1     -33.680  -3.908  39.870  1.00  0.00     0.168 HD
BRANCH   3   5
HETATM    5  C5  UNL     1     -32.895  -5.390  41.145  1.00  0.00     0.037 A 
HETATM    6  C4  UNL     1     -33.687  -5.453  42.264  1.00  0.00     0.032 A 
HETATM    7  C3  UNL     1     -33.711  -6.596  43.081  1.00  0.00     0.042 A 
HETATM    8  C2  UNL     1     -32.917  -7.657  42.734  1.00  0.00     0.101 A 
HETATM    9  C14 UNL     1     -32.110  -7.607  41.601  1.00  0.00     0.103 A 
HETATM   10  C13 UNL     1     -32.086  -6.490  40.801  1.00  0.00     0.069 A 
BRANCH   8  11
HETATM   11  O1  UNL     1     -32.889  -8.811  43.491  1.00  0.00    -0.353 OA
HETATM   12  C1  UNL     1     -34.064  -9.224  44.147  1.00  0.00     0.210 C 
ENDBRANCH   8  11
BRANCH   9  13
HETATM   13  O2  UNL     1     -31.332  -8.710  41.301  1.00  0.00    -0.353 OA
HETATM   14  C15 UNL     1     -30.892  -8.903  39.975  1.00  0.00     0.210 C 
ENDBRANCH   9  13
ENDBRANCH   3   5
ENDBRANCH   1   3
BRANCH   1  15
HETATM   15  N2  UNL     1     -31.310  -2.512  41.206  1.00  0.00    -0.367 N 
ATOM     16  H2  UNL     1     -31.987  -2.259  41.927  1.00  0.00     0.161 HD
BRANCH  15  17
HETATM   17  C7  UNL     1     -30.014  -1.912  41.208  1.00  0.00     0.123 C 
BRANCH  17  18
HETATM   18  C8  UNL     1     -29.981  -0.682  42.056  1.00  0.00     0.040 C 
BRANCH  18  19
HETATM   19  C9  UNL     1     -28.632  -0.212  42.447  1.00  0.00     0.130 C 
BRANCH  19  20
HETATM   20  N3  UNL     1     -28.018  -0.745  43.601  1.00  0.00    -0.352 N 
HETATM   21  C10 UNL     1     -28.049  -0.238  44.855  1.00  0.00     0.108 A 
HETATM   22  C11 UNL     1     -27.282  -1.064  45.649  1.00  0.00     0.106 A 
HETATM   23  N4  UNL     1     -26.798  -2.045  44.897  1.00  0.00    -0.361 N 
HETATM   24  C12 UNL     1     -27.243  -1.859  43.641  1.00  0.00     0.182 A 
ATOM     25  H4  UNL     1     -26.196  -2.805  45.215  1.00  0.00     0.166 HD
ENDBRANCH  19  20
ENDBRANCH  18  19
ENDBRANCH  17  18
ENDBRANCH  15  17
ENDBRANCH   1  15
TORSDOF 9
ENDMDL
