MODEL 4
REMARK VINA RESULT: -5.939014681      1.529      1.861
REMARK  9 active torsions:
REMARK  status: ('A' for Active; 'I' for Inactive)
REMARK    1  A    between atoms: O1_2  and  C2_3 
REMARK    2  A    between atoms: C5_6  and  N1_7 
REMARK    3  A    between atoms: N1_7  and  C6_9 
REMARK    4  A    between atoms: C6_9  and  N2_11 
REMARK    5  A    between atoms: N2_11  and  C7_13 
REMARK    6  A    between atoms: C7_13  and  C8_14 
REMARK    7  A    between atoms: C8_14  and  C9_15 
REMARK    8  A    between atoms: C9_15  and  N3_16 
REMARK    9  A    between atoms: C14_23  and  O2_24 
ROOT
HETATM    1  C6  UNL     1     -31.730  -2.602  40.004  1.00  0.00     0.172 C 
HETATM    2  S1  UNL     1     -32.933  -1.503  40.229  1.00  0.00    -0.041 SA
ENDROOT
BRANCH   1   3
HETATM    3  N1  UNL     1     -31.876  -3.844  39.407  1.00  0.00    -0.333 N 
ATOM      4  H1  UNL     1     -31.864  -3.902  38.389  1.00  0.00     0.168 HD
BRANCH   3   5
HETATM    5  C5  UNL     1     -32.040  -5.039  40.154  1.00  0.00     0.037 A 
HETATM    6  C4  UNL     1     -32.923  -5.111  41.203  1.00  0.00     0.032 A 
HETATM    7  C3  UNL     1     -33.051  -6.279  41.974  1.00  0.00     0.042 A 
HETATM    8  C2  UNL     1     -32.268  -7.356  41.652  1.00  0.00     0.101 A 
HETATM    9  C14 UNL     1     -31.370  -7.297  40.591  1.00  0.00     0.103 A 
HETATM   10  C13 UNL     1     -31.243  -6.156  39.837  1.00  0.00     0.069 A 
BRANCH   8  11
HETATM   11  O1  UNL     1     -32.340  -8.535  42.367  1.00  0.00    -0.353 OA
HETATM   12  C1  UNL     1     -33.347  -8.682  43.339  1.00  0.00     0.210 C 
ENDBRANCH   8  11
BRANCH   9  13
HETATM   13  O2  UNL     1     -30.607  -8.417  40.314  1.00  0.00    -0.353 OA
HETATM   14  C15 UNL     1     -30.929  -9.211  39.194  1.00  0.00     0.210 C 
ENDBRANCH   9  13
ENDBRANCH   3   5
ENDBRANCH   1   3
BRANCH   1  15
HETATM   15  N2  UNL     1     -30.432  -2.215  40.517  1.00  0.00    -0.367 N 
ATOM     16  H2  UNL     1     -29.850  -2.906  40.992  1.00  0.00     0.161 HD
BRANCH  15  17
HETATM   17  C7  UNL     1     -29.960  -0.876  40.363  1.00  0.00     0.123 C 
BRANCH  17  18
HETATM   18  C8  UNL     1     -29.511  -0.300  41.667  1.00  0.00     0.040 C 
BRANCH  18  19
HETATM   19  C9  UNL     1     -29.055  -1.284  42.676  1.00  0.00     0.130 C 
BRANCH  19  20
HETATM   20  N3  UNL     1     -28.364  -0.833  43.822  1.00  0.00    -0.352 N 
HETATM   21  C10 UNL     1     -27.550  -1.555  44.626  1.00  0.00     0.108 A 
HETATM   22  C11 UNL     1     -27.129  -0.720  45.639  1.00  0.00     0.106 A 
HETATM   23  N4  UNL     1     -27.675   0.476  45.455  1.00  0.00    -0.361 N 
HETATM   24  C12 UNL     1     -28.433   0.418  44.345  1.00  0.00     0.182 A 
ATOM     25  H4  UNL     1     -27.542   1.295  46.050  1.00  0.00     0.166 HD
ENDBRANCH  19  20
ENDBRANCH  18  19
ENDBRANCH  17  18
ENDBRANCH  15  17
ENDBRANCH   1  15
TORSDOF 9
ENDMDL
