MODEL 6
REMARK VINA RESULT: -5.817127687      4.420      6.076
REMARK  9 active torsions:
REMARK  status: ('A' for Active; 'I' for Inactive)
REMARK    1  A    between atoms: O1_2  and  C2_3 
REMARK    2  A    between atoms: C5_6  and  N1_7 
REMARK    3  A    between atoms: N1_7  and  C6_9 
REMARK    4  A    between atoms: C6_9  and  N2_11 
REMARK    5  A    between atoms: N2_11  and  C7_13 
REMARK    6  A    between atoms: C7_13  and  C8_14 
REMARK    7  A    between atoms: C8_14  and  C9_15 
REMARK    8  A    between atoms: C9_15  and  N3_16 
REMARK    9  A    between atoms: C14_23  and  O2_24 
ROOT
HETATM    1  C6  UNL     1     -32.421  -0.920  40.370  1.00  0.00     0.172 C 
HETATM    2  S1  UNL     1     -32.537  -1.811  38.992  1.00  0.00    -0.041 SA
ENDROOT
BRANCH   1   3
HETATM    3  N1  UNL     1     -32.877   0.378  40.530  1.00  0.00    -0.333 N 
ATOM      4  H1  UNL     1     -32.680   1.060  39.797  1.00  0.00     0.168 HD
BRANCH   3   5
HETATM    5  C5  UNL     1     -33.609   0.799  41.671  1.00  0.00     0.037 A 
HETATM    6  C4  UNL     1     -34.902   0.391  41.881  1.00  0.00     0.032 A 
HETATM    7  C3  UNL     1     -35.643   0.846  42.985  1.00  0.00     0.042 A 
HETATM    8  C2  UNL     1     -35.040   1.715  43.856  1.00  0.00     0.101 A 
HETATM    9  C14 UNL     1     -33.729   2.136  43.655  1.00  0.00     0.103 A 
HETATM   10  C13 UNL     1     -33.004   1.692  42.576  1.00  0.00     0.069 A 
BRANCH   8  11
HETATM   11  O1  UNL     1     -35.708   2.204  44.961  1.00  0.00    -0.353 OA
HETATM   12  C1  UNL     1     -35.975   1.334  46.036  1.00  0.00     0.210 C 
ENDBRANCH   8  11
BRANCH   9  13
HETATM   13  O2  UNL     1     -33.174   3.013  44.569  1.00  0.00    -0.353 OA
HETATM   14  C15 UNL     1     -32.099   3.834  44.171  1.00  0.00     0.210 C 
ENDBRANCH   9  13
ENDBRANCH   3   5
ENDBRANCH   1   3
BRANCH   1  15
HETATM   15  N2  UNL     1     -31.748  -1.571  41.475  1.00  0.00    -0.367 N 
ATOM     16  H2  UNL     1     -32.280  -1.838  42.304  1.00  0.00     0.161 HD
BRANCH  15  17
HETATM   17  C7  UNL     1     -30.347  -1.842  41.413  1.00  0.00     0.123 C 
BRANCH  17  18
HETATM   18  C8  UNL     1     -29.546  -0.581  41.382  1.00  0.00     0.040 C 
BRANCH  18  19
HETATM   19  C9  UNL     1     -29.373   0.098  42.687  1.00  0.00     0.130 C 
BRANCH  19  20
HETATM   20  N3  UNL     1     -28.389  -0.365  43.586  1.00  0.00    -0.352 N 
HETATM   21  C10 UNL     1     -28.323  -0.139  44.919  1.00  0.00     0.108 A 
HETATM   22  C11 UNL     1     -27.176  -0.749  45.381  1.00  0.00     0.106 A 
HETATM   23  N4  UNL     1     -26.562  -1.328  44.356  1.00  0.00    -0.361 N 
HETATM   24  C12 UNL     1     -27.297  -1.099  43.253  1.00  0.00     0.182 A 
ATOM     25  H4  UNL     1     -25.689  -1.854  44.399  1.00  0.00     0.166 HD
ENDBRANCH  19  20
ENDBRANCH  18  19
ENDBRANCH  17  18
ENDBRANCH  15  17
ENDBRANCH   1  15
TORSDOF 9
ENDMDL
