MODEL 11
REMARK VINA RESULT: -6.054958472      2.697      4.875
REMARK  2 active torsions:
REMARK  status: ('A' for Active; 'I' for Inactive)
REMARK    1  A    between atoms: S1_2  and  C2_3 
REMARK    2  A    between atoms: C3_6  and  C4_7 
ROOT
HETATM    1  C2  UNL     1      29.705  10.243  26.174  1.00  0.00     0.145 A 
HETATM    2  N1  UNL     1      30.988  10.343  25.803  1.00  0.00    -0.335 N 
ATOM      3  H1  UNL     1      31.706  10.023  26.453  1.00  0.00     0.168 HD
HETATM    4  C3  UNL     1      31.379  10.847  24.611  1.00  0.00     0.060 A 
HETATM    5  C12 UNL     1      30.418  11.278  23.729  1.00  0.00     0.058 A 
HETATM    6  C13 UNL     1      30.482  11.819  22.460  1.00  0.00     0.076 A 
HETATM    7  C14 UNL     1      31.649  12.100  21.649  1.00  0.00     0.102 C 
HETATM    8  N2  UNL     1      32.559  12.317  20.985  1.00  0.00    -0.191 NA
HETATM    9  C15 UNL     1      29.156  12.036  22.099  1.00  0.00     0.113 A 
HETATM   10  N3  UNL     1      28.362  11.642  23.104  1.00  0.00    -0.350 N 
ATOM     11  H3  UNL     1      27.343  11.694  23.092  1.00  0.00     0.166 HD
HETATM   12  C16 UNL     1      29.088  11.168  24.128  1.00  0.00     0.121 A 
HETATM   13  N4  UNL     1      28.736  10.655  25.341  1.00  0.00    -0.322 N 
ATOM     14  H4  UNL     1      27.754  10.584  25.610  1.00  0.00     0.169 HD
ENDROOT
BRANCH   4  15
HETATM   15  C4  UNL     1      32.788  10.906  24.254  1.00  0.00    -0.002 A 
HETATM   16  C5  UNL     1      33.450   9.764  23.799  1.00  0.00     0.015 A 
HETATM   17  C6  UNL     1      34.784   9.799  23.406  1.00  0.00     0.007 A 
HETATM   18  C7  UNL     1      35.416  11.014  23.488  1.00  0.00    -0.061 A 
HETATM   19  C8  UNL     1      36.852  11.072  23.071  1.00  0.00     0.048 C 
HETATM   20  C9  UNL     1      34.789  12.140  23.930  1.00  0.00     0.014 A 
HETATM   21  C10 UNL     1      33.449  12.099  24.324  1.00  0.00    -0.049 A 
HETATM   22  C11 UNL     1      32.780  13.308  24.831  1.00  0.00     0.049 C 
ENDBRANCH   4  15
BRANCH   1  23
HETATM   23  S1  UNL     1      29.264   9.557  27.781  1.00  0.00    -0.098 SA
HETATM   24  C1  UNL     1      30.445   8.323  28.309  1.00  0.00     0.099 C 
ENDBRANCH   1  23
TORSDOF 2
ENDMDL
