MODEL 2
REMARK VINA RESULT: -7.375061686      2.566      5.021
REMARK  2 active torsions:
REMARK  status: ('A' for Active; 'I' for Inactive)
REMARK    1  A    between atoms: S1_2  and  C2_3 
REMARK    2  A    between atoms: C3_6  and  C4_7 
ROOT
HETATM    1  C2  UNL     1      34.326   6.879  25.122  1.00  0.00     0.145 A 
HETATM    2  N1  UNL     1      33.513   7.827  24.639  1.00  0.00    -0.335 N 
ATOM      3  H1  UNL     1      33.616   8.102  23.662  1.00  0.00     0.168 HD
HETATM    4  C3  UNL     1      32.562   8.439  25.381  1.00  0.00     0.060 A 
HETATM    5  C12 UNL     1      32.415   8.074  26.696  1.00  0.00     0.058 A 
HETATM    6  C13 UNL     1      31.556   8.485  27.696  1.00  0.00     0.076 A 
HETATM    7  C14 UNL     1      30.501   9.477  27.636  1.00  0.00     0.102 C 
HETATM    8  N2  UNL     1      29.652  10.248  27.607  1.00  0.00    -0.191 NA
HETATM    9  C15 UNL     1      31.909   7.723  28.805  1.00  0.00     0.113 A 
HETATM   10  N3  UNL     1      32.920   6.910  28.470  1.00  0.00    -0.350 N 
ATOM     11  H3  UNL     1      33.364   6.246  29.104  1.00  0.00     0.166 HD
HETATM   12  C16 UNL     1      33.268   7.086  27.185  1.00  0.00     0.121 A 
HETATM   13  N4  UNL     1      34.214   6.494  26.403  1.00  0.00    -0.322 N 
ATOM     14  H4  UNL     1      34.826   5.773  26.785  1.00  0.00     0.169 HD
ENDROOT
BRANCH   4  15
HETATM   15  C4  UNL     1      31.692   9.444  24.792  1.00  0.00    -0.002 A 
HETATM   16  C5  UNL     1      30.369   9.134  24.472  1.00  0.00     0.015 A 
HETATM   17  C6  UNL     1      29.498  10.086  23.952  1.00  0.00     0.007 A 
HETATM   18  C7  UNL     1      30.007  11.347  23.770  1.00  0.00    -0.061 A 
HETATM   19  C8  UNL     1      29.086  12.386  23.211  1.00  0.00     0.048 C 
HETATM   20  C9  UNL     1      31.294  11.671  24.075  1.00  0.00     0.014 A 
HETATM   21  C10 UNL     1      32.164  10.711  24.597  1.00  0.00    -0.049 A 
HETATM   22  C11 UNL     1      33.564  11.052  24.897  1.00  0.00     0.049 C 
ENDBRANCH   4  15
BRANCH   1  23
HETATM   23  S1  UNL     1      35.567   6.108  24.067  1.00  0.00    -0.098 SA
HETATM   24  C1  UNL     1      35.218   6.389  22.337  1.00  0.00     0.099 C 
ENDBRANCH   1  23
TORSDOF 2
ENDMDL
