MODEL 3
REMARK VINA RESULT: -7.317880209      1.212      1.411
REMARK  2 active torsions:
REMARK  status: ('A' for Active; 'I' for Inactive)
REMARK    1  A    between atoms: S1_2  and  C2_3 
REMARK    2  A    between atoms: C3_6  and  C4_7 
ROOT
HETATM    1  C2  UNL     1      30.036   9.840  24.748  1.00  0.00     0.145 A 
HETATM    2  N1  UNL     1      30.904   9.050  24.103  1.00  0.00    -0.335 N 
ATOM      3  H1  UNL     1      30.919   9.077  23.084  1.00  0.00     0.168 HD
HETATM    4  C3  UNL     1      31.763   8.219  24.736  1.00  0.00     0.060 A 
HETATM    5  C12 UNL     1      31.752   8.177  26.108  1.00  0.00     0.058 A 
HETATM    6  C13 UNL     1      32.488   7.465  27.034  1.00  0.00     0.076 A 
HETATM    7  C14 UNL     1      33.547   6.503  26.806  1.00  0.00     0.102 C 
HETATM    8  N2  UNL     1      34.397   5.748  26.648  1.00  0.00    -0.191 NA
HETATM    9  C15 UNL     1      32.002   7.879  28.270  1.00  0.00     0.113 A 
HETATM   10  N3  UNL     1      31.035   8.785  28.076  1.00  0.00    -0.350 N 
ATOM     11  H3  UNL     1      30.515   9.247  28.823  1.00  0.00     0.166 HD
HETATM   12  C16 UNL     1      30.843   9.004  26.765  1.00  0.00     0.121 A 
HETATM   13  N4  UNL     1      29.993   9.828  26.090  1.00  0.00    -0.322 N 
ATOM     14  H4  UNL     1      29.337  10.425  26.594  1.00  0.00     0.169 HD
ENDROOT
BRANCH   4  15
HETATM   15  C4  UNL     1      32.702   7.404  23.981  1.00  0.00    -0.002 A 
HETATM   16  C5  UNL     1      32.373   6.093  23.627  1.00  0.00     0.015 A 
HETATM   17  C6  UNL     1      33.230   5.305  22.866  1.00  0.00     0.007 A 
HETATM   18  C7  UNL     1      34.413   5.880  22.479  1.00  0.00    -0.061 A 
HETATM   19  C8  UNL     1      35.348   5.047  21.660  1.00  0.00     0.048 C 
HETATM   20  C9  UNL     1      34.753   7.156  22.814  1.00  0.00     0.014 A 
HETATM   21  C10 UNL     1      33.890   7.944  23.579  1.00  0.00    -0.049 A 
HETATM   22  C11 UNL     1      34.270   9.312  23.968  1.00  0.00     0.049 C 
ENDBRANCH   4  15
BRANCH   1  23
HETATM   23  S1  UNL     1      28.925  10.924  23.832  1.00  0.00    -0.098 SA
HETATM   24  C1  UNL     1      29.833  12.091  22.829  1.00  0.00     0.099 C 
ENDBRANCH   1  23
TORSDOF 2
ENDMDL
