MODEL 1
REMARK VINA RESULT: -8.325832914      0.000      0.000
REMARK  2 active torsions:
REMARK  status: ('A' for Active; 'I' for Inactive)
REMARK    1  A    between atoms: S1_2  and  C2_3 
REMARK    2  A    between atoms: C3_6  and  C4_7 
ROOT
HETATM    1  C2  UNL     1      29.760  10.843  23.849  1.00  0.00     0.145 A 
HETATM    2  N1  UNL     1      30.669   9.903  23.559  1.00  0.00    -0.335 N 
ATOM      3  H1  UNL     1      30.974   9.807  22.590  1.00  0.00     0.168 HD
HETATM    4  C3  UNL     1      31.202   9.075  24.485  1.00  0.00     0.060 A 
HETATM    5  C12 UNL     1      30.799   9.199  25.792  1.00  0.00     0.058 A 
HETATM    6  C13 UNL     1      31.148   8.534  26.952  1.00  0.00     0.076 A 
HETATM    7  C14 UNL     1      32.098   7.455  27.129  1.00  0.00     0.102 C 
HETATM    8  N2  UNL     1      32.857   6.610  27.294  1.00  0.00    -0.191 NA
HETATM    9  C15 UNL     1      30.390   9.137  27.949  1.00  0.00     0.113 A 
HETATM   10  N3  UNL     1      29.639  10.103  27.402  1.00  0.00    -0.350 N 
ATOM     11  H3  UNL     1      28.992  10.698  27.920  1.00  0.00     0.166 HD
HETATM   12  C16 UNL     1      29.853  10.181  26.079  1.00  0.00     0.121 A 
HETATM   13  N4  UNL     1      29.339  10.996  25.115  1.00  0.00    -0.322 N 
ATOM     14  H4  UNL     1      28.648  11.708  25.350  1.00  0.00     0.169 HD
ENDROOT
BRANCH   4  15
HETATM   15  C4  UNL     1      32.205   8.090  24.113  1.00  0.00    -0.002 A 
HETATM   16  C5  UNL     1      31.839   6.762  23.883  1.00  0.00     0.015 A 
HETATM   17  C6  UNL     1      32.767   5.807  23.480  1.00  0.00     0.007 A 
HETATM   18  C7  UNL     1      34.060   6.236  23.320  1.00  0.00    -0.061 A 
HETATM   19  C8  UNL     1      35.073   5.222  22.888  1.00  0.00     0.048 C 
HETATM   20  C9  UNL     1      34.438   7.526  23.540  1.00  0.00     0.014 A 
HETATM   21  C10 UNL     1      33.503   8.481  23.945  1.00  0.00    -0.049 A 
HETATM   22  C11 UNL     1      33.916   9.868  24.214  1.00  0.00     0.049 C 
ENDBRANCH   4  15
BRANCH   1  23
HETATM   23  S1  UNL     1      29.098  11.911  22.557  1.00  0.00    -0.098 SA
HETATM   24  C1  UNL     1      30.310  12.213  21.278  1.00  0.00     0.099 C 
ENDBRANCH   1  23
TORSDOF 2
ENDMDL
