MODEL 14
REMARK VINA RESULT: -7.991392817      1.744      5.893
REMARK  2 active torsions:
REMARK  status: ('A' for Active; 'I' for Inactive)
REMARK    1  A    between atoms: C5_5  and  C6_6 
REMARK    2  A    between atoms: N2_9  and  C7_10 
ROOT
HETATM    1  C6  UNL     1     -21.162 -28.958 -18.367  1.00  0.00     0.076 A 
HETATM    2  N1  UNL     1     -20.828 -28.396 -17.168  1.00  0.00    -0.294 N 
ATOM      3  H1  UNL     1     -20.596 -28.923 -16.325  1.00  0.00     0.187 HD
HETATM    4  N2  UNL     1     -20.847 -27.085 -17.250  1.00  0.00    -0.266 N 
HETATM    5  C11 UNL     1     -21.198 -26.765 -18.523  1.00  0.00     0.140 A 
HETATM    6  N3  UNL     1     -21.364 -25.597 -19.164  1.00  0.00    -0.337 N 
ATOM      7  H3  UNL     1     -21.212 -24.746 -18.622  1.00  0.00     0.168 HD
HETATM    8  C12 UNL     1     -21.709 -25.445 -20.443  1.00  0.00     0.183 A 
HETATM    9  N4  UNL     1     -21.907 -26.565 -21.154  1.00  0.00    -0.340 N 
ATOM     10  H4  UNL     1     -22.172 -26.501 -22.136  1.00  0.00     0.167 HD
HETATM   11  C13 UNL     1     -21.755 -27.795 -20.569  1.00  0.00     0.133 A 
HETATM   12  N5  UNL     1     -21.941 -28.974 -21.328  1.00  0.00    -0.082 NA
HETATM   13  C14 UNL     1     -21.400 -27.920 -19.243  1.00  0.00     0.080 A 
ENDROOT
BRANCH   1  14
HETATM   14  C5  UNL     1     -21.231 -30.374 -18.673  1.00  0.00    -0.007 A 
HETATM   15  C4  UNL     1     -20.073 -30.988 -19.102  1.00  0.00     0.014 A 
HETATM   16  C3  UNL     1     -20.022 -32.335 -19.393  1.00  0.00     0.007 A 
HETATM   17  C2  UNL     1     -21.176 -33.106 -19.251  1.00  0.00    -0.062 A 
HETATM   18  C1  UNL     1     -21.138 -34.572 -19.565  1.00  0.00     0.048 C 
HETATM   19  C16 UNL     1     -22.320 -32.489 -18.827  1.00  0.00     0.007 A 
HETATM   20  C15 UNL     1     -22.362 -31.142 -18.537  1.00  0.00     0.014 A 
ENDBRANCH   1  14
BRANCH   4  21
HETATM   21  C7  UNL     1     -20.556 -26.105 -16.206  1.00  0.00     0.044 C 
HETATM   22  C8  UNL     1     -19.977 -26.860 -15.046  1.00  0.00     0.039 C 
HETATM   23  C9  UNL     1     -21.812 -25.349 -15.818  1.00  0.00     0.039 C 
HETATM   24  C10 UNL     1     -19.551 -25.082 -16.675  1.00  0.00     0.039 C 
ENDBRANCH   4  21
TORSDOF 2
ENDMDL
