MODEL 2
REMARK VINA RESULT: -8.838249550      1.920      3.850
REMARK  2 active torsions:
REMARK  status: ('A' for Active; 'I' for Inactive)
REMARK    1  A    between atoms: C5_5  and  C6_6 
REMARK    2  A    between atoms: N2_9  and  C7_10 
ROOT
HETATM    1  C6  UNL     1     -21.308 -29.177 -18.907  1.00  0.00     0.076 A 
HETATM    2  N1  UNL     1     -21.924 -29.572 -20.059  1.00  0.00    -0.294 N 
ATOM      3  H1  UNL     1     -22.526 -28.978 -20.630  1.00  0.00     0.187 HD
HETATM    4  N2  UNL     1     -21.635 -30.825 -20.332  1.00  0.00    -0.266 N 
HETATM    5  C11 UNL     1     -20.813 -31.272 -19.347  1.00  0.00     0.140 A 
HETATM    6  N3  UNL     1     -20.209 -32.451 -19.119  1.00  0.00    -0.337 N 
ATOM      7  H3  UNL     1     -20.378 -33.196 -19.795  1.00  0.00     0.168 HD
HETATM    8  C12 UNL     1     -19.409 -32.738 -18.091  1.00  0.00     0.183 A 
HETATM    9  N4  UNL     1     -19.187 -31.756 -17.205  1.00  0.00    -0.340 N 
ATOM     10  H4  UNL     1     -18.583 -31.927 -16.402  1.00  0.00     0.167 HD
HETATM   11  C13 UNL     1     -19.767 -30.526 -17.371  1.00  0.00     0.133 A 
HETATM   12  N5  UNL     1     -19.510 -29.485 -16.447  1.00  0.00    -0.082 NA
HETATM   13  C14 UNL     1     -20.592 -30.259 -18.443  1.00  0.00     0.080 A 
ENDROOT
BRANCH   1  14
HETATM   14  C5  UNL     1     -21.372 -27.862 -18.295  1.00  0.00    -0.007 A 
HETATM   15  C4  UNL     1     -21.118 -26.774 -19.102  1.00  0.00     0.014 A 
HETATM   16  C3  UNL     1     -21.180 -25.480 -18.630  1.00  0.00     0.007 A 
HETATM   17  C2  UNL     1     -21.508 -25.260 -17.291  1.00  0.00    -0.062 A 
HETATM   18  C1  UNL     1     -21.578 -23.859 -16.760  1.00  0.00     0.048 C 
HETATM   19  C16 UNL     1     -21.757 -26.345 -16.498  1.00  0.00     0.007 A 
HETATM   20  C15 UNL     1     -21.695 -27.636 -16.979  1.00  0.00     0.014 A 
ENDBRANCH   1  14
BRANCH   4  21
HETATM   21  C7  UNL     1     -22.081 -31.635 -21.462  1.00  0.00     0.044 C 
HETATM   22  C8  UNL     1     -22.760 -30.707 -22.426  1.00  0.00     0.039 C 
HETATM   23  C9  UNL     1     -23.009 -32.740 -20.994  1.00  0.00     0.039 C 
HETATM   24  C10 UNL     1     -20.919 -32.299 -22.158  1.00  0.00     0.039 C 
ENDBRANCH   4  21
TORSDOF 2
ENDMDL
