MODEL 10
REMARK VINA RESULT: -8.300803387      1.403      5.883
REMARK  2 active torsions:
REMARK  status: ('A' for Active; 'I' for Inactive)
REMARK    1  A    between atoms: C5_5  and  C6_6 
REMARK    2  A    between atoms: N2_9  and  C7_10 
ROOT
HETATM    1  C6  UNL     1     -21.236 -29.066 -18.378  1.00  0.00     0.076 A 
HETATM    2  N1  UNL     1     -21.111 -28.138 -17.385  1.00  0.00    -0.294 N 
ATOM      3  H1  UNL     1     -20.964 -28.358 -16.399  1.00  0.00     0.187 HD
HETATM    4  N2  UNL     1     -21.205 -26.922 -17.874  1.00  0.00    -0.266 N 
HETATM    5  C11 UNL     1     -21.396 -27.040 -19.213  1.00  0.00     0.140 A 
HETATM    6  N3  UNL     1     -21.548 -26.143 -20.202  1.00  0.00    -0.337 N 
ATOM      7  H3  UNL     1     -21.530 -25.157 -19.939  1.00  0.00     0.168 HD
HETATM    8  C12 UNL     1     -21.720 -26.420 -21.495  1.00  0.00     0.183 A 
HETATM    9  N4  UNL     1     -21.742 -27.717 -21.837  1.00  0.00    -0.340 N 
ATOM     10  H4  UNL     1     -21.872 -27.980 -22.814  1.00  0.00     0.167 HD
HETATM   11  C13 UNL     1     -21.592 -28.690 -20.885  1.00  0.00     0.133 A 
HETATM   12  N5  UNL     1     -21.591 -30.056 -21.254  1.00  0.00    -0.082 NA
HETATM   13  C14 UNL     1     -21.418 -28.372 -19.555  1.00  0.00     0.080 A 
ENDROOT
BRANCH   1  14
HETATM   14  C5  UNL     1     -21.167 -30.508 -18.233  1.00  0.00    -0.007 A 
HETATM   15  C4  UNL     1     -19.926 -31.098 -18.342  1.00  0.00     0.014 A 
HETATM   16  C3  UNL     1     -19.744 -32.458 -18.193  1.00  0.00     0.007 A 
HETATM   17  C2  UNL     1     -20.850 -33.266 -17.922  1.00  0.00    -0.062 A 
HETATM   18  C1  UNL     1     -20.670 -34.746 -17.759  1.00  0.00     0.048 C 
HETATM   19  C16 UNL     1     -22.076 -32.672 -17.817  1.00  0.00     0.007 A 
HETATM   20  C15 UNL     1     -22.249 -31.312 -17.966  1.00  0.00     0.014 A 
ENDBRANCH   1  14
BRANCH   4  21
HETATM   21  C7  UNL     1     -21.128 -25.648 -17.162  1.00  0.00     0.044 C 
HETATM   22  C8  UNL     1     -19.677 -25.274 -17.089  1.00  0.00     0.039 C 
HETATM   23  C9  UNL     1     -21.751 -25.768 -15.783  1.00  0.00     0.039 C 
HETATM   24  C10 UNL     1     -21.877 -24.562 -17.892  1.00  0.00     0.039 C 
ENDBRANCH   4  21
TORSDOF 2
ENDMDL
