MODEL 1
REMARK VINA RESULT: -9.128191043      0.000      0.000
REMARK  2 active torsions:
REMARK  status: ('A' for Active; 'I' for Inactive)
REMARK    1  A    between atoms: C5_5  and  C6_6 
REMARK    2  A    between atoms: N2_9  and  C7_10 
ROOT
HETATM    1  C6  UNL     1     -21.334 -27.413 -18.816  1.00  0.00     0.076 A 
HETATM    2  N1  UNL     1     -21.421 -28.396 -17.874  1.00  0.00    -0.294 N 
ATOM      3  H1  UNL     1     -21.367 -28.242 -16.866  1.00  0.00     0.187 HD
HETATM    4  N2  UNL     1     -21.584 -29.569 -18.443  1.00  0.00    -0.266 N 
HETATM    5  C11 UNL     1     -21.606 -29.366 -19.786  1.00  0.00     0.140 A 
HETATM    6  N3  UNL     1     -21.752 -30.190 -20.837  1.00  0.00    -0.337 N 
ATOM      7  H3  UNL     1     -21.866 -31.183 -20.635  1.00  0.00     0.168 HD
HETATM    8  C12 UNL     1     -21.761 -29.830 -22.121  1.00  0.00     0.183 A 
HETATM    9  N4  UNL     1     -21.613 -28.524 -22.385  1.00  0.00    -0.340 N 
ATOM     10  H4  UNL     1     -21.613 -28.200 -23.351  1.00  0.00     0.167 HD
HETATM   11  C13 UNL     1     -21.461 -27.622 -21.364  1.00  0.00     0.133 A 
HETATM   12  N5  UNL     1     -21.329 -26.241 -21.646  1.00  0.00    -0.082 NA
HETATM   13  C14 UNL     1     -21.453 -28.024 -20.046  1.00  0.00     0.080 A 
ENDROOT
BRANCH   1  14
HETATM   14  C5  UNL     1     -21.171 -25.991 -18.576  1.00  0.00    -0.007 A 
HETATM   15  C4  UNL     1     -20.043 -25.588 -17.893  1.00  0.00     0.014 A 
HETATM   16  C3  UNL     1     -19.776 -24.260 -17.636  1.00  0.00     0.007 A 
HETATM   17  C2  UNL     1     -20.674 -23.288 -18.079  1.00  0.00    -0.062 A 
HETATM   18  C1  UNL     1     -20.401 -21.839 -17.806  1.00  0.00     0.048 C 
HETATM   19  C16 UNL     1     -21.790 -23.696 -18.754  1.00  0.00     0.007 A 
HETATM   20  C15 UNL     1     -22.049 -25.027 -19.008  1.00  0.00     0.014 A 
ENDBRANCH   1  14
BRANCH   4  21
HETATM   21  C7  UNL     1     -21.721 -30.877 -17.806  1.00  0.00     0.044 C 
HETATM   22  C8  UNL     1     -22.318 -30.643 -16.449  1.00  0.00     0.039 C 
HETATM   23  C9  UNL     1     -20.375 -31.573 -17.719  1.00  0.00     0.039 C 
HETATM   24  C10 UNL     1     -22.636 -31.781 -18.594  1.00  0.00     0.039 C 
ENDBRANCH   4  21
TORSDOF 2
ENDMDL
