MODEL 11
REMARK VINA RESULT: -8.260782863      1.407      5.959
REMARK  2 active torsions:
REMARK  status: ('A' for Active; 'I' for Inactive)
REMARK    1  A    between atoms: C5_5  and  C6_6 
REMARK    2  A    between atoms: N2_9  and  C7_10 
ROOT
HETATM    1  C6  UNL     1     -21.130 -29.087 -18.393  1.00  0.00     0.076 A 
HETATM    2  N1  UNL     1     -21.023 -28.142 -17.414  1.00  0.00    -0.294 N 
ATOM      3  H1  UNL     1     -20.850 -28.343 -16.429  1.00  0.00     0.187 HD
HETATM    4  N2  UNL     1     -21.175 -26.937 -17.917  1.00  0.00    -0.266 N 
HETATM    5  C11 UNL     1     -21.385 -27.080 -19.251  1.00  0.00     0.140 A 
HETATM    6  N3  UNL     1     -21.591 -26.202 -20.248  1.00  0.00    -0.337 N 
ATOM      7  H3  UNL     1     -21.607 -25.214 -19.998  1.00  0.00     0.168 HD
HETATM    8  C12 UNL     1     -21.777 -26.504 -21.533  1.00  0.00     0.183 A 
HETATM    9  N4  UNL     1     -21.754 -27.805 -21.859  1.00  0.00    -0.340 N 
ATOM     10  H4  UNL     1     -21.891 -28.085 -22.830  1.00  0.00     0.167 HD
HETATM   11  C13 UNL     1     -21.548 -28.758 -20.897  1.00  0.00     0.133 A 
HETATM   12  N5  UNL     1     -21.500 -30.128 -21.249  1.00  0.00    -0.082 NA
HETATM   13  C14 UNL     1     -21.361 -28.416 -19.575  1.00  0.00     0.080 A 
ENDROOT
BRANCH   1  14
HETATM   14  C5  UNL     1     -21.002 -30.524 -18.231  1.00  0.00    -0.007 A 
HETATM   15  C4  UNL     1     -22.142 -31.229 -17.907  1.00  0.00     0.014 A 
HETATM   16  C3  UNL     1     -22.137 -32.600 -17.758  1.00  0.00     0.007 A 
HETATM   17  C2  UNL     1     -20.944 -33.300 -17.939  1.00  0.00    -0.062 A 
HETATM   18  C1  UNL     1     -20.921 -34.792 -17.779  1.00  0.00     0.048 C 
HETATM   19  C16 UNL     1     -19.819 -32.592 -18.260  1.00  0.00     0.007 A 
HETATM   20  C15 UNL     1     -19.832 -31.222 -18.408  1.00  0.00     0.014 A 
ENDBRANCH   1  14
BRANCH   4  21
HETATM   21  C7  UNL     1     -21.134 -25.652 -17.223  1.00  0.00     0.044 C 
HETATM   22  C8  UNL     1     -19.690 -25.261 -17.106  1.00  0.00     0.039 C 
HETATM   23  C9  UNL     1     -21.803 -25.757 -15.864  1.00  0.00     0.039 C 
HETATM   24  C10 UNL     1     -21.869 -24.585 -17.995  1.00  0.00     0.039 C 
ENDBRANCH   4  21
TORSDOF 2
ENDMDL
