MODEL 12
REMARK VINA RESULT: -8.053870908      1.767      5.916
REMARK  2 active torsions:
REMARK  status: ('A' for Active; 'I' for Inactive)
REMARK    1  A    between atoms: C5_5  and  C6_6 
REMARK    2  A    between atoms: N2_9  and  C7_10 
ROOT
HETATM    1  C6  UNL     1     -21.116 -28.835 -18.488  1.00  0.00     0.076 A 
HETATM    2  N1  UNL     1     -20.769 -28.331 -17.268  1.00  0.00    -0.294 N 
ATOM      3  H1  UNL     1     -20.509 -28.896 -16.459  1.00  0.00     0.187 HD
HETATM    4  N2  UNL     1     -20.816 -27.018 -17.281  1.00  0.00    -0.266 N 
HETATM    5  C11 UNL     1     -21.199 -26.639 -18.528  1.00  0.00     0.140 A 
HETATM    6  N3  UNL     1     -21.401 -25.442 -19.103  1.00  0.00    -0.337 N 
ATOM      7  H3  UNL     1     -21.255 -24.618 -18.520  1.00  0.00     0.168 HD
HETATM    8  C12 UNL     1     -21.776 -25.231 -20.365  1.00  0.00     0.183 A 
HETATM    9  N4  UNL     1     -21.966 -26.316 -21.130  1.00  0.00    -0.340 N 
ATOM     10  H4  UNL     1     -22.252 -26.206 -22.102  1.00  0.00     0.167 HD
HETATM   11  C13 UNL     1     -21.778 -27.571 -20.614  1.00  0.00     0.133 A 
HETATM   12  N5  UNL     1     -21.956 -28.713 -21.431  1.00  0.00    -0.082 NA
HETATM   13  C14 UNL     1     -21.393 -27.759 -19.304  1.00  0.00     0.080 A 
ENDROOT
BRANCH   1  14
HETATM   14  C5  UNL     1     -21.164 -30.235 -18.868  1.00  0.00    -0.007 A 
HETATM   15  C4  UNL     1     -22.296 -30.946 -18.529  1.00  0.00     0.014 A 
HETATM   16  C3  UNL     1     -22.456 -32.274 -18.867  1.00  0.00     0.007 A 
HETATM   17  C2  UNL     1     -21.443 -32.923 -19.573  1.00  0.00    -0.062 A 
HETATM   18  C1  UNL     1     -21.600 -34.367 -19.947  1.00  0.00     0.048 C 
HETATM   19  C16 UNL     1     -20.324 -32.211 -19.904  1.00  0.00     0.007 A 
HETATM   20  C15 UNL     1     -20.172 -30.883 -19.564  1.00  0.00     0.014 A 
ENDBRANCH   1  14
BRANCH   4  21
HETATM   21  C7  UNL     1     -20.522 -26.088 -16.193  1.00  0.00     0.044 C 
HETATM   22  C8  UNL     1     -19.953 -26.899 -15.065  1.00  0.00     0.039 C 
HETATM   23  C9  UNL     1     -21.776 -25.342 -15.775  1.00  0.00     0.039 C 
HETATM   24  C10 UNL     1     -19.509 -25.052 -16.611  1.00  0.00     0.039 C 
ENDBRANCH   4  21
TORSDOF 2
ENDMDL
