MODEL 3
REMARK VINA RESULT: -8.737661417      2.129      3.857
REMARK  2 active torsions:
REMARK  status: ('A' for Active; 'I' for Inactive)
REMARK    1  A    between atoms: C5_5  and  C6_6 
REMARK    2  A    between atoms: N2_9  and  C7_10 
ROOT
HETATM    1  C6  UNL     1     -21.216 -29.338 -18.433  1.00  0.00     0.076 A 
HETATM    2  N1  UNL     1     -21.953 -29.843 -19.465  1.00  0.00    -0.294 N 
ATOM      3  H1  UNL     1     -22.708 -29.345 -19.938  1.00  0.00     0.187 HD
HETATM    4  N2  UNL     1     -21.556 -31.059 -19.766  1.00  0.00    -0.266 N 
HETATM    5  C11 UNL     1     -20.538 -31.371 -18.922  1.00  0.00     0.140 A 
HETATM    6  N3  UNL     1     -19.762 -32.459 -18.781  1.00  0.00    -0.337 N 
ATOM      7  H3  UNL     1     -19.942 -33.241 -19.411  1.00  0.00     0.168 HD
HETATM    8  C12 UNL     1     -18.779 -32.612 -17.894  1.00  0.00     0.183 A 
HETATM    9  N4  UNL     1     -18.543 -31.583 -17.068  1.00  0.00    -0.340 N 
ATOM     10  H4  UNL     1     -17.801 -31.652 -16.372  1.00  0.00     0.167 HD
HETATM   11  C13 UNL     1     -19.292 -30.438 -17.152  1.00  0.00     0.133 A 
HETATM   12  N5  UNL     1     -19.024 -29.345 -16.295  1.00  0.00    -0.082 NA
HETATM   13  C14 UNL     1     -20.304 -30.310 -18.079  1.00  0.00     0.080 A 
ENDROOT
BRANCH   1  14
HETATM   14  C5  UNL     1     -21.345 -28.022 -17.835  1.00  0.00    -0.007 A 
HETATM   15  C4  UNL     1     -21.135 -26.931 -18.652  1.00  0.00     0.014 A 
HETATM   16  C3  UNL     1     -21.260 -25.637 -18.193  1.00  0.00     0.007 A 
HETATM   17  C2  UNL     1     -21.611 -25.419 -16.859  1.00  0.00    -0.062 A 
HETATM   18  C1  UNL     1     -21.750 -24.018 -16.343  1.00  0.00     0.048 C 
HETATM   19  C16 UNL     1     -21.816 -26.507 -16.057  1.00  0.00     0.007 A 
HETATM   20  C15 UNL     1     -21.690 -27.798 -16.525  1.00  0.00     0.014 A 
ENDBRANCH   1  14
BRANCH   4  21
HETATM   21  C7  UNL     1     -22.072 -31.954 -20.799  1.00  0.00     0.044 C 
HETATM   22  C8  UNL     1     -22.610 -33.168 -20.099  1.00  0.00     0.039 C 
HETATM   23  C9  UNL     1     -20.980 -32.311 -21.790  1.00  0.00     0.039 C 
HETATM   24  C10 UNL     1     -23.186 -31.307 -21.583  1.00  0.00     0.039 C 
ENDBRANCH   4  21
TORSDOF 2
ENDMDL
