MODEL 18
REMARK VINA RESULT: -7.655653714      1.677      6.169
REMARK  2 active torsions:
REMARK  status: ('A' for Active; 'I' for Inactive)
REMARK    1  A    between atoms: C5_5  and  C6_6 
REMARK    2  A    between atoms: N2_9  and  C7_10 
ROOT
HETATM    1  C6  UNL     1     -21.421 -29.922 -18.887  1.00  0.00     0.076 A 
HETATM    2  N1  UNL     1     -21.243 -29.185 -17.752  1.00  0.00    -0.294 N 
ATOM      3  H1  UNL     1     -21.154 -29.575 -16.814  1.00  0.00     0.187 HD
HETATM    4  N2  UNL     1     -21.200 -27.902 -18.036  1.00  0.00    -0.266 N 
HETATM    5  C11 UNL     1     -21.352 -27.782 -19.381  1.00  0.00     0.140 A 
HETATM    6  N3  UNL     1     -21.380 -26.726 -20.211  1.00  0.00    -0.337 N 
ATOM      7  H3  UNL     1     -21.275 -25.803 -19.790  1.00  0.00     0.168 HD
HETATM    8  C12 UNL     1     -21.531 -26.772 -21.535  1.00  0.00     0.183 A 
HETATM    9  N4  UNL     1     -21.667 -27.986 -22.087  1.00  0.00    -0.340 N 
ATOM     10  H4  UNL     1     -21.786 -28.073 -23.095  1.00  0.00     0.167 HD
HETATM   11  C13 UNL     1     -21.647 -29.111 -21.304  1.00  0.00     0.133 A 
HETATM   12  N5  UNL     1     -21.766 -30.392 -21.893  1.00  0.00    -0.082 NA
HETATM   13  C14 UNL     1     -21.491 -29.032 -19.937  1.00  0.00     0.080 A 
ENDROOT
BRANCH   1  14
HETATM   14  C5  UNL     1     -21.499 -31.368 -18.980  1.00  0.00    -0.007 A 
HETATM   15  C4  UNL     1     -22.748 -31.944 -18.882  1.00  0.00     0.014 A 
HETATM   16  C3  UNL     1     -22.939 -33.306 -18.985  1.00  0.00     0.007 A 
HETATM   17  C2  UNL     1     -21.834 -34.133 -19.195  1.00  0.00    -0.062 A 
HETATM   18  C1  UNL     1     -22.022 -35.616 -19.308  1.00  0.00     0.048 C 
HETATM   19  C16 UNL     1     -20.599 -33.554 -19.290  1.00  0.00     0.007 A 
HETATM   20  C15 UNL     1     -20.418 -32.191 -19.186  1.00  0.00     0.014 A 
ENDBRANCH   1  14
BRANCH   4  21
HETATM   21  C7  UNL     1     -21.025 -26.775 -17.123  1.00  0.00     0.044 C 
HETATM   22  C8  UNL     1     -21.660 -25.581 -17.773  1.00  0.00     0.039 C 
HETATM   23  C9  UNL     1     -19.553 -26.545 -16.835  1.00  0.00     0.039 C 
HETATM   24  C10 UNL     1     -21.700 -27.028 -15.799  1.00  0.00     0.039 C 
ENDBRANCH   4  21
TORSDOF 2
ENDMDL
