MODEL 1
REMARK VINA RESULT: -8.743424068      0.000      0.000
REMARK  2 active torsions:
REMARK  status: ('A' for Active; 'I' for Inactive)
REMARK    1  A    between atoms: C2_2  and  N1_5 
REMARK    2  A    between atoms: C5_8  and  C6_9 
ROOT
HETATM    1  N1  UNL     1     -21.412 -30.525 -17.436  1.00  0.00    -0.266 N 
HETATM    2  N2  UNL     1     -21.229 -29.356 -16.860  1.00  0.00    -0.294 N 
ATOM      3  H2  UNL     1     -21.127 -29.201 -15.857  1.00  0.00     0.187 HD
HETATM    4  C5  UNL     1     -21.198 -28.381 -17.820  1.00  0.00     0.076 A 
HETATM    5  C12 UNL     1     -21.373 -29.016 -19.023  1.00  0.00     0.080 A 
HETATM    6  C13 UNL     1     -21.438 -28.533 -20.307  1.00  0.00     0.133 A 
HETATM    7  N3  UNL     1     -21.339 -27.177 -20.653  1.00  0.00    -0.082 NA
HETATM    8  N4  UNL     1     -21.635 -29.446 -21.303  1.00  0.00    -0.340 N 
ATOM      9  H4  UNL     1     -21.688 -29.126 -22.270  1.00  0.00     0.167 HD
HETATM   10  C14 UNL     1     -21.760 -30.759 -21.036  1.00  0.00     0.183 A 
HETATM   11  N5  UNL     1     -21.698 -31.228 -19.771  1.00  0.00    -0.337 N 
ATOM     12  H5  UNL     1     -21.797 -32.226 -19.590  1.00  0.00     0.168 HD
HETATM   13  C15 UNL     1     -21.509 -30.387 -18.766  1.00  0.00     0.140 A 
ENDROOT
BRANCH   4  14
HETATM   14  C6  UNL     1     -21.036 -26.956 -17.613  1.00  0.00    -0.007 A 
HETATM   15  C7  UNL     1     -21.913 -25.989 -18.045  1.00  0.00     0.015 A 
HETATM   16  C8  UNL     1     -21.698 -24.640 -17.782  1.00  0.00     0.024 A 
HETATM   17  C9  UNL     1     -20.597 -24.212 -17.078  1.00  0.00     0.034 A 
HETATM   18 CL1  UNL     1     -20.334 -22.493 -16.748  1.00  0.00    -0.084 Cl
HETATM   19  C10 UNL     1     -19.701 -25.162 -16.634  1.00  0.00     0.024 A 
HETATM   20  C11 UNL     1     -19.925 -26.493 -16.900  1.00  0.00     0.015 A 
ENDBRANCH   4  14
BRANCH   1  21
HETATM   21  C2  UNL     1     -21.490 -31.765 -16.662  1.00  0.00     0.044 C 
HETATM   22  C1  UNL     1     -22.692 -32.566 -17.115  1.00  0.00     0.039 C 
HETATM   23  C3  UNL     1     -20.221 -32.575 -16.842  1.00  0.00     0.039 C 
HETATM   24  C4  UNL     1     -21.679 -31.381 -15.210  1.00  0.00     0.039 C 
ENDBRANCH   1  21
TORSDOF 2
ENDMDL
