MODEL 4
REMARK VINA RESULT: -8.639173183      1.460      3.487
REMARK  2 active torsions:
REMARK  status: ('A' for Active; 'I' for Inactive)
REMARK    1  A    between atoms: C2_2  and  N1_5 
REMARK    2  A    between atoms: C5_8  and  C6_9 
ROOT
HETATM    1  N1  UNL     1     -21.448 -30.143 -18.486  1.00  0.00    -0.266 N 
HETATM    2  N2  UNL     1     -21.205 -28.868 -18.700  1.00  0.00    -0.294 N 
ATOM      3  H2  UNL     1     -21.086 -28.435 -19.616  1.00  0.00     0.187 HD
HETATM    4  C5  UNL     1     -21.135 -28.216 -17.500  1.00  0.00     0.076 A 
HETATM    5  C12 UNL     1     -21.350 -29.162 -16.531  1.00  0.00     0.080 A 
HETATM    6  C13 UNL     1     -21.379 -29.074 -15.160  1.00  0.00     0.133 A 
HETATM    7  N3  UNL     1     -21.164 -27.892 -14.436  1.00  0.00    -0.082 NA
HETATM    8  N4  UNL     1     -21.612 -30.227 -14.469  1.00  0.00    -0.340 N 
ATOM      9  H4  UNL     1     -21.642 -30.202 -13.450  1.00  0.00     0.167 HD
HETATM   10  C14 UNL     1     -21.804 -31.398 -15.104  1.00  0.00     0.183 A 
HETATM   11  N5  UNL     1     -21.771 -31.480 -16.452  1.00  0.00    -0.337 N 
ATOM     12  H5  UNL     1     -21.918 -32.378 -16.914  1.00  0.00     0.168 HD
HETATM   13  C15 UNL     1     -21.549 -30.391 -17.173  1.00  0.00     0.140 A 
ENDROOT
BRANCH   4  14
HETATM   14  C6  UNL     1     -20.866 -26.809 -17.284  1.00  0.00    -0.007 A 
HETATM   15  C7  UNL     1     -19.727 -26.299 -16.704  1.00  0.00     0.015 A 
HETATM   16  C8  UNL     1     -19.533 -24.930 -16.558  1.00  0.00     0.024 A 
HETATM   17  C9  UNL     1     -20.472 -24.021 -16.987  1.00  0.00     0.034 A 
HETATM   18 CL1  UNL     1     -20.214 -22.281 -16.796  1.00  0.00    -0.084 Cl
HETATM   19  C10 UNL     1     -21.623 -24.505 -17.571  1.00  0.00     0.024 A 
HETATM   20  C11 UNL     1     -21.804 -25.861 -17.711  1.00  0.00     0.015 A 
ENDBRANCH   4  14
BRANCH   1  21
HETATM   21  C2  UNL     1     -21.578 -31.102 -19.585  1.00  0.00     0.044 C 
HETATM   22  C1  UNL     1     -22.822 -31.939 -19.377  1.00  0.00     0.039 C 
HETATM   23  C3  UNL     1     -21.652 -30.372 -20.911  1.00  0.00     0.039 C 
HETATM   24  C4  UNL     1     -20.367 -32.009 -19.539  1.00  0.00     0.039 C 
ENDBRANCH   1  21
TORSDOF 2
ENDMDL
