MODEL 2
REMARK VINA RESULT: -8.715267259      1.485      1.677
REMARK  2 active torsions:
REMARK  status: ('A' for Active; 'I' for Inactive)
REMARK    1  A    between atoms: C2_2  and  N1_5 
REMARK    2  A    between atoms: C5_8  and  C6_9 
ROOT
HETATM    1  N1  UNL     1     -20.920 -30.058 -17.260  1.00  0.00    -0.266 N 
HETATM    2  N2  UNL     1     -20.812 -29.095 -16.370  1.00  0.00    -0.294 N 
ATOM      3  H2  UNL     1     -20.586 -29.225 -15.384  1.00  0.00     0.187 HD
HETATM    4  C5  UNL     1     -21.049 -27.893 -16.977  1.00  0.00     0.076 A 
HETATM    5  C12 UNL     1     -21.311 -28.168 -18.294  1.00  0.00     0.080 A 
HETATM    6  C13 UNL     1     -21.626 -27.350 -19.352  1.00  0.00     0.133 A 
HETATM    7  N3  UNL     1     -21.757 -25.956 -19.266  1.00  0.00    -0.082 NA
HETATM    8  N4  UNL     1     -21.843 -27.951 -20.558  1.00  0.00    -0.340 N 
ATOM      9  H4  UNL     1     -22.078 -27.377 -21.367  1.00  0.00     0.167 HD
HETATM   10  C14 UNL     1     -21.754 -29.286 -20.702  1.00  0.00     0.183 A 
HETATM   11  N5  UNL     1     -21.448 -30.086 -19.658  1.00  0.00    -0.337 N 
ATOM     12  H5  UNL     1     -21.387 -31.096 -19.788  1.00  0.00     0.168 HD
HETATM   13  C15 UNL     1     -21.226 -29.556 -18.464  1.00  0.00     0.140 A 
ENDROOT
BRANCH   4  14
HETATM   14  C6  UNL     1     -21.048 -26.585 -16.354  1.00  0.00    -0.007 A 
HETATM   15  C7  UNL     1     -20.302 -25.508 -16.774  1.00  0.00     0.015 A 
HETATM   16  C8  UNL     1     -20.379 -24.274 -16.137  1.00  0.00     0.024 A 
HETATM   17  C9  UNL     1     -21.205 -24.075 -15.055  1.00  0.00     0.034 A 
HETATM   18 CL1  UNL     1     -21.296 -22.500 -14.252  1.00  0.00    -0.084 Cl
HETATM   19  C10 UNL     1     -21.964 -25.138 -14.613  1.00  0.00     0.024 A 
HETATM   20  C11 UNL     1     -21.879 -26.353 -15.252  1.00  0.00     0.015 A 
ENDBRANCH   4  14
BRANCH   1  21
HETATM   21  C2  UNL     1     -20.721 -31.465 -16.907  1.00  0.00     0.044 C 
HETATM   22  C1  UNL     1     -21.997 -32.235 -17.170  1.00  0.00     0.039 C 
HETATM   23  C3  UNL     1     -19.578 -32.050 -17.713  1.00  0.00     0.039 C 
HETATM   24  C4  UNL     1     -20.415 -31.521 -15.426  1.00  0.00     0.039 C 
ENDBRANCH   1  21
TORSDOF 2
ENDMDL
