MODEL 14
REMARK VINA RESULT: -7.808173132      3.380      5.798
REMARK  2 active torsions:
REMARK  status: ('A' for Active; 'I' for Inactive)
REMARK    1  A    between atoms: C2_2  and  N1_5 
REMARK    2  A    between atoms: C5_8  and  C6_9 
ROOT
HETATM    1  N1  UNL     1     -20.740 -28.267 -16.514  1.00  0.00    -0.266 N 
HETATM    2  N2  UNL     1     -20.833 -29.530 -16.872  1.00  0.00    -0.294 N 
ATOM      3  H2  UNL     1     -20.619 -30.330 -16.276  1.00  0.00     0.187 HD
HETATM    4  C5  UNL     1     -21.262 -29.600 -18.169  1.00  0.00     0.076 A 
HETATM    5  C12 UNL     1     -21.428 -28.307 -18.593  1.00  0.00     0.080 A 
HETATM    6  C13 UNL     1     -21.827 -27.787 -19.800  1.00  0.00     0.133 A 
HETATM    7  N3  UNL     1     -22.155 -28.555 -20.927  1.00  0.00    -0.082 NA
HETATM    8  N4  UNL     1     -21.880 -26.426 -19.903  1.00  0.00    -0.340 N 
ATOM      9  H4  UNL     1     -22.172 -26.003 -20.783  1.00  0.00     0.167 HD
HETATM   10  C14 UNL     1     -21.556 -25.632 -18.866  1.00  0.00     0.183 A 
HETATM   11  N5  UNL     1     -21.162 -26.149 -17.681  1.00  0.00    -0.337 N 
ATOM     12  H5  UNL     1     -20.920 -25.529 -16.908  1.00  0.00     0.168 HD
HETATM   13  C15 UNL     1     -21.092 -27.462 -17.526  1.00  0.00     0.140 A 
ENDROOT
BRANCH   4  14
HETATM   14  C6  UNL     1     -21.477 -30.798 -18.955  1.00  0.00    -0.007 A 
HETATM   15  C7  UNL     1     -20.544 -31.385 -19.777  1.00  0.00     0.015 A 
HETATM   16  C8  UNL     1     -20.822 -32.553 -20.479  1.00  0.00     0.024 A 
HETATM   17  C9  UNL     1     -22.045 -33.175 -20.382  1.00  0.00     0.034 A 
HETATM   18 CL1  UNL     1     -22.388 -34.662 -21.279  1.00  0.00    -0.084 Cl
HETATM   19  C10 UNL     1     -22.999 -32.608 -19.565  1.00  0.00     0.024 A 
HETATM   20  C11 UNL     1     -22.713 -31.452 -18.876  1.00  0.00     0.015 A 
ENDBRANCH   4  14
BRANCH   1  21
HETATM   21  C2  UNL     1     -20.304 -27.872 -15.174  1.00  0.00     0.044 C 
HETATM   22  C1  UNL     1     -19.127 -26.928 -15.286  1.00  0.00     0.039 C 
HETATM   23  C3  UNL     1     -21.442 -27.206 -14.427  1.00  0.00     0.039 C 
HETATM   24  C4  UNL     1     -19.854 -29.127 -14.456  1.00  0.00     0.039 C 
ENDBRANCH   1  21
TORSDOF 2
ENDMDL
