MODEL 13
REMARK VINA RESULT: -7.830786490      3.166      6.000
REMARK  2 active torsions:
REMARK  status: ('A' for Active; 'I' for Inactive)
REMARK    1  A    between atoms: C2_2  and  N1_5 
REMARK    2  A    between atoms: C5_8  and  C6_9 
ROOT
HETATM    1  N1  UNL     1     -21.103 -27.863 -17.099  1.00  0.00    -0.266 N 
HETATM    2  N2  UNL     1     -20.994 -29.039 -16.520  1.00  0.00    -0.294 N 
ATOM      3  H2  UNL     1     -20.848 -29.195 -15.522  1.00  0.00     0.187 HD
HETATM    4  C5  UNL     1     -21.107 -30.020 -17.466  1.00  0.00     0.076 A 
HETATM    5  C12 UNL     1     -21.292 -29.381 -18.666  1.00  0.00     0.080 A 
HETATM    6  C13 UNL     1     -21.451 -29.865 -19.941  1.00  0.00     0.133 A 
HETATM    7  N3  UNL     1     -21.441 -31.226 -20.282  1.00  0.00    -0.082 NA
HETATM    8  N4  UNL     1     -21.605 -28.946 -20.939  1.00  0.00    -0.340 N 
ATOM      9  H4  UNL     1     -21.727 -29.267 -21.899  1.00  0.00     0.167 HD
HETATM   10  C14 UNL     1     -21.601 -27.625 -20.682  1.00  0.00     0.183 A 
HETATM   11  N5  UNL     1     -21.442 -27.155 -19.425  1.00  0.00    -0.337 N 
ATOM     12  H5  UNL     1     -21.440 -26.150 -19.252  1.00  0.00     0.168 HD
HETATM   13  C15 UNL     1     -21.288 -28.002 -18.419  1.00  0.00     0.140 A 
ENDROOT
BRANCH   4  14
HETATM   14  C6  UNL     1     -21.025 -31.451 -17.256  1.00  0.00    -0.007 A 
HETATM   15  C7  UNL     1     -19.873 -32.199 -17.331  1.00  0.00     0.015 A 
HETATM   16  C8  UNL     1     -19.876 -33.568 -17.089  1.00  0.00     0.024 A 
HETATM   17  C9  UNL     1     -21.032 -34.238 -16.763  1.00  0.00     0.034 A 
HETATM   18 CL1  UNL     1     -21.023 -35.981 -16.455  1.00  0.00    -0.084 Cl
HETATM   19  C10 UNL     1     -22.201 -33.512 -16.681  1.00  0.00     0.024 A 
HETATM   20  C11 UNL     1     -22.187 -32.158 -16.923  1.00  0.00     0.015 A 
ENDBRANCH   4  14
BRANCH   1  21
HETATM   21  C2  UNL     1     -21.022 -26.614 -16.339  1.00  0.00     0.044 C 
HETATM   22  C1  UNL     1     -19.570 -26.232 -16.153  1.00  0.00     0.039 C 
HETATM   23  C3  UNL     1     -21.768 -25.511 -17.062  1.00  0.00     0.039 C 
HETATM   24  C4  UNL     1     -21.635 -26.873 -14.979  1.00  0.00     0.039 C 
ENDBRANCH   1  21
TORSDOF 2
ENDMDL
