MODEL 4
REMARK VINA RESULT: -6.797239325      3.750      8.025
REMARK  8 active torsions:
REMARK  status: ('A' for Active; 'I' for Inactive)
REMARK    1  A    between atoms: C2_2  and  C3_3 
REMARK    2  A    between atoms: C3_3  and  C4_4 
REMARK    3  A    between atoms: C4_4  and  S1_5 
REMARK    4  A    between atoms: S1_5  and  C5_6 
REMARK    5  A    between atoms: C5_6  and  C6_7 
REMARK    6  A    between atoms: N1_9  and  C8_10 
REMARK    7  A    between atoms: C8_10  and  C9_11 
REMARK    8  A    between atoms: C16_25  and  O1_26 
ROOT
HETATM    1  C8  UNL     1     -37.597 -45.921  13.620  1.00  0.00     0.074 C 
ENDROOT
BRANCH   1   2
HETATM    2  N1  UNL     1     -36.641 -45.765  12.620  1.00  0.00    -0.289 NA
HETATM    3  C7  UNL     1     -36.074 -46.904  11.989  1.00  0.00     0.102 C 
HETATM    4  C6  UNL     1     -35.349 -46.223  10.819  1.00  0.00     0.038 C 
HETATM    5  C16 UNL     1     -34.851 -44.958  11.479  1.00  0.00     0.137 C 
HETATM    6  C15 UNL     1     -35.524 -44.915  12.856  1.00  0.00     0.127 C 
BRANCH   4   7
HETATM    7  C5  UNL     1     -34.216 -47.087  10.324  1.00  0.00     0.082 C 
BRANCH   7   8
HETATM    8  S1  UNL     1     -34.288 -48.671  11.244  1.00  0.00    -0.169 SA
BRANCH   8   9
HETATM    9  C4  UNL     1     -35.101 -49.942  10.221  1.00  0.00     0.073 C 
BRANCH   9  10
HETATM   10  C3  UNL     1     -35.767 -49.239   9.051  1.00  0.00     0.010 C 
BRANCH  10  11
HETATM   11  C2  UNL     1     -36.982 -49.988   8.580  1.00  0.00    -0.004 C 
HETATM   12  C1  UNL     1     -37.128 -51.322   9.285  1.00  0.00     0.005 C 
ENDBRANCH  10  11
ENDBRANCH   9  10
ENDBRANCH   8   9
ENDBRANCH   7   8
ENDBRANCH   4   7
BRANCH   5  13
HETATM   13  O1  UNL     1     -35.313 -43.884  10.695  1.00  0.00    -0.394 OA
ATOM     14  H1  UNL     1     -35.137 -44.112   9.789  1.00  0.00     0.210 HD
ENDBRANCH   5  13
ENDBRANCH   1   2
BRANCH   1  15
HETATM   15  C9  UNL     1     -38.213 -44.770  14.241  1.00  0.00     0.019 A 
HETATM   16  C10 UNL     1     -38.783 -43.643  13.711  1.00  0.00     0.103 A 
HETATM   17  N2  UNL     1     -39.224 -42.850  14.712  1.00  0.00    -0.360 N 
HETATM   18  C11 UNL     1     -38.962 -43.422  15.906  1.00  0.00     0.101 A 
ATOM     19  H2  UNL     1     -39.687 -41.950  14.584  1.00  0.00     0.165 HD
HETATM   20  C12 UNL     1     -39.206 -43.026  17.205  1.00  0.00     0.146 A 
HETATM   21  C14 UNL     1     -38.334 -44.615  15.612  1.00  0.00     0.076 A 
HETATM   22  N3  UNL     1     -39.849 -41.807  17.492  1.00  0.00    -0.080 NA
HETATM   23  N4  UNL     1     -38.823 -43.819  18.205  1.00  0.00    -0.339 N 
HETATM   24  C13 UNL     1     -38.208 -44.992  17.959  1.00  0.00     0.182 A 
ATOM     25  H4  UNL     1     -38.999 -43.535  19.169  1.00  0.00     0.167 HD
HETATM   26  N5  UNL     1     -37.982 -45.355  16.687  1.00  0.00    -0.350 N 
ATOM     27  H5  UNL     1     -37.516 -46.247  16.520  1.00  0.00     0.166 HD
ENDBRANCH   1  15
TORSDOF 8
ENDMDL
