MODEL 5
REMARK VINA RESULT: -6.309575621      2.908      5.197
REMARK  8 active torsions:
REMARK  status: ('A' for Active; 'I' for Inactive)
REMARK    1  A    between atoms: C2_2  and  C3_3 
REMARK    2  A    between atoms: C3_3  and  C4_4 
REMARK    3  A    between atoms: C4_4  and  S1_5 
REMARK    4  A    between atoms: S1_5  and  C5_6 
REMARK    5  A    between atoms: C5_6  and  C6_7 
REMARK    6  A    between atoms: N1_9  and  C8_10 
REMARK    7  A    between atoms: C8_10  and  C9_11 
REMARK    8  A    between atoms: C16_25  and  O1_26 
ROOT
HETATM    1  C8  UNL     1     -37.734 -45.325  12.412  1.00  0.00     0.074 C 
ENDROOT
BRANCH   1   2
HETATM    2  N1  UNL     1     -38.152 -44.752  13.610  1.00  0.00    -0.289 NA
HETATM    3  C7  UNL     1     -37.865 -45.392  14.846  1.00  0.00     0.102 C 
HETATM    4  C6  UNL     1     -38.245 -44.267  15.819  1.00  0.00     0.038 C 
HETATM    5  C16 UNL     1     -39.454 -43.678  15.129  1.00  0.00     0.137 C 
HETATM    6  C15 UNL     1     -39.507 -44.339  13.747  1.00  0.00     0.127 C 
BRANCH   4   7
HETATM    7  C5  UNL     1     -38.588 -44.833  17.175  1.00  0.00     0.082 C 
BRANCH   7   8
HETATM    8  S1  UNL     1     -38.000 -43.638  18.435  1.00  0.00    -0.169 SA
BRANCH   8   9
HETATM    9  C4  UNL     1     -39.322 -42.444  18.818  1.00  0.00     0.073 C 
BRANCH   9  10
HETATM   10  C3  UNL     1     -38.750 -41.047  18.646  1.00  0.00     0.010 C 
BRANCH  10  11
HETATM   11  C2  UNL     1     -37.520 -41.060  17.783  1.00  0.00    -0.004 C 
HETATM   12  C1  UNL     1     -36.599 -39.898  18.099  1.00  0.00     0.005 C 
ENDBRANCH  10  11
ENDBRANCH   9  10
ENDBRANCH   8   9
ENDBRANCH   7   8
ENDBRANCH   4   7
BRANCH   5  13
HETATM   13  O1  UNL     1     -39.205 -42.300  14.984  1.00  0.00    -0.394 OA
ATOM     14  H1  UNL     1     -38.609 -42.206  14.250  1.00  0.00     0.210 HD
ENDBRANCH   5  13
ENDBRANCH   1   2
BRANCH   1  15
HETATM   15  C9  UNL     1     -36.398 -45.098  11.910  1.00  0.00     0.019 A 
HETATM   16  C10 UNL     1     -35.725 -43.948  11.594  1.00  0.00     0.103 A 
HETATM   17  N2  UNL     1     -34.483 -44.259  11.159  1.00  0.00    -0.360 N 
HETATM   18  C11 UNL     1     -34.309 -45.596  11.176  1.00  0.00     0.101 A 
ATOM     19  H2  UNL     1     -33.781 -43.581  10.862  1.00  0.00     0.165 HD
HETATM   20  C12 UNL     1     -33.243 -46.404  10.836  1.00  0.00     0.146 A 
HETATM   21  C14 UNL     1     -35.498 -46.117  11.642  1.00  0.00     0.076 A 
HETATM   22  N3  UNL     1     -32.033 -45.860  10.362  1.00  0.00    -0.080 NA
HETATM   23  N4  UNL     1     -33.366 -47.725  10.960  1.00  0.00    -0.339 N 
HETATM   24  C13 UNL     1     -34.512 -48.271  11.412  1.00  0.00     0.182 A 
ATOM     25  H4  UNL     1     -32.584 -48.330  10.711  1.00  0.00     0.167 HD
HETATM   26  N5  UNL     1     -35.534 -47.465  11.738  1.00  0.00    -0.350 N 
ATOM     27  H5  UNL     1     -36.394 -47.897  12.079  1.00  0.00     0.166 HD
ENDBRANCH   1  15
TORSDOF 8
ENDMDL
