MODEL 2
REMARK VINA RESULT: -8.335059974      1.009      1.229
REMARK  8 active torsions:
REMARK  status: ('A' for Active; 'I' for Inactive)
REMARK    1  A    between atoms: C2_2  and  C3_3 
REMARK    2  A    between atoms: C3_3  and  C4_4 
REMARK    3  A    between atoms: C4_4  and  S1_5 
REMARK    4  A    between atoms: S1_5  and  C5_6 
REMARK    5  A    between atoms: C5_6  and  C6_7 
REMARK    6  A    between atoms: N1_9  and  C8_10 
REMARK    7  A    between atoms: C8_10  and  C9_11 
REMARK    8  A    between atoms: C16_25  and  O1_26 
ROOT
HETATM    1  C8  UNL     1     -33.384 -47.899  10.156  1.00  0.00     0.074 C 
ENDROOT
BRANCH   1   2
HETATM    2  N1  UNL     1     -33.636 -46.702  10.819  1.00  0.00    -0.289 NA
HETATM    3  C7  UNL     1     -34.912 -46.459  11.395  1.00  0.00     0.102 C 
HETATM    4  C6  UNL     1     -34.593 -45.207  12.223  1.00  0.00     0.038 C 
HETATM    5  C16 UNL     1     -33.636 -44.484  11.304  1.00  0.00     0.137 C 
HETATM    6  C15 UNL     1     -33.312 -45.473  10.179  1.00  0.00     0.127 C 
BRANCH   4   7
HETATM    7  C5  UNL     1     -35.846 -44.406  12.477  1.00  0.00     0.082 C 
BRANCH   7   8
HETATM    8  S1  UNL     1     -37.130 -45.569  13.078  1.00  0.00    -0.169 SA
BRANCH   8   9
HETATM    9  C4  UNL     1     -37.998 -44.846  14.508  1.00  0.00     0.073 C 
BRANCH   9  10
HETATM   10  C3  UNL     1     -39.198 -44.077  13.982  1.00  0.00     0.010 C 
BRANCH  10  11
HETATM   11  C2  UNL     1     -39.893 -43.325  15.081  1.00  0.00    -0.004 C 
HETATM   12  C1  UNL     1     -39.463 -43.808  16.452  1.00  0.00     0.005 C 
ENDBRANCH  10  11
ENDBRANCH   9  10
ENDBRANCH   8   9
ENDBRANCH   7   8
ENDBRANCH   4   7
BRANCH   5  13
HETATM   13  O1  UNL     1     -32.472 -44.226  12.054  1.00  0.00    -0.394 OA
ATOM     14  H1  UNL     1     -32.015 -43.519  11.615  1.00  0.00     0.210 HD
ENDBRANCH   5  13
ENDBRANCH   1   2
BRANCH   1  15
HETATM   15  C9  UNL     1     -34.305 -49.009  10.256  1.00  0.00     0.019 A 
HETATM   16  C10 UNL     1     -34.398 -50.040  11.154  1.00  0.00     0.103 A 
HETATM   17  N2  UNL     1     -35.440 -50.833  10.821  1.00  0.00    -0.360 N 
HETATM   18  C11 UNL     1     -36.051 -50.355   9.716  1.00  0.00     0.101 A 
ATOM     19  H2  UNL     1     -35.725 -51.670  11.330  1.00  0.00     0.165 HD
HETATM   20  C12 UNL     1     -37.140 -50.790   8.989  1.00  0.00     0.146 A 
HETATM   21  C14 UNL     1     -35.345 -49.223   9.366  1.00  0.00     0.076 A 
HETATM   22  N3  UNL     1     -37.853 -51.947   9.357  1.00  0.00    -0.080 NA
HETATM   23  N4  UNL     1     -37.521 -50.095   7.917  1.00  0.00    -0.339 N 
HETATM   24  C13 UNL     1     -36.857 -48.984   7.543  1.00  0.00     0.182 A 
ATOM     25  H4  UNL     1     -38.324 -50.409   7.373  1.00  0.00     0.167 HD
HETATM   26  N5  UNL     1     -35.801 -48.581   8.268  1.00  0.00    -0.350 N 
ATOM     27  H5  UNL     1     -35.312 -47.736   7.970  1.00  0.00     0.166 HD
ENDBRANCH   1  15
TORSDOF 8
ENDMDL
