MODEL 1
REMARK VINA RESULT: -8.827738054      0.000      0.000
REMARK  8 active torsions:
REMARK  status: ('A' for Active; 'I' for Inactive)
REMARK    1  A    between atoms: C2_2  and  C3_3 
REMARK    2  A    between atoms: C3_3  and  C4_4 
REMARK    3  A    between atoms: C4_4  and  S1_5 
REMARK    4  A    between atoms: S1_5  and  C5_6 
REMARK    5  A    between atoms: C5_6  and  C6_7 
REMARK    6  A    between atoms: N1_9  and  C8_10 
REMARK    7  A    between atoms: C8_10  and  C9_11 
REMARK    8  A    between atoms: C16_25  and  O1_26 
ROOT
HETATM    1  C8  UNL     1     -33.648 -47.420  10.802  1.00  0.00     0.074 C 
ENDROOT
BRANCH   1   2
HETATM    2  N1  UNL     1     -34.336 -46.247  11.099  1.00  0.00    -0.289 NA
HETATM    3  C7  UNL     1     -35.618 -46.305  11.708  1.00  0.00     0.102 C 
HETATM    4  C6  UNL     1     -35.798 -44.827  12.084  1.00  0.00     0.038 C 
HETATM    5  C16 UNL     1     -35.165 -44.143  10.894  1.00  0.00     0.137 C 
HETATM    6  C15 UNL     1     -34.483 -45.255  10.089  1.00  0.00     0.127 C 
BRANCH   4   7
HETATM    7  C5  UNL     1     -37.262 -44.489  12.218  1.00  0.00     0.082 C 
BRANCH   7   8
HETATM    8  S1  UNL     1     -37.732 -44.761  13.968  1.00  0.00    -0.169 SA
BRANCH   8   9
HETATM    9  C4  UNL     1     -39.231 -43.804  14.361  1.00  0.00     0.073 C 
BRANCH   9  10
HETATM   10  C3  UNL     1     -39.406 -43.814  15.871  1.00  0.00     0.010 C 
BRANCH  10  11
HETATM   11  C2  UNL     1     -38.513 -44.833  16.520  1.00  0.00    -0.004 C 
HETATM   12  C1  UNL     1     -38.699 -44.867  18.024  1.00  0.00     0.005 C 
ENDBRANCH  10  11
ENDBRANCH   9  10
ENDBRANCH   8   9
ENDBRANCH   7   8
ENDBRANCH   4   7
BRANCH   5  13
HETATM   13  O1  UNL     1     -34.190 -43.264  11.405  1.00  0.00    -0.394 OA
ATOM     14  H1  UNL     1     -33.906 -42.721  10.679  1.00  0.00     0.210 HD
ENDBRANCH   5  13
ENDBRANCH   1   2
BRANCH   1  15
HETATM   15  C9  UNL     1     -34.348 -48.681  10.694  1.00  0.00     0.019 A 
HETATM   16  C10 UNL     1     -34.265 -49.837  11.423  1.00  0.00     0.103 A 
HETATM   17  N2  UNL     1     -35.134 -50.745  10.928  1.00  0.00    -0.360 N 
HETATM   18  C11 UNL     1     -35.801 -50.221   9.878  1.00  0.00     0.101 A 
ATOM     19  H2  UNL     1     -35.267 -51.688  11.294  1.00  0.00     0.165 HD
HETATM   20  C12 UNL     1     -36.776 -50.729   9.043  1.00  0.00     0.146 A 
HETATM   21  C14 UNL     1     -35.312 -48.940   9.733  1.00  0.00     0.076 A 
HETATM   22  N3  UNL     1     -37.267 -52.039   9.202  1.00  0.00    -0.080 NA
HETATM   23  N4  UNL     1     -37.258 -49.959   8.069  1.00  0.00    -0.339 N 
HETATM   24  C13 UNL     1     -36.806 -48.702   7.895  1.00  0.00     0.182 A 
ATOM     25  H4  UNL     1     -37.978 -50.326   7.447  1.00  0.00     0.167 HD
HETATM   26  N5  UNL     1     -35.859 -48.230   8.721  1.00  0.00    -0.350 N 
ATOM     27  H5  UNL     1     -35.530 -47.275   8.574  1.00  0.00     0.166 HD
ENDBRANCH   1  15
TORSDOF 8
ENDMDL
