MODEL 3
REMARK VINA RESULT: -6.981352351      3.348      7.374
REMARK  8 active torsions:
REMARK  status: ('A' for Active; 'I' for Inactive)
REMARK    1  A    between atoms: C2_2  and  C3_3 
REMARK    2  A    between atoms: C3_3  and  C4_4 
REMARK    3  A    between atoms: C4_4  and  S1_5 
REMARK    4  A    between atoms: S1_5  and  C5_6 
REMARK    5  A    between atoms: C5_6  and  C6_7 
REMARK    6  A    between atoms: N1_9  and  C8_10 
REMARK    7  A    between atoms: C8_10  and  C9_11 
REMARK    8  A    between atoms: C16_25  and  O1_26 
ROOT
HETATM    1  C8  UNL     1     -35.534 -45.413  13.055  1.00  0.00     0.074 C 
ENDROOT
BRANCH   1   2
HETATM    2  N1  UNL     1     -35.014 -45.947  11.879  1.00  0.00    -0.289 NA
HETATM    3  C7  UNL     1     -35.108 -47.341  11.624  1.00  0.00     0.102 C 
HETATM    4  C6  UNL     1     -34.689 -47.368  10.147  1.00  0.00     0.038 C 
HETATM    5  C16 UNL     1     -33.612 -46.307  10.130  1.00  0.00     0.137 C 
HETATM    6  C15 UNL     1     -33.682 -45.620  11.498  1.00  0.00     0.127 C 
BRANCH   4   7
HETATM    7  C5  UNL     1     -34.150 -48.727   9.774  1.00  0.00     0.082 C 
BRANCH   7   8
HETATM    8  S1  UNL     1     -34.802 -49.930  10.993  1.00  0.00    -0.169 SA
BRANCH   8   9
HETATM    9  C4  UNL     1     -36.089 -50.960  10.216  1.00  0.00     0.073 C 
BRANCH   9  10
HETATM   10  C3  UNL     1     -36.147 -50.597   8.742  1.00  0.00     0.010 C 
BRANCH  10  11
HETATM   11  C2  UNL     1     -37.407 -49.848   8.411  1.00  0.00    -0.004 C 
HETATM   12  C1  UNL     1     -37.167 -48.782   7.360  1.00  0.00     0.005 C 
ENDBRANCH  10  11
ENDBRANCH   9  10
ENDBRANCH   8   9
ENDBRANCH   7   8
ENDBRANCH   4   7
BRANCH   5  13
HETATM   13  O1  UNL     1     -33.965 -45.389   9.122  1.00  0.00    -0.394 OA
ATOM     14  H1  UNL     1     -34.328 -44.629   9.561  1.00  0.00     0.210 HD
ENDBRANCH   5  13
ENDBRANCH   1   2
BRANCH   1  15
HETATM   15  C9  UNL     1     -36.909 -44.974  13.123  1.00  0.00     0.019 A 
HETATM   16  C10 UNL     1     -37.878 -44.856  12.162  1.00  0.00     0.103 A 
HETATM   17  N2  UNL     1     -39.017 -44.395  12.726  1.00  0.00    -0.360 N 
HETATM   18  C11 UNL     1     -38.832 -44.201  14.048  1.00  0.00     0.101 A 
ATOM     19  H2  UNL     1     -39.888 -44.221  12.226  1.00  0.00     0.165 HD
HETATM   20  C12 UNL     1     -39.665 -43.751  15.052  1.00  0.00     0.146 A 
HETATM   21  C14 UNL     1     -37.523 -44.560  14.294  1.00  0.00     0.076 A 
HETATM   22  N3  UNL     1     -41.000 -43.388  14.789  1.00  0.00    -0.080 NA
HETATM   23  N4  UNL     1     -39.192 -43.661  16.294  1.00  0.00    -0.339 N 
HETATM   24  C13 UNL     1     -37.919 -44.003  16.574  1.00  0.00     0.182 A 
ATOM     25  H4  UNL     1     -39.801 -43.329  17.042  1.00  0.00     0.167 HD
HETATM   26  N5  UNL     1     -37.128 -44.438  15.581  1.00  0.00    -0.350 N 
ATOM     27  H5  UNL     1     -36.168 -44.693  15.813  1.00  0.00     0.166 HD
ENDBRANCH   1  15
TORSDOF 8
ENDMDL
