MODEL 8
REMARK VINA RESULT: -4.622454471      7.616      9.261
REMARK  3 active torsions:
REMARK  status: ('A' for Active; 'I' for Inactive)
REMARK    1  A    between atoms: C1_2  and  C2_4 
REMARK    2  A    between atoms: C5_7  and  O3_8 
REMARK    3  A    between atoms: C6_10  and  O4_11 
ROOT
HETATM    1  C2  UNL     1      28.908  34.729  18.823  1.00  0.00     0.043 A 
HETATM    2  C3  UNL     1      29.529  34.143  17.741  1.00  0.00     0.021 A 
HETATM    3  C4  UNL     1      30.127  34.891  16.735  1.00  0.00     0.040 A 
HETATM    4  C5  UNL     1      30.106  36.268  16.808  1.00  0.00     0.098 A 
HETATM    5  C6  UNL     1      29.489  36.868  17.884  1.00  0.00     0.099 A 
HETATM    6  C7  UNL     1      28.896  36.106  18.882  1.00  0.00     0.057 A 
ENDROOT
BRANCH   1   7
HETATM    7  C1  UNL     1      28.284  33.928  19.875  1.00  0.00     0.209 C 
HETATM    8  O1  UNL     1      29.003  33.292  20.685  1.00  0.00    -0.644 OA
HETATM    9  O2  UNL     1      26.909  33.837  20.022  1.00  0.00    -0.644 OA
ENDBRANCH   1   7
BRANCH   5  10
HETATM   10  O4  UNL     1      29.485  38.253  17.930  1.00  0.00    -0.358 OA
ATOM     11  H4  UNL     1      28.818  38.673  18.460  1.00  0.00     0.217 HD
ENDBRANCH   5  10
BRANCH   4  12
HETATM   12  O3  UNL     1      30.711  37.002  15.789  1.00  0.00    -0.358 OA
ATOM     13  H3  UNL     1      30.474  37.916  15.682  1.00  0.00     0.217 HD
ENDBRANCH   4  12
TORSDOF 3
ENDMDL
