MODEL 2
REMARK VINA RESULT: -6.893298146      1.002      4.208
REMARK  3 active torsions:
REMARK  status: ('A' for Active; 'I' for Inactive)
REMARK    1  A    between atoms: C1_2  and  C2_4 
REMARK    2  A    between atoms: C5_7  and  O3_8 
REMARK    3  A    between atoms: C6_10  and  O4_11 
ROOT
HETATM    1  C2  UNL     1      33.357  39.833  23.069  1.00  0.00     0.043 A 
HETATM    2  C3  UNL     1      34.557  40.479  23.266  1.00  0.00     0.021 A 
HETATM    3  C4  UNL     1      34.754  41.805  22.903  1.00  0.00     0.040 A 
HETATM    4  C5  UNL     1      33.721  42.512  22.324  1.00  0.00     0.098 A 
HETATM    5  C6  UNL     1      32.515  41.879  22.121  1.00  0.00     0.099 A 
HETATM    6  C7  UNL     1      32.334  40.553  22.489  1.00  0.00     0.057 A 
ENDROOT
BRANCH   1   7
HETATM    7  C1  UNL     1      33.164  38.437  23.457  1.00  0.00     0.209 C 
HETATM    8  O1  UNL     1      32.242  37.764  22.930  1.00  0.00    -0.644 OA
HETATM    9  O2  UNL     1      33.965  37.809  24.396  1.00  0.00    -0.644 OA
ENDBRANCH   1   7
BRANCH   5  10
HETATM   10  O4  UNL     1      31.495  42.616  21.538  1.00  0.00    -0.358 OA
ATOM     11  H4  UNL     1      31.138  42.298  20.717  1.00  0.00     0.217 HD
ENDBRANCH   5  10
BRANCH   4  12
HETATM   12  O3  UNL     1      33.938  43.842  21.966  1.00  0.00    -0.358 OA
ATOM     13  H3  UNL     1      33.724  44.117  21.082  1.00  0.00     0.217 HD
ENDBRANCH   4  12
TORSDOF 3
ENDMDL
