MODEL 4
REMARK VINA RESULT: -6.070301365      0.828      1.962
REMARK  3 active torsions:
REMARK  status: ('A' for Active; 'I' for Inactive)
REMARK    1  A    between atoms: C1_2  and  C2_4 
REMARK    2  A    between atoms: C5_7  and  O3_8 
REMARK    3  A    between atoms: C6_10  and  O4_11 
ROOT
HETATM    1  C2  UNL     1      33.592  41.734  22.662  1.00  0.00     0.043 A 
HETATM    2  C3  UNL     1      32.516  40.963  22.282  1.00  0.00     0.021 A 
HETATM    3  C4  UNL     1      32.380  39.636  22.672  1.00  0.00     0.040 A 
HETATM    4  C5  UNL     1      33.348  39.059  23.466  1.00  0.00     0.098 A 
HETATM    5  C6  UNL     1      34.430  39.818  23.854  1.00  0.00     0.099 A 
HETATM    6  C7  UNL     1      34.551  41.143  23.457  1.00  0.00     0.057 A 
ENDROOT
BRANCH   1   7
HETATM    7  C1  UNL     1      33.721  43.129  22.245  1.00  0.00     0.209 C 
HETATM    8  O1  UNL     1      34.789  43.525  21.712  1.00  0.00    -0.644 OA
HETATM    9  O2  UNL     1      32.702  44.052  22.412  1.00  0.00    -0.644 OA
ENDBRANCH   1   7
BRANCH   5  10
HETATM   10  O4  UNL     1      35.385  39.211  24.654  1.00  0.00    -0.358 OA
ATOM     11  H4  UNL     1      36.196  39.682  24.804  1.00  0.00     0.217 HD
ENDBRANCH   5  10
BRANCH   4  12
HETATM   12  O3  UNL     1      33.195  37.727  23.847  1.00  0.00    -0.358 OA
ATOM     13  H3  UNL     1      32.621  37.524  24.577  1.00  0.00     0.217 HD
ENDBRANCH   4  12
TORSDOF 3
ENDMDL
