MODEL 6
REMARK VINA RESULT: -8.099677661      2.804      4.925
REMARK  4 active torsions:
REMARK  status: ('A' for Active; 'I' for Inactive)
REMARK    1  A    between atoms: S1_2  and  N1_5 
REMARK    2  A    between atoms: N1_5  and  C2_7 
REMARK    3  A    between atoms: C2_7  and  C3_8 
REMARK    4  A    between atoms: N5_22  and  C11_23 
ROOT
HETATM    1  C3  UNL     1       7.055  53.913   2.786  1.00  0.00     0.103 A 
HETATM    2  N2  UNL     1       8.169  53.178   2.603  1.00  0.00    -0.341 N 
ATOM      3  H2  UNL     1       8.335  52.247   2.986  1.00  0.00     0.167 HD
HETATM    4  C4  UNL     1       9.020  53.867   1.839  1.00  0.00     0.077 A 
HETATM    5  C5  UNL     1      10.273  53.620   1.344  1.00  0.00     0.121 A 
HETATM    6  N3  UNL     1      10.954  54.474   0.582  1.00  0.00    -0.349 N 
ATOM      7  H3  UNL     1      11.887  54.252   0.234  1.00  0.00     0.167 HD
HETATM    8  C6  UNL     1      10.358  55.637   0.295  1.00  0.00     0.117 A 
HETATM    9  N4  UNL     1      10.818  56.672  -0.450  1.00  0.00    -0.352 N 
ATOM     10  H4  UNL     1      11.724  56.712  -0.917  1.00  0.00     0.166 HD
HETATM   11  C7  UNL     1       9.886  57.633  -0.471  1.00  0.00     0.090 A 
HETATM   12  C8  UNL     1       8.791  57.224   0.275  1.00  0.00     0.034 A 
HETATM   13  C9  UNL     1       9.076  55.971   0.760  1.00  0.00     0.038 A 
HETATM   14  C10 UNL     1       8.373  55.076   1.554  1.00  0.00     0.078 A 
HETATM   15  N5  UNL     1       7.144  55.081   2.159  1.00  0.00    -0.327 N 
ENDROOT
BRANCH   1  16
HETATM   16  C2  UNL     1       5.913  53.417   3.587  1.00  0.00     0.208 C 
BRANCH  16  17
HETATM   17  N1  UNL     1       4.915  52.794   2.654  1.00  0.00    -0.313 N 
ATOM     18  H1  UNL     1       4.267  53.266   2.023  1.00  0.00     0.172 HD
BRANCH  17  19
HETATM   19  S1  UNL     1       5.118  51.090   2.898  1.00  0.00     0.223 S 
HETATM   20  C1  UNL     1       3.757  50.161   2.301  1.00  0.00     0.185 C 
HETATM   21  O1  UNL     1       5.295  50.884   4.376  1.00  0.00    -0.206 OA
HETATM   22  O2  UNL     1       6.413  50.697   2.247  1.00  0.00    -0.206 OA
ENDBRANCH  17  19
ENDBRANCH  16  17
ENDBRANCH   1  16
BRANCH  15  23
HETATM   23  C11 UNL     1       6.221  56.166   2.076  1.00  0.00     0.096 C 
HETATM   24  C12 UNL     1       5.534  56.578   3.361  1.00  0.00     0.031 C 
HETATM   25  C13 UNL     1       4.308  57.294   2.744  1.00  0.00    -0.012 C 
HETATM   26  C14 UNL     1       4.704  58.194   1.629  1.00  0.00     0.005 C 
HETATM   27  C17 UNL     1       3.819  56.053   1.965  1.00  0.00     0.011 C 
HETATM   28  C15 UNL     1       4.862  57.311   0.394  1.00  0.00     0.007 C 
HETATM   29  C16 UNL     1       5.096  55.981   1.094  1.00  0.00     0.009 C 
ENDBRANCH  15  23
TORSDOF 4
ENDMDL
