MODEL 10
REMARK VINA RESULT: -7.626990554      4.341      6.839
REMARK  4 active torsions:
REMARK  status: ('A' for Active; 'I' for Inactive)
REMARK    1  A    between atoms: S1_2  and  N1_5 
REMARK    2  A    between atoms: N1_5  and  C2_7 
REMARK    3  A    between atoms: C2_7  and  C3_8 
REMARK    4  A    between atoms: N5_22  and  C11_23 
ROOT
HETATM    1  C3  UNL     1       6.624  51.323   3.175  1.00  0.00     0.103 A 
HETATM    2  N2  UNL     1       7.434  50.247   3.140  1.00  0.00    -0.341 N 
ATOM      3  H2  UNL     1       7.176  49.300   3.421  1.00  0.00     0.167 HD
HETATM    4  C4  UNL     1       8.629  50.622   2.679  1.00  0.00     0.077 A 
HETATM    5  C5  UNL     1       9.808  49.967   2.438  1.00  0.00     0.121 A 
HETATM    6  N3  UNL     1      10.904  50.557   1.964  1.00  0.00    -0.349 N 
ATOM      7  H3  UNL     1      11.763  50.033   1.799  1.00  0.00     0.167 HD
HETATM    8  C6  UNL     1      10.825  51.869   1.714  1.00  0.00     0.117 A 
HETATM    9  N4  UNL     1      11.777  52.706   1.233  1.00  0.00    -0.352 N 
ATOM     10  H4  UNL     1      12.730  52.441   0.983  1.00  0.00     0.166 HD
HETATM   11  C7  UNL     1      11.258  53.938   1.141  1.00  0.00     0.090 A 
HETATM   12  C8  UNL     1       9.940  53.912   1.569  1.00  0.00     0.034 A 
HETATM   13  C9  UNL     1       9.657  52.617   1.931  1.00  0.00     0.038 A 
HETATM   14  C10 UNL     1       8.519  51.995   2.426  1.00  0.00     0.078 A 
HETATM   15  N5  UNL     1       7.254  52.410   2.746  1.00  0.00    -0.327 N 
ENDROOT
BRANCH   1  16
HETATM   16  C2  UNL     1       5.220  51.229   3.635  1.00  0.00     0.208 C 
BRANCH  16  17
HETATM   17  N1  UNL     1       5.188  50.416   4.896  1.00  0.00    -0.313 N 
ATOM     18  H1  UNL     1       5.577  50.656   5.808  1.00  0.00     0.172 HD
BRANCH  17  19
HETATM   19  S1  UNL     1       4.337  48.974   4.445  1.00  0.00     0.223 S 
HETATM   20  C1  UNL     1       3.125  49.268   3.214  1.00  0.00     0.185 C 
HETATM   21  O1  UNL     1       3.703  48.438   5.697  1.00  0.00    -0.206 OA
HETATM   22  O2  UNL     1       5.364  47.967   4.013  1.00  0.00    -0.206 OA
ENDBRANCH  17  19
ENDBRANCH  16  17
ENDBRANCH   1  16
BRANCH  15  23
HETATM   23  C11 UNL     1       6.800  53.757   2.612  1.00  0.00     0.096 C 
HETATM   24  C12 UNL     1       6.390  54.469   3.883  1.00  0.00     0.031 C 
HETATM   25  C13 UNL     1       5.488  55.559   3.253  1.00  0.00    -0.012 C 
HETATM   26  C14 UNL     1       6.131  56.179   2.065  1.00  0.00     0.005 C 
HETATM   27  C17 UNL     1       4.529  54.552   2.581  1.00  0.00     0.011 C 
HETATM   28  C15 UNL     1       5.879  55.234   0.893  1.00  0.00     0.007 C 
HETATM   29  C16 UNL     1       5.636  53.956   1.680  1.00  0.00     0.009 C 
ENDBRANCH  15  23
TORSDOF 4
ENDMDL
