MODEL 2
REMARK VINA RESULT: -8.787134177      2.241      2.673
REMARK  4 active torsions:
REMARK  status: ('A' for Active; 'I' for Inactive)
REMARK    1  A    between atoms: S1_2  and  N1_5 
REMARK    2  A    between atoms: N1_5  and  C2_7 
REMARK    3  A    between atoms: C2_7  and  C3_8 
REMARK    4  A    between atoms: N5_22  and  C11_23 
ROOT
HETATM    1  C3  UNL     1       8.198  56.840   0.444  1.00  0.00     0.103 A 
HETATM    2  N2  UNL     1       8.204  58.046  -0.156  1.00  0.00    -0.341 N 
ATOM      3  H2  UNL     1       8.952  58.413  -0.744  1.00  0.00     0.167 HD
HETATM    4  C4  UNL     1       7.069  58.682   0.144  1.00  0.00     0.077 A 
HETATM    5  C5  UNL     1       6.546  59.907  -0.179  1.00  0.00     0.121 A 
HETATM    6  N3  UNL     1       5.363  60.347   0.245  1.00  0.00    -0.349 N 
ATOM      7  H3  UNL     1       5.010  61.267  -0.018  1.00  0.00     0.167 HD
HETATM    8  C6  UNL     1       4.659  59.525   1.032  1.00  0.00     0.117 A 
HETATM    9  N4  UNL     1       3.441  59.719   1.596  1.00  0.00    -0.352 N 
ATOM     10  H4  UNL     1       2.864  60.554   1.495  1.00  0.00     0.166 HD
HETATM   11  C7  UNL     1       3.120  58.630   2.308  1.00  0.00     0.090 A 
HETATM   12  C8  UNL     1       4.146  57.702   2.211  1.00  0.00     0.034 A 
HETATM   13  C9  UNL     1       5.118  58.255   1.412  1.00  0.00     0.038 A 
HETATM   14  C10 UNL     1       6.353  57.803   0.966  1.00  0.00     0.078 A 
HETATM   15  N5  UNL     1       7.082  56.657   1.140  1.00  0.00    -0.327 N 
ENDROOT
BRANCH   1  16
HETATM   16  C2  UNL     1       9.322  55.888   0.295  1.00  0.00     0.208 C 
BRANCH  16  17
HETATM   17  N1  UNL     1      10.562  56.666  -0.035  1.00  0.00    -0.313 N 
ATOM     18  H1  UNL     1      11.043  57.354   0.544  1.00  0.00     0.172 HD
BRANCH  17  19
HETATM   19  S1  UNL     1      10.985  56.126  -1.627  1.00  0.00     0.223 S 
HETATM   20  C1  UNL     1      11.538  54.463  -1.646  1.00  0.00     0.185 C 
HETATM   21  O1  UNL     1      12.061  57.050  -2.124  1.00  0.00    -0.206 OA
HETATM   22  O2  UNL     1       9.787  56.345  -2.506  1.00  0.00    -0.206 OA
ENDBRANCH  17  19
ENDBRANCH  16  17
ENDBRANCH   1  16
BRANCH  15  23
HETATM   23  C11 UNL     1       6.646  55.549   1.927  1.00  0.00     0.096 C 
HETATM   24  C12 UNL     1       7.497  55.187   3.126  1.00  0.00     0.031 C 
HETATM   25  C13 UNL     1       7.039  53.717   3.295  1.00  0.00    -0.012 C 
HETATM   26  C14 UNL     1       5.561  53.591   3.193  1.00  0.00     0.005 C 
HETATM   27  C17 UNL     1       7.472  53.289   1.876  1.00  0.00     0.011 C 
HETATM   28  C15 UNL     1       5.230  53.567   1.704  1.00  0.00     0.007 C 
HETATM   29  C16 UNL     1       6.482  54.252   1.181  1.00  0.00     0.009 C 
ENDBRANCH  15  23
TORSDOF 4
ENDMDL
