MODEL 8
REMARK VINA RESULT: -7.796556293      2.207      3.754
REMARK  4 active torsions:
REMARK  status: ('A' for Active; 'I' for Inactive)
REMARK    1  A    between atoms: S1_2  and  N1_5 
REMARK    2  A    between atoms: N1_5  and  C2_7 
REMARK    3  A    between atoms: C2_7  and  C3_8 
REMARK    4  A    between atoms: N5_22  and  C11_23 
ROOT
HETATM    1  C3  UNL     1       7.837  54.569   2.058  1.00  0.00     0.103 A 
HETATM    2  N2  UNL     1       9.035  54.195   1.567  1.00  0.00    -0.341 N 
ATOM      3  H2  UNL     1       9.514  53.318   1.775  1.00  0.00     0.167 HD
HETATM    4  C4  UNL     1       9.490  55.159   0.764  1.00  0.00     0.077 A 
HETATM    5  C5  UNL     1      10.625  55.318   0.012  1.00  0.00     0.121 A 
HETATM    6  N3  UNL     1      10.879  56.391  -0.734  1.00  0.00    -0.349 N 
ATOM      7  H3  UNL     1      11.737  56.471  -1.279  1.00  0.00     0.167 HD
HETATM    8  C6  UNL     1       9.955  57.359  -0.736  1.00  0.00     0.117 A 
HETATM    9  N4  UNL     1       9.959  58.542  -1.398  1.00  0.00    -0.352 N 
ATOM     10  H4  UNL     1      10.699  58.876  -2.016  1.00  0.00     0.166 HD
HETATM   11  C7  UNL     1       8.830  59.201  -1.106  1.00  0.00     0.090 A 
HETATM   12  C8  UNL     1       8.068  58.438  -0.235  1.00  0.00     0.034 A 
HETATM   13  C9  UNL     1       8.766  57.279   0.005  1.00  0.00     0.038 A 
HETATM   14  C10 UNL     1       8.508  56.156   0.781  1.00  0.00     0.078 A 
HETATM   15  N5  UNL     1       7.484  55.763   1.600  1.00  0.00    -0.327 N 
ENDROOT
BRANCH   1  16
HETATM   16  C2  UNL     1       7.066  53.704   2.980  1.00  0.00     0.208 C 
BRANCH  16  17
HETATM   17  N1  UNL     1       8.018  52.757   3.649  1.00  0.00    -0.313 N 
ATOM     18  H1  UNL     1       8.734  52.972   4.343  1.00  0.00     0.172 HD
BRANCH  17  19
HETATM   19  S1  UNL     1       7.622  51.212   2.970  1.00  0.00     0.223 S 
HETATM   20  C1  UNL     1       5.928  51.084   2.537  1.00  0.00     0.185 C 
HETATM   21  O1  UNL     1       7.986  50.181   4.000  1.00  0.00    -0.206 OA
HETATM   22  O2  UNL     1       8.534  50.993   1.797  1.00  0.00    -0.206 OA
ENDBRANCH  17  19
ENDBRANCH  16  17
ENDBRANCH   1  16
BRANCH  15  23
HETATM   23  C11 UNL     1       6.317  56.548   1.847  1.00  0.00     0.096 C 
HETATM   24  C12 UNL     1       5.760  56.518   3.254  1.00  0.00     0.031 C 
HETATM   25  C13 UNL     1       4.312  56.966   2.936  1.00  0.00    -0.012 C 
HETATM   26  C14 UNL     1       4.291  58.124   2.004  1.00  0.00     0.005 C 
HETATM   27  C17 UNL     1       4.033  55.798   1.964  1.00  0.00     0.011 C 
HETATM   28  C15 UNL     1       4.469  57.554   0.600  1.00  0.00     0.007 C 
HETATM   29  C16 UNL     1       5.134  56.239   0.970  1.00  0.00     0.009 C 
ENDBRANCH  15  23
TORSDOF 4
ENDMDL
