MODEL 8
REMARK VINA RESULT: -7.382288991      1.900      3.435
REMARK  10 active torsions:
REMARK  status: ('A' for Active; 'I' for Inactive)
REMARK    1  A    between atoms: N5_13  and  C6_14 
REMARK    2  A    between atoms: C7_16  and  C8_17 
REMARK    3  A    between atoms: C8_17  and  O2_18 
REMARK    4  A    between atoms: O2_18  and  P1_19 
REMARK    5  A    between atoms: P1_19  and  O5_22 
REMARK    6  A    between atoms: O5_22  and  P2_23 
REMARK    7  A    between atoms: P2_23  and  N6_26 
REMARK    8  A    between atoms: N6_26  and  P3_28 
REMARK    9  A    between atoms: C9_32  and  O11_33 
REMARK   10  A    between atoms: C10_35  and  O12_36 
ROOT
HETATM    1  C6  UNL     1       1.280   4.313  12.907  1.00  0.00     0.262 C 
HETATM    2  O1  UNL     1       1.930   4.137  11.676  1.00  0.00    -0.353 OA
HETATM    3  C7  UNL     1       2.144   5.452  11.267  1.00  0.00     0.180 C 
HETATM    4  C9  UNL     1       2.610   6.203  12.494  1.00  0.00     0.182 C 
HETATM    5  C10 UNL     1       2.186   5.272  13.613  1.00  0.00     0.198 C 
ENDROOT
BRANCH   3   6
HETATM    6  C8  UNL     1       3.110   5.570  10.124  1.00  0.00     0.216 C 
BRANCH   6   7
HETATM    7  O2  UNL     1       3.652   6.824  10.010  1.00  0.00    -0.287 OA
BRANCH   7   8
HETATM    8  P1  UNL     1       2.939   7.875   8.992  1.00  0.00     0.417 P 
HETATM    9  O3  UNL     1       3.034   7.659   7.340  1.00  0.00    -0.624 OA
HETATM   10  O4  UNL     1       1.990   9.110   9.544  1.00  0.00    -0.624 OA
BRANCH   8  11
HETATM   11  O5  UNL     1       4.166   8.779   8.917  1.00  0.00    -0.186 OA
BRANCH  11  12
HETATM   12  P2  UNL     1       4.170  10.299   8.275  1.00  0.00     0.379 P 
HETATM   13  O6  UNL     1       2.930  10.709   7.190  1.00  0.00    -0.629 OA
HETATM   14  O7  UNL     1       5.156  11.475   8.767  1.00  0.00    -0.629 OA
BRANCH  12  15
HETATM   15  N6  UNL     1       5.037   9.727   7.055  1.00  0.00    -0.218 N 
ATOM     16  H6  UNL     1       4.622   9.783   6.125  1.00  0.00     0.179 HD
BRANCH  15  17
HETATM   17  P3  UNL     1       6.558   9.048   7.169  1.00  0.00     0.381 P 
HETATM   18  O8  UNL     1       7.915  10.004   7.133  1.00  0.00    -0.622 OA
HETATM   19  O9  UNL     1       6.729   7.409   7.544  1.00  0.00    -0.622 OA
HETATM   20  O10 UNL     1       6.797   8.657   5.700  1.00  0.00    -0.622 OA
ENDBRANCH  15  17
ENDBRANCH  12  15
ENDBRANCH  11  12
ENDBRANCH   8  11
ENDBRANCH   7   8
ENDBRANCH   6   7
ENDBRANCH   3   6
BRANCH   4  21
HETATM   21  O11 UNL     1       1.881   7.393  12.655  1.00  0.00    -0.390 OA
ATOM     22  H11 UNL     1       1.701   7.794  11.813  1.00  0.00     0.210 HD
ENDBRANCH   4  21
BRANCH   1  23
HETATM   23  N5  UNL     1       1.136   3.084  13.626  1.00  0.00    -0.297 N 
HETATM   24  C3  UNL     1       2.041   2.116  13.856  1.00  0.00     0.142 A 
HETATM   25  N3  UNL     1       3.323   1.984  13.505  1.00  0.00    -0.336 N 
HETATM   26  C4  UNL     1       1.473   1.093  14.603  1.00  0.00     0.119 A 
HETATM   27  C2  UNL     1       4.024   0.893  13.869  1.00  0.00     0.183 A 
ATOM     28  H3  UNL     1       3.775   2.715  12.955  1.00  0.00     0.168 HD
HETATM   29  N2  UNL     1       3.465  -0.114  14.604  1.00  0.00    -0.339 N 
HETATM   30  C1  UNL     1       2.183  -0.023  14.979  1.00  0.00     0.148 A 
ATOM     31  H2  UNL     1       4.020  -0.929  14.865  1.00  0.00     0.167 HD
HETATM   32  N1  UNL     1       1.617  -1.070  15.738  1.00  0.00    -0.080 NA
HETATM   33  N4  UNL     1       0.196   1.480  14.814  1.00  0.00    -0.346 N 
HETATM   34  C5  UNL     1      -0.000   2.683  14.221  1.00  0.00     0.188 A 
ATOM     35  H4  UNL     1      -0.506   0.953  15.334  1.00  0.00     0.167 HD
ENDBRANCH   1  23
BRANCH   5  36
HETATM   36  O12 UNL     1       1.527   5.983  14.622  1.00  0.00    -0.388 OA
ATOM     37  H12 UNL     1       1.312   6.870  14.359  1.00  0.00     0.210 HD
ENDBRANCH   5  36
TORSDOF 10
ENDMDL
