MODEL 4
REMARK VINA RESULT: -7.565248576      2.075      3.669
REMARK  10 active torsions:
REMARK  status: ('A' for Active; 'I' for Inactive)
REMARK    1  A    between atoms: N5_13  and  C6_14 
REMARK    2  A    between atoms: C7_16  and  C8_17 
REMARK    3  A    between atoms: C8_17  and  O2_18 
REMARK    4  A    between atoms: O2_18  and  P1_19 
REMARK    5  A    between atoms: P1_19  and  O5_22 
REMARK    6  A    between atoms: O5_22  and  P2_23 
REMARK    7  A    between atoms: P2_23  and  N6_26 
REMARK    8  A    between atoms: N6_26  and  P3_28 
REMARK    9  A    between atoms: C9_32  and  O11_33 
REMARK   10  A    between atoms: C10_35  and  O12_36 
ROOT
HETATM    1  C6  UNL     1       1.303   4.388  12.880  1.00  0.00     0.262 C 
HETATM    2  O1  UNL     1       2.038   4.255  11.692  1.00  0.00    -0.353 OA
HETATM    3  C7  UNL     1       2.220   5.582  11.311  1.00  0.00     0.180 C 
HETATM    4  C9  UNL     1       2.573   6.337  12.572  1.00  0.00     0.182 C 
HETATM    5  C10 UNL     1       2.120   5.376  13.652  1.00  0.00     0.198 C 
ENDROOT
BRANCH   3   6
HETATM    6  C8  UNL     1       3.252   5.756  10.234  1.00  0.00     0.216 C 
BRANCH   6   7
HETATM    7  O2  UNL     1       2.735   6.283   9.079  1.00  0.00    -0.287 OA
BRANCH   7   8
HETATM    8  P1  UNL     1       2.850   7.891   8.855  1.00  0.00     0.417 P 
HETATM    9  O3  UNL     1       1.511   8.873   9.024  1.00  0.00    -0.624 OA
HETATM   10  O4  UNL     1       4.304   8.628   8.587  1.00  0.00    -0.624 OA
BRANCH   8  11
HETATM   11  O5  UNL     1       2.559   7.799   7.360  1.00  0.00    -0.186 OA
BRANCH  11  12
HETATM   12  P2  UNL     1       2.342   9.098   6.367  1.00  0.00     0.379 P 
HETATM   13  O6  UNL     1       1.334   8.907   5.014  1.00  0.00    -0.629 OA
HETATM   14  O7  UNL     1       2.860  10.584   6.712  1.00  0.00    -0.629 OA
BRANCH  12  15
HETATM   15  N6  UNL     1       3.588   8.583   5.502  1.00  0.00    -0.218 N 
ATOM     16  H6  UNL     1       3.602   7.594   5.253  1.00  0.00     0.179 HD
BRANCH  15  17
HETATM   17  P3  UNL     1       4.865   9.519   4.972  1.00  0.00     0.381 P 
HETATM   18  O8  UNL     1       4.624  10.718   3.849  1.00  0.00    -0.622 OA
HETATM   19  O9  UNL     1       6.370   9.409   5.732  1.00  0.00    -0.622 OA
HETATM   20  O10 UNL     1       5.439   8.608   3.873  1.00  0.00    -0.622 OA
ENDBRANCH  15  17
ENDBRANCH  12  15
ENDBRANCH  11  12
ENDBRANCH   8  11
ENDBRANCH   7   8
ENDBRANCH   6   7
ENDBRANCH   3   6
BRANCH   4  21
HETATM   21  O11 UNL     1       1.784   7.493  12.697  1.00  0.00    -0.390 OA
ATOM     22  H11 UNL     1       2.266   8.183  13.138  1.00  0.00     0.210 HD
ENDBRANCH   4  21
BRANCH   1  23
HETATM   23  N5  UNL     1       1.168   3.144  13.577  1.00  0.00    -0.297 N 
HETATM   24  C3  UNL     1       2.079   2.179  13.790  1.00  0.00     0.142 A 
HETATM   25  N3  UNL     1       3.362   2.062  13.438  1.00  0.00    -0.336 N 
HETATM   26  C4  UNL     1       1.518   1.139  14.519  1.00  0.00     0.119 A 
HETATM   27  C2  UNL     1       4.071   0.969  13.783  1.00  0.00     0.183 A 
ATOM     28  H3  UNL     1       3.809   2.806  12.902  1.00  0.00     0.168 HD
HETATM   29  N2  UNL     1       3.518  -0.055  14.499  1.00  0.00    -0.339 N 
HETATM   30  C1  UNL     1       2.235   0.021  14.875  1.00  0.00     0.148 A 
ATOM     31  H2  UNL     1       4.078  -0.871  14.746  1.00  0.00     0.167 HD
HETATM   32  N1  UNL     1       1.676  -1.043  15.614  1.00  0.00    -0.080 NA
HETATM   33  N4  UNL     1       0.238   1.513  14.735  1.00  0.00    -0.346 N 
HETATM   34  C5  UNL     1       0.033   2.724  14.164  1.00  0.00     0.188 A 
ATOM     35  H4  UNL     1      -0.461   0.972  15.244  1.00  0.00     0.167 HD
ENDBRANCH   1  23
BRANCH   5  36
HETATM   36  O12 UNL     1       1.367   6.045  14.624  1.00  0.00    -0.388 OA
ATOM     37  H12 UNL     1       1.819   6.804  14.972  1.00  0.00     0.210 HD
ENDBRANCH   5  36
TORSDOF 10
ENDMDL
