MODEL 2
REMARK VINA RESULT: -7.690150643      1.820      2.622
REMARK  10 active torsions:
REMARK  status: ('A' for Active; 'I' for Inactive)
REMARK    1  A    between atoms: N5_13  and  C6_14 
REMARK    2  A    between atoms: C7_16  and  C8_17 
REMARK    3  A    between atoms: C8_17  and  O2_18 
REMARK    4  A    between atoms: O2_18  and  P1_19 
REMARK    5  A    between atoms: P1_19  and  O5_22 
REMARK    6  A    between atoms: O5_22  and  P2_23 
REMARK    7  A    between atoms: P2_23  and  N6_26 
REMARK    8  A    between atoms: N6_26  and  P3_28 
REMARK    9  A    between atoms: C9_32  and  O11_33 
REMARK   10  A    between atoms: C10_35  and  O12_36 
ROOT
HETATM    1  C6  UNL     1       1.365   4.399  12.846  1.00  0.00     0.262 C 
HETATM    2  O1  UNL     1       2.056   4.251  11.634  1.00  0.00    -0.353 OA
HETATM    3  C7  UNL     1       2.235   5.574  11.235  1.00  0.00     0.180 C 
HETATM    4  C9  UNL     1       2.637   6.337  12.477  1.00  0.00     0.182 C 
HETATM    5  C10 UNL     1       2.215   5.387  13.580  1.00  0.00     0.198 C 
ENDROOT
BRANCH   3   6
HETATM    6  C8  UNL     1       3.229   5.732  10.122  1.00  0.00     0.216 C 
BRANCH   6   7
HETATM    7  O2  UNL     1       3.607   7.035   9.923  1.00  0.00    -0.287 OA
BRANCH   7   8
HETATM    8  P1  UNL     1       2.733   7.934   8.884  1.00  0.00     0.417 P 
HETATM    9  O3  UNL     1       2.946   7.781   7.236  1.00  0.00    -0.624 OA
HETATM   10  O4  UNL     1       1.518   8.925   9.404  1.00  0.00    -0.624 OA
BRANCH   8  11
HETATM   11  O5  UNL     1       3.741   9.079   8.881  1.00  0.00    -0.186 OA
BRANCH  11  12
HETATM   12  P2  UNL     1       5.050   9.171   7.881  1.00  0.00     0.379 P 
HETATM   13  O6  UNL     1       6.356   8.129   8.181  1.00  0.00    -0.629 OA
HETATM   14  O7  UNL     1       5.079  10.040   6.524  1.00  0.00    -0.629 OA
BRANCH  12  15
HETATM   15  N6  UNL     1       5.682  10.243   8.890  1.00  0.00    -0.218 N 
ATOM     16  H6  UNL     1       6.532   9.970   9.383  1.00  0.00     0.179 HD
BRANCH  15  17
HETATM   17  P3  UNL     1       5.075  11.766   9.207  1.00  0.00     0.381 P 
HETATM   18  O8  UNL     1       3.817  12.377   8.312  1.00  0.00    -0.622 OA
HETATM   19  O9  UNL     1       5.581  12.612  10.579  1.00  0.00    -0.622 OA
HETATM   20  O10 UNL     1       6.063  12.630   8.404  1.00  0.00    -0.622 OA
ENDBRANCH  15  17
ENDBRANCH  12  15
ENDBRANCH  11  12
ENDBRANCH   8  11
ENDBRANCH   7   8
ENDBRANCH   6   7
ENDBRANCH   3   6
BRANCH   4  21
HETATM   21  O11 UNL     1       1.861   7.499  12.620  1.00  0.00    -0.390 OA
ATOM     22  H11 UNL     1       2.362   8.270  12.381  1.00  0.00     0.210 HD
ENDBRANCH   4  21
BRANCH   1  23
HETATM   23  N5  UNL     1       1.245   3.162  13.557  1.00  0.00    -0.297 N 
HETATM   24  C3  UNL     1       2.170   2.213  13.785  1.00  0.00     0.142 A 
HETATM   25  N3  UNL     1       3.456   2.111  13.439  1.00  0.00    -0.336 N 
HETATM   26  C4  UNL     1       1.621   1.174  14.524  1.00  0.00     0.119 A 
HETATM   27  C2  UNL     1       4.179   1.034  13.801  1.00  0.00     0.183 A 
ATOM     28  H3  UNL     1       3.894   2.856  12.897  1.00  0.00     0.168 HD
HETATM   29  N2  UNL     1       3.639   0.010  14.527  1.00  0.00    -0.339 N 
HETATM   30  C1  UNL     1       2.353   0.071  14.896  1.00  0.00     0.148 A 
ATOM     31  H2  UNL     1       4.211  -0.794  14.786  1.00  0.00     0.167 HD
HETATM   32  N1  UNL     1       1.807  -0.992  15.646  1.00  0.00    -0.080 NA
HETATM   33  N4  UNL     1       0.335   1.531  14.730  1.00  0.00    -0.346 N 
HETATM   34  C5  UNL     1       0.115   2.733  14.144  1.00  0.00     0.188 A 
ATOM     35  H4  UNL     1      -0.358   0.986  15.244  1.00  0.00     0.167 HD
ENDBRANCH   1  23
BRANCH   5  36
HETATM   36  O12 UNL     1       1.501   6.069  14.572  1.00  0.00    -0.388 OA
ATOM     37  H12 UNL     1       2.021   6.746  14.991  1.00  0.00     0.210 HD
ENDBRANCH   5  36
TORSDOF 10
ENDMDL
