MODEL 6
REMARK VINA RESULT: -9.141260218      2.372      4.157
REMARK  10 active torsions:
REMARK  status: ('A' for Active; 'I' for Inactive)
REMARK    1  A    between atoms: N5_13  and  C6_14 
REMARK    2  A    between atoms: C7_16  and  C8_17 
REMARK    3  A    between atoms: C8_17  and  O2_18 
REMARK    4  A    between atoms: O2_18  and  P1_19 
REMARK    5  A    between atoms: P1_19  and  O5_22 
REMARK    6  A    between atoms: O5_22  and  P2_23 
REMARK    7  A    between atoms: P2_23  and  N6_26 
REMARK    8  A    between atoms: N6_26  and  P3_28 
REMARK    9  A    between atoms: C9_32  and  O11_33 
REMARK   10  A    between atoms: C10_35  and  O12_36 
ROOT
HETATM    1  C6  UNL     1     -23.869 -11.883  -6.216  1.00  0.00     0.262 C 
HETATM    2  O1  UNL     1     -25.122 -11.338  -6.535  1.00  0.00    -0.353 OA
HETATM    3  C7  UNL     1     -25.919 -12.476  -6.637  1.00  0.00     0.180 C 
HETATM    4  C9  UNL     1     -25.532 -13.366  -5.479  1.00  0.00     0.182 C 
HETATM    5  C10 UNL     1     -24.195 -12.783  -5.066  1.00  0.00     0.198 C 
ENDROOT
BRANCH   3   6
HETATM    6  C8  UNL     1     -27.389 -12.174  -6.659  1.00  0.00     0.216 C 
BRANCH   6   7
HETATM    7  O2  UNL     1     -27.693 -10.955  -6.111  1.00  0.00    -0.287 OA
BRANCH   7   8
HETATM    8  P1  UNL     1     -28.444  -9.860  -7.053  1.00  0.00     0.417 P 
HETATM    9  O3  UNL     1     -28.919  -8.386  -6.434  1.00  0.00    -0.624 OA
HETATM   10  O4  UNL     1     -28.644 -10.103  -8.675  1.00  0.00    -0.624 OA
BRANCH   8  11
HETATM   11  O5  UNL     1     -29.833 -10.408  -6.744  1.00  0.00    -0.186 OA
BRANCH  11  12
HETATM   12  P2  UNL     1     -30.381 -10.768  -5.230  1.00  0.00     0.379 P 
HETATM   13  O6  UNL     1     -30.537 -12.406  -4.807  1.00  0.00    -0.629 OA
HETATM   14  O7  UNL     1     -30.581  -9.671  -4.067  1.00  0.00    -0.629 OA
BRANCH  12  15
HETATM   15  N6  UNL     1     -31.868 -10.789  -5.826  1.00  0.00    -0.218 N 
ATOM     16  H6  UNL     1     -32.296 -11.703  -5.974  1.00  0.00     0.179 HD
BRANCH  15  17
HETATM   17  P3  UNL     1     -32.779  -9.449  -6.229  1.00  0.00     0.381 P 
HETATM   18  O8  UNL     1     -33.801  -8.758  -5.118  1.00  0.00    -0.622 OA
HETATM   19  O9  UNL     1     -32.509  -8.648  -7.692  1.00  0.00    -0.622 OA
HETATM   20  O10 UNL     1     -33.981 -10.126  -6.910  1.00  0.00    -0.622 OA
ENDBRANCH  15  17
ENDBRANCH  12  15
ENDBRANCH  11  12
ENDBRANCH   8  11
ENDBRANCH   7   8
ENDBRANCH   6   7
ENDBRANCH   3   6
BRANCH   4  21
HETATM   21  O11 UNL     1     -25.286 -14.678  -5.919  1.00  0.00    -0.390 OA
ATOM     22  H11 UNL     1     -24.602 -15.084  -5.401  1.00  0.00     0.210 HD
ENDBRANCH   4  21
BRANCH   1  23
HETATM   23  N5  UNL     1     -22.915 -10.878  -5.855  1.00  0.00    -0.297 N 
HETATM   24  C3  UNL     1     -23.007  -9.539  -5.944  1.00  0.00     0.142 A 
HETATM   25  N3  UNL     1     -23.979  -8.733  -6.380  1.00  0.00    -0.336 N 
HETATM   26  C4  UNL     1     -21.842  -8.944  -5.479  1.00  0.00     0.119 A 
HETATM   27  C2  UNL     1     -23.819  -7.396  -6.363  1.00  0.00     0.183 A 
ATOM     28  H3  UNL     1     -24.850  -9.134  -6.729  1.00  0.00     0.168 HD
HETATM   29  N2  UNL     1     -22.672  -6.810  -5.907  1.00  0.00    -0.339 N 
HETATM   30  C1  UNL     1     -21.672  -7.580  -5.459  1.00  0.00     0.148 A 
ATOM     31  H2  UNL     1     -22.579  -5.794  -5.907  1.00  0.00     0.167 HD
HETATM   32  N1  UNL     1     -20.493  -6.963  -4.990  1.00  0.00    -0.080 NA
HETATM   33  N4  UNL     1     -21.047  -9.972  -5.109  1.00  0.00    -0.346 N 
HETATM   34  C5  UNL     1     -21.701 -11.136  -5.339  1.00  0.00     0.188 A 
ATOM     35  H4  UNL     1     -20.108  -9.885  -4.720  1.00  0.00     0.167 HD
ENDBRANCH   1  23
BRANCH   5  36
HETATM   36  O12 UNL     1     -23.245 -13.797  -4.898  1.00  0.00    -0.388 OA
ATOM     37  H12 UNL     1     -22.500 -13.694  -5.478  1.00  0.00     0.210 HD
ENDBRANCH   5  36
TORSDOF 10
ENDMDL
