MODEL 3
REMARK VINA RESULT: -8.482446789      2.003      3.948
REMARK  10 active torsions:
REMARK  status: ('A' for Active; 'I' for Inactive)
REMARK    1  A    between atoms: N5_13  and  C6_14 
REMARK    2  A    between atoms: C7_16  and  C8_17 
REMARK    3  A    between atoms: C8_17  and  O2_18 
REMARK    4  A    between atoms: O2_18  and  P1_19 
REMARK    5  A    between atoms: P1_19  and  O5_22 
REMARK    6  A    between atoms: O5_22  and  P2_23 
REMARK    7  A    between atoms: P2_23  and  N6_26 
REMARK    8  A    between atoms: N6_26  and  P3_28 
REMARK    9  A    between atoms: C9_32  and  O11_33 
REMARK   10  A    between atoms: C10_35  and  O12_36 
ROOT
HETATM    1  C6  UNL     1       8.036 -11.961  -6.161  1.00  0.00     0.262 C 
HETATM    2  O1  UNL     1       6.869 -11.414  -6.675  1.00  0.00    -0.353 OA
HETATM    3  C7  UNL     1       5.994 -12.483  -6.650  1.00  0.00     0.180 C 
HETATM    4  C9  UNL     1       6.095 -12.939  -5.209  1.00  0.00     0.182 C 
HETATM    5  C10 UNL     1       7.603 -12.842  -4.986  1.00  0.00     0.198 C 
ENDROOT
BRANCH   3   6
HETATM    6  C8  UNL     1       4.574 -12.076  -6.976  1.00  0.00     0.216 C 
BRANCH   6   7
HETATM    7  O2  UNL     1       4.579 -10.838  -7.567  1.00  0.00    -0.287 OA
BRANCH   7   8
HETATM    8  P1  UNL     1       3.033 -10.171  -7.431  1.00  0.00     0.417 P 
HETATM    9  O3  UNL     1       2.548  -9.881  -8.832  1.00  0.00    -0.624 OA
HETATM   10  O4  UNL     1       3.151  -8.751  -6.522  1.00  0.00    -0.624 OA
BRANCH   8  11
HETATM   11  O5  UNL     1       2.058 -11.321  -6.663  1.00  0.00    -0.186 OA
BRANCH  11  12
HETATM   12  P2  UNL     1       0.797 -10.454  -5.903  1.00  0.00     0.379 P 
HETATM   13  O6  UNL     1       1.155 -10.069  -4.505  1.00  0.00    -0.629 OA
HETATM   14  O7  UNL     1      -0.557 -11.495  -5.926  1.00  0.00    -0.629 OA
BRANCH  12  15
HETATM   15  N6  UNL     1       0.405  -9.081  -6.904  1.00  0.00    -0.218 N 
ATOM     16  H6  UNL     1       0.942  -8.812  -7.729  1.00  0.00     0.179 HD
BRANCH  15  17
HETATM   17  P3  UNL     1      -0.995  -8.220  -6.344  1.00  0.00     0.381 P 
HETATM   18  O8  UNL     1      -1.277  -8.450  -4.880  1.00  0.00    -0.622 OA
HETATM   19  O9  UNL     1      -2.380  -8.634  -7.258  1.00  0.00    -0.622 OA
HETATM   20  O10 UNL     1      -0.743  -6.553  -6.584  1.00  0.00    -0.622 OA
ENDBRANCH  15  17
ENDBRANCH  12  15
ENDBRANCH  11  12
ENDBRANCH   8  11
ENDBRANCH   7   8
ENDBRANCH   6   7
ENDBRANCH   3   6
BRANCH   4  21
HETATM   21  O11 UNL     1       5.637 -14.236  -5.058  1.00  0.00    -0.390 OA
ATOM     22  H11 UNL     1       5.270 -14.374  -4.193  1.00  0.00     0.210 HD
ENDBRANCH   4  21
BRANCH   1  23
HETATM   23  N5  UNL     1       8.958 -10.940  -5.700  1.00  0.00    -0.297 N 
HETATM   24  C3  UNL     1       8.739  -9.604  -5.818  1.00  0.00     0.142 A 
HETATM   25  N3  UNL     1       7.737  -8.866  -6.328  1.00  0.00    -0.336 N 
HETATM   26  C4  UNL     1       9.822  -8.934  -5.274  1.00  0.00     0.119 A 
HETATM   27  C2  UNL     1       7.727  -7.523  -6.340  1.00  0.00     0.183 A 
ATOM     28  H3  UNL     1       6.936  -9.355  -6.730  1.00  0.00     0.168 HD
HETATM   29  N2  UNL     1       8.784  -6.873  -5.809  1.00  0.00    -0.339 N 
HETATM   30  C1  UNL     1       9.813  -7.556  -5.284  1.00  0.00     0.148 A 
ATOM     31  H2  UNL     1       8.800  -5.853  -5.805  1.00  0.00     0.167 HD
HETATM   32  N1  UNL     1      10.900  -6.820  -4.739  1.00  0.00    -0.080 NA
HETATM   33  N4  UNL     1      10.674  -9.868  -4.837  1.00  0.00    -0.346 N 
HETATM   34  C5  UNL     1      10.149 -11.089  -5.098  1.00  0.00     0.188 A 
ATOM     35  H4  UNL     1      11.570  -9.690  -4.384  1.00  0.00     0.167 HD
ENDBRANCH   1  23
BRANCH   5  36
HETATM   36  O12 UNL     1       8.134 -14.113  -5.115  1.00  0.00    -0.388 OA
ATOM     37  H12 UNL     1       7.796 -14.684  -4.436  1.00  0.00     0.210 HD
ENDBRANCH   5  36
TORSDOF 10
ENDMDL
