MODEL 15
REMARK VINA RESULT: -8.078089136      2.507      4.068
REMARK  10 active torsions:
REMARK  status: ('A' for Active; 'I' for Inactive)
REMARK    1  A    between atoms: N5_13  and  C6_14 
REMARK    2  A    between atoms: C7_16  and  C8_17 
REMARK    3  A    between atoms: C8_17  and  O2_18 
REMARK    4  A    between atoms: O2_18  and  P1_19 
REMARK    5  A    between atoms: P1_19  and  O5_22 
REMARK    6  A    between atoms: O5_22  and  P2_23 
REMARK    7  A    between atoms: P2_23  and  N6_26 
REMARK    8  A    between atoms: N6_26  and  P3_28 
REMARK    9  A    between atoms: C9_32  and  O11_33 
REMARK   10  A    between atoms: C10_35  and  O12_36 
ROOT
HETATM    1  C6  UNL     1       9.715 -10.210  -4.582  1.00  0.00     0.262 C 
HETATM    2  O1  UNL     1       8.438 -10.416  -5.081  1.00  0.00    -0.353 OA
HETATM    3  C7  UNL     1       7.956  -9.130  -5.231  1.00  0.00     0.180 C 
HETATM    4  C9  UNL     1       9.044  -8.482  -6.064  1.00  0.00     0.182 C 
HETATM    5  C10 UNL     1      10.292  -9.037  -5.380  1.00  0.00     0.198 C 
ENDROOT
BRANCH   3   6
HETATM    6  C8  UNL     1       6.635  -9.089  -5.966  1.00  0.00     0.216 C 
BRANCH   6   7
HETATM    7  O2  UNL     1       6.452 -10.268  -6.643  1.00  0.00    -0.287 OA
BRANCH   7   8
HETATM    8  P1  UNL     1       4.829 -10.718  -6.511  1.00  0.00     0.417 P 
HETATM    9  O3  UNL     1       4.653 -11.361  -5.156  1.00  0.00    -0.624 OA
HETATM   10  O4  UNL     1       4.486 -11.812  -7.753  1.00  0.00    -0.624 OA
BRANCH   8  11
HETATM   11  O5  UNL     1       3.907  -9.307  -6.653  1.00  0.00    -0.186 OA
BRANCH  11  12
HETATM   12  P2  UNL     1       2.430  -9.767  -7.380  1.00  0.00     0.379 P 
HETATM   13  O6  UNL     1       2.538  -9.810  -8.870  1.00  0.00    -0.629 OA
HETATM   14  O7  UNL     1       1.288  -8.601  -6.881  1.00  0.00    -0.629 OA
BRANCH  12  15
HETATM   15  N6  UNL     1       1.942 -11.293  -6.693  1.00  0.00    -0.218 N 
ATOM     16  H6  UNL     1       2.195 -12.198  -7.089  1.00  0.00     0.179 HD
BRANCH  15  17
HETATM   17  P3  UNL     1       0.976 -11.106  -5.261  1.00  0.00     0.381 P 
HETATM   18  O8  UNL     1      -0.443 -10.688  -5.562  1.00  0.00    -0.622 OA
HETATM   19  O9  UNL     1       1.680  -9.978  -4.186  1.00  0.00    -0.622 OA
HETATM   20  O10 UNL     1       0.931 -12.593  -4.435  1.00  0.00    -0.622 OA
ENDBRANCH  15  17
ENDBRANCH  12  15
ENDBRANCH  11  12
ENDBRANCH   8  11
ENDBRANCH   7   8
ENDBRANCH   6   7
ENDBRANCH   3   6
BRANCH   4  21
HETATM   21  O11 UNL     1       8.986  -7.102  -5.981  1.00  0.00    -0.390 OA
ATOM     22  H11 UNL     1       9.847  -6.713  -6.077  1.00  0.00     0.210 HD
ENDBRANCH   4  21
BRANCH   1  23
HETATM   23  N5  UNL     1      10.558 -11.380  -4.743  1.00  0.00    -0.297 N 
HETATM   24  C3  UNL     1      10.092 -12.655  -4.797  1.00  0.00     0.142 A 
HETATM   25  N3  UNL     1       8.864 -13.201  -4.731  1.00  0.00    -0.336 N 
HETATM   26  C4  UNL     1      11.171 -13.508  -4.955  1.00  0.00     0.119 A 
HETATM   27  C2  UNL     1       8.627 -14.521  -4.808  1.00  0.00     0.183 A 
ATOM     28  H3  UNL     1       8.066 -12.576  -4.615  1.00  0.00     0.168 HD
HETATM   29  N2  UNL     1       9.681 -15.350  -4.963  1.00  0.00    -0.339 N 
HETATM   30  C1  UNL     1      10.930 -14.863  -5.036  1.00  0.00     0.148 A 
ATOM     31  H2  UNL     1       9.527 -16.356  -5.025  1.00  0.00     0.167 HD
HETATM   32  N1  UNL     1      12.001 -15.782  -5.197  1.00  0.00    -0.080 NA
HETATM   33  N4  UNL     1      12.266 -12.742  -4.994  1.00  0.00    -0.346 N 
HETATM   34  C5  UNL     1      11.894 -11.447  -4.864  1.00  0.00     0.188 A 
ATOM     35  H4  UNL     1      13.223 -13.078  -5.104  1.00  0.00     0.167 HD
ENDBRANCH   1  23
BRANCH   5  36
HETATM   36  O12 UNL     1      10.778  -8.064  -4.526  1.00  0.00    -0.388 OA
ATOM     37  H12 UNL     1      11.089  -7.315  -5.020  1.00  0.00     0.210 HD
ENDBRANCH   5  36
TORSDOF 10
ENDMDL
