MODEL 8
REMARK VINA RESULT: -7.765711045      2.999      5.835
REMARK  5 active torsions:
REMARK  status: ('A' for Active; 'I' for Inactive)
REMARK    1  A    between atoms: C7_8  and  C8_9 
REMARK    2  A    between atoms: C14_18  and  C15_19 
REMARK    3  A    between atoms: C15_19  and  C16_20 
REMARK    4  A    between atoms: C16_20  and  O2_22 
REMARK    5  A    between atoms: O2_22  and  C17_23 
ROOT
HETATM    1  C1  UNL     1       5.122  -4.140 -30.770  1.00  0.00     0.057 C 
HETATM    2  C2  UNL     1       6.384  -3.734 -30.051  1.00  0.00    -0.012 A 
HETATM    3  S1  UNL     1       7.884  -4.566 -29.984  1.00  0.00    -0.075 SA
HETATM    4  C3  UNL     1       8.735  -3.481 -29.005  1.00  0.00     0.097 A 
HETATM    5  C4  UNL     1       7.835  -2.476 -28.725  1.00  0.00     0.033 A 
HETATM    6  C5  UNL     1       6.607  -2.611 -29.285  1.00  0.00    -0.034 A 
HETATM    7  C6  UNL     1       5.547  -1.507 -29.275  1.00  0.00     0.050 C 
HETATM    8  C7  UNL     1       8.148  -1.367 -27.780  1.00  0.00     0.052 C 
HETATM    9  N1  UNL     1       9.327  -0.759 -27.742  1.00  0.00    -0.376 N 
ATOM     10  H1  UNL     1       9.404  -0.008 -27.055  1.00  0.00     0.160 HD
HETATM   11  C14 UNL     1      10.519  -0.998 -28.525  1.00  0.00     0.161 C 
HETATM   12  C21 UNL     1      10.928  -2.438 -28.457  1.00  0.00     0.128 A 
HETATM   13  N2  UNL     1      12.120  -2.907 -28.204  1.00  0.00    -0.285 N 
ATOM     14  H2  UNL     1      12.951  -2.351 -28.002  1.00  0.00     0.188 HD
HETATM   15  N3  UNL     1      12.063  -4.264 -28.258  1.00  0.00    -0.287 N 
ATOM     16  H3  UNL     1      12.849  -4.894 -28.100  1.00  0.00     0.188 HD
HETATM   17  C22 UNL     1      10.808  -4.646 -28.551  1.00  0.00     0.100 A 
HETATM   18  C23 UNL     1      10.212  -6.013 -28.744  1.00  0.00     0.091 C 
HETATM   19  N4  UNL     1      10.138  -3.505 -28.667  1.00  0.00    -0.279 N 
ENDROOT
BRANCH  11  20
HETATM   20  C15 UNL     1      11.656  -0.241 -27.857  1.00  0.00     0.144 C 
BRANCH  20  21
HETATM   21  C16 UNL     1      11.341   1.227 -27.817  1.00  0.00     0.261 C 
HETATM   22  O1  UNL     1      11.989   2.030 -28.548  1.00  0.00    -0.265 OA
BRANCH  21  23
HETATM   23  O2  UNL     1      10.362   1.737 -27.000  1.00  0.00    -0.311 OA
BRANCH  23  24
HETATM   24  C17 UNL     1      10.555   2.112 -25.649  1.00  0.00     0.060 C 
HETATM   25  C18 UNL     1       9.903   1.047 -24.781  1.00  0.00     0.045 C 
HETATM   26  C19 UNL     1      12.000   2.213 -25.261  1.00  0.00     0.045 C 
HETATM   27  C20 UNL     1       9.808   3.408 -25.405  1.00  0.00     0.045 C 
ENDBRANCH  23  24
ENDBRANCH  21  23
ENDBRANCH  20  21
ENDBRANCH  11  20
BRANCH   8  28
HETATM   28  C8  UNL     1       7.178  -0.926 -26.821  1.00  0.00    -0.009 A 
HETATM   29  C9  UNL     1       6.711   0.316 -26.670  1.00  0.00     0.015 A 
HETATM   30  C10 UNL     1       5.847   0.650 -25.650  1.00  0.00     0.024 A 
HETATM   31  C11 UNL     1       5.415  -0.280 -24.733  1.00  0.00     0.034 A 
HETATM   32 CL1  UNL     1       4.322   0.080 -23.420  1.00  0.00    -0.084 Cl
HETATM   33  C12 UNL     1       5.877  -1.564 -24.868  1.00  0.00     0.024 A 
HETATM   34  C13 UNL     1       6.729  -1.870 -25.879  1.00  0.00     0.015 A 
ENDBRANCH   8  28
TORSDOF 5
ENDMDL
