MODEL 1
REMARK VINA RESULT: -9.310882661      0.000      0.000
REMARK  5 active torsions:
REMARK  status: ('A' for Active; 'I' for Inactive)
REMARK    1  A    between atoms: C7_8  and  C8_9 
REMARK    2  A    between atoms: C14_18  and  C15_19 
REMARK    3  A    between atoms: C15_19  and  C16_20 
REMARK    4  A    between atoms: C16_20  and  O2_22 
REMARK    5  A    between atoms: O2_22  and  C17_23 
ROOT
HETATM    1  C1  UNL     1       6.173  -0.220 -23.871  1.00  0.00     0.057 C 
HETATM    2  C2  UNL     1       7.208  -0.426 -24.948  1.00  0.00    -0.012 A 
HETATM    3  S1  UNL     1       8.742   0.329 -25.106  1.00  0.00    -0.075 SA
HETATM    4  C3  UNL     1       9.252  -0.424 -26.531  1.00  0.00     0.097 A 
HETATM    5  C4  UNL     1       8.212  -1.257 -26.883  1.00  0.00     0.033 A 
HETATM    6  C5  UNL     1       7.147  -1.260 -26.043  1.00  0.00    -0.034 A 
HETATM    7  C6  UNL     1       5.997  -2.265 -26.137  1.00  0.00     0.050 C 
HETATM    8  C7  UNL     1       8.204  -2.024 -28.161  1.00  0.00     0.052 C 
HETATM    9  N1  UNL     1       9.278  -2.632 -28.648  1.00  0.00    -0.376 N 
ATOM     10  H1  UNL     1       9.131  -3.132 -29.526  1.00  0.00     0.160 HD
HETATM   11  C14 UNL     1      10.624  -2.695 -28.124  1.00  0.00     0.161 C 
HETATM   12  C21 UNL     1      11.161  -1.323 -27.853  1.00  0.00     0.128 A 
HETATM   13  N2  UNL     1      12.318  -0.842 -28.221  1.00  0.00    -0.285 N 
ATOM     14  H2  UNL     1      13.025  -1.337 -28.765  1.00  0.00     0.188 HD
HETATM   15  N3  UNL     1      12.417   0.430 -27.754  1.00  0.00    -0.287 N 
ATOM     16  H3  UNL     1      13.216   1.049 -27.893  1.00  0.00     0.188 HD
HETATM   17  C22 UNL     1      11.298   0.747 -27.080  1.00  0.00     0.100 A 
HETATM   18  C23 UNL     1      10.903   2.005 -26.358  1.00  0.00     0.091 C 
HETATM   19  N4  UNL     1      10.549  -0.347 -27.159  1.00  0.00    -0.279 N 
ENDROOT
BRANCH  11  20
HETATM   20  C15 UNL     1      11.512  -3.246 -29.229  1.00  0.00     0.144 C 
BRANCH  20  21
HETATM   21  C16 UNL     1      12.395  -4.331 -28.685  1.00  0.00     0.261 C 
HETATM   22  O1  UNL     1      13.368  -4.034 -27.933  1.00  0.00    -0.265 OA
BRANCH  21  23
HETATM   23  O2  UNL     1      12.184  -5.656 -28.981  1.00  0.00    -0.311 OA
BRANCH  23  24
HETATM   24  C17 UNL     1      11.540  -6.580 -28.123  1.00  0.00     0.060 C 
HETATM   25  C18 UNL     1      12.609  -7.500 -27.556  1.00  0.00     0.045 C 
HETATM   26  C19 UNL     1      10.827  -5.928 -26.977  1.00  0.00     0.045 C 
HETATM   27  C20 UNL     1      10.610  -7.435 -28.961  1.00  0.00     0.045 C 
ENDBRANCH  23  24
ENDBRANCH  21  23
ENDBRANCH  20  21
ENDBRANCH  11  20
BRANCH   8  28
HETATM   28  C8  UNL     1       7.014  -2.105 -28.959  1.00  0.00    -0.009 A 
HETATM   29  C9  UNL     1       6.195  -1.099 -29.274  1.00  0.00     0.015 A 
HETATM   30  C10 UNL     1       5.024  -1.306 -29.970  1.00  0.00     0.024 A 
HETATM   31  C11 UNL     1       4.637  -2.561 -30.381  1.00  0.00     0.034 A 
HETATM   32 CL1  UNL     1       3.167  -2.889 -31.265  1.00  0.00    -0.084 Cl
HETATM   33  C12 UNL     1       5.463  -3.611 -30.072  1.00  0.00     0.024 A 
HETATM   34  C13 UNL     1       6.611  -3.384 -29.384  1.00  0.00     0.015 A 
ENDBRANCH   8  28
TORSDOF 5
ENDMDL
