MODEL 3
REMARK VINA RESULT: -8.560826733      0.883      1.536
REMARK  5 active torsions:
REMARK  status: ('A' for Active; 'I' for Inactive)
REMARK    1  A    between atoms: C7_8  and  C8_9 
REMARK    2  A    between atoms: C14_18  and  C15_19 
REMARK    3  A    between atoms: C15_19  and  C16_20 
REMARK    4  A    between atoms: C16_20  and  O2_22 
REMARK    5  A    between atoms: O2_22  and  C17_23 
ROOT
HETATM    1  C1  UNL     1       6.034  -0.344 -23.332  1.00  0.00     0.057 C 
HETATM    2  C2  UNL     1       7.114  -0.323 -24.383  1.00  0.00    -0.012 A 
HETATM    3  S1  UNL     1       8.498   0.690 -24.465  1.00  0.00    -0.075 SA
HETATM    4  C3  UNL     1       9.165   0.097 -25.901  1.00  0.00     0.097 A 
HETATM    5  C4  UNL     1       8.293  -0.886 -26.316  1.00  0.00     0.033 A 
HETATM    6  C5  UNL     1       7.225  -1.107 -25.510  1.00  0.00    -0.034 A 
HETATM    7  C6  UNL     1       6.269  -2.291 -25.678  1.00  0.00     0.050 C 
HETATM    8  C7  UNL     1       8.449  -1.588 -27.622  1.00  0.00     0.052 C 
HETATM    9  N1  UNL     1       9.623  -1.982 -28.098  1.00  0.00    -0.376 N 
ATOM     10  H1  UNL     1       9.587  -2.461 -28.998  1.00  0.00     0.160 HD
HETATM   11  C14 UNL     1      10.948  -1.834 -27.535  1.00  0.00     0.161 C 
HETATM   12  C21 UNL     1      11.232  -0.403 -27.196  1.00  0.00     0.128 A 
HETATM   13  N2  UNL     1      12.297   0.285 -27.509  1.00  0.00    -0.285 N 
ATOM     14  H2  UNL     1      13.092  -0.057 -28.049  1.00  0.00     0.188 HD
HETATM   15  N3  UNL     1      12.163   1.535 -26.992  1.00  0.00    -0.287 N 
ATOM     16  H3  UNL     1      12.846   2.287 -27.083  1.00  0.00     0.188 HD
HETATM   17  C22 UNL     1      10.990   1.625 -26.342  1.00  0.00     0.100 A 
HETATM   18  C23 UNL     1      10.366   2.765 -25.586  1.00  0.00     0.091 C 
HETATM   19  N4  UNL     1      10.444   0.423 -26.485  1.00  0.00    -0.279 N 
ENDROOT
BRANCH  11  20
HETATM   20  C15 UNL     1      11.943  -2.177 -28.632  1.00  0.00     0.144 C 
BRANCH  20  21
HETATM   21  C16 UNL     1      12.281  -3.639 -28.581  1.00  0.00     0.261 C 
HETATM   22  O1  UNL     1      13.428  -4.007 -28.194  1.00  0.00    -0.265 OA
BRANCH  21  23
HETATM   23  O2  UNL     1      11.377  -4.606 -28.946  1.00  0.00    -0.311 OA
BRANCH  23  24
HETATM   24  C17 UNL     1      10.953  -5.668 -28.111  1.00  0.00     0.060 C 
HETATM   25  C18 UNL     1       9.433  -5.668 -28.108  1.00  0.00     0.045 C 
HETATM   26  C19 UNL     1      11.421  -7.014 -28.579  1.00  0.00     0.045 C 
HETATM   27  C20 UNL     1      11.405  -5.368 -26.696  1.00  0.00     0.045 C 
ENDBRANCH  23  24
ENDBRANCH  21  23
ENDBRANCH  20  21
ENDBRANCH  11  20
BRANCH   8  28
HETATM   28  C8  UNL     1       7.311  -1.839 -28.458  1.00  0.00    -0.009 A 
HETATM   29  C9  UNL     1       6.964  -3.008 -29.004  1.00  0.00     0.015 A 
HETATM   30  C10 UNL     1       5.900  -3.117 -29.872  1.00  0.00     0.024 A 
HETATM   31  C11 UNL     1       5.135  -2.028 -30.222  1.00  0.00     0.034 A 
HETATM   32 CL1  UNL     1       3.776  -2.101 -31.316  1.00  0.00    -0.084 Cl
HETATM   33  C12 UNL     1       5.469  -0.817 -29.673  1.00  0.00     0.024 A 
HETATM   34  C13 UNL     1       6.523  -0.732 -28.822  1.00  0.00     0.015 A 
ENDBRANCH   8  28
TORSDOF 5
ENDMDL
