MODEL 2
REMARK VINA RESULT: -8.775247815      1.002      1.232
REMARK  5 active torsions:
REMARK  status: ('A' for Active; 'I' for Inactive)
REMARK    1  A    between atoms: C7_8  and  C8_9 
REMARK    2  A    between atoms: C14_18  and  C15_19 
REMARK    3  A    between atoms: C15_19  and  C16_20 
REMARK    4  A    between atoms: C16_20  and  O2_22 
REMARK    5  A    between atoms: O2_22  and  C17_23 
ROOT
HETATM    1  C1  UNL     1       5.914  -0.267 -23.428  1.00  0.00     0.057 C 
HETATM    2  C2  UNL     1       7.022  -0.260 -24.450  1.00  0.00    -0.012 A 
HETATM    3  S1  UNL     1       8.439   0.710 -24.476  1.00  0.00    -0.075 SA
HETATM    4  C3  UNL     1       9.125   0.124 -25.906  1.00  0.00     0.097 A 
HETATM    5  C4  UNL     1       8.233  -0.822 -26.364  1.00  0.00     0.033 A 
HETATM    6  C5  UNL     1       7.138  -1.024 -25.590  1.00  0.00    -0.034 A 
HETATM    7  C6  UNL     1       6.149  -2.172 -25.807  1.00  0.00     0.050 C 
HETATM    8  C7  UNL     1       8.401  -1.502 -27.679  1.00  0.00     0.052 C 
HETATM    9  N1  UNL     1       9.574  -1.924 -28.133  1.00  0.00    -0.376 N 
ATOM     10  H1  UNL     1       9.546  -2.384 -29.043  1.00  0.00     0.160 HD
HETATM   11  C14 UNL     1      10.887  -1.831 -27.534  1.00  0.00     0.161 C 
HETATM   12  C21 UNL     1      11.208  -0.417 -27.157  1.00  0.00     0.128 A 
HETATM   13  N2  UNL     1      12.303   0.242 -27.429  1.00  0.00    -0.285 N 
ATOM     14  H2  UNL     1      13.100  -0.115 -27.955  1.00  0.00     0.188 HD
HETATM   15  N3  UNL     1      12.195   1.485 -26.889  1.00  0.00    -0.287 N 
ATOM     16  H3  UNL     1      12.904   2.216 -26.947  1.00  0.00     0.188 HD
HETATM   17  C22 UNL     1      11.008   1.600 -26.268  1.00  0.00     0.100 A 
HETATM   18  C23 UNL     1      10.402   2.745 -25.505  1.00  0.00     0.091 C 
HETATM   19  N4  UNL     1      10.429   0.420 -26.450  1.00  0.00    -0.279 N 
ENDROOT
BRANCH  11  20
HETATM   20  C15 UNL     1      11.900  -2.184 -28.611  1.00  0.00     0.144 C 
BRANCH  20  21
HETATM   21  C16 UNL     1      11.461  -3.419 -29.345  1.00  0.00     0.261 C 
HETATM   22  O1  UNL     1      10.640  -3.324 -30.302  1.00  0.00    -0.265 OA
BRANCH  21  23
HETATM   23  O2  UNL     1      11.923  -4.667 -29.007  1.00  0.00    -0.311 OA
BRANCH  23  24
HETATM   24  C17 UNL     1      11.212  -5.604 -28.220  1.00  0.00     0.060 C 
HETATM   25  C18 UNL     1      11.609  -5.378 -26.770  1.00  0.00     0.045 C 
HETATM   26  C19 UNL     1       9.723  -5.459 -28.326  1.00  0.00     0.045 C 
HETATM   27  C20 UNL     1      11.677  -6.995 -28.602  1.00  0.00     0.045 C 
ENDBRANCH  23  24
ENDBRANCH  21  23
ENDBRANCH  20  21
ENDBRANCH  11  20
BRANCH   8  28
HETATM   28  C8  UNL     1       7.278  -1.699 -28.550  1.00  0.00    -0.009 A 
HETATM   29  C9  UNL     1       6.379  -0.780 -28.913  1.00  0.00     0.015 A 
HETATM   30  C10 UNL     1       5.281  -1.101 -29.681  1.00  0.00     0.024 A 
HETATM   31  C11 UNL     1       5.054  -2.386 -30.119  1.00  0.00     0.034 A 
HETATM   32 CL1  UNL     1       3.683  -2.856 -31.094  1.00  0.00    -0.084 Cl
HETATM   33  C12 UNL     1       5.964  -3.347 -29.762  1.00  0.00     0.024 A 
HETATM   34  C13 UNL     1       7.037  -3.008 -29.003  1.00  0.00     0.015 A 
ENDBRANCH   8  28
TORSDOF 5
ENDMDL
