MODEL 6
REMARK VINA RESULT: -7.858599135      3.025      5.878
REMARK  5 active torsions:
REMARK  status: ('A' for Active; 'I' for Inactive)
REMARK    1  A    between atoms: C7_8  and  C8_9 
REMARK    2  A    between atoms: C14_18  and  C15_19 
REMARK    3  A    between atoms: C15_19  and  C16_20 
REMARK    4  A    between atoms: C16_20  and  O2_22 
REMARK    5  A    between atoms: O2_22  and  C17_23 
ROOT
HETATM    1  C1  UNL     1       5.137  -4.205 -30.776  1.00  0.00     0.057 C 
HETATM    2  C2  UNL     1       6.398  -3.803 -30.052  1.00  0.00    -0.012 A 
HETATM    3  S1  UNL     1       7.889  -4.650 -29.966  1.00  0.00    -0.075 SA
HETATM    4  C3  UNL     1       8.745  -3.564 -28.993  1.00  0.00     0.097 A 
HETATM    5  C4  UNL     1       7.853  -2.546 -28.731  1.00  0.00     0.033 A 
HETATM    6  C5  UNL     1       6.627  -2.674 -29.297  1.00  0.00    -0.034 A 
HETATM    7  C6  UNL     1       5.579  -1.559 -29.308  1.00  0.00     0.050 C 
HETATM    8  C7  UNL     1       8.172  -1.430 -27.796  1.00  0.00     0.052 C 
HETATM    9  N1  UNL     1       9.357  -0.834 -27.756  1.00  0.00    -0.376 N 
ATOM     10  H1  UNL     1       9.437  -0.076 -27.077  1.00  0.00     0.160 HD
HETATM   11  C14 UNL     1      10.551  -1.094 -28.529  1.00  0.00     0.161 C 
HETATM   12  C21 UNL     1      10.944  -2.537 -28.442  1.00  0.00     0.128 A 
HETATM   13  N2  UNL     1      12.130  -3.016 -28.176  1.00  0.00    -0.285 N 
ATOM     14  H2  UNL     1      12.965  -2.466 -27.973  1.00  0.00     0.188 HD
HETATM   15  N3  UNL     1      12.058  -4.373 -28.214  1.00  0.00    -0.287 N 
ATOM     16  H3  UNL     1      12.837  -5.010 -28.044  1.00  0.00     0.188 HD
HETATM   17  C22 UNL     1      10.802  -4.745 -28.512  1.00  0.00     0.100 A 
HETATM   18  C23 UNL     1      10.193  -6.108 -28.693  1.00  0.00     0.091 C 
HETATM   19  N4  UNL     1      10.145  -3.599 -28.645  1.00  0.00    -0.279 N 
ENDROOT
BRANCH  11  20
HETATM   20  C15 UNL     1      11.691  -0.341 -27.862  1.00  0.00     0.144 C 
BRANCH  20  21
HETATM   21  C16 UNL     1      11.759   1.062 -28.391  1.00  0.00     0.261 C 
HETATM   22  O1  UNL     1      12.675   1.840 -27.997  1.00  0.00    -0.265 OA
BRANCH  21  23
HETATM   23  O2  UNL     1      10.847   1.540 -29.300  1.00  0.00    -0.311 OA
BRANCH  23  24
HETATM   24  C17 UNL     1       9.845   2.497 -29.009  1.00  0.00     0.060 C 
HETATM   25  C18 UNL     1       8.564   2.038 -29.688  1.00  0.00     0.045 C 
HETATM   26  C19 UNL     1       9.572   2.642 -27.542  1.00  0.00     0.045 C 
HETATM   27  C20 UNL     1      10.246   3.812 -29.647  1.00  0.00     0.045 C 
ENDBRANCH  23  24
ENDBRANCH  21  23
ENDBRANCH  20  21
ENDBRANCH  11  20
BRANCH   8  28
HETATM   28  C8  UNL     1       7.199  -0.968 -26.848  1.00  0.00    -0.009 A 
HETATM   29  C9  UNL     1       6.738   0.279 -26.722  1.00  0.00     0.015 A 
HETATM   30  C10 UNL     1       5.871   0.634 -25.711  1.00  0.00     0.024 A 
HETATM   31  C11 UNL     1       5.431  -0.278 -24.780  1.00  0.00     0.034 A 
HETATM   32 CL1  UNL     1       4.334   0.110 -23.477  1.00  0.00    -0.084 Cl
HETATM   33  C12 UNL     1       5.888  -1.566 -24.890  1.00  0.00     0.024 A 
HETATM   34  C13 UNL     1       6.743  -1.893 -25.892  1.00  0.00     0.015 A 
ENDBRANCH   8  28
TORSDOF 5
ENDMDL
