MODEL 3
REMARK VINA RESULT: -8.969564721      1.016      1.598
REMARK  5 active torsions:
REMARK  status: ('A' for Active; 'I' for Inactive)
REMARK    1  A    between atoms: C2_2  and  O1_4 
REMARK    2  A    between atoms: O1_4  and  C4_5 
REMARK    3  A    between atoms: C8_9  and  C9_10 
REMARK    4  A    between atoms: C9_10  and  N1_11 
REMARK    5  A    between atoms: N3_24  and  C18_25 
ROOT
HETATM    1  N1  UNL     1      22.422  36.604  42.863  1.00  0.00     0.097 N 
HETATM    2  C10 UNL     1      22.535  35.907  44.114  1.00  0.00     0.276 C 
HETATM    3  C11 UNL     1      21.317  36.037  44.978  1.00  0.00     0.064 C 
HETATM    4  C12 UNL     1      20.179  35.304  44.307  1.00  0.00     0.066 C 
HETATM    5  C13 UNL     1      20.201  35.682  42.847  1.00  0.00     0.069 C 
HETATM    6  C14 UNL     1      21.015  36.906  42.565  1.00  0.00     0.221 C 
HETATM    7  C15 UNL     1      20.864  37.222  41.084  1.00  0.00     0.043 C 
HETATM    8  C16 UNL     1      20.408  33.846  44.443  1.00  0.00     0.140 C 
HETATM    9  N2  UNL     1      19.210  33.129  44.176  1.00  0.00    -0.195 NA
HETATM   10  C17 UNL     1      19.130  32.505  42.903  1.00  0.00     0.131 C 
HETATM   11  S1  UNL     1      17.920  34.269  44.450  1.00  0.00     0.305 S 
HETATM   12  O2  UNL     1      17.115  33.757  45.592  1.00  0.00    -0.188 OA
HETATM   13  O3  UNL     1      17.130  34.524  43.226  1.00  0.00    -0.188 OA
HETATM   14  N3  UNL     1      18.898  35.624  44.903  1.00  0.00    -0.252 N 
ENDROOT
BRANCH  14  15
HETATM   15  C18 UNL     1      18.496  36.737  45.665  1.00  0.00     0.050 A 
HETATM   16  C19 UNL     1      18.975  36.917  46.944  1.00  0.00     0.030 A 
HETATM   17  C20 UNL     1      18.602  38.001  47.729  1.00  0.00     0.005 A 
HETATM   18  C21 UNL     1      17.720  38.935  47.211  1.00  0.00     0.042 A 
HETATM   19  C22 UNL     1      17.232  38.759  45.919  1.00  0.00     0.118 A 
HETATM   20  F1  UNL     1      16.366  39.662  45.392  1.00  0.00    -0.206 F 
HETATM   21  C23 UNL     1      17.617  37.674  45.158  1.00  0.00     0.072 A 
ENDBRANCH  14  15
BRANCH   1  22
HETATM   22  C9  UNL     1      23.108  37.872  42.871  1.00  0.00     0.311 C 
BRANCH  22  23
HETATM   23  C8  UNL     1      24.414  37.843  42.213  1.00  0.00    -0.028 A 
HETATM   24  C7  UNL     1      24.634  38.013  40.863  1.00  0.00     0.009 A 
HETATM   25  C6  UNL     1      25.896  37.973  40.308  1.00  0.00     0.003 A 
HETATM   26  C5  UNL     1      26.978  37.763  41.101  1.00  0.00     0.037 A 
HETATM   27  C4  UNL     1      26.811  37.586  42.476  1.00  0.00     0.069 A 
HETATM   28  C24 UNL     1      25.541  37.630  43.000  1.00  0.00     0.045 A 
BRANCH  27  29
HETATM   29  O1  UNL     1      27.970  37.379  43.192  1.00  0.00    -0.347 OA
BRANCH  29  30
HETATM   30  C2  UNL     1      28.453  36.132  43.608  1.00  0.00     0.120 C 
HETATM   31  C1  UNL     1      28.046  35.884  45.046  1.00  0.00     0.040 C 
HETATM   32  C3  UNL     1      29.979  36.154  43.609  1.00  0.00     0.040 C 
ENDBRANCH  29  30
ENDBRANCH  27  29
ENDBRANCH  22  23
ENDBRANCH   1  22
TORSDOF 5
ENDMDL
