MODEL 2
REMARK VINA RESULT: -9.139509501      0.806      1.165
REMARK  5 active torsions:
REMARK  status: ('A' for Active; 'I' for Inactive)
REMARK    1  A    between atoms: C2_2  and  O1_4 
REMARK    2  A    between atoms: O1_4  and  C4_5 
REMARK    3  A    between atoms: C8_9  and  C9_10 
REMARK    4  A    between atoms: C9_10  and  N1_11 
REMARK    5  A    between atoms: N3_24  and  C18_25 
ROOT
HETATM    1  N1  UNL     1      22.482  36.681  42.873  1.00  0.00     0.097 N 
HETATM    2  C10 UNL     1      22.611  36.036  44.150  1.00  0.00     0.276 C 
HETATM    3  C11 UNL     1      21.373  36.131  44.991  1.00  0.00     0.064 C 
HETATM    4  C12 UNL     1      20.287  35.315  44.330  1.00  0.00     0.066 C 
HETATM    5  C13 UNL     1      20.313  35.641  42.858  1.00  0.00     0.069 C 
HETATM    6  C14 UNL     1      21.066  36.896  42.544  1.00  0.00     0.221 C 
HETATM    7  C15 UNL     1      20.922  37.151  41.051  1.00  0.00     0.043 C 
HETATM    8  C16 UNL     1      20.591  33.877  44.523  1.00  0.00     0.140 C 
HETATM    9  N2  UNL     1      19.437  33.088  44.265  1.00  0.00    -0.195 NA
HETATM   10  C17 UNL     1      19.412  32.415  43.014  1.00  0.00     0.131 C 
HETATM   11  S1  UNL     1      18.084  34.166  44.478  1.00  0.00     0.305 S 
HETATM   12  O2  UNL     1      17.289  33.652  45.626  1.00  0.00    -0.188 OA
HETATM   13  O3  UNL     1      17.302  34.335  43.235  1.00  0.00    -0.188 OA
HETATM   14  N3  UNL     1      18.982  35.587  44.896  1.00  0.00    -0.252 N 
ENDROOT
BRANCH  14  15
HETATM   15  C18 UNL     1      18.508  36.703  45.611  1.00  0.00     0.050 A 
HETATM   16  C19 UNL     1      17.626  37.584  45.025  1.00  0.00     0.030 A 
HETATM   17  C20 UNL     1      17.135  38.697  45.696  1.00  0.00     0.005 A 
HETATM   18  C21 UNL     1      17.543  38.932  46.998  1.00  0.00     0.042 A 
HETATM   19  C22 UNL     1      18.434  38.045  47.597  1.00  0.00     0.118 A 
HETATM   20  F1  UNL     1      18.848  38.256  48.873  1.00  0.00    -0.206 F 
HETATM   21  C23 UNL     1      18.908  36.946  46.910  1.00  0.00     0.072 A 
ENDBRANCH  14  15
BRANCH   1  22
HETATM   22  C9  UNL     1      23.099  37.983  42.845  1.00  0.00     0.311 C 
BRANCH  22  23
HETATM   23  C8  UNL     1      24.511  37.978  43.227  1.00  0.00    -0.028 A 
HETATM   24  C7  UNL     1      25.029  38.517  44.384  1.00  0.00     0.009 A 
HETATM   25  C6  UNL     1      26.376  38.477  44.681  1.00  0.00     0.003 A 
HETATM   26  C5  UNL     1      27.243  37.889  43.817  1.00  0.00     0.037 A 
HETATM   27  C4  UNL     1      26.770  37.327  42.629  1.00  0.00     0.069 A 
HETATM   28  C24 UNL     1      25.423  37.382  42.361  1.00  0.00     0.045 A 
BRANCH  27  29
HETATM   29  O1  UNL     1      27.729  36.756  41.822  1.00  0.00    -0.347 OA
BRANCH  29  30
HETATM   30  C2  UNL     1      27.675  35.460  41.293  1.00  0.00     0.120 C 
HETATM   31  C1  UNL     1      28.746  34.604  41.939  1.00  0.00     0.040 C 
HETATM   32  C3  UNL     1      28.022  35.505  39.807  1.00  0.00     0.040 C 
ENDBRANCH  29  30
ENDBRANCH  27  29
ENDBRANCH  22  23
ENDBRANCH   1  22
TORSDOF 5
ENDMDL
