MODEL 12
REMARK VINA RESULT: -8.215929340      3.667      5.578
REMARK  5 active torsions:
REMARK  status: ('A' for Active; 'I' for Inactive)
REMARK    1  A    between atoms: C2_2  and  O1_4 
REMARK    2  A    between atoms: O1_4  and  C4_5 
REMARK    3  A    between atoms: C8_9  and  C9_10 
REMARK    4  A    between atoms: C9_10  and  N1_11 
REMARK    5  A    between atoms: N3_24  and  C18_25 
ROOT
HETATM    1  N1  UNL     1      23.287  36.525  40.645  1.00  0.00     0.097 N 
HETATM    2  C10 UNL     1      23.211  35.092  40.711  1.00  0.00     0.276 C 
HETATM    3  C11 UNL     1      23.884  34.517  41.921  1.00  0.00     0.064 C 
HETATM    4  C12 UNL     1      23.099  34.933  43.143  1.00  0.00     0.066 C 
HETATM    5  C13 UNL     1      22.781  36.400  42.993  1.00  0.00     0.069 C 
HETATM    6  C14 UNL     1      23.622  37.085  41.962  1.00  0.00     0.221 C 
HETATM    7  C15 UNL     1      23.264  38.564  41.994  1.00  0.00     0.043 C 
HETATM    8  C16 UNL     1      21.839  34.156  43.184  1.00  0.00     0.140 C 
HETATM    9  N2  UNL     1      21.257  34.224  44.480  1.00  0.00    -0.195 NA
HETATM   10  C17 UNL     1      20.149  35.103  44.617  1.00  0.00     0.131 C 
HETATM   11  S1  UNL     1      22.570  34.621  45.554  1.00  0.00     0.305 S 
HETATM   12  O2  UNL     1      22.740  33.471  46.484  1.00  0.00    -0.188 OA
HETATM   13  O3  UNL     1      22.364  35.917  46.235  1.00  0.00    -0.188 OA
HETATM   14  N3  UNL     1      23.831  34.686  44.369  1.00  0.00    -0.252 N 
ENDROOT
BRANCH  14  15
HETATM   15  C18 UNL     1      25.210  34.532  44.596  1.00  0.00     0.050 A 
HETATM   16  C19 UNL     1      25.727  33.302  44.943  1.00  0.00     0.030 A 
HETATM   17  C20 UNL     1      27.082  33.107  45.177  1.00  0.00     0.005 A 
HETATM   18  C21 UNL     1      27.947  34.182  45.057  1.00  0.00     0.042 A 
HETATM   19  C22 UNL     1      27.432  35.428  44.707  1.00  0.00     0.118 A 
HETATM   20  F1  UNL     1      28.262  36.495  44.585  1.00  0.00    -0.206 F 
HETATM   21  C23 UNL     1      26.082  35.597  44.480  1.00  0.00     0.072 A 
ENDBRANCH  14  15
BRANCH   1  22
HETATM   22  C9  UNL     1      24.313  36.985  39.745  1.00  0.00     0.311 C 
BRANCH  22  23
HETATM   23  C8  UNL     1      25.670  36.858  40.277  1.00  0.00    -0.028 A 
HETATM   24  C7  UNL     1      26.296  37.769  41.100  1.00  0.00     0.009 A 
HETATM   25  C6  UNL     1      27.581  37.586  41.565  1.00  0.00     0.003 A 
HETATM   26  C5  UNL     1      28.276  36.472  41.215  1.00  0.00     0.037 A 
HETATM   27  C4  UNL     1      27.688  35.517  40.383  1.00  0.00     0.069 A 
HETATM   28  C24 UNL     1      26.405  35.728  39.934  1.00  0.00     0.045 A 
BRANCH  27  29
HETATM   29  O1  UNL     1      28.475  34.426  40.086  1.00  0.00    -0.347 OA
BRANCH  29  30
HETATM   30  C2  UNL     1      28.062  33.089  40.147  1.00  0.00     0.120 C 
HETATM   31  C1  UNL     1      27.858  32.687  41.594  1.00  0.00     0.040 C 
HETATM   32  C3  UNL     1      29.178  32.190  39.622  1.00  0.00     0.040 C 
ENDBRANCH  29  30
ENDBRANCH  27  29
ENDBRANCH  22  23
ENDBRANCH   1  22
TORSDOF 5
ENDMDL
