MODEL 1
REMARK VINA RESULT: -9.149264431      0.000      0.000
REMARK  5 active torsions:
REMARK  status: ('A' for Active; 'I' for Inactive)
REMARK    1  A    between atoms: C2_2  and  O1_4 
REMARK    2  A    between atoms: O1_4  and  C4_5 
REMARK    3  A    between atoms: C8_9  and  C9_10 
REMARK    4  A    between atoms: C9_10  and  N1_11 
REMARK    5  A    between atoms: N3_24  and  C18_25 
ROOT
HETATM    1  N1  UNL     1      22.491  36.687  42.853  1.00  0.00     0.097 N 
HETATM    2  C10 UNL     1      22.638  36.014  44.114  1.00  0.00     0.276 C 
HETATM    3  C11 UNL     1      21.413  36.094  44.975  1.00  0.00     0.064 C 
HETATM    4  C12 UNL     1      20.315  35.295  44.314  1.00  0.00     0.066 C 
HETATM    5  C13 UNL     1      20.319  35.654  42.848  1.00  0.00     0.069 C 
HETATM    6  C14 UNL     1      21.071  36.913  42.550  1.00  0.00     0.221 C 
HETATM    7  C15 UNL     1      20.905  37.201  41.065  1.00  0.00     0.043 C 
HETATM    8  C16 UNL     1      20.617  33.853  44.470  1.00  0.00     0.140 C 
HETATM    9  N2  UNL     1      19.457  33.073  44.213  1.00  0.00    -0.195 NA
HETATM   10  C17 UNL     1      19.410  32.427  42.948  1.00  0.00     0.131 C 
HETATM   11  S1  UNL     1      18.111  34.150  44.469  1.00  0.00     0.305 S 
HETATM   12  O2  UNL     1      17.331  33.613  45.618  1.00  0.00    -0.188 OA
HETATM   13  O3  UNL     1      17.310  34.347  43.242  1.00  0.00    -0.188 OA
HETATM   14  N3  UNL     1      19.019  35.559  44.904  1.00  0.00    -0.252 N 
ENDROOT
BRANCH  14  15
HETATM   15  C18 UNL     1      18.560  36.660  45.650  1.00  0.00     0.050 A 
HETATM   16  C19 UNL     1      19.009  36.869  46.936  1.00  0.00     0.030 A 
HETATM   17  C20 UNL     1      18.581  37.943  47.706  1.00  0.00     0.005 A 
HETATM   18  C21 UNL     1      17.671  38.837  47.166  1.00  0.00     0.042 A 
HETATM   19  C22 UNL     1      17.213  38.633  45.867  1.00  0.00     0.118 A 
HETATM   20  F1  UNL     1      16.321  39.497  45.318  1.00  0.00    -0.206 F 
HETATM   21  C23 UNL     1      17.653  37.558  45.122  1.00  0.00     0.072 A 
ENDBRANCH  14  15
BRANCH   1  22
HETATM   22  C9  UNL     1      23.112  37.987  42.843  1.00  0.00     0.311 C 
BRANCH  22  23
HETATM   23  C8  UNL     1      24.526  37.972  43.221  1.00  0.00    -0.028 A 
HETATM   24  C7  UNL     1      25.051  38.503  44.379  1.00  0.00     0.009 A 
HETATM   25  C6  UNL     1      26.398  38.454  44.671  1.00  0.00     0.003 A 
HETATM   26  C5  UNL     1      27.258  37.864  43.802  1.00  0.00     0.037 A 
HETATM   27  C4  UNL     1      26.778  37.310  42.613  1.00  0.00     0.069 A 
HETATM   28  C24 UNL     1      25.430  37.374  42.349  1.00  0.00     0.045 A 
BRANCH  27  29
HETATM   29  O1  UNL     1      27.731  36.736  41.800  1.00  0.00    -0.347 OA
BRANCH  29  30
HETATM   30  C2  UNL     1      27.671  35.441  41.272  1.00  0.00     0.120 C 
HETATM   31  C1  UNL     1      28.738  34.579  41.917  1.00  0.00     0.040 C 
HETATM   32  C3  UNL     1      28.017  35.483  39.786  1.00  0.00     0.040 C 
ENDBRANCH  29  30
ENDBRANCH  27  29
ENDBRANCH  22  23
ENDBRANCH   1  22
TORSDOF 5
ENDMDL
