MODEL 7
REMARK VINA RESULT: -7.761825670      2.942      5.232
REMARK  13 active torsions:
REMARK  status: ('A' for Active; 'I' for Inactive)
REMARK    1  A    between atoms: C2_2  and  C3_3 
REMARK    2  A    between atoms: C3_3  and  N1_4 
REMARK    3  A    between atoms: N1_4  and  C4_6 
REMARK    4  A    between atoms: C4_6  and  C5_7 
REMARK    5  A    between atoms: C4_6  and  C9_17 
REMARK    6  A    between atoms: C5_7  and  C6_8 
REMARK    7  A    between atoms: C6_8  and  C7_9 
REMARK    8  A    between atoms: C7_9  and  N2_10 
REMARK    9  A    between atoms: C7_9  and  C8_14 
REMARK   10  A    between atoms: C9_17  and  C10_18 
REMARK   11  A    between atoms: C11_20  and  N3_21 
REMARK   12  A    between atoms: C17_34  and  O4_35 
REMARK   13  A    between atoms: C18_37  and  O5_38 
ROOT
HETATM    1  C10 UNL     1      -3.090  29.186  16.864  1.00  0.00     0.161 C 
HETATM    2  O3  UNL     1      -4.008  30.150  17.358  1.00  0.00    -0.355 OA
HETATM    3  C11 UNL     1      -3.240  31.213  17.704  1.00  0.00     0.262 C 
HETATM    4  C17 UNL     1      -2.151  30.520  18.539  1.00  0.00     0.198 C 
HETATM    5  C18 UNL     1      -1.760  29.465  17.474  1.00  0.00     0.180 C 
ENDROOT
BRANCH   1   6
HETATM    6  C9  UNL     1      -3.562  27.807  17.295  1.00  0.00     0.091 C 
BRANCH   6   7
HETATM    7  C4  UNL     1      -2.560  26.764  16.984  1.00  0.00     0.003 C 
BRANCH   7   8
HETATM    8  N1  UNL     1      -2.537  25.657  17.965  1.00  0.00    -0.393 N 
ATOM      9  H1  UNL     1      -1.691  25.236  18.348  1.00  0.00     0.159 HD
BRANCH   8  10
HETATM   10  C3  UNL     1      -3.864  25.263  18.301  1.00  0.00     0.119 C 
BRANCH  10  11
HETATM   11  C2  UNL     1      -4.047  24.935  19.758  1.00  0.00     0.015 C 
HETATM   12  C1  UNL     1      -5.208  25.619  20.387  1.00  0.00     0.006 C 
ENDBRANCH  10  11
ENDBRANCH   8  10
ENDBRANCH   7   8
BRANCH   7  13
HETATM   13  C5  UNL     1      -2.274  26.358  15.606  1.00  0.00     0.001 C 
BRANCH  13  14
HETATM   14  C6  UNL     1      -1.555  25.131  15.259  1.00  0.00     0.073 C 
BRANCH  14  15
HETATM   15  C7  UNL     1      -2.267  24.110  14.453  1.00  0.00     0.286 C 
BRANCH  15  16
HETATM   16  N2  UNL     1      -3.454  23.647  15.116  1.00  0.00    -0.065 N 
ATOM     17  H23 UNL     1      -3.228  23.111  15.954  1.00  0.00     0.275 HD
ATOM     18  H22 UNL     1      -3.961  24.417  15.553  1.00  0.00     0.275 HD
ATOM     19  H21 UNL     1      -4.054  23.117  14.484  1.00  0.00     0.275 HD
ENDBRANCH  15  16
BRANCH  15  20
HETATM   20  C8  UNL     1      -1.374  22.960  14.093  1.00  0.00     0.204 C 
HETATM   21  O1  UNL     1      -0.928  22.235  15.005  1.00  0.00    -0.646 OA
HETATM   22  O2  UNL     1      -1.037  22.689  12.786  1.00  0.00    -0.646 OA
ENDBRANCH  15  20
ENDBRANCH  14  15
ENDBRANCH  13  14
ENDBRANCH   7  13
ENDBRANCH   6   7
ENDBRANCH   1   6
BRANCH   5  23
HETATM   23  O5  UNL     1      -0.911  30.168  16.609  1.00  0.00    -0.390 OA
ATOM     24  H5  UNL     1      -0.381  29.591  16.071  1.00  0.00     0.210 HD
ENDBRANCH   5  23
BRANCH   3  25
HETATM   25  N3  UNL     1      -3.905  32.182  18.529  1.00  0.00    -0.297 N 
HETATM   26  C12 UNL     1      -4.550  31.936  19.679  1.00  0.00     0.188 A 
HETATM   27  N4  UNL     1      -5.052  33.080  20.171  1.00  0.00    -0.346 N 
HETATM   28  C13 UNL     1      -4.744  34.080  19.355  1.00  0.00     0.119 A 
ATOM     29  H4  UNL     1      -5.585  33.167  21.036  1.00  0.00     0.167 HD
HETATM   30  C14 UNL     1      -5.015  35.444  19.397  1.00  0.00     0.148 A 
HETATM   31  C16 UNL     1      -4.016  33.518  18.312  1.00  0.00     0.142 A 
HETATM   32  N5  UNL     1      -5.756  35.990  20.465  1.00  0.00    -0.080 NA
HETATM   33  N6  UNL     1      -4.550  36.202  18.396  1.00  0.00    -0.339 N 
HETATM   34  C15 UNL     1      -3.839  35.638  17.380  1.00  0.00     0.183 A 
ATOM     35  H6  UNL     1      -4.729  37.206  18.394  1.00  0.00     0.167 HD
HETATM   36  N7  UNL     1      -3.571  34.322  17.330  1.00  0.00    -0.336 N 
ATOM     37  H7  UNL     1      -3.034  33.937  16.553  1.00  0.00     0.168 HD
ENDBRANCH   3  25
BRANCH   4  38
HETATM   38  O4  UNL     1      -1.110  31.354  18.850  1.00  0.00    -0.388 OA
ATOM     39  H4  UNL     1      -1.243  32.241  18.538  1.00  0.00     0.210 HD
ENDBRANCH   4  38
TORSDOF 13
ENDMDL
