MODEL 1
REMARK VINA RESULT: -9.131755681      0.000      0.000
REMARK  13 active torsions:
REMARK  status: ('A' for Active; 'I' for Inactive)
REMARK    1  A    between atoms: C2_2  and  C3_3 
REMARK    2  A    between atoms: C3_3  and  N1_4 
REMARK    3  A    between atoms: N1_4  and  C4_6 
REMARK    4  A    between atoms: C4_6  and  C5_7 
REMARK    5  A    between atoms: C4_6  and  C9_17 
REMARK    6  A    between atoms: C5_7  and  C6_8 
REMARK    7  A    between atoms: C6_8  and  C7_9 
REMARK    8  A    between atoms: C7_9  and  N2_10 
REMARK    9  A    between atoms: C7_9  and  C8_14 
REMARK   10  A    between atoms: C9_17  and  C10_18 
REMARK   11  A    between atoms: C11_20  and  N3_21 
REMARK   12  A    between atoms: C17_34  and  O4_35 
REMARK   13  A    between atoms: C18_37  and  O5_38 
ROOT
HETATM    1  C10 UNL     1      -3.730  27.417  16.438  1.00  0.00     0.161 C 
HETATM    2  O3  UNL     1      -2.610  27.912  17.157  1.00  0.00    -0.355 OA
HETATM    3  C11 UNL     1      -2.751  29.261  17.130  1.00  0.00     0.262 C 
HETATM    4  C17 UNL     1      -3.013  29.492  15.633  1.00  0.00     0.198 C 
HETATM    5  C18 UNL     1      -4.184  28.485  15.503  1.00  0.00     0.180 C 
ENDROOT
BRANCH   1   6
HETATM    6  C9  UNL     1      -3.290  26.202  15.638  1.00  0.00     0.091 C 
BRANCH   6   7
HETATM    7  C4  UNL     1      -3.157  25.003  16.493  1.00  0.00     0.003 C 
BRANCH   7   8
HETATM    8  N1  UNL     1      -2.338  23.932  15.884  1.00  0.00    -0.393 N 
ATOM      9  H1  UNL     1      -1.682  23.340  16.394  1.00  0.00     0.159 HD
BRANCH   8  10
HETATM   10  C3  UNL     1      -2.594  23.844  14.486  1.00  0.00     0.119 C 
BRANCH  10  11
HETATM   11  C2  UNL     1      -1.519  23.124  13.718  1.00  0.00     0.015 C 
HETATM   12  C1  UNL     1      -0.693  22.212  14.551  1.00  0.00     0.006 C 
ENDBRANCH  10  11
ENDBRANCH   8  10
ENDBRANCH   7   8
BRANCH   7  13
HETATM   13  C5  UNL     1      -3.033  25.106  17.949  1.00  0.00     0.001 C 
BRANCH  13  14
HETATM   14  C6  UNL     1      -4.129  24.817  18.875  1.00  0.00     0.073 C 
BRANCH  14  15
HETATM   15  C7  UNL     1      -4.791  25.958  19.551  1.00  0.00     0.286 C 
BRANCH  15  16
HETATM   16  N2  UNL     1      -3.831  26.863  20.120  1.00  0.00    -0.065 N 
ATOM     17  H23 UNL     1      -2.899  26.450  20.146  1.00  0.00     0.275 HD
ATOM     18  H22 UNL     1      -3.640  27.645  19.493  1.00  0.00     0.275 HD
ATOM     19  H21 UNL     1      -4.122  27.188  21.042  1.00  0.00     0.275 HD
ENDBRANCH  15  16
BRANCH  15  20
HETATM   20  C8  UNL     1      -5.773  25.501  20.588  1.00  0.00     0.204 C 
HETATM   21  O1  UNL     1      -5.865  26.142  21.655  1.00  0.00    -0.646 OA
HETATM   22  O2  UNL     1      -6.570  24.396  20.391  1.00  0.00    -0.646 OA
ENDBRANCH  15  20
ENDBRANCH  14  15
ENDBRANCH  13  14
ENDBRANCH   7  13
ENDBRANCH   6   7
ENDBRANCH   1   6
BRANCH   5  23
HETATM   23  O5  UNL     1      -5.286  29.195  15.996  1.00  0.00    -0.390 OA
ATOM     24  H5  UNL     1      -5.035  30.009  16.416  1.00  0.00     0.210 HD
ENDBRANCH   5  23
BRANCH   3  25
HETATM   25  N3  UNL     1      -1.572  29.989  17.508  1.00  0.00    -0.297 N 
HETATM   26  C12 UNL     1      -0.319  29.513  17.527  1.00  0.00     0.188 A 
HETATM   27  N4  UNL     1       0.525  30.474  17.937  1.00  0.00    -0.346 N 
HETATM   28  C13 UNL     1      -0.162  31.581  18.189  1.00  0.00     0.119 A 
ATOM     29  H4  UNL     1       1.535  30.370  18.038  1.00  0.00     0.167 HD
HETATM   30  C14 UNL     1       0.221  32.843  18.631  1.00  0.00     0.148 A 
HETATM   31  C16 UNL     1      -1.492  31.280  17.919  1.00  0.00     0.142 A 
HETATM   32  N5  UNL     1       1.577  33.123  18.900  1.00  0.00    -0.080 NA
HETATM   33  N6  UNL     1      -0.738  33.764  18.788  1.00  0.00    -0.339 N 
HETATM   34  C15 UNL     1      -2.037  33.457  18.519  1.00  0.00     0.183 A 
ATOM     35  H6  UNL     1      -0.494  34.702  19.109  1.00  0.00     0.167 HD
HETATM   36  N7  UNL     1      -2.418  32.241  18.091  1.00  0.00    -0.336 N 
ATOM     37  H7  UNL     1      -3.401  32.048  17.900  1.00  0.00     0.168 HD
ENDBRANCH   3  25
BRANCH   4  38
HETATM   38  O4  UNL     1      -3.400  30.776  15.353  1.00  0.00    -0.388 OA
ATOM     39  H4  UNL     1      -4.088  30.819  14.700  1.00  0.00     0.210 HD
ENDBRANCH   4  38
TORSDOF 13
ENDMDL
