MODEL 5
REMARK VINA RESULT: -7.964379765      3.078      4.842
REMARK  13 active torsions:
REMARK  status: ('A' for Active; 'I' for Inactive)
REMARK    1  A    between atoms: C2_2  and  C3_3 
REMARK    2  A    between atoms: C3_3  and  N1_4 
REMARK    3  A    between atoms: N1_4  and  C4_6 
REMARK    4  A    between atoms: C4_6  and  C5_7 
REMARK    5  A    between atoms: C4_6  and  C9_17 
REMARK    6  A    between atoms: C5_7  and  C6_8 
REMARK    7  A    between atoms: C6_8  and  C7_9 
REMARK    8  A    between atoms: C7_9  and  N2_10 
REMARK    9  A    between atoms: C7_9  and  C8_14 
REMARK   10  A    between atoms: C9_17  and  C10_18 
REMARK   11  A    between atoms: C11_20  and  N3_21 
REMARK   12  A    between atoms: C17_34  and  O4_35 
REMARK   13  A    between atoms: C18_37  and  O5_38 
ROOT
HETATM    1  C10 UNL     1      -2.833  30.415  17.640  1.00  0.00     0.161 C 
HETATM    2  O3  UNL     1      -3.864  31.379  17.797  1.00  0.00    -0.355 OA
HETATM    3  C11 UNL     1      -3.214  32.545  18.034  1.00  0.00     0.262 C 
HETATM    4  C17 UNL     1      -2.236  32.109  19.137  1.00  0.00     0.198 C 
HETATM    5  C18 UNL     1      -1.630  30.907  18.368  1.00  0.00     0.180 C 
ENDROOT
BRANCH   1   6
HETATM    6  C9  UNL     1      -3.297  29.108  18.261  1.00  0.00     0.091 C 
BRANCH   6   7
HETATM    7  C4  UNL     1      -3.150  27.974  17.323  1.00  0.00     0.003 C 
BRANCH   7   8
HETATM    8  N1  UNL     1      -1.796  27.379  17.324  1.00  0.00    -0.393 N 
ATOM      9  H1  UNL     1      -1.303  27.057  18.157  1.00  0.00     0.159 HD
BRANCH   8  10
HETATM   10  C3  UNL     1      -1.278  27.318  15.999  1.00  0.00     0.119 C 
BRANCH  10  11
HETATM   11  C2  UNL     1      -0.536  28.559  15.581  1.00  0.00     0.015 C 
HETATM   12  C1  UNL     1      -1.251  29.371  14.562  1.00  0.00     0.006 C 
ENDBRANCH  10  11
ENDBRANCH   8  10
ENDBRANCH   7   8
BRANCH   7  13
HETATM   13  C5  UNL     1      -4.234  27.013  17.102  1.00  0.00     0.001 C 
BRANCH  13  14
HETATM   14  C6  UNL     1      -4.479  25.860  17.969  1.00  0.00     0.073 C 
BRANCH  14  15
HETATM   15  C7  UNL     1      -4.176  25.998  19.415  1.00  0.00     0.286 C 
BRANCH  15  16
HETATM   16  N2  UNL     1      -3.013  25.240  19.784  1.00  0.00    -0.065 N 
ATOM     17  H23 UNL     1      -2.193  25.531  19.251  1.00  0.00     0.275 HD
ATOM     18  H22 UNL     1      -2.688  25.487  20.719  1.00  0.00     0.275 HD
ATOM     19  H21 UNL     1      -3.176  24.237  19.700  1.00  0.00     0.275 HD
ENDBRANCH  15  16
BRANCH  15  20
HETATM   20  C8  UNL     1      -5.350  25.625  20.270  1.00  0.00     0.204 C 
HETATM   21  O1  UNL     1      -6.069  24.667  19.922  1.00  0.00    -0.646 OA
HETATM   22  O2  UNL     1      -5.649  26.312  21.425  1.00  0.00    -0.646 OA
ENDBRANCH  15  20
ENDBRANCH  14  15
ENDBRANCH  13  14
ENDBRANCH   7  13
ENDBRANCH   6   7
ENDBRANCH   1   6
BRANCH   5  23
HETATM   23  O5  UNL     1      -0.693  31.502  17.514  1.00  0.00    -0.390 OA
ATOM     24  H5  UNL     1       0.106  30.992  17.440  1.00  0.00     0.210 HD
ENDBRANCH   5  23
BRANCH   3  25
HETATM   25  N3  UNL     1      -4.048  33.596  18.547  1.00  0.00    -0.297 N 
HETATM   26  C12 UNL     1      -4.102  34.857  18.096  1.00  0.00     0.188 A 
HETATM   27  N4  UNL     1      -4.990  35.560  18.818  1.00  0.00    -0.346 N 
HETATM   28  C13 UNL     1      -5.522  34.771  19.743  1.00  0.00     0.119 A 
ATOM     29  H4  UNL     1      -5.219  36.544  18.678  1.00  0.00     0.167 HD
HETATM   30  C14 UNL     1      -6.475  34.995  20.733  1.00  0.00     0.148 A 
HETATM   31  C16 UNL     1      -4.929  33.525  19.577  1.00  0.00     0.142 A 
HETATM   32  N5  UNL     1      -7.060  36.269  20.883  1.00  0.00    -0.080 NA
HETATM   33  N6  UNL     1      -6.804  33.966  21.523  1.00  0.00    -0.339 N 
HETATM   34  C15 UNL     1      -6.215  32.750  21.349  1.00  0.00     0.183 A 
ATOM     35  H6  UNL     1      -7.499  34.093  22.259  1.00  0.00     0.167 HD
HETATM   36  N7  UNL     1      -5.295  32.522  20.397  1.00  0.00    -0.336 N 
ATOM     37  H7  UNL     1      -4.877  31.597  20.296  1.00  0.00     0.168 HD
ENDBRANCH   3  25
BRANCH   4  38
HETATM   38  O4  UNL     1      -1.300  33.066  19.425  1.00  0.00    -0.388 OA
ATOM     39  H4  UNL     1      -1.458  33.498  20.256  1.00  0.00     0.210 HD
ENDBRANCH   4  38
TORSDOF 13
ENDMDL
