MODEL 4
REMARK VINA RESULT: -8.031588211      3.136      4.856
REMARK  13 active torsions:
REMARK  status: ('A' for Active; 'I' for Inactive)
REMARK    1  A    between atoms: C2_2  and  C3_3 
REMARK    2  A    between atoms: C3_3  and  N1_4 
REMARK    3  A    between atoms: N1_4  and  C4_6 
REMARK    4  A    between atoms: C4_6  and  C5_7 
REMARK    5  A    between atoms: C4_6  and  C9_17 
REMARK    6  A    between atoms: C5_7  and  C6_8 
REMARK    7  A    between atoms: C6_8  and  C7_9 
REMARK    8  A    between atoms: C7_9  and  N2_10 
REMARK    9  A    between atoms: C7_9  and  C8_14 
REMARK   10  A    between atoms: C9_17  and  C10_18 
REMARK   11  A    between atoms: C11_20  and  N3_21 
REMARK   12  A    between atoms: C17_34  and  O4_35 
REMARK   13  A    between atoms: C18_37  and  O5_38 
ROOT
HETATM    1  C10 UNL     1      -3.046  30.359  17.706  1.00  0.00     0.161 C 
HETATM    2  O3  UNL     1      -4.186  31.182  17.907  1.00  0.00    -0.355 OA
HETATM    3  C11 UNL     1      -3.682  32.411  18.182  1.00  0.00     0.262 C 
HETATM    4  C17 UNL     1      -2.643  32.059  19.259  1.00  0.00     0.198 C 
HETATM    5  C18 UNL     1      -1.904  30.970  18.441  1.00  0.00     0.180 C 
ENDROOT
BRANCH   1   6
HETATM    6  C9  UNL     1      -3.337  28.983  18.282  1.00  0.00     0.091 C 
BRANCH   6   7
HETATM    7  C4  UNL     1      -3.118  27.914  17.283  1.00  0.00     0.003 C 
BRANCH   7   8
HETATM    8  N1  UNL     1      -1.736  27.388  17.278  1.00  0.00    -0.393 N 
ATOM      9  H1  UNL     1      -1.242  27.039  18.100  1.00  0.00     0.159 HD
BRANCH   8  10
HETATM   10  C3  UNL     1      -1.191  27.435  15.963  1.00  0.00     0.119 C 
BRANCH  10  11
HETATM   11  C2  UNL     1      -0.668  28.791  15.572  1.00  0.00     0.015 C 
HETATM   12  C1  UNL     1      -1.467  29.459  14.511  1.00  0.00     0.006 C 
ENDBRANCH  10  11
ENDBRANCH   8  10
ENDBRANCH   7   8
BRANCH   7  13
HETATM   13  C5  UNL     1      -4.148  26.916  16.986  1.00  0.00     0.001 C 
BRANCH  13  14
HETATM   14  C6  UNL     1      -4.511  25.835  17.903  1.00  0.00     0.073 C 
BRANCH  14  15
HETATM   15  C7  UNL     1      -4.156  25.984  19.335  1.00  0.00     0.286 C 
BRANCH  15  16
HETATM   16  N2  UNL     1      -3.002  25.200  19.677  1.00  0.00    -0.065 N 
ATOM     17  H23 UNL     1      -2.219  25.791  19.955  1.00  0.00     0.275 HD
ATOM     18  H22 UNL     1      -3.140  24.696  20.553  1.00  0.00     0.275 HD
ATOM     19  H21 UNL     1      -2.742  24.566  18.920  1.00  0.00     0.275 HD
ENDBRANCH  15  16
BRANCH  15  20
HETATM   20  C8  UNL     1      -5.310  25.658  20.235  1.00  0.00     0.204 C 
HETATM   21  O1  UNL     1      -6.061  24.709  19.931  1.00  0.00    -0.646 OA
HETATM   22  O2  UNL     1      -5.557  26.377  21.382  1.00  0.00    -0.646 OA
ENDBRANCH  15  20
ENDBRANCH  14  15
ENDBRANCH  13  14
ENDBRANCH   7  13
ENDBRANCH   6   7
ENDBRANCH   1   6
BRANCH   5  23
HETATM   23  O5  UNL     1      -1.058  31.706  17.602  1.00  0.00    -0.390 OA
ATOM     24  H5  UNL     1      -1.347  31.696  16.696  1.00  0.00     0.210 HD
ENDBRANCH   5  23
BRANCH   3  25
HETATM   25  N3  UNL     1      -4.632  33.331  18.741  1.00  0.00    -0.297 N 
HETATM   26  C12 UNL     1      -5.617  33.029  19.600  1.00  0.00     0.188 A 
HETATM   27  N4  UNL     1      -6.309  34.139  19.904  1.00  0.00    -0.346 N 
HETATM   28  C13 UNL     1      -5.787  35.171  19.254  1.00  0.00     0.119 A 
ATOM     29  H4  UNL     1      -7.108  34.182  20.536  1.00  0.00     0.167 HD
HETATM   30  C14 UNL     1      -6.119  36.522  19.217  1.00  0.00     0.148 A 
HETATM   31  C16 UNL     1      -4.723  34.666  18.515  1.00  0.00     0.142 A 
HETATM   32  N5  UNL     1      -7.204  37.010  19.974  1.00  0.00    -0.080 NA
HETATM   33  N6  UNL     1      -5.376  37.324  18.443  1.00  0.00    -0.339 N 
HETATM   34  C15 UNL     1      -4.337  36.815  17.725  1.00  0.00     0.183 A 
ATOM     35  H6  UNL     1      -5.590  38.320  18.392  1.00  0.00     0.167 HD
HETATM   36  N7  UNL     1      -4.007  35.513  17.754  1.00  0.00    -0.336 N 
ATOM     37  H7  UNL     1      -3.221  35.169  17.202  1.00  0.00     0.168 HD
ENDBRANCH   3  25
BRANCH   4  38
HETATM   38  O4  UNL     1      -1.828  33.113  19.575  1.00  0.00    -0.388 OA
ATOM     39  H4  UNL     1      -1.031  33.130  19.058  1.00  0.00     0.210 HD
ENDBRANCH   4  38
TORSDOF 13
ENDMDL
