MODEL 3
REMARK VINA RESULT: -4.846099934      2.228      4.543
REMARK  16 active torsions:
REMARK  status: ('A' for Active; 'I' for Inactive)
REMARK    1  A    between atoms: C2_2  and  C3_3 
REMARK    2  A    between atoms: C3_3  and  C4_4 
REMARK    3  A    between atoms: C4_4  and  C5_5 
REMARK    4  A    between atoms: C5_5  and  C6_6 
REMARK    5  A    between atoms: C6_6  and  C7_7 
REMARK    6  A    between atoms: C7_7  and  C8_8 
REMARK    7  A    between atoms: C8_8  and  C9_9 
REMARK    8  A    between atoms: C9_9  and  C10_10 
REMARK    9  A    between atoms: C10_10  and  C11_11 
REMARK   10  A    between atoms: C11_11  and  C12_12 
REMARK   11  A    between atoms: C12_12  and  C13_13 
REMARK   12  A    between atoms: C13_13  and  C14_14 
REMARK   13  A    between atoms: C14_14  and  C15_15 
REMARK   14  A    between atoms: C15_15  and  C16_16 
REMARK   15  A    between atoms: C16_16  and  C17_17 
REMARK   16  A    between atoms: C17_17  and  C18_18 
ROOT
HETATM    1  C10 UNL     1     -34.546 -22.925 -39.410  1.00  0.00     0.000 C 
ENDROOT
BRANCH   1   2
HETATM    2  C9  UNL     1     -33.926 -24.242 -39.831  1.00  0.00     0.000 C 
BRANCH   2   3
HETATM    3  C8  UNL     1     -33.262 -24.932 -38.678  1.00  0.00     0.000 C 
BRANCH   3   4
HETATM    4  C7  UNL     1     -33.658 -26.380 -38.551  1.00  0.00     0.000 C 
BRANCH   4   5
HETATM    5  C6  UNL     1     -34.489 -26.679 -37.348  1.00  0.00     0.000 C 
BRANCH   5   6
HETATM    6  C5  UNL     1     -35.919 -26.866 -37.803  1.00  0.00     0.000 C 
BRANCH   6   7
HETATM    7  C4  UNL     1     -35.993 -27.415 -39.201  1.00  0.00     0.000 C 
BRANCH   7   8
HETATM    8  C3  UNL     1     -36.956 -26.686 -40.079  1.00  0.00    -0.000 C 
BRANCH   8   9
HETATM    9  C2  UNL     1     -36.404 -26.382 -41.446  1.00  0.00    -0.005 C 
HETATM   10  C1  UNL     1     -37.069 -25.173 -42.068  1.00  0.00     0.005 C 
ENDBRANCH   8   9
ENDBRANCH   7   8
ENDBRANCH   6   7
ENDBRANCH   5   6
ENDBRANCH   4   5
ENDBRANCH   3   4
ENDBRANCH   2   3
ENDBRANCH   1   2
BRANCH   1  11
HETATM   11  C11 UNL     1     -36.002 -23.141 -39.192  1.00  0.00     0.000 C 
BRANCH  11  12
HETATM   12  C12 UNL     1     -36.394 -23.593 -37.833  1.00  0.00     0.000 C 
BRANCH  12  13
HETATM   13  C13 UNL     1     -36.064 -22.619 -36.729  1.00  0.00     0.000 C 
BRANCH  13  14
HETATM   14  C14 UNL     1     -34.960 -23.271 -35.932  1.00  0.00     0.000 C 
BRANCH  14  15
HETATM   15  C15 UNL     1     -34.020 -22.344 -35.258  1.00  0.00     0.001 C 
BRANCH  15  16
HETATM   16  C16 UNL     1     -33.305 -21.491 -36.248  1.00  0.00     0.010 C 
BRANCH  16  17
HETATM   17  C17 UNL     1     -32.425 -20.443 -35.591  1.00  0.00     0.113 C 
BRANCH  17  18
HETATM   18  C18 UNL     1     -32.657 -19.089 -36.099  1.00  0.00     0.172 C 
HETATM   19  O1  UNL     1     -31.906 -18.613 -36.993  1.00  0.00    -0.648 OA
HETATM   20  O2  UNL     1     -33.704 -18.301 -35.615  1.00  0.00    -0.648 OA
ENDBRANCH  17  18
ENDBRANCH  16  17
ENDBRANCH  15  16
ENDBRANCH  14  15
ENDBRANCH  13  14
ENDBRANCH  12  13
ENDBRANCH  11  12
ENDBRANCH   1  11
TORSDOF 16
ENDMDL
