MODEL 2
REMARK VINA RESULT: -6.354285213      1.603      3.240
REMARK  4 active torsions:
REMARK  status: ('A' for Active; 'I' for Inactive)
REMARK    1  A    between atoms: C1_2  and  C2_4 
REMARK    2  A    between atoms: C2_4  and  O3_5 
REMARK    3  A    between atoms: C2_4  and  C3_7 
REMARK    4  A    between atoms: C2_4  and  C4_11 
ROOT
HETATM    1  C2  UNL     1     -23.771 -22.571 -22.705  1.00  0.00     0.342 C 
ENDROOT
BRANCH   1   2
HETATM    2  C1  UNL     1     -22.372 -22.129 -22.479  1.00  0.00     0.228 C 
HETATM    3  O1  UNL     1     -22.148 -21.021 -21.914  1.00  0.00    -0.645 OA
HETATM    4  O2  UNL     1     -21.275 -22.871 -22.858  1.00  0.00    -0.645 OA
ENDBRANCH   1   2
BRANCH   1   5
HETATM    5  O3  UNL     1     -24.678 -21.778 -22.004  1.00  0.00    -0.365 OA
ATOM      6  H3  UNL     1     -25.571 -22.079 -22.125  1.00  0.00     0.211 HD
ENDBRANCH   1   5
BRANCH   1   7
HETATM    7  C3  UNL     1     -24.102 -22.474 -24.171  1.00  0.00     0.437 C 
HETATM    8  F1  UNL     1     -24.032 -21.161 -24.593  1.00  0.00    -0.167 F 
HETATM    9  F2  UNL     1     -25.398 -22.908 -24.362  1.00  0.00    -0.167 F 
HETATM   10  F3  UNL     1     -23.281 -23.216 -24.961  1.00  0.00    -0.167 F 
ENDBRANCH   1   7
BRANCH   1  11
HETATM   11  C4  UNL     1     -23.944 -24.033 -22.270  1.00  0.00     0.437 C 
HETATM   12  F4  UNL     1     -25.260 -24.263 -21.915  1.00  0.00    -0.167 F 
HETATM   13  F5  UNL     1     -23.207 -24.149 -21.087  1.00  0.00    -0.167 F 
HETATM   14  F6  UNL     1     -23.482 -24.887 -23.224  1.00  0.00    -0.167 F 
ENDBRANCH   1  11
TORSDOF 4
ENDMDL
