MODEL 6
REMARK VINA RESULT: -6.256116515      1.549      2.167
REMARK  4 active torsions:
REMARK  status: ('A' for Active; 'I' for Inactive)
REMARK    1  A    between atoms: C1_2  and  C2_4 
REMARK    2  A    between atoms: C2_4  and  O3_5 
REMARK    3  A    between atoms: C2_4  and  C3_7 
REMARK    4  A    between atoms: C2_4  and  C4_11 
ROOT
HETATM    1  C2  UNL     1     -22.491 -22.082 -23.708  1.00  0.00     0.342 C 
ENDROOT
BRANCH   1   2
HETATM    2  C1  UNL     1     -21.895 -21.888 -22.363  1.00  0.00     0.228 C 
HETATM    3  O1  UNL     1     -21.007 -21.005 -22.192  1.00  0.00    -0.645 OA
HETATM    4  O2  UNL     1     -22.259 -22.630 -21.261  1.00  0.00    -0.645 OA
ENDBRANCH   1   2
BRANCH   1   5
HETATM    5  O3  UNL     1     -21.594 -21.743 -24.720  1.00  0.00    -0.365 OA
ATOM      6  H3  UNL     1     -21.484 -20.802 -24.789  1.00  0.00     0.211 HD
ENDBRANCH   1   5
BRANCH   1   7
HETATM    7  C3  UNL     1     -22.873 -23.528 -23.889  1.00  0.00     0.437 C 
HETATM    8  F1  UNL     1     -21.946 -24.350 -23.279  1.00  0.00    -0.167 F 
HETATM    9  F2  UNL     1     -22.872 -23.821 -25.237  1.00  0.00    -0.167 F 
HETATM   10  F3  UNL     1     -24.100 -23.829 -23.385  1.00  0.00    -0.167 F 
ENDBRANCH   1   7
BRANCH   1  11
HETATM   11  C4  UNL     1     -23.759 -21.230 -23.858  1.00  0.00     0.437 C 
HETATM   12  F4  UNL     1     -24.505 -21.684 -24.929  1.00  0.00    -0.167 F 
HETATM   13  F5  UNL     1     -23.300 -19.961 -24.228  1.00  0.00    -0.167 F 
HETATM   14  F6  UNL     1     -24.458 -21.180 -22.691  1.00  0.00    -0.167 F 
ENDBRANCH   1  11
TORSDOF 4
ENDMDL
