MODEL 5
REMARK VINA RESULT: -6.256687600      1.271      1.532
REMARK  4 active torsions:
REMARK  status: ('A' for Active; 'I' for Inactive)
REMARK    1  A    between atoms: C1_2  and  C2_4 
REMARK    2  A    between atoms: C2_4  and  O3_5 
REMARK    3  A    between atoms: C2_4  and  C3_7 
REMARK    4  A    between atoms: C2_4  and  C4_11 
ROOT
HETATM    1  C2  UNL     1     -23.155 -22.891 -23.338  1.00  0.00     0.342 C 
ENDROOT
BRANCH   1   2
HETATM    2  C1  UNL     1     -22.109 -22.095 -22.648  1.00  0.00     0.228 C 
HETATM    3  O1  UNL     1     -20.890 -22.388 -22.808  1.00  0.00    -0.645 OA
HETATM    4  O2  UNL     1     -22.393 -21.029 -21.823  1.00  0.00    -0.645 OA
ENDBRANCH   1   2
BRANCH   1   5
HETATM    5  O3  UNL     1     -22.676 -23.449 -24.522  1.00  0.00    -0.365 OA
ATOM      6  H3  UNL     1     -21.835 -23.082 -24.767  1.00  0.00     0.211 HD
ENDBRANCH   1   5
BRANCH   1   7
HETATM    7  C3  UNL     1     -23.609 -24.014 -22.443  1.00  0.00     0.437 C 
HETATM    8  F1  UNL     1     -23.069 -23.870 -21.180  1.00  0.00    -0.167 F 
HETATM    9  F2  UNL     1     -23.150 -25.208 -22.961  1.00  0.00    -0.167 F 
HETATM   10  F3  UNL     1     -24.961 -24.093 -22.317  1.00  0.00    -0.167 F 
ENDBRANCH   1   7
BRANCH   1  11
HETATM   11  C4  UNL     1     -24.372 -22.011 -23.656  1.00  0.00     0.437 C 
HETATM   12  F4  UNL     1     -25.222 -22.681 -24.516  1.00  0.00    -0.167 F 
HETATM   13  F5  UNL     1     -23.859 -20.937 -24.391  1.00  0.00    -0.167 F 
HETATM   14  F6  UNL     1     -24.979 -21.582 -22.516  1.00  0.00    -0.167 F 
ENDBRANCH   1  11
TORSDOF 4
ENDMDL
