MODEL 1
REMARK VINA RESULT: -6.365333236      0.000      0.000
REMARK  4 active torsions:
REMARK  status: ('A' for Active; 'I' for Inactive)
REMARK    1  A    between atoms: C1_2  and  C2_4 
REMARK    2  A    between atoms: C2_4  and  O3_5 
REMARK    3  A    between atoms: C2_4  and  C3_7 
REMARK    4  A    between atoms: C2_4  and  C4_11 
ROOT
HETATM    1  C2  UNL     1     -22.490 -22.594 -23.084  1.00  0.00     0.342 C 
ENDROOT
BRANCH   1   2
HETATM    2  C1  UNL     1     -21.279 -21.998 -22.467  1.00  0.00     0.228 C 
HETATM    3  O1  UNL     1     -20.344 -22.749 -22.069  1.00  0.00    -0.645 OA
HETATM    4  O2  UNL     1     -21.107 -20.642 -22.297  1.00  0.00    -0.645 OA
ENDBRANCH   1   2
BRANCH   1   5
HETATM    5  O3  UNL     1     -22.216 -23.835 -23.658  1.00  0.00    -0.365 OA
ATOM      6  H3  UNL     1     -22.886 -24.087 -24.282  1.00  0.00     0.211 HD
ENDBRANCH   1   5
BRANCH   1   7
HETATM    7  C3  UNL     1     -23.549 -22.791 -22.031  1.00  0.00     0.437 C 
HETATM    8  F1  UNL     1     -23.615 -21.688 -21.203  1.00  0.00    -0.167 F 
HETATM    9  F2  UNL     1     -23.206 -23.879 -21.255  1.00  0.00    -0.167 F 
HETATM   10  F3  UNL     1     -24.790 -23.006 -22.546  1.00  0.00    -0.167 F 
ENDBRANCH   1   7
BRANCH   1  11
HETATM   11  C4  UNL     1     -23.055 -21.658 -24.162  1.00  0.00     0.437 C 
HETATM   12  F4  UNL     1     -23.937 -22.352 -24.969  1.00  0.00    -0.167 F 
HETATM   13  F5  UNL     1     -21.962 -21.345 -24.977  1.00  0.00    -0.167 F 
HETATM   14  F6  UNL     1     -23.593 -20.538 -23.607  1.00  0.00    -0.167 F 
ENDBRANCH   1  11
TORSDOF 4
ENDMDL
