MODEL 7
REMARK VINA RESULT: -6.256017990      1.587      3.263
REMARK  4 active torsions:
REMARK  status: ('A' for Active; 'I' for Inactive)
REMARK    1  A    between atoms: C1_2  and  C2_4 
REMARK    2  A    between atoms: C2_4  and  O3_5 
REMARK    3  A    between atoms: C2_4  and  C3_7 
REMARK    4  A    between atoms: C2_4  and  C4_11 
ROOT
HETATM    1  C2  UNL     1     -23.729 -22.571 -22.651  1.00  0.00     0.342 C 
ENDROOT
BRANCH   1   2
HETATM    2  C1  UNL     1     -22.329 -22.113 -22.463  1.00  0.00     0.228 C 
HETATM    3  O1  UNL     1     -22.104 -20.976 -21.960  1.00  0.00    -0.645 OA
HETATM    4  O2  UNL     1     -21.233 -22.871 -22.813  1.00  0.00    -0.645 OA
ENDBRANCH   1   2
BRANCH   1   5
HETATM    5  O3  UNL     1     -24.627 -21.782 -21.934  1.00  0.00    -0.365 OA
ATOM      6  H3  UNL     1     -24.452 -20.856 -22.055  1.00  0.00     0.211 HD
ENDBRANCH   1   5
BRANCH   1   7
HETATM    7  C3  UNL     1     -24.097 -22.489 -24.110  1.00  0.00     0.437 C 
HETATM    8  F1  UNL     1     -23.232 -23.254 -24.867  1.00  0.00    -0.167 F 
HETATM    9  F2  UNL     1     -23.972 -21.179 -24.525  1.00  0.00    -0.167 F 
HETATM   10  F3  UNL     1     -25.366 -22.902 -24.371  1.00  0.00    -0.167 F 
ENDBRANCH   1   7
BRANCH   1  11
HETATM   11  C4  UNL     1     -23.877 -24.032 -22.202  1.00  0.00     0.437 C 
HETATM   12  F4  UNL     1     -23.539 -24.878 -23.242  1.00  0.00    -0.167 F 
HETATM   13  F5  UNL     1     -25.250 -24.210 -22.000  1.00  0.00    -0.167 F 
HETATM   14  F6  UNL     1     -23.176 -24.267 -21.059  1.00  0.00    -0.167 F 
ENDBRANCH   1  11
TORSDOF 4
ENDMDL
