MODEL 1
REMARK VINA RESULT: -8.437125851      0.000      0.000
REMARK  3 active torsions:
REMARK  status: ('A' for Active; 'I' for Inactive)
REMARK    1  A    between atoms: O1_2  and  C2_3 
REMARK    2  A    between atoms: C6_7  and  C7_8 
REMARK    3  A    between atoms: C11_12  and  C12_13 
ROOT
HETATM    1  C7  UNL     1      22.077  11.477  21.164  1.00  0.00    -0.025 A 
HETATM    2  C8  UNL     1      21.557  10.155  21.317  1.00  0.00     0.012 A 
HETATM    3  C9  UNL     1      20.701   9.897  22.333  1.00  0.00     0.002 A 
HETATM    4  C10 UNL     1      20.340  10.894  23.208  1.00  0.00     0.010 A 
HETATM    5  C11 UNL     1      20.829  12.208  23.102  1.00  0.00    -0.029 A 
HETATM    6  C18 UNL     1      21.695  12.441  22.053  1.00  0.00     0.022 A 
ENDROOT
BRANCH   5   7
HETATM    7  C12 UNL     1      20.380  13.108  24.139  1.00  0.00     0.064 C 
HETATM    8  C13 UNL     1      18.859  12.783  24.319  1.00  0.00     0.044 C 
HETATM    9  C14 UNL     1      20.437  14.593  23.768  1.00  0.00     0.139 C 
HETATM   10  C15 UNL     1      19.454  15.234  24.709  1.00  0.00     0.228 C 
HETATM   11  O2  UNL     1      18.549  16.003  24.328  1.00  0.00    -0.273 OA
HETATM   12  N1  UNL     1      19.623  14.900  26.104  1.00  0.00    -0.296 N 
HETATM   13  C16 UNL     1      19.000  15.831  27.024  1.00  0.00     0.162 C 
HETATM   14  C17 UNL     1      20.298  13.858  26.456  1.00  0.00     0.193 C 
HETATM   15  N2  UNL     1      20.426  13.580  27.840  1.00  0.00    -0.063 NA
HETATM   16  N3  UNL     1      20.917  13.012  25.447  1.00  0.00    -0.351 N 
ATOM     17  H3  UNL     1      21.691  12.387  25.667  1.00  0.00     0.163 HD
ENDBRANCH   5   7
BRANCH   1  18
HETATM   18  C6  UNL     1      23.033  11.626  20.075  1.00  0.00    -0.023 A 
HETATM   19  C5  UNL     1      23.576  10.439  19.537  1.00  0.00     0.012 A 
HETATM   20  C4  UNL     1      24.375  10.391  18.441  1.00  0.00     0.004 A 
HETATM   21  C3  UNL     1      24.690  11.581  17.784  1.00  0.00     0.037 A 
HETATM   22  C2  UNL     1      24.176  12.762  18.279  1.00  0.00     0.069 A 
HETATM   23  C19 UNL     1      23.359  12.761  19.419  1.00  0.00     0.049 A 
BRANCH  22  24
HETATM   24  O1  UNL     1      24.482  13.946  17.616  1.00  0.00    -0.356 OA
HETATM   25  C1  UNL     1      25.546  14.786  17.896  1.00  0.00     0.210 C 
ENDBRANCH  22  24
ENDBRANCH   1  18
TORSDOF 3
ENDMDL
