MODEL 3
REMARK VINA RESULT: -8.209992654      1.256      1.799
REMARK  3 active torsions:
REMARK  status: ('A' for Active; 'I' for Inactive)
REMARK    1  A    between atoms: O1_2  and  C2_3 
REMARK    2  A    between atoms: C6_7  and  C7_8 
REMARK    3  A    between atoms: C11_12  and  C12_13 
ROOT
HETATM    1  C7  UNL     1      22.092  11.622  21.202  1.00  0.00    -0.025 A 
HETATM    2  C8  UNL     1      21.571  10.311  21.422  1.00  0.00     0.012 A 
HETATM    3  C9  UNL     1      20.721  10.104  22.455  1.00  0.00     0.002 A 
HETATM    4  C10 UNL     1      20.366  11.144  23.282  1.00  0.00     0.010 A 
HETATM    5  C11 UNL     1      20.856  12.451  23.109  1.00  0.00    -0.029 A 
HETATM    6  C18 UNL     1      21.717  12.630  22.045  1.00  0.00     0.022 A 
ENDROOT
BRANCH   5   7
HETATM    7  C12 UNL     1      20.415  13.401  24.103  1.00  0.00     0.064 C 
HETATM    8  C13 UNL     1      21.564  14.462  24.176  1.00  0.00     0.044 C 
HETATM    9  C14 UNL     1      20.292  12.836  25.521  1.00  0.00     0.139 C 
HETATM   10  C15 UNL     1      20.378  14.055  26.399  1.00  0.00     0.228 C 
HETATM   11  O2  UNL     1      21.156  14.141  27.370  1.00  0.00    -0.273 OA
HETATM   12  N1  UNL     1      19.489  15.137  26.046  1.00  0.00    -0.296 N 
HETATM   13  C16 UNL     1      19.248  16.088  27.113  1.00  0.00     0.162 C 
HETATM   14  C17 UNL     1      18.963  15.201  24.869  1.00  0.00     0.193 C 
HETATM   15  N2  UNL     1      18.102  16.290  24.580  1.00  0.00    -0.063 NA
HETATM   16  N3  UNL     1      19.243  14.168  23.885  1.00  0.00    -0.351 N 
ATOM     17  H3  UNL     1      18.633  14.004  23.085  1.00  0.00     0.163 HD
ENDBRANCH   5   7
BRANCH   1  18
HETATM   18  C6  UNL     1      23.042  11.716  20.101  1.00  0.00    -0.023 A 
HETATM   19  C5  UNL     1      23.543  10.501  19.587  1.00  0.00     0.012 A 
HETATM   20  C4  UNL     1      24.330  10.402  18.486  1.00  0.00     0.004 A 
HETATM   21  C3  UNL     1      24.676  11.567  17.798  1.00  0.00     0.037 A 
HETATM   22  C2  UNL     1      24.203  12.774  18.269  1.00  0.00     0.069 A 
HETATM   23  C19 UNL     1      23.397  12.825  19.416  1.00  0.00     0.049 A 
BRANCH  22  24
HETATM   24  O1  UNL     1      24.539  13.932  17.577  1.00  0.00    -0.356 OA
HETATM   25  C1  UNL     1      25.512  14.847  17.941  1.00  0.00     0.210 C 
ENDBRANCH  22  24
ENDBRANCH   1  18
TORSDOF 3
ENDMDL
