MODEL 2
REMARK VINA RESULT: -8.218393745      1.006      1.054
REMARK  3 active torsions:
REMARK  status: ('A' for Active; 'I' for Inactive)
REMARK    1  A    between atoms: O1_2  and  C2_3 
REMARK    2  A    between atoms: C6_7  and  C7_8 
REMARK    3  A    between atoms: C11_12  and  C12_13 
ROOT
HETATM    1  C7  UNL     1      21.991  11.431  21.253  1.00  0.00    -0.025 A 
HETATM    2  C8  UNL     1      21.421  10.121  21.278  1.00  0.00     0.012 A 
HETATM    3  C9  UNL     1      20.567   9.792  22.275  1.00  0.00     0.002 A 
HETATM    4  C10 UNL     1      20.254  10.707  23.252  1.00  0.00     0.010 A 
HETATM    5  C11 UNL     1      20.792  12.006  23.274  1.00  0.00    -0.029 A 
HETATM    6  C18 UNL     1      21.656  12.312  22.242  1.00  0.00     0.022 A 
ENDROOT
BRANCH   5   7
HETATM    7  C12 UNL     1      20.390  12.811  24.404  1.00  0.00     0.064 C 
HETATM    8  C13 UNL     1      19.321  13.799  23.828  1.00  0.00     0.044 C 
HETATM    9  C14 UNL     1      21.495  13.700  24.984  1.00  0.00     0.139 C 
HETATM   10  C15 UNL     1      20.740  14.779  25.710  1.00  0.00     0.228 C 
HETATM   11  O2  UNL     1      20.964  15.995  25.546  1.00  0.00    -0.273 OA
HETATM   12  N1  UNL     1      19.724  14.316  26.626  1.00  0.00    -0.296 N 
HETATM   13  C16 UNL     1      19.328  15.288  27.625  1.00  0.00     0.162 C 
HETATM   14  C17 UNL     1      19.250  13.118  26.535  1.00  0.00     0.193 C 
HETATM   15  N2  UNL     1      18.251  12.723  27.460  1.00  0.00    -0.063 NA
HETATM   16  N3  UNL     1      19.750  12.209  25.515  1.00  0.00    -0.351 N 
ATOM     17  H3  UNL     1      19.646  11.198  25.596  1.00  0.00     0.163 HD
ENDBRANCH   5   7
BRANCH   1  18
HETATM   18  C6  UNL     1      22.940  11.655  20.171  1.00  0.00    -0.023 A 
HETATM   19  C5  UNL     1      23.524  10.509  19.589  1.00  0.00     0.012 A 
HETATM   20  C4  UNL     1      24.324  10.531  18.492  1.00  0.00     0.004 A 
HETATM   21  C3  UNL     1      24.596  11.756  17.882  1.00  0.00     0.037 A 
HETATM   22  C2  UNL     1      24.042  12.899  18.421  1.00  0.00     0.069 A 
HETATM   23  C19 UNL     1      23.226  12.825  19.560  1.00  0.00     0.049 A 
BRANCH  22  24
HETATM   24  O1  UNL     1      24.306  14.117  17.805  1.00  0.00    -0.356 OA
HETATM   25  C1  UNL     1      25.256  15.042  18.201  1.00  0.00     0.210 C 
ENDBRANCH  22  24
ENDBRANCH   1  18
TORSDOF 3
ENDMDL
