MODEL 3
REMARK VINA RESULT: -8.001480704      4.275      8.095
REMARK  6 active torsions:
REMARK  status: ('A' for Active; 'I' for Inactive)
REMARK    1  A    between atoms: O1_2  and  C2_3 
REMARK    2  A    between atoms: C5_6  and  C6_7 
REMARK    3  A    between atoms: C9_13  and  C10_14 
REMARK       I    between atoms: C10_14  and  N2_16 
REMARK       I    between atoms: C11_18  and  N4_20 
REMARK    4  A    between atoms: N4_20  and  C12_22 
REMARK    5  A    between atoms: C12_22  and  C13_23 
REMARK    6  A    between atoms: C17_27  and  N5_28 
REMARK       I    between atoms: N5_28  and  C18_30 
ROOT
HETATM    1  C10 UNL     1       0.178  11.804  31.892  1.00  0.00     0.261 C 
HETATM    2  O2  UNL     1       1.071  11.900  32.751  1.00  0.00    -0.267 OA
HETATM    3  N2  UNL     1      -0.508  12.959  31.483  1.00  0.00    -0.297 N 
ATOM      4  H2  UNL     1      -1.528  12.960  31.434  1.00  0.00     0.171 HD
HETATM    5  C11 UNL     1       0.158  14.018  31.169  1.00  0.00     0.191 C 
HETATM    6  N3  UNL     1      -0.617  15.163  30.768  1.00  0.00    -0.063 NA
HETATM    7  N4  UNL     1       1.574  14.000  31.214  1.00  0.00    -0.360 N 
ATOM      8  H4  UNL     1       2.065  14.715  31.749  1.00  0.00     0.162 HD
ENDROOT
BRANCH   1   9
HETATM    9  C9  UNL     1      -0.174  10.477  31.302  1.00  0.00     0.074 A 
HETATM   10  C6  UNL     1      -1.283   9.749  31.623  1.00  0.00     0.065 A 
HETATM   11  N1  UNL     1      -1.431   8.559  31.055  1.00  0.00    -0.325 N 
HETATM   12  S1  UNL     1      -0.086   8.386  30.072  1.00  0.00    -0.018 SA
ATOM     13  H1  UNL     1      -2.194   7.895  31.187  1.00  0.00     0.174 HD
HETATM   14  C7  UNL     1       0.672   9.866  30.401  1.00  0.00     0.013 A 
HETATM   15  C8  UNL     1       1.959  10.290  29.794  1.00  0.00     0.059 C 
BRANCH  10  16
HETATM   16  C5  UNL     1      -2.350  10.177  32.567  1.00  0.00    -0.008 A 
HETATM   17  C4  UNL     1      -2.166  10.294  33.907  1.00  0.00     0.016 A 
HETATM   18  C3  UNL     1      -3.234  10.677  34.707  1.00  0.00     0.037 A 
HETATM   19  C2  UNL     1      -4.486  10.948  34.199  1.00  0.00     0.068 A 
HETATM   20  C23 UNL     1      -4.680  10.831  32.840  1.00  0.00     0.037 A 
HETATM   21  C22 UNL     1      -3.617  10.450  32.053  1.00  0.00     0.016 A 
BRANCH  19  22
HETATM   22  O1  UNL     1      -5.539  11.333  35.053  1.00  0.00    -0.356 OA
HETATM   23  C1  UNL     1      -5.723  12.708  35.303  1.00  0.00     0.210 C 
ENDBRANCH  19  22
ENDBRANCH  10  16
ENDBRANCH   1   9
BRANCH   7  24
HETATM   24  C12 UNL     1       2.322  13.009  30.530  1.00  0.00     0.161 C 
BRANCH  24  25
HETATM   25  C13 UNL     1       2.889  13.701  29.287  1.00  0.00    -0.038 A 
HETATM   26  C14 UNL     1       2.239  13.641  28.074  1.00  0.00     0.018 A 
HETATM   27  C15 UNL     1       2.737  14.254  26.939  1.00  0.00    -0.033 A 
HETATM   28  C16 UNL     1       1.963  14.136  25.667  1.00  0.00     0.050 C 
HETATM   29  C17 UNL     1       3.908  14.940  27.012  1.00  0.00     0.062 A 
HETATM   30  C20 UNL     1       4.593  15.023  28.215  1.00  0.00     0.061 A 
HETATM   31 CL1  UNL     1       6.085  15.915  28.247  1.00  0.00    -0.082 Cl
HETATM   32  C21 UNL     1       4.072  14.400  29.337  1.00  0.00     0.035 A 
BRANCH  29  33
HETATM   33  N5  UNL     1       4.406  15.566  25.826  1.00  0.00    -0.326 N 
HETATM   34  C18 UNL     1       4.077  16.914  25.501  1.00  0.00     0.218 C 
HETATM   35  C19 UNL     1       4.609  17.540  24.260  1.00  0.00     0.117 C 
HETATM   36  O3  UNL     1       3.326  17.543  26.300  1.00  0.00    -0.274 OA
ATOM     37  H5  UNL     1       5.010  15.037  25.197  1.00  0.00     0.169 HD
ENDBRANCH  29  33
ENDBRANCH  24  25
ENDBRANCH   7  24
TORSDOF 6
ENDMDL
