MODEL 1
REMARK VINA RESULT: -8.110348996      0.000      0.000
REMARK  6 active torsions:
REMARK  status: ('A' for Active; 'I' for Inactive)
REMARK    1  A    between atoms: O1_2  and  C2_3 
REMARK    2  A    between atoms: C5_6  and  C6_7 
REMARK    3  A    between atoms: C9_13  and  C10_14 
REMARK       I    between atoms: C10_14  and  N2_16 
REMARK       I    between atoms: C11_18  and  N4_20 
REMARK    4  A    between atoms: N4_20  and  C12_22 
REMARK    5  A    between atoms: C12_22  and  C13_23 
REMARK    6  A    between atoms: C17_27  and  N5_28 
REMARK       I    between atoms: N5_28  and  C18_30 
ROOT
HETATM    1  C10 UNL     1       1.938   8.551  28.895  1.00  0.00     0.261 C 
HETATM    2  O2  UNL     1       1.651   7.440  29.373  1.00  0.00    -0.267 OA
HETATM    3  N2  UNL     1       1.047   9.162  27.997  1.00  0.00    -0.297 N 
ATOM      4  H2  UNL     1       1.391   9.553  27.119  1.00  0.00     0.171 HD
HETATM    5  C11 UNL     1      -0.207   9.227  28.289  1.00  0.00     0.191 C 
HETATM    6  N3  UNL     1      -1.058   9.860  27.315  1.00  0.00    -0.063 NA
HETATM    7  N4  UNL     1      -0.672   8.706  29.522  1.00  0.00    -0.360 N 
ATOM      8  H4  UNL     1      -1.438   8.032  29.522  1.00  0.00     0.162 HD
ENDROOT
BRANCH   1   9
HETATM    9  C9  UNL     1       3.217   9.232  29.259  1.00  0.00     0.074 A 
HETATM   10  C6  UNL     1       3.318  10.520  29.697  1.00  0.00     0.065 A 
HETATM   11  N1  UNL     1       4.532  11.005  29.928  1.00  0.00    -0.325 N 
HETATM   12  S1  UNL     1       5.570   9.743  29.564  1.00  0.00    -0.018 SA
ATOM     13  H1  UNL     1       4.779  11.939  30.254  1.00  0.00     0.174 HD
HETATM   14  C7  UNL     1       4.423   8.581  29.109  1.00  0.00     0.013 A 
HETATM   15  C8  UNL     1       4.767   7.206  28.665  1.00  0.00     0.059 C 
BRANCH  10  16
HETATM   16  C5  UNL     1       2.174  11.440  29.940  1.00  0.00    -0.008 A 
HETATM   17  C4  UNL     1       1.465  12.035  28.948  1.00  0.00     0.016 A 
HETATM   18  C3  UNL     1       0.428  12.898  29.279  1.00  0.00     0.037 A 
HETATM   19  C2  UNL     1       0.082  13.181  30.582  1.00  0.00     0.068 A 
HETATM   20  C23 UNL     1       0.797  12.580  31.595  1.00  0.00     0.037 A 
HETATM   21  C22 UNL     1       1.824  11.726  31.259  1.00  0.00     0.016 A 
BRANCH  19  22
HETATM   22  O1  UNL     1      -0.979  14.064  30.868  1.00  0.00    -0.356 OA
HETATM   23  C1  UNL     1      -1.072  15.255  30.119  1.00  0.00     0.210 C 
ENDBRANCH  19  22
ENDBRANCH  10  16
ENDBRANCH   1   9
BRANCH   7  24
HETATM   24  C12 UNL     1      -0.097   9.101  30.755  1.00  0.00     0.161 C 
BRANCH  24  25
HETATM   25  C13 UNL     1      -1.265   9.572  31.627  1.00  0.00    -0.038 A 
HETATM   26  C14 UNL     1      -1.084   9.895  32.954  1.00  0.00     0.018 A 
HETATM   27  C15 UNL     1      -2.126  10.318  33.759  1.00  0.00    -0.033 A 
HETATM   28  C16 UNL     1      -1.836  10.647  35.187  1.00  0.00     0.050 C 
HETATM   29  C17 UNL     1      -3.375  10.420  33.233  1.00  0.00     0.062 A 
HETATM   30  C20 UNL     1      -3.598  10.104  31.901  1.00  0.00     0.061 A 
HETATM   31 CL1  UNL     1      -5.216  10.255  31.285  1.00  0.00    -0.082 Cl
HETATM   32  C21 UNL     1      -2.537   9.684  31.117  1.00  0.00     0.035 A 
BRANCH  29  33
HETATM   33  N5  UNL     1      -4.439  10.859  34.084  1.00  0.00    -0.326 N 
HETATM   34  C18 UNL     1      -4.708  12.244  34.285  1.00  0.00     0.218 C 
HETATM   35  C19 UNL     1      -5.821  12.671  35.176  1.00  0.00     0.117 C 
HETATM   36  O3  UNL     1      -3.972  13.077  33.685  1.00  0.00    -0.274 OA
ATOM     37  H5  UNL     1      -5.018  10.165  34.557  1.00  0.00     0.169 HD
ENDBRANCH  29  33
ENDBRANCH  24  25
ENDBRANCH   7  24
TORSDOF 6
ENDMDL
