MODEL 2
REMARK VINA RESULT: -8.110057207      4.091      7.943
REMARK  6 active torsions:
REMARK  status: ('A' for Active; 'I' for Inactive)
REMARK    1  A    between atoms: O1_2  and  C2_3 
REMARK    2  A    between atoms: C5_6  and  C6_7 
REMARK    3  A    between atoms: C9_13  and  C10_14 
REMARK       I    between atoms: C10_14  and  N2_16 
REMARK       I    between atoms: C11_18  and  N4_20 
REMARK    4  A    between atoms: N4_20  and  C12_22 
REMARK    5  A    between atoms: C12_22  and  C13_23 
REMARK    6  A    between atoms: C17_27  and  N5_28 
REMARK       I    between atoms: N5_28  and  C18_30 
ROOT
HETATM    1  C10 UNL     1       0.230  11.771  31.927  1.00  0.00     0.261 C 
HETATM    2  O2  UNL     1       1.116  11.865  32.793  1.00  0.00    -0.267 OA
HETATM    3  N2  UNL     1      -0.454  12.926  31.516  1.00  0.00    -0.297 N 
ATOM      4  H2  UNL     1      -1.472  12.927  31.458  1.00  0.00     0.171 HD
HETATM    5  C11 UNL     1       0.214  13.987  31.211  1.00  0.00     0.191 C 
HETATM    6  N3  UNL     1      -0.558  15.133  30.807  1.00  0.00    -0.063 NA
HETATM    7  N4  UNL     1       1.630  13.970  31.268  1.00  0.00    -0.360 N 
ATOM      8  H4  UNL     1       2.116  14.683  31.809  1.00  0.00     0.162 HD
ENDROOT
BRANCH   1   9
HETATM    9  C9  UNL     1      -0.116  10.446  31.329  1.00  0.00     0.074 A 
HETATM   10  C6  UNL     1      -1.242   9.729  31.616  1.00  0.00     0.065 A 
HETATM   11  N1  UNL     1      -1.383   8.539  31.047  1.00  0.00    -0.325 N 
HETATM   12  S1  UNL     1      -0.009   8.350  30.109  1.00  0.00    -0.018 SA
ATOM     13  H1  UNL     1      -2.157   7.884  31.156  1.00  0.00     0.174 HD
HETATM   14  C7  UNL     1       0.753   9.823  30.458  1.00  0.00     0.013 A 
HETATM   15  C8  UNL     1       2.064  10.232  29.892  1.00  0.00     0.059 C 
BRANCH  10  16
HETATM   16  C5  UNL     1      -2.335  10.171  32.523  1.00  0.00    -0.008 A 
HETATM   17  C4  UNL     1      -2.168  10.384  33.853  1.00  0.00     0.016 A 
HETATM   18  C3  UNL     1      -3.259  10.772  34.620  1.00  0.00     0.037 A 
HETATM   19  C2  UNL     1      -4.517  10.953  34.088  1.00  0.00     0.068 A 
HETATM   20  C23 UNL     1      -4.694  10.739  32.738  1.00  0.00     0.037 A 
HETATM   21  C22 UNL     1      -3.608  10.355  31.984  1.00  0.00     0.016 A 
BRANCH  19  22
HETATM   22  O1  UNL     1      -5.593  11.348  34.908  1.00  0.00    -0.356 OA
HETATM   23  C1  UNL     1      -5.647  12.690  35.336  1.00  0.00     0.210 C 
ENDBRANCH  19  22
ENDBRANCH  10  16
ENDBRANCH   1   9
BRANCH   7  24
HETATM   24  C12 UNL     1       2.384  12.982  30.587  1.00  0.00     0.161 C 
BRANCH  24  25
HETATM   25  C13 UNL     1       2.951  13.675  29.344  1.00  0.00    -0.038 A 
HETATM   26  C14 UNL     1       4.137  14.375  29.392  1.00  0.00     0.018 A 
HETATM   27  C15 UNL     1       4.663  15.011  28.282  1.00  0.00    -0.033 A 
HETATM   28  C16 UNL     1       5.954  15.747  28.428  1.00  0.00     0.050 C 
HETATM   29  C17 UNL     1       3.995  14.950  27.100  1.00  0.00     0.062 A 
HETATM   30  C20 UNL     1       2.798  14.255  27.011  1.00  0.00     0.061 A 
HETATM   31 CL1  UNL     1       1.990  14.211  25.473  1.00  0.00    -0.082 Cl
HETATM   32  C21 UNL     1       2.294  13.626  28.137  1.00  0.00     0.035 A 
BRANCH  29  33
HETATM   33  N5  UNL     1       4.557  15.616  25.965  1.00  0.00    -0.326 N 
HETATM   34  C18 UNL     1       4.144  16.927  25.591  1.00  0.00     0.218 C 
HETATM   35  C19 UNL     1       4.747  17.595  24.406  1.00  0.00     0.117 C 
HETATM   36  O3  UNL     1       3.260  17.487  26.298  1.00  0.00    -0.274 OA
ATOM     37  H5  UNL     1       5.270  15.141  25.411  1.00  0.00     0.169 HD
ENDBRANCH  29  33
ENDBRANCH  24  25
ENDBRANCH   7  24
TORSDOF 6
ENDMDL
