MODEL 6
REMARK VINA RESULT: -5.748404750      2.948      4.686
REMARK  4 active torsions:
REMARK  status: ('A' for Active; 'I' for Inactive)
REMARK    1  A    between atoms: C1_2  and  C2_3 
REMARK       I    between atoms: C1_2  and  N1_9 
REMARK    2  A    between atoms: C2_3  and  O2_4 
REMARK    3  A    between atoms: O2_4  and  P1_5 
REMARK    4  A    between atoms: N1_9  and  O6_11 
ROOT
HETATM    1  O1  UNL     1      74.586  46.202  77.063  1.00  0.00    -0.269 OA
HETATM    2  C1  UNL     1      73.405  46.045  77.468  1.00  0.00     0.265 C 
HETATM    3  N1  UNL     1      72.533  47.166  77.441  1.00  0.00    -0.236 N 
ATOM      4  H1  UNL     1      71.572  47.059  77.765  1.00  0.00     0.197 HD
ENDROOT
BRANCH   2   5
HETATM    5  C2  UNL     1      72.900  44.760  77.962  1.00  0.00     0.287 C 
BRANCH   5   6
HETATM    6  O2  UNL     1      73.362  43.668  77.271  1.00  0.00    -0.273 OA
BRANCH   6   7
HETATM    7  P1  UNL     1      72.085  43.033  76.356  1.00  0.00     0.422 P 
HETATM    8  O3  UNL     1      71.691  43.951  75.232  1.00  0.00    -0.617 OA
HETATM    9  O4  UNL     1      72.458  41.488  75.764  1.00  0.00    -0.617 OA
HETATM   10  O5  UNL     1      70.727  42.852  77.370  1.00  0.00    -0.617 OA
ENDBRANCH   6   7
ENDBRANCH   5   6
ENDBRANCH   2   5
BRANCH   3  11
HETATM   11  O6  UNL     1      72.958  48.390  76.987  1.00  0.00    -0.287 OA
ATOM     12  H6  UNL     1      72.341  49.051  76.698  1.00  0.00     0.244 HD
ENDBRANCH   3  11
TORSDOF 4
ENDMDL
