MODEL 5
REMARK VINA RESULT: -5.782289830      2.953      4.679
REMARK  4 active torsions:
REMARK  status: ('A' for Active; 'I' for Inactive)
REMARK    1  A    between atoms: C1_2  and  C2_3 
REMARK       I    between atoms: C1_2  and  N1_9 
REMARK    2  A    between atoms: C2_3  and  O2_4 
REMARK    3  A    between atoms: O2_4  and  P1_5 
REMARK    4  A    between atoms: N1_9  and  O6_11 
ROOT
HETATM    1  O1  UNL     1      74.560  46.184  77.098  1.00  0.00    -0.269 OA
HETATM    2  C1  UNL     1      73.382  46.030  77.513  1.00  0.00     0.265 C 
HETATM    3  N1  UNL     1      72.506  47.147  77.472  1.00  0.00    -0.236 N 
ATOM      4  H1  UNL     1      71.548  47.043  77.804  1.00  0.00     0.197 HD
ENDROOT
BRANCH   2   5
HETATM    5  C2  UNL     1      72.885  44.752  78.032  1.00  0.00     0.287 C 
BRANCH   5   6
HETATM    6  O2  UNL     1      73.336  43.651  77.348  1.00  0.00    -0.273 OA
BRANCH   6   7
HETATM    7  P1  UNL     1      72.060  43.037  76.418  1.00  0.00     0.422 P 
HETATM    8  O3  UNL     1      70.835  42.778  77.250  1.00  0.00    -0.617 OA
HETATM    9  O4  UNL     1      71.695  44.064  75.118  1.00  0.00    -0.617 OA
HETATM   10  O5  UNL     1      72.546  41.550  75.742  1.00  0.00    -0.617 OA
ENDBRANCH   6   7
ENDBRANCH   5   6
ENDBRANCH   2   5
BRANCH   3  11
HETATM   11  O6  UNL     1      72.924  48.365  76.995  1.00  0.00    -0.287 OA
ATOM     12  H6  UNL     1      73.836  48.528  76.788  1.00  0.00     0.244 HD
ENDBRANCH   3  11
TORSDOF 4
ENDMDL
