MODEL 7
REMARK VINA RESULT: -5.703234122      1.604      2.467
REMARK  4 active torsions:
REMARK  status: ('A' for Active; 'I' for Inactive)
REMARK    1  A    between atoms: C1_2  and  C2_3 
REMARK       I    between atoms: C1_2  and  N1_9 
REMARK    2  A    between atoms: C2_3  and  O2_4 
REMARK    3  A    between atoms: O2_4  and  P1_5 
REMARK    4  A    between atoms: N1_9  and  O6_11 
ROOT
HETATM    1  O1  UNL     1      70.906  43.010  75.486  1.00  0.00    -0.269 OA
HETATM    2  C1  UNL     1      71.848  43.192  76.300  1.00  0.00     0.265 C 
HETATM    3  N1  UNL     1      72.821  42.167  76.438  1.00  0.00    -0.236 N 
ATOM      4  H1  UNL     1      73.592  42.295  77.092  1.00  0.00     0.197 HD
ENDROOT
BRANCH   2   5
HETATM    5  C2  UNL     1      71.977  44.411  77.104  1.00  0.00     0.287 C 
BRANCH   5   6
HETATM    6  O2  UNL     1      72.407  45.509  76.401  1.00  0.00    -0.273 OA
BRANCH   6   7
HETATM    7  P1  UNL     1      73.432  46.417  77.399  1.00  0.00     0.422 P 
HETATM    8  O3  UNL     1      74.880  46.195  77.065  1.00  0.00    -0.617 OA
HETATM    9  O4  UNL     1      73.049  48.069  77.336  1.00  0.00    -0.617 OA
HETATM   10  O5  UNL     1      73.195  45.923  79.014  1.00  0.00    -0.617 OA
ENDBRANCH   6   7
ENDBRANCH   5   6
ENDBRANCH   2   5
BRANCH   3  11
HETATM   11  O6  UNL     1      72.745  41.007  75.707  1.00  0.00    -0.287 OA
ATOM     12  H6  UNL     1      72.431  40.199  76.095  1.00  0.00     0.244 HD
ENDBRANCH   3  11
TORSDOF 4
ENDMDL
