MODEL 7
REMARK VINA RESULT: -7.699353937      2.493      4.607
REMARK  8 active torsions:
REMARK  status: ('A' for Active; 'I' for Inactive)
REMARK    1  A    between atoms: N5_13  and  C6_14 
REMARK    2  A    between atoms: C7_16  and  C8_17 
REMARK    3  A    between atoms: C8_17  and  O2_18 
REMARK    4  A    between atoms: O2_18  and  P1_19 
REMARK    5  A    between atoms: P1_19  and  O5_22 
REMARK    6  A    between atoms: O5_22  and  S1_23 
REMARK    7  A    between atoms: C9_27  and  O9_28 
REMARK    8  A    between atoms: C10_30  and  O10_31 
ROOT
HETATM    1  C6  UNL     1     -11.485  -5.953  10.167  1.00  0.00     0.262 C 
HETATM    2  O1  UNL     1     -12.401  -6.675   9.442  1.00  0.00    -0.353 OA
HETATM    3  C7  UNL     1     -12.038  -8.014   9.492  1.00  0.00     0.180 C 
HETATM    4  C9  UNL     1     -11.475  -8.168  10.906  1.00  0.00     0.182 C 
HETATM    5  C10 UNL     1     -10.710  -6.883  11.038  1.00  0.00     0.198 C 
ENDROOT
BRANCH   1   6
HETATM    6  N5  UNL     1     -12.198  -4.991  10.993  1.00  0.00    -0.297 N 
HETATM    7  C3  UNL     1     -13.346  -5.232  11.657  1.00  0.00     0.142 A 
HETATM    8  N3  UNL     1     -14.161  -6.293  11.797  1.00  0.00    -0.336 N 
HETATM    9  C4  UNL     1     -13.681  -4.048  12.317  1.00  0.00     0.119 A 
HETATM   10  C2  UNL     1     -15.280  -6.262  12.542  1.00  0.00     0.183 A 
ATOM     11  H3  UNL     1     -13.919  -7.160  11.317  1.00  0.00     0.168 HD
HETATM   12  N2  UNL     1     -15.589  -5.113  13.173  1.00  0.00    -0.339 N 
HETATM   13  C1  UNL     1     -14.826  -4.013  13.082  1.00  0.00     0.148 A 
ATOM     14  H2  UNL     1     -16.435  -5.078  13.741  1.00  0.00     0.167 HD
HETATM   15  N1  UNL     1     -15.167  -2.819  13.750  1.00  0.00    -0.080 NA
HETATM   16  N4  UNL     1     -12.722  -3.148  12.023  1.00  0.00    -0.346 N 
HETATM   17  C5  UNL     1     -11.806  -3.709  11.212  1.00  0.00     0.188 A 
ATOM     18  H4  UNL     1     -12.694  -2.186  12.363  1.00  0.00     0.167 HD
ENDBRANCH   1   6
BRANCH   5  19
HETATM   19  O10 UNL     1      -9.423  -7.114  10.516  1.00  0.00    -0.388 OA
ATOM     20  H10 UNL     1      -9.296  -8.033  10.312  1.00  0.00     0.210 HD
ENDBRANCH   5  19
BRANCH   3  21
HETATM   21  C8  UNL     1     -13.230  -8.944   9.403  1.00  0.00     0.216 C 
BRANCH  21  22
HETATM   22  O2  UNL     1     -13.880  -8.919  10.602  1.00  0.00    -0.286 OA
BRANCH  22  23
HETATM   23  P1  UNL     1     -14.977 -10.132  10.826  1.00  0.00     0.425 P 
HETATM   24  O3  UNL     1     -15.900  -9.261  11.664  1.00  0.00    -0.623 OA
HETATM   25  O4  UNL     1     -16.183 -10.353   9.672  1.00  0.00    -0.623 OA
BRANCH  23  26
HETATM   26  O5  UNL     1     -14.797 -11.246  12.003  1.00  0.00    -0.144 OA
BRANCH  26  27
HETATM   27  S1  UNL     1     -13.875 -12.142  12.333  1.00  0.00     0.261 S 
HETATM   28  O6  UNL     1     -12.192 -11.233  12.317  1.00  0.00    -0.572 OA
HETATM   29  O7  UNL     1     -13.836 -11.632  14.418  1.00  0.00    -0.572 OA
HETATM   30  O8  UNL     1     -13.581 -13.507  12.511  1.00  0.00    -0.572 OA
ENDBRANCH  26  27
ENDBRANCH  23  26
ENDBRANCH  22  23
ENDBRANCH  21  22
ENDBRANCH   3  21
BRANCH   4  31
HETATM   31  O9  UNL     1     -10.695  -9.291  11.032  1.00  0.00    -0.390 OA
ATOM     32  H9  UNL     1      -9.803  -9.080  11.280  1.00  0.00     0.210 HD
ENDBRANCH   4  31
TORSDOF 8
ENDMDL
