MODEL 1
REMARK VINA RESULT: -8.234220357      0.000      0.000
REMARK  8 active torsions:
REMARK  status: ('A' for Active; 'I' for Inactive)
REMARK    1  A    between atoms: N5_13  and  C6_14 
REMARK    2  A    between atoms: C7_16  and  C8_17 
REMARK    3  A    between atoms: C8_17  and  O2_18 
REMARK    4  A    between atoms: O2_18  and  P1_19 
REMARK    5  A    between atoms: P1_19  and  O5_22 
REMARK    6  A    between atoms: O5_22  and  S1_23 
REMARK    7  A    between atoms: C9_27  and  O9_28 
REMARK    8  A    between atoms: C10_30  and  O10_31 
ROOT
HETATM    1  C6  UNL     1     -14.448  -7.087  12.070  1.00  0.00     0.262 C 
HETATM    2  O1  UNL     1     -13.261  -7.027  11.382  1.00  0.00    -0.353 OA
HETATM    3  C7  UNL     1     -13.134  -8.186  10.630  1.00  0.00     0.180 C 
HETATM    4  C9  UNL     1     -14.572  -8.480  10.200  1.00  0.00     0.182 C 
HETATM    5  C10 UNL     1     -15.310  -8.141  11.462  1.00  0.00     0.198 C 
ENDROOT
BRANCH   1   6
HETATM    6  N5  UNL     1     -15.112  -5.796  11.969  1.00  0.00    -0.297 N 
HETATM    7  C3  UNL     1     -14.504  -4.625  11.694  1.00  0.00     0.142 A 
HETATM    8  N3  UNL     1     -13.238  -4.245  11.442  1.00  0.00    -0.336 N 
HETATM    9  C4  UNL     1     -15.501  -3.648  11.693  1.00  0.00     0.119 A 
HETATM   10  C2  UNL     1     -12.893  -2.970  11.191  1.00  0.00     0.183 A 
ATOM     11  H3  UNL     1     -12.507  -4.956  11.440  1.00  0.00     0.168 HD
HETATM   12  N2  UNL     1     -13.867  -2.039  11.193  1.00  0.00    -0.339 N 
HETATM   13  C1  UNL     1     -15.152  -2.341  11.435  1.00  0.00     0.148 A 
ATOM     14  H2  UNL     1     -13.618  -1.069  11.004  1.00  0.00     0.167 HD
HETATM   15  N1  UNL     1     -16.156  -1.352  11.434  1.00  0.00    -0.080 NA
HETATM   16  N4  UNL     1     -16.664  -4.272  11.967  1.00  0.00    -0.346 N 
HETATM   17  C5  UNL     1     -16.444  -5.588  12.139  1.00  0.00     0.188 A 
ATOM     18  H4  UNL     1     -17.574  -3.815  12.033  1.00  0.00     0.167 HD
ENDBRANCH   1   6
BRANCH   5  19
HETATM   19  O10 UNL     1     -15.326  -9.304  12.255  1.00  0.00    -0.388 OA
ATOM     20  H10 UNL     1     -16.074  -9.851  12.048  1.00  0.00     0.210 HD
ENDBRANCH   5  19
BRANCH   3  21
HETATM   21  C8  UNL     1     -12.342  -7.971   9.357  1.00  0.00     0.216 C 
BRANCH  21  22
HETATM   22  O2  UNL     1     -11.170  -8.660   9.464  1.00  0.00    -0.286 OA
BRANCH  22  23
HETATM   23  P1  UNL     1      -9.965  -7.867  10.269  1.00  0.00     0.425 P 
HETATM   24  O3  UNL     1      -9.211  -7.535   8.991  1.00  0.00    -0.623 OA
HETATM   25  O4  UNL     1     -10.166  -6.231  10.612  1.00  0.00    -0.623 OA
BRANCH  23  26
HETATM   26  O5  UNL     1      -8.703  -8.663  10.925  1.00  0.00    -0.144 OA
BRANCH  26  27
HETATM   27  S1  UNL     1      -8.550  -9.643  11.807  1.00  0.00     0.261 S 
HETATM   28  O6  UNL     1      -9.196 -11.241  10.975  1.00  0.00    -0.572 OA
HETATM   29  O7  UNL     1      -6.662 -10.316  11.036  1.00  0.00    -0.572 OA
HETATM   30  O8  UNL     1      -8.286  -9.978  13.149  1.00  0.00    -0.572 OA
ENDBRANCH  26  27
ENDBRANCH  23  26
ENDBRANCH  22  23
ENDBRANCH  21  22
ENDBRANCH   3  21
BRANCH   4  31
HETATM   31  O9  UNL     1     -14.735  -9.783   9.797  1.00  0.00    -0.390 OA
ATOM     32  H9  UNL     1     -15.419  -9.872   9.144  1.00  0.00     0.210 HD
ENDBRANCH   4  31
TORSDOF 8
ENDMDL
