MODEL 3
REMARK VINA RESULT: -8.009724213      4.011      5.961
REMARK  8 active torsions:
REMARK  status: ('A' for Active; 'I' for Inactive)
REMARK    1  A    between atoms: N5_13  and  C6_14 
REMARK    2  A    between atoms: C7_16  and  C8_17 
REMARK    3  A    between atoms: C8_17  and  O2_18 
REMARK    4  A    between atoms: O2_18  and  P1_19 
REMARK    5  A    between atoms: P1_19  and  O5_22 
REMARK    6  A    between atoms: O5_22  and  S1_23 
REMARK    7  A    between atoms: C9_27  and  O9_28 
REMARK    8  A    between atoms: C10_30  and  O10_31 
ROOT
HETATM    1  C6  UNL     1     -15.473  -9.858   9.334  1.00  0.00     0.262 C 
HETATM    2  O1  UNL     1     -14.209  -9.343   9.487  1.00  0.00    -0.353 OA
HETATM    3  C7  UNL     1     -14.323  -8.044   9.962  1.00  0.00     0.180 C 
HETATM    4  C9  UNL     1     -15.535  -8.120  10.892  1.00  0.00     0.182 C 
HETATM    5  C10 UNL     1     -16.439  -9.011  10.091  1.00  0.00     0.198 C 
ENDROOT
BRANCH   1   6
HETATM    6  N5  UNL     1     -15.492 -11.213   9.865  1.00  0.00    -0.297 N 
HETATM    7  C3  UNL     1     -14.842 -11.627  10.970  1.00  0.00     0.142 A 
HETATM    8  N3  UNL     1     -14.042 -11.043  11.881  1.00  0.00    -0.336 N 
HETATM    9  C4  UNL     1     -15.129 -12.986  11.117  1.00  0.00     0.119 A 
HETATM   10  C2  UNL     1     -13.509 -11.708  12.920  1.00  0.00     0.183 A 
ATOM     11  H3  UNL     1     -13.831 -10.050  11.778  1.00  0.00     0.168 HD
HETATM   12  N2  UNL     1     -13.797 -13.018  13.047  1.00  0.00    -0.339 N 
HETATM   13  C1  UNL     1     -14.586 -13.670  12.180  1.00  0.00     0.148 A 
ATOM     14  H2  UNL     1     -13.399 -13.533  13.832  1.00  0.00     0.167 HD
HETATM   15  N1  UNL     1     -14.874 -15.043  12.331  1.00  0.00    -0.080 NA
HETATM   16  N4  UNL     1     -15.938 -13.329  10.094  1.00  0.00    -0.346 N 
HETATM   17  C5  UNL     1     -16.170 -12.255   9.317  1.00  0.00     0.188 A 
ATOM     18  H4  UNL     1     -16.317 -14.262   9.934  1.00  0.00     0.167 HD
ENDBRANCH   1   6
BRANCH   5  19
HETATM   19  O10 UNL     1     -17.174  -8.180   9.224  1.00  0.00    -0.388 OA
ATOM     20  H10 UNL     1     -17.723  -7.577   9.711  1.00  0.00     0.210 HD
ENDBRANCH   5  19
BRANCH   3  21
HETATM   21  C8  UNL     1     -13.147  -7.635  10.826  1.00  0.00     0.216 C 
BRANCH  21  22
HETATM   22  O2  UNL     1     -12.249  -8.663  10.836  1.00  0.00    -0.286 OA
BRANCH  22  23
HETATM   23  P1  UNL     1     -10.668  -8.209  10.687  1.00  0.00     0.425 P 
HETATM   24  O3  UNL     1     -10.761  -8.069   9.176  1.00  0.00    -0.623 OA
HETATM   25  O4  UNL     1     -10.279  -6.579  10.845  1.00  0.00    -0.623 OA
BRANCH  23  26
HETATM   26  O5  UNL     1      -9.464  -9.306  10.610  1.00  0.00    -0.144 OA
BRANCH  26  27
HETATM   27  S1  UNL     1      -8.651  -9.889  11.482  1.00  0.00     0.261 S 
HETATM   28  O6  UNL     1      -7.237 -10.687  10.470  1.00  0.00    -0.572 OA
HETATM   29  O7  UNL     1      -7.278  -8.242  11.608  1.00  0.00    -0.572 OA
HETATM   30  O8  UNL     1      -8.477 -10.325  12.809  1.00  0.00    -0.572 OA
ENDBRANCH  26  27
ENDBRANCH  23  26
ENDBRANCH  22  23
ENDBRANCH  21  22
ENDBRANCH   3  21
BRANCH   4  31
HETATM   31  O9  UNL     1     -16.067  -6.880  11.149  1.00  0.00    -0.390 OA
ATOM     32  H9  UNL     1     -16.125  -6.702  12.080  1.00  0.00     0.210 HD
ENDBRANCH   4  31
TORSDOF 8
ENDMDL
