MODEL 5
REMARK VINA RESULT: -7.761714405      4.905      7.642
REMARK  8 active torsions:
REMARK  status: ('A' for Active; 'I' for Inactive)
REMARK    1  A    between atoms: N5_13  and  C6_14 
REMARK    2  A    between atoms: C7_16  and  C8_17 
REMARK    3  A    between atoms: C8_17  and  O2_18 
REMARK    4  A    between atoms: O2_18  and  P1_19 
REMARK    5  A    between atoms: P1_19  and  O5_22 
REMARK    6  A    between atoms: O5_22  and  S1_23 
REMARK    7  A    between atoms: C9_27  and  O9_28 
REMARK    8  A    between atoms: C10_30  and  O10_31 
ROOT
HETATM    1  C6  UNL     1     -12.567  -7.379  11.029  1.00  0.00     0.262 C 
HETATM    2  O1  UNL     1     -13.503  -6.620  11.686  1.00  0.00    -0.353 OA
HETATM    3  C7  UNL     1     -12.995  -5.337  11.837  1.00  0.00     0.180 C 
HETATM    4  C9  UNL     1     -12.202  -5.124  10.547  1.00  0.00     0.182 C 
HETATM    5  C10 UNL     1     -11.569  -6.476  10.388  1.00  0.00     0.198 C 
ENDROOT
BRANCH   1   6
HETATM    6  N5  UNL     1     -13.240  -8.166  10.006  1.00  0.00    -0.297 N 
HETATM    7  C3  UNL     1     -14.360  -8.891  10.191  1.00  0.00     0.142 A 
HETATM    8  N3  UNL     1     -15.176  -9.136  11.232  1.00  0.00    -0.336 N 
HETATM    9  C4  UNL     1     -14.661  -9.483   8.962  1.00  0.00     0.119 A 
HETATM   10  C2  UNL     1     -16.263  -9.923  11.141  1.00  0.00     0.183 A 
ATOM     11  H3  UNL     1     -14.962  -8.705  12.131  1.00  0.00     0.168 HD
HETATM   12  N2  UNL     1     -16.538 -10.485   9.948  1.00  0.00    -0.339 N 
HETATM   13  C1  UNL     1     -15.773 -10.288   8.864  1.00  0.00     0.148 A 
ATOM     14  H2  UNL     1     -17.360 -11.083   9.867  1.00  0.00     0.167 HD
HETATM   15  N1  UNL     1     -16.079 -10.887   7.625  1.00  0.00    -0.080 NA
HETATM   16  N4  UNL     1     -13.708  -9.088   8.093  1.00  0.00    -0.346 N 
HETATM   17  C5  UNL     1     -12.830  -8.282   8.716  1.00  0.00     0.188 A 
ATOM     18  H4  UNL     1     -13.661  -9.360   7.110  1.00  0.00     0.167 HD
ENDBRANCH   1   6
BRANCH   5  19
HETATM   19  O10 UNL     1     -10.363  -6.454  11.115  1.00  0.00    -0.388 OA
ATOM     20  H10 UNL     1     -10.056  -5.565  11.243  1.00  0.00     0.210 HD
ENDBRANCH   5  19
BRANCH   3  21
HETATM   21  C8  UNL     1     -14.079  -4.280  11.853  1.00  0.00     0.216 C 
BRANCH  21  22
HETATM   22  O2  UNL     1     -13.706  -3.301  12.727  1.00  0.00    -0.286 OA
BRANCH  22  23
HETATM   23  P1  UNL     1     -14.484  -1.857  12.531  1.00  0.00     0.425 P 
HETATM   24  O3  UNL     1     -13.190  -1.059  12.553  1.00  0.00    -0.623 OA
HETATM   25  O4  UNL     1     -14.820  -1.328  10.969  1.00  0.00    -0.623 OA
BRANCH  23  26
HETATM   26  O5  UNL     1     -15.121  -1.047  13.794  1.00  0.00    -0.144 OA
BRANCH  26  27
HETATM   27  S1  UNL     1     -16.056  -1.288  14.705  1.00  0.00     0.261 S 
HETATM   28  O6  UNL     1     -16.393  -3.171  14.667  1.00  0.00    -0.572 OA
HETATM   29  O7  UNL     1     -14.684  -1.829  16.265  1.00  0.00    -0.572 OA
HETATM   30  O8  UNL     1     -17.031  -0.733  15.555  1.00  0.00    -0.572 OA
ENDBRANCH  26  27
ENDBRANCH  23  26
ENDBRANCH  22  23
ENDBRANCH  21  22
ENDBRANCH   3  21
BRANCH   4  31
HETATM   31  O9  UNL     1     -11.295  -4.099  10.661  1.00  0.00    -0.390 OA
ATOM     32  H9  UNL     1     -10.664  -4.100   9.951  1.00  0.00     0.210 HD
ENDBRANCH   4  31
TORSDOF 8
ENDMDL
