MODEL 4
REMARK VINA RESULT: -9.094431055      5.515      7.980
REMARK  6 active torsions:
REMARK  status: ('A' for Active; 'I' for Inactive)
REMARK    1  A    between atoms: O1_1  and  C1_3 
REMARK    2  A    between atoms: C1_3  and  C2_4 
REMARK    3  A    between atoms: C1_3  and  N2_12 
REMARK    4  A    between atoms: C2_4  and  C3_5 
REMARK    5  A    between atoms: C3_5  and  N1_6 
REMARK    6  A    between atoms: C12_18  and  O2_19 
ROOT
HETATM    1  N2  UNL     1     -37.217 -72.239  -0.116  1.00  0.00    -0.361 N 
HETATM    2  C9  UNL     1     -36.819 -71.094   0.632  1.00  0.00     0.131 C 
HETATM    3  C10 UNL     1     -37.596 -71.216   1.957  1.00  0.00     0.077 C 
HETATM    4  C11 UNL     1     -37.179 -72.519   2.559  1.00  0.00     0.021 A 
HETATM    5  N3  UNL     1     -37.256 -72.657   3.926  1.00  0.00    -0.339 N 
ATOM      6  H3  UNL     1     -37.593 -71.873   4.483  1.00  0.00     0.168 HD
HETATM    7  C12 UNL     1     -36.903 -73.790   4.546  1.00  0.00     0.151 A 
HETATM    8  C13 UNL     1     -36.445 -74.868   3.822  1.00  0.00     0.029 A 
HETATM    9  C14 UNL     1     -36.079 -76.042   4.454  1.00  0.00     0.059 A 
HETATM   10  C15 UNL     1     -35.621 -77.112   3.699  1.00  0.00     0.117 A 
HETATM   11  F1  UNL     1     -35.276 -78.232   4.356  1.00  0.00    -0.206 F 
HETATM   12  C16 UNL     1     -35.535 -76.990   2.313  1.00  0.00     0.043 A 
HETATM   13  C17 UNL     1     -35.897 -75.829   1.678  1.00  0.00     0.016 A 
HETATM   14  C18 UNL     1     -36.346 -74.794   2.468  1.00  0.00    -0.012 A 
HETATM   15  C19 UNL     1     -36.723 -73.593   1.852  1.00  0.00    -0.006 A 
HETATM   16  C20 UNL     1     -36.616 -73.508   0.376  1.00  0.00     0.166 C 
ENDROOT
BRANCH   1  17
HETATM   17  C1  UNL     1     -38.112 -72.225  -1.176  1.00  0.00     0.115 C 
BRANCH  17  18
HETATM   18  O1  UNL     1     -39.189 -72.984  -0.892  1.00  0.00    -0.349 OA
ATOM     19  H1  UNL     1     -38.974 -73.886  -0.684  1.00  0.00     0.219 HD
ENDBRANCH  17  18
BRANCH  17  20
HETATM   20  C2  UNL     1     -38.170 -71.603  -2.472  1.00  0.00     0.114 C 
BRANCH  20  21
HETATM   21  C3  UNL     1     -39.322 -70.715  -2.718  1.00  0.00     0.280 C 
BRANCH  21  22
HETATM   22  N1  UNL     1     -39.579 -69.821  -1.574  1.00  0.00     0.088 N 
HETATM   23  C4  UNL     1     -40.947 -69.405  -1.526  1.00  0.00     0.272 C 
HETATM   24  C5  UNL     1     -41.188 -68.743  -0.188  1.00  0.00     0.030 C 
HETATM   25  C6  UNL     1     -40.192 -67.674   0.128  1.00  0.00     0.003 C 
HETATM   26  C7  UNL     1     -38.787 -68.003  -0.254  1.00  0.00     0.030 C 
HETATM   27  C8  UNL     1     -38.746 -68.646  -1.624  1.00  0.00     0.272 C 
ENDBRANCH  21  22
ENDBRANCH  20  21
ENDBRANCH  17  20
ENDBRANCH   1  17
BRANCH   7  28
HETATM   28  O2  UNL     1     -37.019 -73.828   5.929  1.00  0.00    -0.345 OA
ATOM     29  H2  UNL     1     -36.651 -74.579   6.380  1.00  0.00     0.219 HD
ENDBRANCH   7  28
TORSDOF 6
ENDMDL
