MODEL 7
REMARK VINA RESULT: -8.978377075      5.553      6.723
REMARK  6 active torsions:
REMARK  status: ('A' for Active; 'I' for Inactive)
REMARK    1  A    between atoms: O1_1  and  C1_3 
REMARK    2  A    between atoms: C1_3  and  C2_4 
REMARK    3  A    between atoms: C1_3  and  N2_12 
REMARK    4  A    between atoms: C2_4  and  C3_5 
REMARK    5  A    between atoms: C3_5  and  N1_6 
REMARK    6  A    between atoms: C12_18  and  O2_19 
ROOT
HETATM    1  N2  UNL     1     -36.758 -72.480  -0.021  1.00  0.00    -0.361 N 
HETATM    2  C9  UNL     1     -36.326 -71.335   0.707  1.00  0.00     0.131 C 
HETATM    3  C10 UNL     1     -37.181 -71.353   1.988  1.00  0.00     0.077 C 
HETATM    4  C11 UNL     1     -36.886 -72.655   2.660  1.00  0.00     0.021 A 
HETATM    5  N3  UNL     1     -37.047 -72.734   4.024  1.00  0.00    -0.339 N 
ATOM      6  H3  UNL     1     -37.361 -71.908   4.532  1.00  0.00     0.168 HD
HETATM    7  C12 UNL     1     -36.805 -73.862   4.704  1.00  0.00     0.151 A 
HETATM    8  C13 UNL     1     -36.381 -74.995   4.047  1.00  0.00     0.029 A 
HETATM    9  C14 UNL     1     -36.129 -76.164   4.741  1.00  0.00     0.059 A 
HETATM   10  C15 UNL     1     -35.703 -77.290   4.053  1.00  0.00     0.117 A 
HETATM   11  F1  UNL     1     -35.470 -78.404   4.768  1.00  0.00    -0.206 F 
HETATM   12  C16 UNL     1     -35.533 -77.229   2.671  1.00  0.00     0.043 A 
HETATM   13  C17 UNL     1     -35.781 -76.074   1.974  1.00  0.00     0.016 A 
HETATM   14  C18 UNL     1     -36.203 -74.981   2.699  1.00  0.00    -0.012 A 
HETATM   15  C19 UNL     1     -36.465 -73.784   2.019  1.00  0.00    -0.006 A 
HETATM   16  C20 UNL     1     -36.271 -73.765   0.550  1.00  0.00     0.166 C 
ENDROOT
BRANCH   1  17
HETATM   17  C1  UNL     1     -37.591 -72.451  -1.131  1.00  0.00     0.115 C 
BRANCH  17  18
HETATM   18  O1  UNL     1     -38.864 -72.707  -0.770  1.00  0.00    -0.349 OA
ATOM     19  H1  UNL     1     -39.482 -72.647  -1.489  1.00  0.00     0.219 HD
ENDBRANCH  17  18
BRANCH  17  20
HETATM   20  C2  UNL     1     -37.428 -72.210  -2.539  1.00  0.00     0.114 C 
BRANCH  20  21
HETATM   21  C3  UNL     1     -38.334 -71.214  -3.140  1.00  0.00     0.280 C 
BRANCH  21  22
HETATM   22  N1  UNL     1     -38.955 -71.714  -4.380  1.00  0.00     0.088 N 
HETATM   23  C4  UNL     1     -40.310 -71.273  -4.507  1.00  0.00     0.272 C 
HETATM   24  C5  UNL     1     -40.770 -71.578  -5.916  1.00  0.00     0.030 C 
HETATM   25  C6  UNL     1     -40.528 -72.997  -6.320  1.00  0.00     0.003 C 
HETATM   26  C7  UNL     1     -39.220 -73.555  -5.868  1.00  0.00     0.030 C 
HETATM   27  C8  UNL     1     -38.937 -73.155  -4.436  1.00  0.00     0.272 C 
ENDBRANCH  21  22
ENDBRANCH  20  21
ENDBRANCH  17  20
ENDBRANCH   1  17
BRANCH   7  28
HETATM   28  O2  UNL     1     -36.999 -73.837   6.079  1.00  0.00    -0.345 OA
ATOM     29  H2  UNL     1     -37.401 -73.061   6.452  1.00  0.00     0.219 HD
ENDBRANCH   7  28
TORSDOF 6
ENDMDL
