MODEL 8
REMARK VINA RESULT: -8.849599243      4.742      7.666
REMARK  6 active torsions:
REMARK  status: ('A' for Active; 'I' for Inactive)
REMARK    1  A    between atoms: O1_1  and  C1_3 
REMARK    2  A    between atoms: C1_3  and  C2_4 
REMARK    3  A    between atoms: C1_3  and  N2_12 
REMARK    4  A    between atoms: C2_4  and  C3_5 
REMARK    5  A    between atoms: C3_5  and  N1_6 
REMARK    6  A    between atoms: C12_18  and  O2_19 
ROOT
HETATM    1  N2  UNL     1     -36.997 -72.494   1.841  1.00  0.00    -0.361 N 
HETATM    2  C9  UNL     1     -37.304 -73.150   0.615  1.00  0.00     0.131 C 
HETATM    3  C10 UNL     1     -36.085 -74.054   0.350  1.00  0.00     0.077 C 
HETATM    4  C11 UNL     1     -35.988 -74.968   1.528  1.00  0.00     0.021 A 
HETATM    5  N3  UNL     1     -35.386 -76.192   1.352  1.00  0.00    -0.339 N 
ATOM      6  H3  UNL     1     -35.026 -76.438   0.430  1.00  0.00     0.168 HD
HETATM    7  C12 UNL     1     -35.257 -77.071   2.355  1.00  0.00     0.151 A 
HETATM    8  C13 UNL     1     -35.731 -76.770   3.612  1.00  0.00     0.029 A 
HETATM    9  C14 UNL     1     -35.602 -77.672   4.653  1.00  0.00     0.059 A 
HETATM   10  C15 UNL     1     -36.089 -77.340   5.908  1.00  0.00     0.117 A 
HETATM   11  F1  UNL     1     -35.943 -78.248   6.889  1.00  0.00    -0.206 F 
HETATM   12  C16 UNL     1     -36.703 -76.105   6.105  1.00  0.00     0.043 A 
HETATM   13  C17 UNL     1     -36.835 -75.205   5.078  1.00  0.00     0.016 A 
HETATM   14  C18 UNL     1     -36.336 -75.576   3.849  1.00  0.00    -0.012 A 
HETATM   15  C19 UNL     1     -36.455 -74.681   2.778  1.00  0.00    -0.006 A 
HETATM   16  C20 UNL     1     -37.114 -73.378   3.033  1.00  0.00     0.166 C 
ENDROOT
BRANCH   1  17
HETATM   17  C1  UNL     1     -36.577 -71.177   1.956  1.00  0.00     0.115 C 
BRANCH  17  18
HETATM   18  O1  UNL     1     -35.645 -71.062   2.923  1.00  0.00    -0.349 OA
ATOM     19  H1  UNL     1     -35.505 -70.167   3.211  1.00  0.00     0.219 HD
ENDBRANCH  17  18
BRANCH  17  20
HETATM   20  C2  UNL     1     -36.886 -69.933   1.301  1.00  0.00     0.114 C 
BRANCH  20  21
HETATM   21  C3  UNL     1     -37.343 -70.029  -0.097  1.00  0.00     0.280 C 
BRANCH  21  22
HETATM   22  N1  UNL     1     -38.684 -69.444  -0.277  1.00  0.00     0.088 N 
HETATM   23  C4  UNL     1     -38.801 -68.179   0.381  1.00  0.00     0.272 C 
HETATM   24  C5  UNL     1     -40.082 -67.525  -0.089  1.00  0.00     0.030 C 
HETATM   25  C6  UNL     1     -41.277 -68.413   0.037  1.00  0.00     0.003 C 
HETATM   26  C7  UNL     1     -41.033 -69.837  -0.338  1.00  0.00     0.030 C 
HETATM   27  C8  UNL     1     -39.714 -70.317   0.228  1.00  0.00     0.272 C 
ENDBRANCH  21  22
ENDBRANCH  20  21
ENDBRANCH  17  20
ENDBRANCH   1  17
BRANCH   7  28
HETATM   28  O2  UNL     1     -34.633 -78.280   2.073  1.00  0.00    -0.345 OA
ATOM     29  H2  UNL     1     -35.161 -79.068   2.124  1.00  0.00     0.219 HD
ENDBRANCH   7  28
TORSDOF 6
ENDMDL
