MODEL 3
REMARK VINA RESULT: -4.186457314      1.164      2.583
REMARK  1 active torsions:
REMARK  status: ('A' for Active; 'I' for Inactive)
REMARK    1  A    between atoms: C5_9  and  C6_10 
ROOT
HETATM    1  C1  UNL     1      12.057  -1.298 -13.332  1.00  0.00     0.070 C 
HETATM    2  C2  UNL     1      12.821  -0.044 -13.642  1.00  0.00     0.035 A 
HETATM    3  N1  UNL     1      13.278   0.269 -14.865  1.00  0.00    -0.302 N 
ATOM      4  H1  UNL     1      13.153  -0.307 -15.698  1.00  0.00     0.187 HD
HETATM    5  N2  UNL     1      13.909   1.423 -14.835  1.00  0.00    -0.289 N 
HETATM    6  C3  UNL     1      14.548   2.124 -15.922  1.00  0.00     0.178 C 
HETATM    7  C4  UNL     1      13.846   1.846 -13.554  1.00  0.00     0.104 A 
HETATM    8  S1  UNL     1      14.286   3.098 -12.468  1.00  0.00    -0.063 SA
HETATM    9  C5  UNL     1      13.600   2.462 -11.024  1.00  0.00     0.084 A 
HETATM   10  C7  UNL     1      13.051   1.286 -11.455  1.00  0.00     0.042 A 
HETATM   11  C8  UNL     1      13.182   0.981 -12.754  1.00  0.00     0.024 A 
ENDROOT
BRANCH   9  12
HETATM   12  C6  UNL     1      13.616   3.053  -9.678  1.00  0.00     0.216 C 
HETATM   13  O1  UNL     1      14.674   3.013  -9.034  1.00  0.00    -0.643 OA
HETATM   14  O2  UNL     1      12.471   3.627  -9.176  1.00  0.00    -0.643 OA
ENDBRANCH   9  12
TORSDOF 1
ENDMDL
