MODEL 1
REMARK VINA RESULT: -4.346289077      0.000      0.000
REMARK  1 active torsions:
REMARK  status: ('A' for Active; 'I' for Inactive)
REMARK    1  A    between atoms: C5_9  and  C6_10 
ROOT
HETATM    1  C1  UNL     1      15.102   3.362 -15.008  1.00  0.00     0.070 C 
HETATM    2  C2  UNL     1      14.333   2.264 -14.331  1.00  0.00     0.035 A 
HETATM    3  N1  UNL     1      13.895   1.163 -14.960  1.00  0.00    -0.302 N 
ATOM      4  H1  UNL     1      14.037   0.962 -15.951  1.00  0.00     0.187 HD
HETATM    5  N2  UNL     1      13.256   0.379 -14.119  1.00  0.00    -0.289 N 
HETATM    6  C3  UNL     1      12.629  -0.895 -14.376  1.00  0.00     0.178 C 
HETATM    7  C4  UNL     1      13.295   1.010 -12.925  1.00  0.00     0.104 A 
HETATM    8  S1  UNL     1      12.829   0.922 -11.277  1.00  0.00    -0.063 SA
HETATM    9  C5  UNL     1      13.495   2.409 -10.723  1.00  0.00     0.084 A 
HETATM   10  C7  UNL     1      14.059   2.917 -11.861  1.00  0.00     0.042 A 
HETATM   11  C8  UNL     1      13.952   2.191 -12.983  1.00  0.00     0.024 A 
ENDROOT
BRANCH   9  12
HETATM   12  C6  UNL     1      13.453   2.969  -9.365  1.00  0.00     0.216 C 
HETATM   13  O1  UNL     1      12.497   3.697  -9.061  1.00  0.00    -0.643 OA
HETATM   14  O2  UNL     1      14.463   2.675  -8.478  1.00  0.00    -0.643 OA
ENDBRANCH   9  12
TORSDOF 1
ENDMDL
