MODEL 2
REMARK VINA RESULT: -4.215093696      2.578      3.348
REMARK  1 active torsions:
REMARK  status: ('A' for Active; 'I' for Inactive)
REMARK    1  A    between atoms: C5_9  and  C6_10 
ROOT
HETATM    1  C1  UNL     1      15.087   3.189 -15.383  1.00  0.00     0.070 C 
HETATM    2  C2  UNL     1      14.256   3.968 -14.404  1.00  0.00     0.035 A 
HETATM    3  N1  UNL     1      13.603   5.098 -14.713  1.00  0.00    -0.302 N 
ATOM      4  H1  UNL     1      13.604   5.539 -15.633  1.00  0.00     0.187 HD
HETATM    5  N2  UNL     1      12.961   5.557 -13.660  1.00  0.00    -0.289 N 
HETATM    6  C3  UNL     1      12.141   6.739 -13.554  1.00  0.00     0.178 C 
HETATM    7  C4  UNL     1      13.221   4.687 -12.661  1.00  0.00     0.104 A 
HETATM    8  S1  UNL     1      12.936   4.323 -11.009  1.00  0.00    -0.063 SA
HETATM    9  C5  UNL     1      13.859   2.876 -10.883  1.00  0.00     0.084 A 
HETATM   10  C7  UNL     1      14.357   2.737 -12.150  1.00  0.00     0.042 A 
HETATM   11  C8  UNL     1      14.023   3.670 -13.053  1.00  0.00     0.024 A 
ENDROOT
BRANCH   9  12
HETATM   12  C6  UNL     1      14.049   2.025  -9.701  1.00  0.00     0.216 C 
HETATM   13  O1  UNL     1      14.002   0.795  -9.851  1.00  0.00    -0.643 OA
HETATM   14  O2  UNL     1      14.272   2.607  -8.474  1.00  0.00    -0.643 OA
ENDBRANCH   9  12
TORSDOF 1
ENDMDL
