MODEL 1
REMARK VINA RESULT: -5.580791161      0.000      0.000
REMARK  7 active torsions:
REMARK  status: ('A' for Active; 'I' for Inactive)
REMARK    1  A    between atoms: O1_1  and  C1_3 
REMARK    2  A    between atoms: N1_6  and  C4_7 
REMARK    3  A    between atoms: C5_9  and  C6_10 
REMARK    4  A    between atoms: C6_10  and  O3_11 
REMARK    5  A    between atoms: O3_11  and  P1_12 
REMARK    6  A    between atoms: C7_16  and  O7_17 
REMARK    7  A    between atoms: C8_19  and  O8_20 
ROOT
HETATM    1  C4  UNL     1      28.814  32.621  41.349  1.00  0.00     0.259 C 
HETATM    2  O2  UNL     1      29.532  33.603  40.782  1.00  0.00    -0.354 OA
HETATM    3  C5  UNL     1      29.427  34.694  41.495  1.00  0.00     0.180 C 
HETATM    4  C7  UNL     1      29.195  34.190  42.982  1.00  0.00     0.182 C 
HETATM    5  C8  UNL     1      29.551  32.692  42.792  1.00  0.00     0.198 C 
ENDROOT
BRANCH   1   6
HETATM    6  N1  UNL     1      28.932  31.326  40.749  1.00  0.00    -0.304 N 
HETATM    7  C3  UNL     1      30.174  31.014  40.021  1.00  0.00     0.138 C 
HETATM    8  C2  UNL     1      29.593  30.890  38.595  1.00  0.00     0.104 C 
HETATM    9  C1  UNL     1      28.626  29.842  38.455  1.00  0.00     0.120 C 
HETATM   10  N2  UNL     1      27.635  29.695  39.448  1.00  0.00    -0.293 N 
HETATM   11  C9  UNL     1      27.829  30.481  40.632  1.00  0.00     0.326 C 
ATOM     12  H2  UNL     1      26.836  29.073  39.331  1.00  0.00     0.172 HD
HETATM   13  O9  UNL     1      26.981  30.423  41.529  1.00  0.00    -0.247 OA
BRANCH   9  14
HETATM   14  O1  UNL     1      28.648  29.009  37.451  1.00  0.00    -0.349 OA
ATOM     15  H1  UNL     1      28.117  29.141  36.675  1.00  0.00     0.219 HD
ENDBRANCH   9  14
ENDBRANCH   1   6
BRANCH   5  16
HETATM   16  O8  UNL     1      28.777  31.904  43.643  1.00  0.00    -0.388 OA
ATOM     17  H8  UNL     1      29.242  31.895  44.471  1.00  0.00     0.210 HD
ENDBRANCH   5  16
BRANCH   3  18
HETATM   18  C6  UNL     1      30.691  35.544  41.676  1.00  0.00     0.217 C 
BRANCH  18  19
HETATM   19  O3  UNL     1      30.623  35.949  43.015  1.00  0.00    -0.280 OA
BRANCH  19  20
HETATM   20  P1  UNL     1      31.683  36.657  43.801  1.00  0.00     0.422 P 
HETATM   21  O4  UNL     1      33.026  37.003  44.524  1.00  0.00    -0.617 OA
HETATM   22  O5  UNL     1      31.917  37.786  42.679  1.00  0.00    -0.617 OA
HETATM   23  O6  UNL     1      32.449  35.097  43.584  1.00  0.00    -0.617 OA
ENDBRANCH  19  20
ENDBRANCH  18  19
ENDBRANCH   3  18
BRANCH   4  24
HETATM   24  O7  UNL     1      27.875  34.208  43.335  1.00  0.00    -0.390 OA
ATOM     25  H7  UNL     1      27.410  33.440  43.025  1.00  0.00     0.210 HD
ENDBRANCH   4  24
TORSDOF 7
ENDMDL
