MODEL 13
REMARK VINA RESULT: -5.122932609      4.275      5.690
REMARK  7 active torsions:
REMARK  status: ('A' for Active; 'I' for Inactive)
REMARK    1  A    between atoms: O1_1  and  C1_3 
REMARK    2  A    between atoms: N1_6  and  C4_7 
REMARK    3  A    between atoms: C5_9  and  C6_10 
REMARK    4  A    between atoms: C6_10  and  O3_11 
REMARK    5  A    between atoms: O3_11  and  P1_12 
REMARK    6  A    between atoms: C7_16  and  O7_17 
REMARK    7  A    between atoms: C8_19  and  O8_20 
ROOT
HETATM    1  C4  UNL     1      29.153  29.318  37.964  1.00  0.00     0.259 C 
HETATM    2  O2  UNL     1      28.742  30.404  37.291  1.00  0.00    -0.354 OA
HETATM    3  C5  UNL     1      28.659  31.423  38.106  1.00  0.00     0.180 C 
HETATM    4  C7  UNL     1      29.751  31.143  39.224  1.00  0.00     0.182 C 
HETATM    5  C8  UNL     1      30.518  29.985  38.533  1.00  0.00     0.198 C 
ENDROOT
BRANCH   1   6
HETATM    6  N1  UNL     1      29.413  28.150  37.178  1.00  0.00    -0.304 N 
HETATM    7  C3  UNL     1      29.872  28.339  35.791  1.00  0.00     0.138 C 
HETATM    8  C2  UNL     1      28.649  27.755  35.051  1.00  0.00     0.104 C 
HETATM    9  C1  UNL     1      28.408  26.372  35.338  1.00  0.00     0.120 C 
HETATM   10  N2  UNL     1      28.478  25.934  36.677  1.00  0.00    -0.293 N 
HETATM   11  C9  UNL     1      29.011  26.886  37.609  1.00  0.00     0.326 C 
ATOM     12  H2  UNL     1      28.171  25.005  36.963  1.00  0.00     0.172 HD
HETATM   13  O9  UNL     1      29.072  26.578  38.804  1.00  0.00    -0.247 OA
BRANCH   9  14
HETATM   14  O1  UNL     1      28.147  25.505  34.399  1.00  0.00    -0.349 OA
ATOM     15  H1  UNL     1      27.353  24.983  34.401  1.00  0.00     0.219 HD
ENDBRANCH   9  14
ENDBRANCH   1   6
BRANCH   5  16
HETATM   16  O8  UNL     1      30.996  29.090  39.489  1.00  0.00    -0.388 OA
ATOM     17  H8  UNL     1      30.388  28.361  39.480  1.00  0.00     0.210 HD
ENDBRANCH   5  16
BRANCH   3  18
HETATM   18  C6  UNL     1      29.129  32.787  37.584  1.00  0.00     0.217 C 
BRANCH  18  19
HETATM   19  O3  UNL     1      28.382  33.700  38.338  1.00  0.00    -0.280 OA
BRANCH  19  20
HETATM   20  P1  UNL     1      26.914  33.646  38.631  1.00  0.00     0.422 P 
HETATM   21  O4  UNL     1      25.507  33.901  39.264  1.00  0.00    -0.617 OA
HETATM   22  O5  UNL     1      26.500  34.364  37.252  1.00  0.00    -0.617 OA
HETATM   23  O6  UNL     1      27.458  34.649  39.960  1.00  0.00    -0.617 OA
ENDBRANCH  19  20
ENDBRANCH  18  19
ENDBRANCH   3  18
BRANCH   4  24
HETATM   24  O7  UNL     1      29.208  30.598  40.353  1.00  0.00    -0.390 OA
ATOM     25  H7  UNL     1      29.070  31.245  41.034  1.00  0.00     0.210 HD
ENDBRANCH   4  24
TORSDOF 7
ENDMDL
