MODEL 3
REMARK VINA RESULT: -5.434528562      0.603      1.017
REMARK  7 active torsions:
REMARK  status: ('A' for Active; 'I' for Inactive)
REMARK    1  A    between atoms: O1_1  and  C1_3 
REMARK    2  A    between atoms: N1_6  and  C4_7 
REMARK    3  A    between atoms: C5_9  and  C6_10 
REMARK    4  A    between atoms: C6_10  and  O3_11 
REMARK    5  A    between atoms: O3_11  and  P1_12 
REMARK    6  A    between atoms: C7_16  and  O7_17 
REMARK    7  A    between atoms: C8_19  and  O8_20 
ROOT
HETATM    1  C4  UNL     1      28.699  32.885  41.354  1.00  0.00     0.259 C 
HETATM    2  O2  UNL     1      29.313  33.932  40.780  1.00  0.00    -0.354 OA
HETATM    3  C5  UNL     1      29.117  35.006  41.499  1.00  0.00     0.180 C 
HETATM    4  C7  UNL     1      28.958  34.478  42.988  1.00  0.00     0.182 C 
HETATM    5  C8  UNL     1      29.450  33.020  42.786  1.00  0.00     0.198 C 
ENDROOT
BRANCH   1   6
HETATM    6  N1  UNL     1      28.928  31.608  40.747  1.00  0.00    -0.304 N 
HETATM    7  C3  UNL     1      30.140  31.442  39.926  1.00  0.00     0.138 C 
HETATM    8  C2  UNL     1      29.473  31.237  38.549  1.00  0.00     0.104 C 
HETATM    9  C1  UNL     1      28.633  30.077  38.482  1.00  0.00     0.120 C 
HETATM   10  N2  UNL     1      27.745  29.821  39.547  1.00  0.00    -0.293 N 
HETATM   11  C9  UNL     1      27.930  30.635  40.714  1.00  0.00     0.326 C 
ATOM     12  H2  UNL     1      27.020  29.105  39.491  1.00  0.00     0.172 HD
HETATM   13  O9  UNL     1      27.166  30.483  41.672  1.00  0.00    -0.247 OA
BRANCH   9  14
HETATM   14  O1  UNL     1      28.681  29.245  37.479  1.00  0.00    -0.349 OA
ATOM     15  H1  UNL     1      28.138  29.354  36.707  1.00  0.00     0.219 HD
ENDBRANCH   9  14
ENDBRANCH   1   6
BRANCH   5  16
HETATM   16  O8  UNL     1      28.767  32.161  43.645  1.00  0.00    -0.388 OA
ATOM     17  H8  UNL     1      28.032  31.832  43.141  1.00  0.00     0.210 HD
ENDBRANCH   5  16
BRANCH   3  18
HETATM   18  C6  UNL     1      30.299  35.970  41.664  1.00  0.00     0.217 C 
BRANCH  18  19
HETATM   19  O3  UNL     1      30.888  35.563  42.868  1.00  0.00    -0.280 OA
BRANCH  19  20
HETATM   20  P1  UNL     1      32.189  36.030  43.443  1.00  0.00     0.422 P 
HETATM   21  O4  UNL     1      33.258  36.746  44.332  1.00  0.00    -0.617 OA
HETATM   22  O5  UNL     1      32.584  34.579  44.016  1.00  0.00    -0.617 OA
HETATM   23  O6  UNL     1      31.072  37.014  44.366  1.00  0.00    -0.617 OA
ENDBRANCH  19  20
ENDBRANCH  18  19
ENDBRANCH   3  18
BRANCH   4  24
HETATM   24  O7  UNL     1      27.648  34.372  43.361  1.00  0.00    -0.390 OA
ATOM     25  H7  UNL     1      27.161  35.169  43.192  1.00  0.00     0.210 HD
ENDBRANCH   4  24
TORSDOF 7
ENDMDL
