MODEL 2
REMARK VINA RESULT: -5.479467005      2.437      2.795
REMARK  7 active torsions:
REMARK  status: ('A' for Active; 'I' for Inactive)
REMARK    1  A    between atoms: O1_1  and  C1_3 
REMARK    2  A    between atoms: N1_6  and  C4_7 
REMARK    3  A    between atoms: C5_9  and  C6_10 
REMARK    4  A    between atoms: C6_10  and  O3_11 
REMARK    5  A    between atoms: O3_11  and  P1_12 
REMARK    6  A    between atoms: C7_16  and  O7_17 
REMARK    7  A    between atoms: C8_19  and  O8_20 
ROOT
HETATM    1  C4  UNL     1      28.364  34.164  40.790  1.00  0.00     0.259 C 
HETATM    2  O2  UNL     1      29.283  35.142  40.830  1.00  0.00    -0.354 OA
HETATM    3  C5  UNL     1      29.368  35.618  42.044  1.00  0.00     0.180 C 
HETATM    4  C7  UNL     1      28.984  34.402  42.989  1.00  0.00     0.182 C 
HETATM    5  C8  UNL     1      29.044  33.254  41.948  1.00  0.00     0.198 C 
ENDROOT
BRANCH   1   6
HETATM    6  N1  UNL     1      28.247  33.458  39.551  1.00  0.00    -0.304 N 
HETATM    7  C3  UNL     1      29.451  32.800  39.016  1.00  0.00     0.138 C 
HETATM    8  C2  UNL     1      29.650  33.656  37.746  1.00  0.00     0.104 C 
HETATM    9  C1  UNL     1      28.558  33.580  36.822  1.00  0.00     0.120 C 
HETATM   10  N2  UNL     1      27.241  33.665  37.319  1.00  0.00    -0.293 N 
HETATM   11  C9  UNL     1      27.116  33.594  38.747  1.00  0.00     0.326 C 
ATOM     12  H2  UNL     1      26.433  33.769  36.705  1.00  0.00     0.172 HD
HETATM   13  O9  UNL     1      25.992  33.692  39.250  1.00  0.00    -0.247 OA
BRANCH   9  14
HETATM   14  O1  UNL     1      28.745  33.414  35.541  1.00  0.00    -0.349 OA
ATOM     15  H1  UNL     1      28.712  32.556  35.134  1.00  0.00     0.219 HD
ENDBRANCH   9  14
ENDBRANCH   1   6
BRANCH   5  16
HETATM   16  O8  UNL     1      28.097  32.278  42.255  1.00  0.00    -0.388 OA
ATOM     17  H8  UNL     1      28.598  31.505  42.490  1.00  0.00     0.210 HD
ENDBRANCH   5  16
BRANCH   3  18
HETATM   18  C6  UNL     1      30.767  35.959  42.574  1.00  0.00     0.217 C 
BRANCH  18  19
HETATM   19  O3  UNL     1      31.019  37.229  42.038  1.00  0.00    -0.280 OA
BRANCH  19  20
HETATM   20  P1  UNL     1      32.329  37.954  42.007  1.00  0.00     0.422 P 
HETATM   21  O4  UNL     1      33.411  39.083  42.012  1.00  0.00    -0.617 OA
HETATM   22  O5  UNL     1      32.791  37.409  43.448  1.00  0.00    -0.617 OA
HETATM   23  O6  UNL     1      31.222  39.311  41.946  1.00  0.00    -0.617 OA
ENDBRANCH  19  20
ENDBRANCH  18  19
ENDBRANCH   3  18
BRANCH   4  24
HETATM   24  O7  UNL     1      27.681  34.455  43.397  1.00  0.00    -0.390 OA
ATOM     25  H7  UNL     1      27.074  34.401  42.669  1.00  0.00     0.210 HD
ENDBRANCH   4  24
TORSDOF 7
ENDMDL
