MODEL 3
REMARK VINA RESULT: -5.834649499      0.635      1.083
REMARK  6 active torsions:
REMARK  status: ('A' for Active; 'I' for Inactive)
REMARK    1  A    between atoms: N2_5  and  C4_6 
REMARK    2  A    between atoms: C5_8  and  C6_9 
REMARK    3  A    between atoms: C6_9  and  O2_10 
REMARK    4  A    between atoms: O2_10  and  P1_11 
REMARK    5  A    between atoms: C7_15  and  O6_16 
REMARK    6  A    between atoms: C8_18  and  O7_19 
ROOT
HETATM    1  C4  UNL     1      29.721  33.494  41.301  1.00  0.00     0.263 C 
HETATM    2  O1  UNL     1      28.759  34.033  40.457  1.00  0.00    -0.353 OA
HETATM    3  C5  UNL     1      28.230  32.915  39.837  1.00  0.00     0.180 C 
HETATM    4  C7  UNL     1      28.273  31.783  40.837  1.00  0.00     0.182 C 
HETATM    5  C8  UNL     1      28.879  32.474  42.042  1.00  0.00     0.198 C 
ENDROOT
BRANCH   1   6
HETATM    6  N2  UNL     1      30.384  34.419  42.133  1.00  0.00    -0.280 N 
HETATM    7  C3  UNL     1      29.839  35.559  42.590  1.00  0.00     0.102 A 
HETATM    8  C2  UNL     1      30.524  36.439  43.404  1.00  0.00     0.062 A 
HETATM    9  C1  UNL     1      31.824  36.158  43.778  1.00  0.00     0.121 A 
HETATM   10  N1  UNL     1      32.577  37.022  44.611  1.00  0.00    -0.083 NA
HETATM   11  N3  UNL     1      32.346  34.994  43.297  1.00  0.00    -0.297 N 
HETATM   12  C9  UNL     1      31.651  34.157  42.504  1.00  0.00     0.329 A 
ATOM     13  H3  UNL     1      33.304  34.747  43.548  1.00  0.00     0.171 HD
HETATM   14  O8  UNL     1      32.249  33.107  42.123  1.00  0.00    -0.246 OA
ENDBRANCH   1   6
BRANCH   5  15
HETATM   15  O7  UNL     1      29.633  31.627  42.825  1.00  0.00    -0.388 OA
ATOM     16  H7  UNL     1      29.290  30.742  42.845  1.00  0.00     0.210 HD
ENDBRANCH   5  15
BRANCH   3  17
HETATM   17  C6  UNL     1      26.777  33.096  39.445  1.00  0.00     0.217 C 
BRANCH  17  18
HETATM   18  O2  UNL     1      26.748  33.700  38.210  1.00  0.00    -0.280 OA
BRANCH  18  19
HETATM   19  P1  UNL     1      25.799  34.976  37.992  1.00  0.00     0.422 P 
HETATM   20  O3  UNL     1      24.598  34.500  38.817  1.00  0.00    -0.617 OA
HETATM   21  O4  UNL     1      24.728  34.988  36.682  1.00  0.00    -0.617 OA
HETATM   22  O5  UNL     1      26.739  35.815  37.074  1.00  0.00    -0.617 OA
ENDBRANCH  18  19
ENDBRANCH  17  18
ENDBRANCH   3  17
BRANCH   4  23
HETATM   23  O6  UNL     1      29.187  30.852  40.368  1.00  0.00    -0.390 OA
ATOM     24  H6  UNL     1      29.074  30.060  40.881  1.00  0.00     0.210 HD
ENDBRANCH   4  23
TORSDOF 6
ENDMDL
