MODEL 4
REMARK VINA RESULT: -5.570882640      3.814      6.460
REMARK  6 active torsions:
REMARK  status: ('A' for Active; 'I' for Inactive)
REMARK    1  A    between atoms: N2_5  and  C4_6 
REMARK    2  A    between atoms: C5_8  and  C6_9 
REMARK    3  A    between atoms: C6_9  and  O2_10 
REMARK    4  A    between atoms: O2_10  and  P1_11 
REMARK    5  A    between atoms: C7_15  and  O6_16 
REMARK    6  A    between atoms: C8_18  and  O7_19 
ROOT
HETATM    1  C4  UNL     1      29.267  32.889  41.454  1.00  0.00     0.263 C 
HETATM    2  O1  UNL     1      29.937  34.042  41.065  1.00  0.00    -0.353 OA
HETATM    3  C5  UNL     1      29.475  34.987  41.965  1.00  0.00     0.180 C 
HETATM    4  C7  UNL     1      29.224  34.276  43.275  1.00  0.00     0.182 C 
HETATM    5  C8  UNL     1      29.629  32.857  42.925  1.00  0.00     0.198 C 
ENDROOT
BRANCH   1   6
HETATM    6  N2  UNL     1      29.609  31.722  40.742  1.00  0.00    -0.280 N 
HETATM    7  C3  UNL     1      30.840  31.443  40.284  1.00  0.00     0.102 A 
HETATM    8  C2  UNL     1      31.133  30.284  39.591  1.00  0.00     0.062 A 
HETATM    9  C1  UNL     1      30.136  29.360  39.346  1.00  0.00     0.121 A 
HETATM   10  N1  UNL     1      30.376  28.155  38.641  1.00  0.00    -0.083 NA
HETATM   11  N3  UNL     1      28.899  29.675  39.824  1.00  0.00    -0.297 N 
HETATM   12  C9  UNL     1      28.646  30.814  40.498  1.00  0.00     0.329 A 
ATOM     13  H3  UNL     1      28.132  29.020  39.666  1.00  0.00     0.171 HD
HETATM   14  O8  UNL     1      27.454  30.989  40.890  1.00  0.00    -0.246 OA
ENDBRANCH   1   6
BRANCH   5  15
HETATM   15  O7  UNL     1      28.922  31.907  43.629  1.00  0.00    -0.388 OA
ATOM     16  H7  UNL     1      28.771  32.156  44.533  1.00  0.00     0.210 HD
ENDBRANCH   5  15
BRANCH   3  17
HETATM   17  C6  UNL     1      30.493  36.074  42.247  1.00  0.00     0.217 C 
BRANCH  17  18
HETATM   18  O2  UNL     1      31.018  35.842  43.496  1.00  0.00    -0.280 OA
BRANCH  18  19
HETATM   19  P1  UNL     1      32.567  36.168  43.760  1.00  0.00     0.422 P 
HETATM   20  O3  UNL     1      32.952  34.857  44.454  1.00  0.00    -0.617 OA
HETATM   21  O4  UNL     1      33.014  36.915  45.211  1.00  0.00    -0.617 OA
HETATM   22  O5  UNL     1      32.614  37.603  43.149  1.00  0.00    -0.617 OA
ENDBRANCH  18  19
ENDBRANCH  17  18
ENDBRANCH   3  17
BRANCH   4  23
HETATM   23  O6  UNL     1      27.856  34.292  43.499  1.00  0.00    -0.390 OA
ATOM     24  H6  UNL     1      27.692  33.782  44.283  1.00  0.00     0.210 HD
ENDBRANCH   4  23
TORSDOF 6
ENDMDL
