MODEL 1
REMARK VINA RESULT: -6.253041522      0.000      0.000
REMARK  6 active torsions:
REMARK  status: ('A' for Active; 'I' for Inactive)
REMARK    1  A    between atoms: N2_5  and  C4_6 
REMARK    2  A    between atoms: C5_8  and  C6_9 
REMARK    3  A    between atoms: C6_9  and  O2_10 
REMARK    4  A    between atoms: O2_10  and  P1_11 
REMARK    5  A    between atoms: C7_15  and  O6_16 
REMARK    6  A    between atoms: C8_18  and  O7_19 
ROOT
HETATM    1  C4  UNL     1      29.882  33.396  41.436  1.00  0.00     0.263 C 
HETATM    2  O1  UNL     1      28.900  33.855  40.567  1.00  0.00    -0.353 OA
HETATM    3  C5  UNL     1      28.417  32.689  40.002  1.00  0.00     0.180 C 
HETATM    4  C7  UNL     1      28.503  31.608  41.056  1.00  0.00     0.182 C 
HETATM    5  C8  UNL     1      29.081  32.381  42.226  1.00  0.00     0.198 C 
ENDROOT
BRANCH   1   6
HETATM    6  N2  UNL     1      30.508  34.386  42.220  1.00  0.00    -0.280 N 
HETATM    7  C3  UNL     1      29.922  35.528  42.613  1.00  0.00     0.102 A 
HETATM    8  C2  UNL     1      30.571  36.473  43.383  1.00  0.00     0.062 A 
HETATM    9  C1  UNL     1      31.877  36.256  43.780  1.00  0.00     0.121 A 
HETATM   10  N1  UNL     1      32.594  37.188  44.570  1.00  0.00    -0.083 NA
HETATM   11  N3  UNL     1      32.441  35.087  43.364  1.00  0.00    -0.297 N 
HETATM   12  C9  UNL     1      31.779  34.185  42.613  1.00  0.00     0.329 A 
ATOM     13  H3  UNL     1      33.404  34.886  43.634  1.00  0.00     0.171 HD
HETATM   14  O8  UNL     1      32.415  33.137  42.292  1.00  0.00    -0.246 OA
ENDBRANCH   1   6
BRANCH   5  15
HETATM   15  O7  UNL     1      29.866  31.603  43.049  1.00  0.00    -0.388 OA
ATOM     16  H7  UNL     1      29.936  31.953  43.929  1.00  0.00     0.210 HD
ENDBRANCH   5  15
BRANCH   3  17
HETATM   17  C6  UNL     1      26.958  32.793  39.604  1.00  0.00     0.217 C 
BRANCH  17  18
HETATM   18  O2  UNL     1      26.660  34.126  39.449  1.00  0.00    -0.280 OA
BRANCH  18  19
HETATM   19  P1  UNL     1      25.887  34.601  38.125  1.00  0.00     0.422 P 
HETATM   20  O3  UNL     1      27.061  34.513  37.143  1.00  0.00    -0.617 OA
HETATM   21  O4  UNL     1      25.855  36.248  37.738  1.00  0.00    -0.617 OA
HETATM   22  O5  UNL     1      24.478  34.845  38.748  1.00  0.00    -0.617 OA
ENDBRANCH  18  19
ENDBRANCH  17  18
ENDBRANCH   3  17
BRANCH   4  23
HETATM   23  O6  UNL     1      29.453  30.692  40.632  1.00  0.00    -0.390 OA
ATOM     24  H6  UNL     1      30.217  30.799  41.187  1.00  0.00     0.210 HD
ENDBRANCH   4  23
TORSDOF 6
ENDMDL
