MODEL 2
REMARK VINA RESULT: -6.065249455      4.469      6.666
REMARK  6 active torsions:
REMARK  status: ('A' for Active; 'I' for Inactive)
REMARK    1  A    between atoms: N2_5  and  C4_6 
REMARK    2  A    between atoms: C5_8  and  C6_9 
REMARK    3  A    between atoms: C6_9  and  O2_10 
REMARK    4  A    between atoms: O2_10  and  P1_11 
REMARK    5  A    between atoms: C7_15  and  O6_16 
REMARK    6  A    between atoms: C8_18  and  O7_19 
ROOT
HETATM    1  C4  UNL     1      28.682  30.232  38.919  1.00  0.00     0.263 C 
HETATM    2  O1  UNL     1      27.737  31.247  38.846  1.00  0.00    -0.353 OA
HETATM    3  C5  UNL     1      28.002  31.998  39.978  1.00  0.00     0.180 C 
HETATM    4  C7  UNL     1      29.492  31.929  40.225  1.00  0.00     0.182 C 
HETATM    5  C8  UNL     1      29.944  31.057  39.070  1.00  0.00     0.198 C 
ENDROOT
BRANCH   1   6
HETATM    6  N2  UNL     1      28.695  29.338  37.829  1.00  0.00    -0.280 N 
HETATM    7  C3  UNL     1      28.987  29.684  36.565  1.00  0.00     0.102 A 
HETATM    8  C2  UNL     1      28.990  28.775  35.524  1.00  0.00     0.062 A 
HETATM    9  C1  UNL     1      28.682  27.450  35.769  1.00  0.00     0.121 A 
HETATM   10  N1  UNL     1      28.668  26.473  34.744  1.00  0.00    -0.083 NA
HETATM   11  N3  UNL     1      28.390  27.134  37.063  1.00  0.00    -0.297 N 
HETATM   12  C9  UNL     1      28.397  28.045  38.055  1.00  0.00     0.329 A 
ATOM     13  H3  UNL     1      28.157  26.167  37.289  1.00  0.00     0.171 HD
HETATM   14  O8  UNL     1      28.109  27.625  39.215  1.00  0.00    -0.246 OA
ENDBRANCH   1   6
BRANCH   5  15
HETATM   15  O7  UNL     1      31.050  30.293  39.374  1.00  0.00    -0.388 OA
ATOM     16  H7  UNL     1      31.789  30.814  39.664  1.00  0.00     0.210 HD
ENDBRANCH   5  15
BRANCH   3  17
HETATM   17  C6  UNL     1      27.658  33.464  39.801  1.00  0.00     0.217 C 
BRANCH  17  18
HETATM   18  O2  UNL     1      26.295  33.558  39.646  1.00  0.00    -0.280 OA
BRANCH  18  19
HETATM   19  P1  UNL     1      25.711  34.352  38.379  1.00  0.00     0.422 P 
HETATM   20  O3  UNL     1      26.982  34.361  37.521  1.00  0.00    -0.617 OA
HETATM   21  O4  UNL     1      25.830  36.040  38.341  1.00  0.00    -0.617 OA
HETATM   22  O5  UNL     1      24.259  34.589  38.897  1.00  0.00    -0.617 OA
ENDBRANCH  18  19
ENDBRANCH  17  18
ENDBRANCH   3  17
BRANCH   4  23
HETATM   23  O6  UNL     1      29.683  31.219  41.401  1.00  0.00    -0.390 OA
ATOM     24  H6  UNL     1      30.437  31.595  41.839  1.00  0.00     0.210 HD
ENDBRANCH   4  23
TORSDOF 6
ENDMDL
