MODEL 2
REMARK VINA RESULT: -6.377976835      1.559      2.060
REMARK  6 active torsions:
REMARK  status: ('A' for Active; 'I' for Inactive)
REMARK    1  A    between atoms: N5_13  and  C6_14 
REMARK    2  A    between atoms: C7_16  and  C8_17 
REMARK    3  A    between atoms: C8_17  and  O2_18 
REMARK    4  A    between atoms: O2_18  and  P1_19 
REMARK    5  A    between atoms: C9_23  and  O6_24 
REMARK    6  A    between atoms: C10_26  and  O7_27 
ROOT
HETATM    1  C6  UNL     1      29.485  31.567  40.544  1.00  0.00     0.262 C 
HETATM    2  O1  UNL     1      29.616  31.843  39.213  1.00  0.00    -0.353 OA
HETATM    3  C7  UNL     1      28.409  31.752  38.587  1.00  0.00     0.180 C 
HETATM    4  C9  UNL     1      27.395  31.206  39.572  1.00  0.00     0.182 C 
HETATM    5  C10 UNL     1      28.023  31.573  40.890  1.00  0.00     0.198 C 
ENDROOT
BRANCH   1   6
HETATM    6  N5  UNL     1      30.233  32.513  41.313  1.00  0.00    -0.297 N 
HETATM    7  C3  UNL     1      29.904  33.783  41.671  1.00  0.00     0.142 A 
HETATM    8  N3  UNL     1      28.803  34.485  41.402  1.00  0.00    -0.336 N 
HETATM    9  C4  UNL     1      30.927  34.342  42.419  1.00  0.00     0.119 A 
HETATM   10  C2  UNL     1      28.717  35.740  41.877  1.00  0.00     0.183 A 
ATOM     11  H3  UNL     1      28.046  34.080  40.852  1.00  0.00     0.168 HD
HETATM   12  N2  UNL     1      29.706  36.312  42.614  1.00  0.00    -0.339 N 
HETATM   13  C1  UNL     1      30.832  35.636  42.905  1.00  0.00     0.148 A 
ATOM     14  H2  UNL     1      29.593  37.268  42.951  1.00  0.00     0.167 HD
HETATM   15  N1  UNL     1      31.902  36.177  43.669  1.00  0.00    -0.080 NA
HETATM   16  N4  UNL     1      31.868  33.393  42.503  1.00  0.00    -0.346 N 
HETATM   17  C5  UNL     1      31.452  32.301  41.842  1.00  0.00     0.188 A 
ATOM     18  H4  UNL     1      32.759  33.486  42.991  1.00  0.00     0.167 HD
ENDBRANCH   1   6
BRANCH   5  19
HETATM   19  O7  UNL     1      27.679  30.609  41.830  1.00  0.00    -0.388 OA
ATOM     20  H7  UNL     1      27.102  29.939  41.484  1.00  0.00     0.210 HD
ENDBRANCH   5  19
BRANCH   3  21
HETATM   21  C8  UNL     1      27.922  33.155  38.224  1.00  0.00     0.217 C 
BRANCH  21  22
HETATM   22  O2  UNL     1      26.588  33.158  38.065  1.00  0.00    -0.280 OA
BRANCH  22  23
HETATM   23  P1  UNL     1      25.718  34.493  38.063  1.00  0.00     0.422 P 
HETATM   24  O3  UNL     1      24.266  34.595  38.920  1.00  0.00    -0.617 OA
HETATM   25  O4  UNL     1      26.031  35.766  37.012  1.00  0.00    -0.617 OA
HETATM   26  O5  UNL     1      26.454  35.184  39.197  1.00  0.00    -0.617 OA
ENDBRANCH  22  23
ENDBRANCH  21  22
ENDBRANCH   3  21
BRANCH   4  27
HETATM   27  O6  UNL     1      27.372  29.830  39.465  1.00  0.00    -0.390 OA
ATOM     28  H6  UNL     1      26.593  29.505  39.899  1.00  0.00     0.210 HD
ENDBRANCH   4  27
TORSDOF 6
ENDMDL
