MODEL 1
REMARK VINA RESULT: -6.499730328      0.000      0.000
REMARK  6 active torsions:
REMARK  status: ('A' for Active; 'I' for Inactive)
REMARK    1  A    between atoms: N5_13  and  C6_14 
REMARK    2  A    between atoms: C7_16  and  C8_17 
REMARK    3  A    between atoms: C8_17  and  O2_18 
REMARK    4  A    between atoms: O2_18  and  P1_19 
REMARK    5  A    between atoms: C9_23  and  O6_24 
REMARK    6  A    between atoms: C10_26  and  O7_27 
ROOT
HETATM    1  C6  UNL     1      30.494  32.550  41.962  1.00  0.00     0.262 C 
HETATM    2  O1  UNL     1      30.199  32.672  40.634  1.00  0.00    -0.353 OA
HETATM    3  C7  UNL     1      28.852  32.619  40.438  1.00  0.00     0.180 C 
HETATM    4  C9  UNL     1      28.187  32.268  41.754  1.00  0.00     0.182 C 
HETATM    5  C10 UNL     1      29.223  32.717  42.748  1.00  0.00     0.198 C 
ENDROOT
BRANCH   1   6
HETATM    6  N5  UNL     1      31.494  33.504  42.329  1.00  0.00    -0.297 N 
HETATM    7  C3  UNL     1      31.370  34.842  42.540  1.00  0.00     0.142 A 
HETATM    8  N3  UNL     1      30.290  35.620  42.462  1.00  0.00    -0.336 N 
HETATM    9  C4  UNL     1      32.601  35.381  42.880  1.00  0.00     0.119 A 
HETATM   10  C2  UNL     1      30.432  36.932  42.721  1.00  0.00     0.183 A 
ATOM     11  H3  UNL     1      29.382  35.230  42.212  1.00  0.00     0.168 HD
HETATM   12  N2  UNL     1      31.627  37.486  43.056  1.00  0.00    -0.339 N 
HETATM   13  C1  UNL     1      32.739  36.734  43.145  1.00  0.00     0.148 A 
ATOM     14  H2  UNL     1      31.682  38.487  43.243  1.00  0.00     0.167 HD
HETATM   15  N1  UNL     1      34.017  37.251  43.490  1.00  0.00    -0.080 NA
HETATM   16  N4  UNL     1      33.457  34.352  42.869  1.00  0.00    -0.346 N 
HETATM   17  C5  UNL     1      32.794  33.231  42.540  1.00  0.00     0.188 A 
ATOM     18  H4  UNL     1      34.454  34.410  43.076  1.00  0.00     0.167 HD
ENDBRANCH   1   6
BRANCH   5  19
HETATM   19  O7  UNL     1      29.157  31.890  43.863  1.00  0.00    -0.388 OA
ATOM     20  H7  UNL     1      28.356  31.997  44.361  1.00  0.00     0.210 HD
ENDBRANCH   5  19
BRANCH   3  21
HETATM   21  C8  UNL     1      28.341  34.013  40.072  1.00  0.00     0.217 C 
BRANCH  21  22
HETATM   22  O2  UNL     1      27.001  34.005  39.971  1.00  0.00    -0.280 OA
BRANCH  22  23
HETATM   23  P1  UNL     1      26.236  34.127  38.578  1.00  0.00     0.422 P 
HETATM   24  O3  UNL     1      24.607  33.703  38.432  1.00  0.00    -0.617 OA
HETATM   25  O4  UNL     1      27.044  34.412  37.133  1.00  0.00    -0.617 OA
HETATM   26  O5  UNL     1      25.860  35.592  38.714  1.00  0.00    -0.617 OA
ENDBRANCH  22  23
ENDBRANCH  21  22
ENDBRANCH   3  21
BRANCH   4  27
HETATM   27  O6  UNL     1      28.066  30.896  41.835  1.00  0.00    -0.390 OA
ATOM     28  H6  UNL     1      28.332  30.619  42.703  1.00  0.00     0.210 HD
ENDBRANCH   4  27
TORSDOF 6
ENDMDL
