MODEL 3
REMARK VINA RESULT: -6.323589027      0.932      1.987
REMARK  6 active torsions:
REMARK  status: ('A' for Active; 'I' for Inactive)
REMARK    1  A    between atoms: N5_13  and  C6_14 
REMARK    2  A    between atoms: C7_16  and  C8_17 
REMARK    3  A    between atoms: C8_17  and  O2_18 
REMARK    4  A    between atoms: O2_18  and  P1_19 
REMARK    5  A    between atoms: C9_23  and  O6_24 
REMARK    6  A    between atoms: C10_26  and  O7_27 
ROOT
HETATM    1  C6  UNL     1      30.511  32.985  42.034  1.00  0.00     0.262 C 
HETATM    2  O1  UNL     1      30.350  33.193  40.694  1.00  0.00    -0.353 OA
HETATM    3  C7  UNL     1      29.072  32.905  40.317  1.00  0.00     0.180 C 
HETATM    4  C9  UNL     1      28.348  32.292  41.499  1.00  0.00     0.182 C 
HETATM    5  C10 UNL     1      29.152  32.819  42.656  1.00  0.00     0.198 C 
ENDROOT
BRANCH   1   6
HETATM    6  N5  UNL     1      31.248  34.066  42.610  1.00  0.00    -0.297 N 
HETATM    7  C3  UNL     1      32.565  34.128  42.945  1.00  0.00     0.142 A 
HETATM    8  N3  UNL     1      33.517  33.202  42.829  1.00  0.00    -0.336 N 
HETATM    9  C4  UNL     1      32.858  35.373  43.476  1.00  0.00     0.119 A 
HETATM   10  C2  UNL     1      34.760  33.512  43.239  1.00  0.00     0.183 A 
ATOM     11  H3  UNL     1      33.308  32.283  42.439  1.00  0.00     0.168 HD
HETATM   12  N2  UNL     1      35.073  34.727  43.763  1.00  0.00    -0.339 N 
HETATM   13  C1  UNL     1      34.141  35.687  43.897  1.00  0.00     0.148 A 
ATOM     14  H2  UNL     1      36.032  34.914  44.060  1.00  0.00     0.167 HD
HETATM   15  N1  UNL     1      34.404  36.975  44.437  1.00  0.00    -0.080 NA
HETATM   16  N4  UNL     1      31.704  36.052  43.454  1.00  0.00    -0.346 N 
HETATM   17  C5  UNL     1      30.743  35.270  42.935  1.00  0.00     0.188 A 
ATOM     18  H4  UNL     1      31.576  37.010  43.779  1.00  0.00     0.167 HD
ENDBRANCH   1   6
BRANCH   5  19
HETATM   19  O7  UNL     1      29.130  31.878  43.678  1.00  0.00    -0.388 OA
ATOM     20  H7  UNL     1      28.547  32.113  44.390  1.00  0.00     0.210 HD
ENDBRANCH   5  19
BRANCH   3  21
HETATM   21  C8  UNL     1      28.333  34.208  40.006  1.00  0.00     0.217 C 
BRANCH  21  22
HETATM   22  O2  UNL     1      27.013  33.980  39.911  1.00  0.00    -0.280 OA
BRANCH  22  23
HETATM   23  P1  UNL     1      26.204  34.134  38.546  1.00  0.00     0.422 P 
HETATM   24  O3  UNL     1      24.571  33.711  38.441  1.00  0.00    -0.617 OA
HETATM   25  O4  UNL     1      26.965  34.454  37.083  1.00  0.00    -0.617 OA
HETATM   26  O5  UNL     1      25.830  35.594  38.727  1.00  0.00    -0.617 OA
ENDBRANCH  22  23
ENDBRANCH  21  22
ENDBRANCH   3  21
BRANCH   4  27
HETATM   27  O6  UNL     1      28.500  30.922  41.447  1.00  0.00    -0.390 OA
ATOM     28  H6  UNL     1      29.388  30.725  41.175  1.00  0.00     0.210 HD
ENDBRANCH   4  27
TORSDOF 6
ENDMDL
