MODEL 4
REMARK VINA RESULT: -5.811126409      3.094      3.684
REMARK  6 active torsions:
REMARK  status: ('A' for Active; 'I' for Inactive)
REMARK    1  A    between atoms: N4_10  and  C5_11 
REMARK    2  A    between atoms: C6_13  and  C7_14 
REMARK    3  A    between atoms: C7_14  and  O2_15 
REMARK    4  A    between atoms: O2_15  and  P1_16 
REMARK    5  A    between atoms: C8_20  and  O6_21 
REMARK    6  A    between atoms: C9_23  and  O7_24 
ROOT
HETATM    1  C5  UNL     1      29.730  28.911  39.356  1.00  0.00     0.262 C 
HETATM    2  O1  UNL     1      31.127  28.828  39.158  1.00  0.00    -0.353 OA
HETATM    3  C6  UNL     1      31.326  27.448  39.287  1.00  0.00     0.180 C 
HETATM    4  C8  UNL     1      30.185  26.793  38.513  1.00  0.00     0.182 C 
HETATM    5  C9  UNL     1      29.263  27.969  38.265  1.00  0.00     0.198 C 
ENDROOT
BRANCH   1   6
HETATM    6  N4  UNL     1      29.241  30.237  39.198  1.00  0.00    -0.297 N 
HETATM    7  C2  UNL     1      29.042  31.111  40.196  1.00  0.00     0.146 A 
HETATM    8  N2  UNL     1      29.201  31.087  41.540  1.00  0.00    -0.314 N 
HETATM    9  C3  UNL     1      28.567  32.279  39.650  1.00  0.00     0.146 A 
HETATM   10  C1  UNL     1      28.913  32.141  42.314  1.00  0.00     0.196 A 
ATOM     11  H2  UNL     1      29.552  30.236  41.978  1.00  0.00     0.170 HD
HETATM   12  N1  UNL     1      29.082  32.108  43.724  1.00  0.00    -0.063 NA
HETATM   13  N5  UNL     1      28.442  33.297  41.770  1.00  0.00    -0.295 N 
HETATM   14  C10 UNL     1      28.272  33.364  40.452  1.00  0.00     0.278 A 
ATOM     15  H5  UNL     1      28.224  34.098  42.363  1.00  0.00     0.171 HD
HETATM   16  O8  UNL     1      27.837  34.428  39.942  1.00  0.00    -0.265 OA
HETATM   17  N3  UNL     1      28.487  32.089  38.323  1.00  0.00    -0.345 N 
HETATM   18  C4  UNL     1      28.905  30.828  38.061  1.00  0.00     0.188 A 
ATOM     19  H3  UNL     1      28.168  32.772  37.635  1.00  0.00     0.167 HD
ENDBRANCH   1   6
BRANCH   5  20
HETATM   20  O7  UNL     1      27.927  27.620  38.420  1.00  0.00    -0.388 OA
ATOM     21  H7  UNL     1      27.604  27.833  39.287  1.00  0.00     0.210 HD
ENDBRANCH   5  20
BRANCH   3  22
HETATM   22  C7  UNL     1      32.603  26.985  38.695  1.00  0.00     0.217 C 
BRANCH  22  23
HETATM   23  O2  UNL     1      33.556  27.267  39.703  1.00  0.00    -0.280 OA
BRANCH  23  24
HETATM   24  P1  UNL     1      33.601  26.256  40.855  1.00  0.00     0.422 P 
HETATM   25  O3  UNL     1      33.553  25.375  42.116  1.00  0.00    -0.617 OA
HETATM   26  O4  UNL     1      34.415  27.404  41.759  1.00  0.00    -0.617 OA
HETATM   27  O5  UNL     1      34.506  25.190  40.011  1.00  0.00    -0.617 OA
ENDBRANCH  23  24
ENDBRANCH  22  23
ENDBRANCH   3  22
BRANCH   4  28
HETATM   28  O6  UNL     1      29.483  25.925  39.376  1.00  0.00    -0.390 OA
ATOM     29  H6  UNL     1      29.202  26.411  40.143  1.00  0.00     0.210 HD
ENDBRANCH   4  28
TORSDOF 6
ENDMDL
