MODEL 1
REMARK VINA RESULT: -6.247143205      0.000      0.000
REMARK  6 active torsions:
REMARK  status: ('A' for Active; 'I' for Inactive)
REMARK    1  A    between atoms: N4_10  and  C5_11 
REMARK    2  A    between atoms: C6_13  and  C7_14 
REMARK    3  A    between atoms: C7_14  and  O2_15 
REMARK    4  A    between atoms: O2_15  and  P1_16 
REMARK    5  A    between atoms: C8_20  and  O6_21 
REMARK    6  A    between atoms: C9_23  and  O7_24 
ROOT
HETATM    1  C5  UNL     1      28.939  30.027  38.665  1.00  0.00     0.262 C 
HETATM    2  O1  UNL     1      29.067  29.727  37.289  1.00  0.00    -0.353 OA
HETATM    3  C6  UNL     1      29.162  28.330  37.336  1.00  0.00     0.180 C 
HETATM    4  C8  UNL     1      28.108  27.879  38.343  1.00  0.00     0.182 C 
HETATM    5  C9  UNL     1      27.718  29.192  38.992  1.00  0.00     0.198 C 
ENDROOT
BRANCH   1   6
HETATM    6  N4  UNL     1      28.746  31.416  38.897  1.00  0.00    -0.297 N 
HETATM    7  C2  UNL     1      28.764  32.008  40.101  1.00  0.00     0.146 A 
HETATM    8  N2  UNL     1      28.945  31.588  41.375  1.00  0.00    -0.314 N 
HETATM    9  C3  UNL     1      28.541  33.351  39.918  1.00  0.00     0.146 A 
HETATM   10  C1  UNL     1      28.910  32.427  42.417  1.00  0.00     0.196 A 
ATOM     11  H2  UNL     1      29.113  30.597  41.547  1.00  0.00     0.170 HD
HETATM   12  N1  UNL     1      29.100  31.979  43.752  1.00  0.00    -0.063 NA
HETATM   13  N5  UNL     1      28.688  33.758  42.233  1.00  0.00    -0.295 N 
HETATM   14  C10 UNL     1      28.506  34.213  40.997  1.00  0.00     0.278 A 
ATOM     15  H5  UNL     1      28.663  34.395  43.030  1.00  0.00     0.171 HD
HETATM   16  O8  UNL     1      28.301  35.441  40.818  1.00  0.00    -0.265 OA
HETATM   17  N3  UNL     1      28.391  33.549  38.598  1.00  0.00    -0.345 N 
HETATM   18  C4  UNL     1      28.520  32.349  37.984  1.00  0.00     0.188 A 
ATOM     19  H3  UNL     1      28.212  34.443  38.141  1.00  0.00     0.167 HD
ENDBRANCH   1   6
BRANCH   5  20
HETATM   20  O7  UNL     1      27.537  29.056  40.363  1.00  0.00    -0.388 OA
ATOM     21  H7  UNL     1      27.094  28.245  40.583  1.00  0.00     0.210 HD
ENDBRANCH   5  20
BRANCH   3  22
HETATM   22  C7  UNL     1      28.858  27.682  36.038  1.00  0.00     0.217 C 
BRANCH  22  23
HETATM   23  O2  UNL     1      28.293  26.440  36.414  1.00  0.00    -0.280 OA
BRANCH  23  24
HETATM   24  P1  UNL     1      28.943  25.209  35.769  1.00  0.00     0.422 P 
HETATM   25  O3  UNL     1      29.491  23.870  35.248  1.00  0.00    -0.617 OA
HETATM   26  O4  UNL     1      29.531  24.796  37.279  1.00  0.00    -0.617 OA
HETATM   27  O5  UNL     1      29.914  26.106  34.809  1.00  0.00    -0.617 OA
ENDBRANCH  23  24
ENDBRANCH  22  23
ENDBRANCH   3  22
BRANCH   4  28
HETATM   28  O6  UNL     1      28.733  27.118  39.353  1.00  0.00    -0.390 OA
ATOM     29  H6  UNL     1      28.112  26.482  39.690  1.00  0.00     0.210 HD
ENDBRANCH   4  28
TORSDOF 6
ENDMDL
