MODEL 2
REMARK VINA RESULT: -5.942228342      4.692      6.579
REMARK  6 active torsions:
REMARK  status: ('A' for Active; 'I' for Inactive)
REMARK    1  A    between atoms: N4_10  and  C5_11 
REMARK    2  A    between atoms: C6_13  and  C7_14 
REMARK    3  A    between atoms: C7_14  and  O2_15 
REMARK    4  A    between atoms: O2_15  and  P1_16 
REMARK    5  A    between atoms: C8_20  and  O6_21 
REMARK    6  A    between atoms: C9_23  and  O7_24 
ROOT
HETATM    1  C5  UNL     1      29.910  33.428  41.363  1.00  0.00     0.262 C 
HETATM    2  O1  UNL     1      28.877  33.806  40.475  1.00  0.00    -0.353 OA
HETATM    3  C6  UNL     1      28.532  32.561  39.934  1.00  0.00     0.180 C 
HETATM    4  C8  UNL     1      28.505  31.593  41.113  1.00  0.00     0.182 C 
HETATM    5  C9  UNL     1      29.161  32.414  42.204  1.00  0.00     0.198 C 
ENDROOT
BRANCH   1   6
HETATM    6  N4  UNL     1      30.401  34.528  42.118  1.00  0.00    -0.297 N 
HETATM    7  C2  UNL     1      31.574  34.558  42.767  1.00  0.00     0.146 A 
HETATM    8  N2  UNL     1      32.599  33.691  42.938  1.00  0.00    -0.314 N 
HETATM    9  C3  UNL     1      31.693  35.784  43.377  1.00  0.00     0.146 A 
HETATM   10  C1  UNL     1      33.683  33.997  43.662  1.00  0.00     0.196 A 
ATOM     11  H2  UNL     1      32.544  32.772  42.500  1.00  0.00     0.170 HD
HETATM   12  N1  UNL     1      34.755  33.082  43.837  1.00  0.00    -0.063 NA
HETATM   13  N5  UNL     1      33.798  35.213  44.264  1.00  0.00    -0.295 N 
HETATM   14  C10 UNL     1      32.812  36.096  44.122  1.00  0.00     0.278 A 
ATOM     15  H5  UNL     1      34.625  35.443  44.815  1.00  0.00     0.171 HD
HETATM   16  O8  UNL     1      32.910  37.221  44.674  1.00  0.00    -0.265 OA
HETATM   17  N3  UNL     1      30.581  36.479  43.082  1.00  0.00    -0.345 N 
HETATM   18  C4  UNL     1      29.797  35.692  42.307  1.00  0.00     0.188 A 
ATOM     19  H3  UNL     1      30.367  37.428  43.387  1.00  0.00     0.167 HD
ENDBRANCH   1   6
BRANCH   5  20
HETATM   20  O7  UNL     1      30.023  31.648  42.979  1.00  0.00    -0.388 OA
ATOM     21  H7  UNL     1      30.067  31.963  43.874  1.00  0.00     0.210 HD
ENDBRANCH   5  20
BRANCH   3  22
HETATM   22  C7  UNL     1      27.190  32.551  39.305  1.00  0.00     0.217 C 
BRANCH  22  23
HETATM   23  O2  UNL     1      26.749  33.889  39.448  1.00  0.00    -0.280 OA
BRANCH  23  24
HETATM   24  P1  UNL     1      25.839  34.396  38.323  1.00  0.00     0.422 P 
HETATM   25  O3  UNL     1      24.943  34.728  37.117  1.00  0.00    -0.617 OA
HETATM   26  O4  UNL     1      27.054  34.012  37.240  1.00  0.00    -0.617 OA
HETATM   27  O5  UNL     1      25.811  35.922  38.903  1.00  0.00    -0.617 OA
ENDBRANCH  23  24
ENDBRANCH  22  23
ENDBRANCH   3  22
BRANCH   4  28
HETATM   28  O6  UNL     1      29.386  30.522  40.849  1.00  0.00    -0.390 OA
ATOM     29  H6  UNL     1      28.972  29.708  41.111  1.00  0.00     0.210 HD
ENDBRANCH   4  28
TORSDOF 6
ENDMDL
