MODEL 11
REMARK VINA RESULT: -5.766735352      5.781      7.042
REMARK  1 active torsions:
REMARK  status: ('A' for Active; 'I' for Inactive)
REMARK    1  A    between atoms: C1_2  and  C2_4 
ROOT
HETATM    1  C2  UNL     1      16.094   9.673   3.982  1.00  0.00     0.253 C 
HETATM    2  C3  UNL     1      14.699   9.409   3.496  1.00  0.00     0.219 C 
HETATM    3  O3  UNL     1      13.881   8.769   4.432  1.00  0.00    -0.345 OA
HETATM    4  C4  UNL     1      14.065   8.850   5.807  1.00  0.00     0.102 A 
HETATM    5  C5  UNL     1      13.041   8.742   6.718  1.00  0.00     0.039 A 
HETATM    6  C6  UNL     1      13.294   8.832   8.056  1.00  0.00     0.003 A 
HETATM    7  C7  UNL     1      14.605   9.034   8.486  1.00  0.00     0.003 A 
HETATM    8  C8  UNL     1      15.647   9.145   7.597  1.00  0.00     0.040 A 
HETATM    9  C9  UNL     1      15.362   9.051   6.243  1.00  0.00     0.103 A 
HETATM   10  O4  UNL     1      16.341   9.150   5.273  1.00  0.00    -0.330 OA
ENDROOT
BRANCH   1  11
HETATM   11  C1  UNL     1      16.347  11.132   4.044  1.00  0.00     0.205 C 
HETATM   12  O1  UNL     1      15.365  11.896   4.167  1.00  0.00    -0.646 OA
HETATM   13  O2  UNL     1      17.621  11.661   3.970  1.00  0.00    -0.646 OA
ENDBRANCH   1  11
TORSDOF 1
ENDMDL
