MODEL 9
REMARK VINA RESULT: -5.788523244      6.374      7.704
REMARK  1 active torsions:
REMARK  status: ('A' for Active; 'I' for Inactive)
REMARK    1  A    between atoms: C1_2  and  C2_4 
ROOT
HETATM    1  C2  UNL     1      15.208  10.433   4.435  1.00  0.00     0.253 C 
HETATM    2  C3  UNL     1      16.277   9.395   4.618  1.00  0.00     0.219 C 
HETATM    3  O3  UNL     1      16.420   8.951   5.937  1.00  0.00    -0.345 OA
HETATM    4  C4  UNL     1      15.400   8.980   6.880  1.00  0.00     0.102 A 
HETATM    5  C5  UNL     1      15.307   8.092   7.926  1.00  0.00     0.039 A 
HETATM    6  C6  UNL     1      14.277   8.179   8.816  1.00  0.00     0.003 A 
HETATM    7  C7  UNL     1      13.319   9.179   8.650  1.00  0.00     0.003 A 
HETATM    8  C8  UNL     1      13.388  10.079   7.614  1.00  0.00     0.040 A 
HETATM    9  C9  UNL     1      14.445   9.968   6.723  1.00  0.00     0.103 A 
HETATM   10  O4  UNL     1      14.600  10.825   5.651  1.00  0.00    -0.330 OA
ENDROOT
BRANCH   1  11
HETATM   11  C1  UNL     1      14.135   9.913   3.554  1.00  0.00     0.205 C 
HETATM   12  O1  UNL     1      13.532  10.725   2.818  1.00  0.00    -0.646 OA
HETATM   13  O2  UNL     1      13.790   8.576   3.528  1.00  0.00    -0.646 OA
ENDBRANCH   1  11
TORSDOF 1
ENDMDL
