MODEL 3
REMARK VINA RESULT: -6.168593355      1.859      2.655
REMARK  1 active torsions:
REMARK  status: ('A' for Active; 'I' for Inactive)
REMARK    1  A    between atoms: C1_2  and  C2_4 
ROOT
HETATM    1  C2  UNL     1      17.744  10.874   0.689  1.00  0.00     0.253 C 
HETATM    2  C3  UNL     1      16.985  10.459  -0.538  1.00  0.00     0.219 C 
HETATM    3  O3  UNL     1      15.717   9.932  -0.273  1.00  0.00    -0.345 OA
HETATM    4  C4  UNL     1      14.969  10.242   0.857  1.00  0.00     0.102 A 
HETATM    5  C5  UNL     1      13.595  10.225   0.887  1.00  0.00     0.039 A 
HETATM    6  C6  UNL     1      12.925  10.540   2.033  1.00  0.00     0.003 A 
HETATM    7  C7  UNL     1      13.653  10.880   3.173  1.00  0.00     0.003 A 
HETATM    8  C8  UNL     1      15.026  10.905   3.170  1.00  0.00     0.040 A 
HETATM    9  C9  UNL     1      15.683  10.580   1.993  1.00  0.00     0.103 A 
HETATM   10  O4  UNL     1      17.060  10.577   1.891  1.00  0.00    -0.330 OA
ENDROOT
BRANCH   1  11
HETATM   11  C1  UNL     1      17.987  12.335   0.670  1.00  0.00     0.205 C 
HETATM   12  O1  UNL     1      18.188  12.886  -0.435  1.00  0.00    -0.646 OA
HETATM   13  O2  UNL     1      17.999  13.093   1.825  1.00  0.00    -0.646 OA
ENDBRANCH   1  11
TORSDOF 1
ENDMDL
