MODEL 2
REMARK VINA RESULT: -6.446245630      1.643      2.712
REMARK  1 active torsions:
REMARK  status: ('A' for Active; 'I' for Inactive)
REMARK    1  A    between atoms: C1_2  and  C2_4 
ROOT
HETATM    1  C2  UNL     1      18.222  12.277   0.441  1.00  0.00     0.253 C 
HETATM    2  C3  UNL     1      17.529  12.039   1.751  1.00  0.00     0.219 C 
HETATM    3  O3  UNL     1      16.247  11.495   1.628  1.00  0.00    -0.345 OA
HETATM    4  C4  UNL     1      15.831  10.729   0.545  1.00  0.00     0.102 A 
HETATM    5  C5  UNL     1      14.863   9.756   0.631  1.00  0.00     0.039 A 
HETATM    6  C6  UNL     1      14.503   9.041  -0.474  1.00  0.00     0.003 A 
HETATM    7  C7  UNL     1      15.130   9.310  -1.690  1.00  0.00     0.003 A 
HETATM    8  C8  UNL     1      16.100  10.276  -1.803  1.00  0.00     0.040 A 
HETATM    9  C9  UNL     1      16.447  10.988  -0.665  1.00  0.00     0.103 A 
HETATM   10  O4  UNL     1      17.411  11.979  -0.678  1.00  0.00    -0.330 OA
ENDROOT
BRANCH   1  11
HETATM   11  C1  UNL     1      19.435  11.431   0.343  1.00  0.00     0.205 C 
HETATM   12  O1  UNL     1      20.523  11.990   0.080  1.00  0.00    -0.646 OA
HETATM   13  O2  UNL     1      19.395  10.064   0.529  1.00  0.00    -0.646 OA
ENDBRANCH   1  11
TORSDOF 1
ENDMDL
