MODEL 1
REMARK VINA RESULT: -6.460419387      0.000      0.000
REMARK  1 active torsions:
REMARK  status: ('A' for Active; 'I' for Inactive)
REMARK    1  A    between atoms: C1_2  and  C2_4 
ROOT
HETATM    1  C2  UNL     1      17.623  10.877   0.538  1.00  0.00     0.253 C 
HETATM    2  C3  UNL     1      18.186  10.698  -0.842  1.00  0.00     0.219 C 
HETATM    3  O3  UNL     1      17.290  10.130  -1.754  1.00  0.00    -0.345 OA
HETATM    4  C4  UNL     1      15.907  10.223  -1.643  1.00  0.00     0.102 A 
HETATM    5  C5  UNL     1      15.056  10.200  -2.722  1.00  0.00     0.039 A 
HETATM    6  C6  UNL     1      13.707  10.296  -2.540  1.00  0.00     0.003 A 
HETATM    7  C7  UNL     1      13.205  10.418  -1.245  1.00  0.00     0.003 A 
HETATM    8  C8  UNL     1      14.034  10.444  -0.149  1.00  0.00     0.040 A 
HETATM    9  C9  UNL     1      15.400  10.345  -0.362  1.00  0.00     0.103 A 
HETATM   10  O4  UNL     1      16.313  10.361   0.675  1.00  0.00    -0.330 OA
ENDROOT
BRANCH   1  11
HETATM   11  C1  UNL     1      17.567  12.317   0.885  1.00  0.00     0.205 C 
HETATM   12  O1  UNL     1      17.945  13.145   0.027  1.00  0.00    -0.646 OA
HETATM   13  O2  UNL     1      17.116  12.760   2.112  1.00  0.00    -0.646 OA
ENDBRANCH   1  11
TORSDOF 1
ENDMDL
