MODEL 1
REMARK VINA RESULT: -10.051502445      0.000      0.000
REMARK  12 active torsions:
REMARK  status: ('A' for Active; 'I' for Inactive)
REMARK    1  A    between atoms: O1_1  and  C1_3 
REMARK    2  A    between atoms: C3_6  and  O3_7 
REMARK    3  A    between atoms: O3_7  and  C4_8 
REMARK    4  A    between atoms: C6_11  and  O5_12 
REMARK    5  A    between atoms: O5_12  and  C7_13 
REMARK    6  A    between atoms: C9_16  and  O7_17 
REMARK    7  A    between atoms: C10_19  and  O8_20 
REMARK    8  A    between atoms: C11_22  and  O9_23 
REMARK    9  A    between atoms: C12_25  and  O10_26 
REMARK   10  A    between atoms: C13_28  and  O11_29 
REMARK   11  A    between atoms: C14_31  and  O12_32 
REMARK   12  A    between atoms: C15_34  and  O13_35 
ROOT
HETATM    1  C4  UNL     1       1.917  19.883  25.786  1.00  0.00     0.180 C 
HETATM    2  C5  UNL     1       2.347  21.122  25.057  1.00  0.00     0.205 C 
HETATM    3  O4  UNL     1       1.594  21.445  23.970  1.00  0.00    -0.356 OA
HETATM    4  C6  UNL     1       0.243  21.563  24.187  1.00  0.00     0.291 C 
HETATM    5  C12 UNL     1      -0.206  20.995  25.500  1.00  0.00     0.204 C 
HETATM    6  C13 UNL     1       0.432  19.616  25.621  1.00  0.00     0.182 C 
ENDROOT
BRANCH   1   7
HETATM    7  O3  UNL     1       2.098  20.139  27.162  1.00  0.00    -0.348 OA
BRANCH   7   8
HETATM    8  C3  UNL     1       3.326  19.683  27.557  1.00  0.00     0.291 C 
HETATM    9  O2  UNL     1       3.275  18.492  28.288  1.00  0.00    -0.356 OA
HETATM   10  C2  UNL     1       4.524  17.898  28.178  1.00  0.00     0.205 C 
HETATM   11  C1  UNL     1       5.643  18.721  28.699  1.00  0.00     0.173 C 
HETATM   12  C15 UNL     1       5.520  20.189  28.453  1.00  0.00     0.182 C 
HETATM   13  C14 UNL     1       4.083  20.673  28.428  1.00  0.00     0.204 C 
BRANCH  11  14
HETATM   14  O1  UNL     1       6.822  18.295  28.043  1.00  0.00    -0.391 OA
ATOM     15  H1  UNL     1       7.550  18.466  28.629  1.00  0.00     0.210 HD
ENDBRANCH  11  14
BRANCH  12  16
HETATM   16  O13 UNL     1       6.248  20.916  29.369  1.00  0.00    -0.390 OA
ATOM     17  H13 UNL     1       6.255  21.841  29.151  1.00  0.00     0.210 HD
ENDBRANCH  12  16
BRANCH  13  18
HETATM   18  O12 UNL     1       4.039  21.955  27.940  1.00  0.00    -0.388 OA
ATOM     19  H12 UNL     1       3.512  22.536  28.475  1.00  0.00     0.210 HD
ENDBRANCH  13  18
ENDBRANCH   7   8
ENDBRANCH   1   7
BRANCH   6  20
HETATM   20  O11 UNL     1      -0.087  18.931  26.717  1.00  0.00    -0.390 OA
ATOM     21  H11 UNL     1      -1.004  19.141  26.856  1.00  0.00     0.210 HD
ENDBRANCH   6  20
BRANCH   5  22
HETATM   22  O10 UNL     1       0.318  21.747  26.573  1.00  0.00    -0.388 OA
ATOM     23  H10 UNL     1       1.183  21.435  26.810  1.00  0.00     0.210 HD
ENDBRANCH   5  22
BRANCH   4  24
HETATM   24  O5  UNL     1      -0.393  20.825  23.176  1.00  0.00    -0.348 OA
BRANCH  24  25
HETATM   25  C7  UNL     1      -1.076  21.616  22.281  1.00  0.00     0.180 C 
HETATM   26  C8  UNL     1      -1.384  22.986  22.900  1.00  0.00     0.205 C 
HETATM   27  O6  UNL     1      -0.896  24.023  22.143  1.00  0.00    -0.356 OA
HETATM   28  C9  UNL     1      -1.375  24.060  20.858  1.00  0.00     0.288 C 
HETATM   29  C10 UNL     1      -1.151  22.760  20.136  1.00  0.00     0.204 C 
HETATM   30  C11 UNL     1      -0.277  21.885  21.037  1.00  0.00     0.182 C 
BRANCH  28  31
HETATM   31  O7  UNL     1      -0.651  25.047  20.159  1.00  0.00    -0.369 OA
ATOM     32  H7  UNL     1      -1.255  25.747  19.937  1.00  0.00     0.212 HD
ENDBRANCH  28  31
BRANCH  29  33
HETATM   33  O8  UNL     1      -0.547  22.944  18.893  1.00  0.00    -0.388 OA
ATOM     34  H8  UNL     1      -0.754  22.244  18.285  1.00  0.00     0.210 HD
ENDBRANCH  29  33
BRANCH  30  35
HETATM   35  O9  UNL     1       0.149  20.758  20.378  1.00  0.00    -0.390 OA
ATOM     36  H9  UNL     1       0.456  20.912  19.492  1.00  0.00     0.210 HD
ENDBRANCH  30  35
ENDBRANCH  24  25
ENDBRANCH   4  24
TORSDOF 12
ENDMDL
