MODEL 3
REMARK VINA RESULT: -9.346403593      4.150      9.394
REMARK  12 active torsions:
REMARK  status: ('A' for Active; 'I' for Inactive)
REMARK    1  A    between atoms: O1_1  and  C1_3 
REMARK    2  A    between atoms: C3_6  and  O3_7 
REMARK    3  A    between atoms: O3_7  and  C4_8 
REMARK    4  A    between atoms: C6_11  and  O5_12 
REMARK    5  A    between atoms: O5_12  and  C7_13 
REMARK    6  A    between atoms: C9_16  and  O7_17 
REMARK    7  A    between atoms: C10_19  and  O8_20 
REMARK    8  A    between atoms: C11_22  and  O9_23 
REMARK    9  A    between atoms: C12_25  and  O10_26 
REMARK   10  A    between atoms: C13_28  and  O11_29 
REMARK   11  A    between atoms: C14_31  and  O12_32 
REMARK   12  A    between atoms: C15_34  and  O13_35 
ROOT
HETATM    1  C4  UNL     1      -1.759  22.146  20.301  1.00  0.00     0.180 C 
HETATM    2  C5  UNL     1      -2.663  22.860  21.262  1.00  0.00     0.205 C 
HETATM    3  O4  UNL     1      -3.017  22.144  22.365  1.00  0.00    -0.356 OA
HETATM    4  C6  UNL     1      -1.980  21.629  23.105  1.00  0.00     0.291 C 
HETATM    5  C12 UNL     1      -0.661  21.661  22.395  1.00  0.00     0.204 C 
HETATM    6  C13 UNL     1      -0.903  21.103  20.997  1.00  0.00     0.182 C 
ENDROOT
BRANCH   1   7
HETATM    7  O3  UNL     1      -0.850  23.106  19.811  1.00  0.00    -0.348 OA
BRANCH   7   8
HETATM    8  C3  UNL     1      -1.271  23.557  18.589  1.00  0.00     0.291 C 
HETATM    9  O2  UNL     1      -2.092  22.653  17.909  1.00  0.00    -0.356 OA
HETATM   10  C2  UNL     1      -2.829  23.390  16.992  1.00  0.00     0.205 C 
HETATM   11  C1  UNL     1      -2.011  24.121  15.994  1.00  0.00     0.173 C 
HETATM   12  C15 UNL     1      -0.734  24.693  16.517  1.00  0.00     0.182 C 
HETATM   13  C14 UNL     1      -0.127  23.873  17.639  1.00  0.00     0.204 C 
BRANCH  11  14
HETATM   14  O1  UNL     1      -2.786  25.211  15.531  1.00  0.00    -0.391 OA
ATOM     15  H1  UNL     1      -2.333  25.583  14.784  1.00  0.00     0.210 HD
ENDBRANCH  11  14
BRANCH  12  16
HETATM   16  O13 UNL     1       0.187  24.871  15.508  1.00  0.00    -0.390 OA
ATOM     17  H13 UNL     1       1.062  24.999  15.857  1.00  0.00     0.210 HD
ENDBRANCH  12  16
BRANCH  13  18
HETATM   18  O12 UNL     1       0.881  24.589  18.236  1.00  0.00    -0.388 OA
ATOM     19  H12 UNL     1       1.491  24.961  17.611  1.00  0.00     0.210 HD
ENDBRANCH  13  18
ENDBRANCH   7   8
ENDBRANCH   1   7
BRANCH   6  20
HETATM   20  O11 UNL     1       0.306  20.909  20.332  1.00  0.00    -0.390 OA
ATOM     21  H11 UNL     1       0.225  20.256  19.647  1.00  0.00     0.210 HD
ENDBRANCH   6  20
BRANCH   5  22
HETATM   22  O10 UNL     1      -0.233  22.992  22.200  1.00  0.00    -0.388 OA
ATOM     23  H10 UNL     1       0.472  23.027  21.563  1.00  0.00     0.210 HD
ENDBRANCH   5  22
BRANCH   4  24
HETATM   24  O5  UNL     1      -2.290  20.281  23.347  1.00  0.00    -0.348 OA
BRANCH  24  25
HETATM   25  C7  UNL     1      -1.556  19.736  24.375  1.00  0.00     0.180 C 
HETATM   26  C8  UNL     1      -1.292  20.785  25.463  1.00  0.00     0.205 C 
HETATM   27  O6  UNL     1      -1.736  20.382  26.698  1.00  0.00    -0.356 OA
HETATM   28  C9  UNL     1      -1.180  19.210  27.144  1.00  0.00     0.288 C 
HETATM   29  C10 UNL     1      -1.355  18.091  26.155  1.00  0.00     0.204 C 
HETATM   30  C11 UNL     1      -2.279  18.603  25.049  1.00  0.00     0.182 C 
BRANCH  28  31
HETATM   31  O7  UNL     1      -1.864  18.830  28.318  1.00  0.00    -0.369 OA
ATOM     32  H7  UNL     1      -1.231  18.438  28.908  1.00  0.00     0.212 HD
ENDBRANCH  28  31
BRANCH  29  33
HETATM   33  O8  UNL     1      -1.883  16.942  26.744  1.00  0.00    -0.388 OA
ATOM     34  H8  UNL     1      -1.736  16.167  26.216  1.00  0.00     0.210 HD
ENDBRANCH  29  33
BRANCH  30  35
HETATM   35  O9  UNL     1      -2.660  17.589  24.205  1.00  0.00    -0.390 OA
ATOM     36  H9  UNL     1      -2.470  16.716  24.528  1.00  0.00     0.210 HD
ENDBRANCH  30  35
ENDBRANCH  24  25
ENDBRANCH   4  24
TORSDOF 12
ENDMDL
