MODEL 4
REMARK VINA RESULT: -9.132326503      3.762      8.939
REMARK  12 active torsions:
REMARK  status: ('A' for Active; 'I' for Inactive)
REMARK    1  A    between atoms: O1_1  and  C1_3 
REMARK    2  A    between atoms: C3_6  and  O3_7 
REMARK    3  A    between atoms: O3_7  and  C4_8 
REMARK    4  A    between atoms: C6_11  and  O5_12 
REMARK    5  A    between atoms: O5_12  and  C7_13 
REMARK    6  A    between atoms: C9_16  and  O7_17 
REMARK    7  A    between atoms: C10_19  and  O8_20 
REMARK    8  A    between atoms: C11_22  and  O9_23 
REMARK    9  A    between atoms: C12_25  and  O10_26 
REMARK   10  A    between atoms: C13_28  and  O11_29 
REMARK   11  A    between atoms: C14_31  and  O12_32 
REMARK   12  A    between atoms: C15_34  and  O13_35 
ROOT
HETATM    1  C4  UNL     1      -1.878  22.424  20.585  1.00  0.00     0.180 C 
HETATM    2  C5  UNL     1      -0.857  23.312  21.233  1.00  0.00     0.205 C 
HETATM    3  O4  UNL     1      -0.698  23.130  22.573  1.00  0.00    -0.356 OA
HETATM    4  C6  UNL     1      -0.420  21.847  22.977  1.00  0.00     0.291 C 
HETATM    5  C12 UNL     1      -0.665  20.816  21.916  1.00  0.00     0.204 C 
HETATM    6  C13 UNL     1      -2.041  21.112  21.330  1.00  0.00     0.182 C 
ENDROOT
BRANCH   1   7
HETATM    7  O3  UNL     1      -1.363  22.071  19.320  1.00  0.00    -0.348 OA
BRANCH   7   8
HETATM    8  C3  UNL     1      -1.060  23.204  18.614  1.00  0.00     0.291 C 
HETATM    9  O2  UNL     1      -1.975  23.496  17.598  1.00  0.00    -0.356 OA
HETATM   10  C2  UNL     1      -1.859  24.852  17.329  1.00  0.00     0.205 C 
HETATM   11  C1  UNL     1      -0.510  25.274  16.879  1.00  0.00     0.173 C 
HETATM   12  C15 UNL     1       0.629  24.572  17.543  1.00  0.00     0.182 C 
HETATM   13  C14 UNL     1       0.302  23.146  17.941  1.00  0.00     0.204 C 
BRANCH  11  14
HETATM   14  O1  UNL     1      -0.375  26.650  17.185  1.00  0.00    -0.391 OA
ATOM     15  H1  UNL     1       0.334  26.990  16.652  1.00  0.00     0.210 HD
ENDBRANCH  11  14
BRANCH  12  16
HETATM   16  O13 UNL     1       1.761  24.597  16.758  1.00  0.00    -0.390 OA
ATOM     17  H13 UNL     1       2.453  24.062  17.131  1.00  0.00     0.210 HD
ENDBRANCH  12  16
BRANCH  13  18
HETATM   18  O12 UNL     1       1.286  22.664  18.768  1.00  0.00    -0.388 OA
ATOM     19  H12 UNL     1       2.001  22.257  18.293  1.00  0.00     0.210 HD
ENDBRANCH  13  18
ENDBRANCH   7   8
ENDBRANCH   1   7
BRANCH   6  20
HETATM   20  O11 UNL     1      -2.439  20.086  20.475  1.00  0.00    -0.390 OA
ATOM     21  H11 UNL     1      -3.384  20.060  20.379  1.00  0.00     0.210 HD
ENDBRANCH   6  20
BRANCH   5  22
HETATM   22  O10 UNL     1       0.241  20.977  20.847  1.00  0.00    -0.388 OA
ATOM     23  H10 UNL     1       0.214  21.867  20.515  1.00  0.00     0.210 HD
ENDBRANCH   5  22
BRANCH   4  24
HETATM   24  O5  UNL     1      -1.290  21.563  24.041  1.00  0.00    -0.348 OA
BRANCH  24  25
HETATM   25  C7  UNL     1      -0.879  20.493  24.803  1.00  0.00     0.180 C 
HETATM   26  C8  UNL     1      -0.308  20.974  26.143  1.00  0.00     0.205 C 
HETATM   27  O6  UNL     1      -0.945  20.406  27.218  1.00  0.00    -0.356 OA
HETATM   28  C9  UNL     1      -0.899  19.035  27.244  1.00  0.00     0.288 C 
HETATM   29  C10 UNL     1      -1.419  18.429  25.970  1.00  0.00     0.204 C 
HETATM   30  C11 UNL     1      -2.014  19.566  25.137  1.00  0.00     0.182 C 
BRANCH  28  31
HETATM   31  O7  UNL     1      -1.745  18.597  28.283  1.00  0.00    -0.369 OA
ATOM     32  H7  UNL     1      -1.989  19.357  28.798  1.00  0.00     0.212 HD
ENDBRANCH  28  31
BRANCH  29  33
HETATM   33  O8  UNL     1      -2.374  17.441  26.207  1.00  0.00    -0.388 OA
ATOM     34  H8  UNL     1      -2.011  16.566  26.139  1.00  0.00     0.210 HD
ENDBRANCH  29  33
BRANCH  30  35
HETATM   35  O9  UNL     1      -2.695  19.083  24.046  1.00  0.00    -0.390 OA
ATOM     36  H9  UNL     1      -2.299  18.321  23.641  1.00  0.00     0.210 HD
ENDBRANCH  30  35
ENDBRANCH  24  25
ENDBRANCH   4  24
TORSDOF 12
ENDMDL
