MODEL 2
REMARK VINA RESULT: -9.513154135      3.557      5.835
REMARK  12 active torsions:
REMARK  status: ('A' for Active; 'I' for Inactive)
REMARK    1  A    between atoms: O1_1  and  C1_3 
REMARK    2  A    between atoms: C3_6  and  O3_7 
REMARK    3  A    between atoms: O3_7  and  C4_8 
REMARK    4  A    between atoms: C6_11  and  O5_12 
REMARK    5  A    between atoms: O5_12  and  C7_13 
REMARK    6  A    between atoms: C9_16  and  O7_17 
REMARK    7  A    between atoms: C10_19  and  O8_20 
REMARK    8  A    between atoms: C11_22  and  O9_23 
REMARK    9  A    between atoms: C12_25  and  O10_26 
REMARK   10  A    between atoms: C13_28  and  O11_29 
REMARK   11  A    between atoms: C14_31  and  O12_32 
REMARK   12  A    between atoms: C15_34  and  O13_35 
ROOT
HETATM    1  C4  UNL     1      -0.785  21.760  22.645  1.00  0.00     0.180 C 
HETATM    2  C5  UNL     1      -2.155  22.197  23.072  1.00  0.00     0.205 C 
HETATM    3  O4  UNL     1      -2.788  23.041  22.210  1.00  0.00    -0.356 OA
HETATM    4  C6  UNL     1      -2.898  22.603  20.913  1.00  0.00     0.291 C 
HETATM    5  C12 UNL     1      -2.019  21.431  20.596  1.00  0.00     0.204 C 
HETATM    6  C13 UNL     1      -0.632  21.768  21.135  1.00  0.00     0.182 C 
ENDROOT
BRANCH   1   7
HETATM    7  O3  UNL     1      -0.655  20.407  23.024  1.00  0.00    -0.348 OA
BRANCH   7   8
HETATM    8  C3  UNL     1      -0.880  20.283  24.369  1.00  0.00     0.291 C 
HETATM    9  O2  UNL     1       0.290  20.169  25.126  1.00  0.00    -0.356 OA
HETATM   10  C2  UNL     1      -0.028  20.558  26.419  1.00  0.00     0.205 C 
HETATM   11  C1  UNL     1      -1.085  19.739  27.063  1.00  0.00     0.173 C 
HETATM   12  C15 UNL     1      -2.183  19.293  26.155  1.00  0.00     0.182 C 
HETATM   13  C14 UNL     1      -1.726  19.071  24.727  1.00  0.00     0.204 C 
BRANCH  11  14
HETATM   14  O1  UNL     1      -1.684  20.539  28.066  1.00  0.00    -0.391 OA
ATOM     15  H1  UNL     1      -2.445  20.068  28.386  1.00  0.00     0.210 HD
ENDBRANCH  11  14
BRANCH  12  16
HETATM   16  O13 UNL     1      -2.803  18.160  26.635  1.00  0.00    -0.390 OA
ATOM     17  H13 UNL     1      -2.171  17.539  26.980  1.00  0.00     0.210 HD
ENDBRANCH  12  16
BRANCH  13  18
HETATM   18  O12 UNL     1      -2.821  18.925  23.912  1.00  0.00    -0.388 OA
ATOM     19  H12 UNL     1      -2.682  18.293  23.217  1.00  0.00     0.210 HD
ENDBRANCH  13  18
ENDBRANCH   7   8
ENDBRANCH   1   7
BRANCH   6  20
HETATM   20  O11 UNL     1       0.299  20.822  20.711  1.00  0.00    -0.390 OA
ATOM     21  H11 UNL     1       1.053  21.234  20.306  1.00  0.00     0.210 HD
ENDBRANCH   6  20
BRANCH   5  22
HETATM   22  O10 UNL     1      -2.434  20.289  21.314  1.00  0.00    -0.388 OA
ATOM     23  H10 UNL     1      -2.479  19.532  20.742  1.00  0.00     0.210 HD
ENDBRANCH   5  22
BRANCH   4  24
HETATM   24  O5  UNL     1      -2.485  23.666  20.094  1.00  0.00    -0.348 OA
BRANCH  24  25
HETATM   25  C7  UNL     1      -2.244  23.283  18.794  1.00  0.00     0.180 C 
HETATM   26  C8  UNL     1      -3.554  23.223  17.999  1.00  0.00     0.205 C 
HETATM   27  O6  UNL     1      -3.522  24.012  16.876  1.00  0.00    -0.356 OA
HETATM   28  C9  UNL     1      -2.517  23.703  15.995  1.00  0.00     0.288 C 
HETATM   29  C10 UNL     1      -1.166  23.710  16.656  1.00  0.00     0.204 C 
HETATM   30  C11 UNL     1      -1.357  24.258  18.072  1.00  0.00     0.182 C 
BRANCH  28  31
HETATM   31  O7  UNL     1      -2.492  24.704  15.003  1.00  0.00    -0.369 OA
ATOM     32  H7  UNL     1      -1.887  25.379  15.287  1.00  0.00     0.212 HD
ENDBRANCH  28  31
BRANCH  29  33
HETATM   33  O8  UNL     1      -0.237  24.476  15.953  1.00  0.00    -0.388 OA
ATOM     34  H8  UNL     1       0.645  24.134  16.031  1.00  0.00     0.210 HD
ENDBRANCH  29  33
BRANCH  30  35
HETATM   35  O9  UNL     1      -0.150  24.492  18.684  1.00  0.00    -0.390 OA
ATOM     36  H9  UNL     1       0.465  24.997  18.164  1.00  0.00     0.210 HD
ENDBRANCH  30  35
ENDBRANCH  24  25
ENDBRANCH   4  24
TORSDOF 12
ENDMDL
