MODEL 18
REMARK VINA RESULT: -5.441374557      1.511      1.639
REMARK  4 active torsions:
REMARK  status: ('A' for Active; 'I' for Inactive)
REMARK    1  A    between atoms: N1_1  and  C1_5 
REMARK    2  A    between atoms: C1_5  and  C2_6 
REMARK    3  A    between atoms: C1_5  and  C3_9 
REMARK    4  A    between atoms: C6_12  and  C7_13 
ROOT
HETATM    1  C1  UNL     1       6.898  25.718  19.315  1.00  0.00     0.288 C 
ENDROOT
BRANCH   1   2
HETATM    2  N1  UNL     1       6.870  24.749  20.390  1.00  0.00    -0.065 N 
ATOM      3  H13 UNL     1       6.074  24.114  20.324  1.00  0.00     0.275 HD
ATOM      4  H12 UNL     1       7.611  24.052  20.310  1.00  0.00     0.275 HD
ATOM      5  H11 UNL     1       6.898  25.251  21.276  1.00  0.00     0.275 HD
ENDBRANCH   1   2
BRANCH   1   6
HETATM    6  C2  UNL     1       8.085  25.437  18.462  1.00  0.00     0.204 C 
HETATM    7  O1  UNL     1       9.255  25.755  18.802  1.00  0.00    -0.646 OA
HETATM    8  O2  UNL     1       7.952  24.802  17.233  1.00  0.00    -0.646 OA
ENDBRANCH   1   6
BRANCH   1   9
HETATM    9  C3  UNL     1       7.076  27.074  19.916  1.00  0.00     0.041 C 
HETATM   10  C4  UNL     1       7.991  27.194  21.087  1.00  0.00     0.009 C 
HETATM   11  C5  UNL     1       7.043  28.244  21.621  1.00  0.00     0.016 C 
HETATM   12  C6  UNL     1       5.964  27.562  20.808  1.00  0.00     0.093 C 
BRANCH  12  13
HETATM   13  C7  UNL     1       5.287  26.530  21.634  1.00  0.00     0.177 C 
HETATM   14  O3  UNL     1       4.235  26.020  21.185  1.00  0.00    -0.648 OA
HETATM   15  O4  UNL     1       5.734  26.087  22.865  1.00  0.00    -0.648 OA
ENDBRANCH  12  13
ENDBRANCH   1   9
TORSDOF 4
ENDMDL
