MODEL 4
REMARK VINA RESULT: -6.245687743      2.971      4.854
REMARK  4 active torsions:
REMARK  status: ('A' for Active; 'I' for Inactive)
REMARK    1  A    between atoms: N1_1  and  C1_5 
REMARK    2  A    between atoms: C1_5  and  C2_6 
REMARK    3  A    between atoms: C1_5  and  C3_9 
REMARK    4  A    between atoms: C6_12  and  C7_13 
ROOT
HETATM    1  C1  UNL     1       5.464  27.518  23.015  1.00  0.00     0.288 C 
ENDROOT
BRANCH   1   2
HETATM    2  N1  UNL     1       5.462  28.681  23.876  1.00  0.00    -0.065 N 
ATOM      3  H13 UNL     1       4.520  28.980  24.129  1.00  0.00     0.275 HD
ATOM      4  H12 UNL     1       5.800  28.474  24.816  1.00  0.00     0.275 HD
ATOM      5  H11 UNL     1       5.998  29.419  23.421  1.00  0.00     0.275 HD
ENDBRANCH   1   2
BRANCH   1   6
HETATM    6  C2  UNL     1       5.167  26.320  23.845  1.00  0.00     0.204 C 
HETATM    7  O1  UNL     1       6.058  25.505  24.203  1.00  0.00    -0.646 OA
HETATM    8  O2  UNL     1       3.873  26.042  24.269  1.00  0.00    -0.646 OA
ENDBRANCH   1   6
BRANCH   1   9
HETATM    9  C3  UNL     1       6.838  27.358  22.452  1.00  0.00     0.041 C 
HETATM   10  C4  UNL     1       7.306  28.382  21.474  1.00  0.00     0.009 C 
HETATM   11  C5  UNL     1       8.033  27.261  20.767  1.00  0.00     0.016 C 
HETATM   12  C6  UNL     1       7.001  26.328  21.364  1.00  0.00     0.093 C 
BRANCH  12  13
HETATM   13  C7  UNL     1       5.856  26.178  20.430  1.00  0.00     0.177 C 
HETATM   14  O3  UNL     1       5.167  25.135  20.512  1.00  0.00    -0.648 OA
HETATM   15  O4  UNL     1       5.492  27.107  19.472  1.00  0.00    -0.648 OA
ENDBRANCH  12  13
ENDBRANCH   1   9
TORSDOF 4
ENDMDL
