MODEL 7
REMARK VINA RESULT: -6.082387153      2.759      4.851
REMARK  4 active torsions:
REMARK  status: ('A' for Active; 'I' for Inactive)
REMARK    1  A    between atoms: N1_1  and  C1_5 
REMARK    2  A    between atoms: C1_5  and  C2_6 
REMARK    3  A    between atoms: C1_5  and  C3_9 
REMARK    4  A    between atoms: C6_12  and  C7_13 
ROOT
HETATM    1  C1  UNL     1       6.839  26.815  22.677  1.00  0.00     0.288 C 
ENDROOT
BRANCH   1   2
HETATM    2  N1  UNL     1       6.321  25.764  23.528  1.00  0.00    -0.065 N 
ATOM      3  H13 UNL     1       5.623  26.105  24.190  1.00  0.00     0.275 HD
ATOM      4  H12 UNL     1       5.725  25.108  23.023  1.00  0.00     0.275 HD
ATOM      5  H11 UNL     1       7.107  25.306  23.988  1.00  0.00     0.275 HD
ENDBRANCH   1   2
BRANCH   1   6
HETATM    6  C2  UNL     1       6.696  28.111  23.393  1.00  0.00     0.204 C 
HETATM    7  O1  UNL     1       7.555  29.029  23.311  1.00  0.00    -0.646 OA
HETATM    8  O2  UNL     1       5.593  28.370  24.197  1.00  0.00    -0.646 OA
ENDBRANCH   1   6
BRANCH   1   9
HETATM    9  C3  UNL     1       5.994  26.875  21.447  1.00  0.00     0.041 C 
HETATM   10  C4  UNL     1       5.763  25.601  20.706  1.00  0.00     0.009 C 
HETATM   11  C5  UNL     1       5.804  26.422  19.437  1.00  0.00     0.016 C 
HETATM   12  C6  UNL     1       6.658  27.410  20.204  1.00  0.00     0.093 C 
BRANCH  12  13
HETATM   13  C7  UNL     1       8.094  27.072  20.034  1.00  0.00     0.177 C 
HETATM   14  O3  UNL     1       8.940  27.830  20.564  1.00  0.00    -0.648 OA
HETATM   15  O4  UNL     1       8.571  25.981  19.332  1.00  0.00    -0.648 OA
ENDBRANCH  12  13
ENDBRANCH   1   9
TORSDOF 4
ENDMDL
