MODEL 9
REMARK VINA RESULT: -5.895090227      3.038      5.101
REMARK  4 active torsions:
REMARK  status: ('A' for Active; 'I' for Inactive)
REMARK    1  A    between atoms: N1_1  and  C1_5 
REMARK    2  A    between atoms: C1_5  and  C2_6 
REMARK    3  A    between atoms: C1_5  and  C3_9 
REMARK    4  A    between atoms: C6_12  and  C7_13 
ROOT
HETATM    1  C1  UNL     1       6.350  26.834  23.167  1.00  0.00     0.288 C 
ENDROOT
BRANCH   1   2
HETATM    2  N1  UNL     1       6.541  25.530  23.766  1.00  0.00    -0.065 N 
ATOM      3  H13 UNL     1       5.779  25.272  24.393  1.00  0.00     0.275 HD
ATOM      4  H12 UNL     1       6.432  24.770  23.094  1.00  0.00     0.275 HD
ATOM      5  H11 UNL     1       7.450  25.518  24.227  1.00  0.00     0.275 HD
ENDBRANCH   1   2
BRANCH   1   6
HETATM    6  C2  UNL     1       5.312  27.560  23.947  1.00  0.00     0.204 C 
HETATM    7  O1  UNL     1       4.442  26.966  24.636  1.00  0.00    -0.646 OA
HETATM    8  O2  UNL     1       5.256  28.949  23.949  1.00  0.00    -0.646 OA
ENDBRANCH   1   6
BRANCH   1   9
HETATM    9  C3  UNL     1       5.829  26.638  21.781  1.00  0.00     0.041 C 
HETATM   10  C4  UNL     1       6.377  25.495  20.994  1.00  0.00     0.009 C 
HETATM   11  C5  UNL     1       6.262  26.381  19.775  1.00  0.00     0.016 C 
HETATM   12  C6  UNL     1       6.381  27.556  20.721  1.00  0.00     0.093 C 
BRANCH  12  13
HETATM   13  C7  UNL     1       7.808  27.942  20.870  1.00  0.00     0.177 C 
HETATM   14  O3  UNL     1       8.076  28.918  21.608  1.00  0.00    -0.648 OA
HETATM   15  O4  UNL     1       8.866  27.302  20.251  1.00  0.00    -0.648 OA
ENDBRANCH  12  13
ENDBRANCH   1   9
TORSDOF 4
ENDMDL
