MODEL 1
REMARK VINA RESULT: -8.078826815      0.000      0.000
REMARK  4 active torsions:
REMARK  status: ('A' for Active; 'I' for Inactive)
REMARK    1  A    between atoms: N1_1  and  C1_5 
REMARK    2  A    between atoms: C1_5  and  C2_6 
REMARK    3  A    between atoms: C1_5  and  C3_9 
REMARK    4  A    between atoms: C6_12  and  C7_13 
ROOT
HETATM    1  C1  UNL     1       8.203  25.603  19.036  1.00  0.00     0.288 C 
ENDROOT
BRANCH   1   2
HETATM    2  N1  UNL     1       9.648  25.590  19.107  1.00  0.00    -0.065 N 
ATOM      3  H13 UNL     1      10.086  25.846  18.222  1.00  0.00     0.275 HD
ATOM      4  H12 UNL     1      10.020  26.354  19.673  1.00  0.00     0.275 HD
ATOM      5  H11 UNL     1       9.945  24.674  19.441  1.00  0.00     0.275 HD
ENDBRANCH   1   2
BRANCH   1   6
HETATM    6  C2  UNL     1       7.802  25.472  17.609  1.00  0.00     0.204 C 
HETATM    7  O1  UNL     1       6.634  25.160  17.259  1.00  0.00    -0.646 OA
HETATM    8  O2  UNL     1       8.715  25.690  16.584  1.00  0.00    -0.646 OA
ENDBRANCH   1   6
BRANCH   1   9
HETATM    9  C3  UNL     1       7.724  26.930  19.526  1.00  0.00     0.041 C 
HETATM   10  C4  UNL     1       8.319  27.453  20.790  1.00  0.00     0.009 C 
HETATM   11  C5  UNL     1       6.959  28.037  21.097  1.00  0.00     0.016 C 
HETATM   12  C6  UNL     1       6.386  26.946  20.219  1.00  0.00     0.093 C 
BRANCH  12  13
HETATM   13  C7  UNL     1       6.062  25.754  21.042  1.00  0.00     0.177 C 
HETATM   14  O3  UNL     1       5.550  24.766  20.466  1.00  0.00    -0.648 OA
HETATM   15  O4  UNL     1       6.283  25.651  22.403  1.00  0.00    -0.648 OA
ENDBRANCH  12  13
ENDBRANCH   1   9
TORSDOF 4
ENDMDL
