MODEL 6
REMARK VINA RESULT: -6.118234833      1.584      1.695
REMARK  4 active torsions:
REMARK  status: ('A' for Active; 'I' for Inactive)
REMARK    1  A    between atoms: N1_1  and  C1_5 
REMARK    2  A    between atoms: C1_5  and  C2_6 
REMARK    3  A    between atoms: C1_5  and  C3_9 
REMARK    4  A    between atoms: C6_12  and  C7_13 
ROOT
HETATM    1  C1  UNL     1       6.392  25.816  19.645  1.00  0.00     0.288 C 
ENDROOT
BRANCH   1   2
HETATM    2  N1  UNL     1       6.769  24.805  20.609  1.00  0.00    -0.065 N 
ATOM      3  H13 UNL     1       7.735  24.498  20.498  1.00  0.00     0.275 HD
ATOM      4  H12 UNL     1       6.849  25.176  21.556  1.00  0.00     0.275 HD
ATOM      5  H11 UNL     1       6.103  24.035  20.545  1.00  0.00     0.275 HD
ENDBRANCH   1   2
BRANCH   1   6
HETATM    6  C2  UNL     1       7.113  25.542  18.372  1.00  0.00     0.204 C 
HETATM    7  O1  UNL     1       6.561  25.642  17.245  1.00  0.00    -0.646 OA
HETATM    8  O2  UNL     1       8.449  25.158  18.372  1.00  0.00    -0.646 OA
ENDBRANCH   1   6
BRANCH   1   9
HETATM    9  C3  UNL     1       6.852  27.141  20.157  1.00  0.00     0.041 C 
HETATM   10  C4  UNL     1       8.157  27.187  20.878  1.00  0.00     0.009 C 
HETATM   11  C5  UNL     1       7.543  28.247  21.763  1.00  0.00     0.016 C 
HETATM   12  C6  UNL     1       6.202  27.633  21.425  1.00  0.00     0.093 C 
BRANCH  12  13
HETATM   13  C7  UNL     1       5.856  26.593  22.427  1.00  0.00     0.177 C 
HETATM   14  O3  UNL     1       4.671  26.189  22.466  1.00  0.00    -0.648 OA
HETATM   15  O4  UNL     1       6.748  26.035  23.325  1.00  0.00    -0.648 OA
ENDBRANCH  12  13
ENDBRANCH   1   9
TORSDOF 4
ENDMDL
