MODEL 8
REMARK VINA RESULT: -5.828871260      1.328      1.702
REMARK  4 active torsions:
REMARK  status: ('A' for Active; 'I' for Inactive)
REMARK    1  A    between atoms: N1_1  and  C1_5 
REMARK    2  A    between atoms: C1_5  and  C2_6 
REMARK    3  A    between atoms: C1_5  and  C3_9 
REMARK    4  A    between atoms: C6_12  and  C7_13 
ROOT
HETATM    1  C1  UNL     1       3.058  29.636  13.213  1.00  0.00     0.288 C 
ENDROOT
BRANCH   1   2
HETATM    2  N1  UNL     1       3.575  30.652  12.321  1.00  0.00    -0.065 N 
ATOM      3  H13 UNL     1       2.837  31.210  11.892  1.00  0.00     0.275 HD
ATOM      4  H12 UNL     1       4.049  31.406  12.819  1.00  0.00     0.275 HD
ATOM      5  H11 UNL     1       4.175  30.199  11.632  1.00  0.00     0.275 HD
ENDBRANCH   1   2
BRANCH   1   6
HETATM    6  C2  UNL     1       1.622  29.927  13.473  1.00  0.00     0.204 C 
HETATM    7  O1  UNL     1       0.975  29.374  14.401  1.00  0.00    -0.646 OA
HETATM    8  O2  UNL     1       0.921  30.836  12.690  1.00  0.00    -0.646 OA
ENDBRANCH   1   6
BRANCH   1   9
HETATM    9  C3  UNL     1       3.789  29.739  14.511  1.00  0.00     0.041 C 
HETATM   10  C4  UNL     1       5.267  29.930  14.456  1.00  0.00     0.009 C 
HETATM   11  C5  UNL     1       5.347  29.067  15.694  1.00  0.00     0.016 C 
HETATM   12  C6  UNL     1       4.042  28.446  15.243  1.00  0.00     0.093 C 
BRANCH  12  13
HETATM   13  C7  UNL     1       4.315  27.258  14.394  1.00  0.00     0.177 C 
HETATM   14  O3  UNL     1       3.353  26.744  13.780  1.00  0.00    -0.648 OA
HETATM   15  O4  UNL     1       5.558  26.674  14.231  1.00  0.00    -0.648 OA
ENDBRANCH  12  13
ENDBRANCH   1   9
TORSDOF 4
ENDMDL
