MODEL 10
REMARK VINA RESULT: -5.554615281      2.851      4.859
REMARK  4 active torsions:
REMARK  status: ('A' for Active; 'I' for Inactive)
REMARK    1  A    between atoms: N1_1  and  C1_5 
REMARK    2  A    between atoms: C1_5  and  C2_6 
REMARK    3  A    between atoms: C1_5  and  C3_9 
REMARK    4  A    between atoms: C6_12  and  C7_13 
ROOT
HETATM    1  C1  UNL     1       3.417  26.042  14.806  1.00  0.00     0.288 C 
ENDROOT
BRANCH   1   2
HETATM    2  N1  UNL     1       4.107  25.843  13.549  1.00  0.00    -0.065 N 
ATOM      3  H13 UNL     1       4.574  26.688  13.221  1.00  0.00     0.275 HD
ATOM      4  H12 UNL     1       4.934  25.254  13.645  1.00  0.00     0.275 HD
ATOM      5  H11 UNL     1       3.440  25.475  12.871  1.00  0.00     0.275 HD
ENDBRANCH   1   2
BRANCH   1   6
HETATM    6  C2  UNL     1       2.762  24.762  15.190  1.00  0.00     0.204 C 
HETATM    7  O1  UNL     1       1.591  24.467  14.834  1.00  0.00    -0.646 OA
HETATM    8  O2  UNL     1       3.425  23.822  15.969  1.00  0.00    -0.646 OA
ENDBRANCH   1   6
BRANCH   1   9
HETATM    9  C3  UNL     1       2.344  27.059  14.591  1.00  0.00     0.041 C 
HETATM   10  C4  UNL     1       2.437  27.913  13.372  1.00  0.00     0.009 C 
HETATM   11  C5  UNL     1       1.865  29.035  14.207  1.00  0.00     0.016 C 
HETATM   12  C6  UNL     1       2.444  28.321  15.410  1.00  0.00     0.093 C 
BRANCH  12  13
HETATM   13  C7  UNL     1       3.817  28.818  15.679  1.00  0.00     0.177 C 
HETATM   14  O3  UNL     1       4.284  28.655  16.830  1.00  0.00    -0.648 OA
HETATM   15  O4  UNL     1       4.623  29.452  14.751  1.00  0.00    -0.648 OA
ENDBRANCH  12  13
ENDBRANCH   1   9
TORSDOF 4
ENDMDL
