MODEL 1
REMARK VINA RESULT: -7.375073059      0.000      0.000
REMARK  4 active torsions:
REMARK  status: ('A' for Active; 'I' for Inactive)
REMARK    1  A    between atoms: N1_1  and  C1_5 
REMARK    2  A    between atoms: C1_5  and  C2_6 
REMARK    3  A    between atoms: C1_5  and  C3_9 
REMARK    4  A    between atoms: C6_12  and  C7_13 
ROOT
HETATM    1  C1  UNL     1       2.908  29.989  12.872  1.00  0.00     0.288 C 
ENDROOT
BRANCH   1   2
HETATM    2  N1  UNL     1       4.130  30.611  12.410  1.00  0.00    -0.065 N 
ATOM      3  H13 UNL     1       4.640  30.028  11.746  1.00  0.00     0.275 HD
ATOM      4  H12 UNL     1       3.958  31.405  11.793  1.00  0.00     0.275 HD
ATOM      5  H11 UNL     1       4.691  30.861  13.224  1.00  0.00     0.275 HD
ENDBRANCH   1   2
BRANCH   1   6
HETATM    6  C2  UNL     1       1.786  30.943  12.658  1.00  0.00     0.204 C 
HETATM    7  O1  UNL     1       0.611  30.703  13.040  1.00  0.00    -0.646 OA
HETATM    8  O2  UNL     1       1.990  32.158  12.016  1.00  0.00    -0.646 OA
ENDBRANCH   1   6
BRANCH   1   9
HETATM    9  C3  UNL     1       3.034  29.752  14.342  1.00  0.00     0.041 C 
HETATM   10  C4  UNL     1       4.289  29.111  14.832  1.00  0.00     0.009 C 
HETATM   11  C5  UNL     1       3.436  28.410  15.864  1.00  0.00     0.016 C 
HETATM   12  C6  UNL     1       2.283  28.568  14.896  1.00  0.00     0.093 C 
BRANCH  12  13
HETATM   13  C7  UNL     1       2.198  27.377  14.014  1.00  0.00     0.177 C 
HETATM   14  O3  UNL     1       1.128  27.186  13.390  1.00  0.00    -0.648 OA
HETATM   15  O4  UNL     1       3.215  26.458  13.828  1.00  0.00    -0.648 OA
ENDBRANCH  12  13
ENDBRANCH   1   9
TORSDOF 4
ENDMDL
