MODEL 6
REMARK VINA RESULT: -6.071962558      1.211      1.465
REMARK  4 active torsions:
REMARK  status: ('A' for Active; 'I' for Inactive)
REMARK    1  A    between atoms: N1_1  and  C1_5 
REMARK    2  A    between atoms: C1_5  and  C2_6 
REMARK    3  A    between atoms: C1_5  and  C3_9 
REMARK    4  A    between atoms: C6_12  and  C7_13 
ROOT
HETATM    1  C1  UNL     1       3.267  29.594  13.414  1.00  0.00     0.288 C 
ENDROOT
BRANCH   1   2
HETATM    2  N1  UNL     1       4.437  30.438  13.523  1.00  0.00    -0.065 N 
ATOM      3  H13 UNL     1       4.726  30.826  12.625  1.00  0.00     0.275 HD
ATOM      4  H12 UNL     1       4.243  31.320  13.999  1.00  0.00     0.275 HD
ATOM      5  H11 UNL     1       5.178  29.903  13.976  1.00  0.00     0.275 HD
ENDBRANCH   1   2
BRANCH   1   6
HETATM    6  C2  UNL     1       2.131  30.427  12.934  1.00  0.00     0.204 C 
HETATM    7  O1  UNL     1       0.940  30.215  13.282  1.00  0.00    -0.646 OA
HETATM    8  O2  UNL     1       2.339  31.493  12.066  1.00  0.00    -0.646 OA
ENDBRANCH   1   6
BRANCH   1   9
HETATM    9  C3  UNL     1       2.924  29.095  14.779  1.00  0.00     0.041 C 
HETATM   10  C4  UNL     1       3.948  29.260  15.851  1.00  0.00     0.009 C 
HETATM   11  C5  UNL     1       3.473  27.935  16.402  1.00  0.00     0.016 C 
HETATM   12  C6  UNL     1       3.025  27.607  14.994  1.00  0.00     0.093 C 
BRANCH  12  13
HETATM   13  C7  UNL     1       4.118  26.914  14.265  1.00  0.00     0.177 C 
HETATM   14  O3  UNL     1       3.807  25.969  13.504  1.00  0.00    -0.648 OA
HETATM   15  O4  UNL     1       5.460  27.236  14.364  1.00  0.00    -0.648 OA
ENDBRANCH  12  13
ENDBRANCH   1   9
TORSDOF 4
ENDMDL
