MODEL 3
REMARK VINA RESULT: -6.200148539      1.234      1.400
REMARK  4 active torsions:
REMARK  status: ('A' for Active; 'I' for Inactive)
REMARK    1  A    between atoms: N1_1  and  C1_5 
REMARK    2  A    between atoms: C1_5  and  C2_6 
REMARK    3  A    between atoms: C1_5  and  C3_9 
REMARK    4  A    between atoms: C6_12  and  C7_13 
ROOT
HETATM    1  C1  UNL     1       1.896  29.392  13.175  1.00  0.00     0.288 C 
ENDROOT
BRANCH   1   2
HETATM    2  N1  UNL     1       2.512  28.371  12.355  1.00  0.00    -0.065 N 
ATOM      3  H13 UNL     1       3.090  28.761  11.611  1.00  0.00     0.275 HD
ATOM      4  H12 UNL     1       3.245  27.860  12.848  1.00  0.00     0.275 HD
ATOM      5  H11 UNL     1       1.778  27.758  12.000  1.00  0.00     0.275 HD
ENDBRANCH   1   2
BRANCH   1   6
HETATM    6  C2  UNL     1       2.232  30.722  12.599  1.00  0.00     0.204 C 
HETATM    7  O1  UNL     1       3.389  31.013  12.197  1.00  0.00    -0.646 OA
HETATM    8  O2  UNL     1       1.269  31.716  12.478  1.00  0.00    -0.646 OA
ENDBRANCH   1   6
BRANCH   1   9
HETATM    9  C3  UNL     1       2.498  29.318  14.540  1.00  0.00     0.041 C 
HETATM   10  C4  UNL     1       3.884  28.778  14.654  1.00  0.00     0.009 C 
HETATM   11  C5  UNL     1       3.454  28.162  15.965  1.00  0.00     0.016 C 
HETATM   12  C6  UNL     1       2.045  28.175  15.412  1.00  0.00     0.093 C 
BRANCH  12  13
HETATM   13  C7  UNL     1       1.765  26.893  14.715  1.00  0.00     0.177 C 
HETATM   14  O3  UNL     1       0.584  26.663  14.365  1.00  0.00    -0.648 OA
HETATM   15  O4  UNL     1       2.714  25.931  14.422  1.00  0.00    -0.648 OA
ENDBRANCH  12  13
ENDBRANCH   1   9
TORSDOF 4
ENDMDL
