MODEL 9
REMARK VINA RESULT: -5.712198102      1.537      2.074
REMARK  4 active torsions:
REMARK  status: ('A' for Active; 'I' for Inactive)
REMARK    1  A    between atoms: N1_1  and  C1_5 
REMARK    2  A    between atoms: C1_5  and  C2_6 
REMARK    3  A    between atoms: C1_5  and  C3_9 
REMARK    4  A    between atoms: C6_12  and  C7_13 
ROOT
HETATM    1  C1  UNL     1       2.838  29.501  13.151  1.00  0.00     0.288 C 
ENDROOT
BRANCH   1   2
HETATM    2  N1  UNL     1       3.732  29.891  14.220  1.00  0.00    -0.065 N 
ATOM      3  H13 UNL     1       3.463  30.774  14.653  1.00  0.00     0.275 HD
ATOM      4  H12 UNL     1       3.640  29.297  15.045  1.00  0.00     0.275 HD
ATOM      5  H11 UNL     1       4.684  29.908  13.854  1.00  0.00     0.275 HD
ENDBRANCH   1   2
BRANCH   1   6
HETATM    6  C2  UNL     1       2.209  30.729  12.594  1.00  0.00     0.204 C 
HETATM    7  O1  UNL     1       2.880  31.656  12.070  1.00  0.00    -0.646 OA
HETATM    8  O2  UNL     1       0.832  30.909  12.630  1.00  0.00    -0.646 OA
ENDBRANCH   1   6
BRANCH   1   9
HETATM    9  C3  UNL     1       1.755  28.654  13.735  1.00  0.00     0.041 C 
HETATM   10  C4  UNL     1       1.545  28.725  15.210  1.00  0.00     0.009 C 
HETATM   11  C5  UNL     1       1.212  27.252  15.155  1.00  0.00     0.016 C 
HETATM   12  C6  UNL     1       2.069  27.190  13.909  1.00  0.00     0.093 C 
BRANCH  12  13
HETATM   13  C7  UNL     1       3.470  26.862  14.276  1.00  0.00     0.177 C 
HETATM   14  O3  UNL     1       4.096  26.066  13.540  1.00  0.00    -0.648 OA
HETATM   15  O4  UNL     1       4.137  27.370  15.376  1.00  0.00    -0.648 OA
ENDBRANCH  12  13
ENDBRANCH   1   9
TORSDOF 4
ENDMDL
