MODEL 2
REMARK VINA RESULT: -6.552799202      1.486      1.654
REMARK  8 active torsions:
REMARK  status: ('A' for Active; 'I' for Inactive)
REMARK    1  A    between atoms: C2_5  and  O2_6 
REMARK    2  A    between atoms: N2_10  and  C5_11 
REMARK    3  A    between atoms: C5_11  and  C6_12 
REMARK    4  A    between atoms: N3_14  and  C8_15 
REMARK    5  A    between atoms: C9_17  and  C10_18 
REMARK    6  A    between atoms: C10_18  and  O4_19 
REMARK    7  A    between atoms: C11_21  and  O5_22 
REMARK    8  A    between atoms: C12_24  and  O6_25 
ROOT
HETATM    1  C6  UNL     1      36.822  -4.004  13.352  1.00  0.00     0.058 A 
HETATM    2  C7  UNL     1      36.589  -2.636  13.295  1.00  0.00     0.138 A 
HETATM    3  N3  UNL     1      37.696  -2.005  12.857  1.00  0.00    -0.253 N 
HETATM    4  N4  UNL     1      38.596  -2.950  12.645  1.00  0.00    -0.018 NA
HETATM    5  N5  UNL     1      38.092  -4.147  12.935  1.00  0.00    -0.285 N 
ATOM      6  H5  UNL     1      38.590  -5.033  12.853  1.00  0.00     0.184 HD
ENDROOT
BRANCH   3   7
HETATM    7  C8  UNL     1      37.865  -0.556  12.656  1.00  0.00     0.273 C 
HETATM    8  O3  UNL     1      38.060   0.108  13.836  1.00  0.00    -0.352 OA
HETATM    9  C9  UNL     1      37.788   1.434  13.514  1.00  0.00     0.179 C 
HETATM   10  C11 UNL     1      36.548   1.425  12.645  1.00  0.00     0.182 C 
HETATM   11  C12 UNL     1      36.611   0.039  12.053  1.00  0.00     0.199 C 
BRANCH   9  12
HETATM   12  C10 UNL     1      38.895   2.080  12.708  1.00  0.00     0.198 C 
BRANCH  12  13
HETATM   13  O4  UNL     1      38.351   3.290  12.219  1.00  0.00    -0.398 OA
ATOM     14  H4  UNL     1      38.802   3.459  11.400  1.00  0.00     0.209 HD
ENDBRANCH  12  13
ENDBRANCH   9  12
BRANCH  10  15
HETATM   15  O5  UNL     1      35.419   1.604  13.447  1.00  0.00    -0.390 OA
ATOM     16  H5  UNL     1      35.228   2.531  13.520  1.00  0.00     0.210 HD
ENDBRANCH  10  15
BRANCH  11  17
HETATM   17  O6  UNL     1      36.707   0.033  10.686  1.00  0.00    -0.388 OA
ATOM     18  H6  UNL     1      36.577  -0.850  10.359  1.00  0.00     0.210 HD
ENDBRANCH  11  17
ENDBRANCH   3   7
BRANCH   1  19
HETATM   19  C5  UNL     1      35.841  -5.034  13.788  1.00  0.00     0.187 C 
BRANCH  19  20
HETATM   20  N2  UNL     1      35.628  -5.975  12.712  1.00  0.00    -0.325 N 
HETATM   21  C1  UNL     1      34.748  -5.598  11.671  1.00  0.00     0.324 A 
HETATM   22  O1  UNL     1      34.160  -4.466  11.676  1.00  0.00    -0.247 OA
HETATM   23  N1  UNL     1      34.535  -6.520  10.610  1.00  0.00    -0.289 N 
HETATM   24  C2  UNL     1      35.203  -7.761  10.642  1.00  0.00     0.141 A 
ATOM     25  H1  UNL     1      33.908  -6.288   9.839  1.00  0.00     0.172 HD
HETATM   26  C3  UNL     1      36.009  -8.079  11.618  1.00  0.00     0.049 A 
HETATM   27  C4  UNL     1      36.328  -7.235  12.776  1.00  0.00     0.159 A 
BRANCH  24  28
HETATM   28  O2  UNL     1      35.002  -8.683   9.600  1.00  0.00    -0.346 OA
ATOM     29  H2  UNL     1      35.382  -9.552   9.663  1.00  0.00     0.219 HD
ENDBRANCH  24  28
ENDBRANCH  19  20
ENDBRANCH   1  19
TORSDOF 8
ENDMDL
