MODEL 1
REMARK VINA RESULT: -7.197778828      0.000      0.000
REMARK  8 active torsions:
REMARK  status: ('A' for Active; 'I' for Inactive)
REMARK    1  A    between atoms: C2_5  and  O2_6 
REMARK    2  A    between atoms: N2_10  and  C5_11 
REMARK    3  A    between atoms: C5_11  and  C6_12 
REMARK    4  A    between atoms: N3_14  and  C8_15 
REMARK    5  A    between atoms: C9_17  and  C10_18 
REMARK    6  A    between atoms: C10_18  and  O4_19 
REMARK    7  A    between atoms: C11_21  and  O5_22 
REMARK    8  A    between atoms: C12_24  and  O6_25 
ROOT
HETATM    1  C6  UNL     1      35.394  -4.557  12.798  1.00  0.00     0.058 A 
HETATM    2  C7  UNL     1      36.232  -3.524  13.198  1.00  0.00     0.138 A 
HETATM    3  N3  UNL     1      36.216  -2.543  12.274  1.00  0.00    -0.253 N 
HETATM    4  N4  UNL     1      35.391  -2.949  11.324  1.00  0.00    -0.018 NA
HETATM    5  N5  UNL     1      34.892  -4.147  11.620  1.00  0.00    -0.285 N 
ATOM      6  H5  UNL     1      34.233  -4.672  11.044  1.00  0.00     0.184 HD
ENDROOT
BRANCH   3   7
HETATM    7  C8  UNL     1      36.965  -1.277  12.317  1.00  0.00     0.273 C 
HETATM    8  O3  UNL     1      37.269  -0.902  13.598  1.00  0.00    -0.352 OA
HETATM    9  C9  UNL     1      37.582   0.449  13.478  1.00  0.00     0.179 C 
HETATM   10  C11 UNL     1      36.548   1.054  12.551  1.00  0.00     0.182 C 
HETATM   11  C12 UNL     1      36.126  -0.152  11.749  1.00  0.00     0.199 C 
BRANCH   9  12
HETATM   12  C10 UNL     1      38.938   0.681  12.849  1.00  0.00     0.198 C 
BRANCH  12  13
HETATM   13  O4  UNL     1      38.891   1.991  12.318  1.00  0.00    -0.398 OA
ATOM     14  H4  UNL     1      39.415   1.965  11.526  1.00  0.00     0.209 HD
ENDBRANCH  12  13
ENDBRANCH   9  12
BRANCH  10  15
HETATM   15  O5  UNL     1      35.497   1.576  13.308  1.00  0.00    -0.390 OA
ATOM     16  H5  UNL     1      35.312   0.994  14.035  1.00  0.00     0.210 HD
ENDBRANCH  10  15
BRANCH  11  17
HETATM   17  O6  UNL     1      36.370  -0.027  10.406  1.00  0.00    -0.388 OA
ATOM     18  H6  UNL     1      37.257  -0.307  10.214  1.00  0.00     0.210 HD
ENDBRANCH  11  17
ENDBRANCH   3   7
BRANCH   1  19
HETATM   19  C5  UNL     1      35.148  -5.815  13.553  1.00  0.00     0.187 C 
BRANCH  19  20
HETATM   20  N2  UNL     1      34.855  -6.881  12.621  1.00  0.00    -0.325 N 
HETATM   21  C1  UNL     1      33.520  -7.015  12.173  1.00  0.00     0.324 A 
HETATM   22  O1  UNL     1      32.603  -6.225  12.573  1.00  0.00    -0.247 OA
HETATM   23  N1  UNL     1      33.226  -8.061  11.257  1.00  0.00    -0.289 N 
HETATM   24  C2  UNL     1      34.268  -8.914  10.838  1.00  0.00     0.141 A 
ATOM     25  H1  UNL     1      32.276  -8.193  10.907  1.00  0.00     0.172 HD
HETATM   26  C3  UNL     1      35.490  -8.763  11.272  1.00  0.00     0.049 A 
HETATM   27  C4  UNL     1      35.945  -7.734  12.215  1.00  0.00     0.159 A 
BRANCH  24  28
HETATM   28  O2  UNL     1      33.992  -9.953   9.933  1.00  0.00    -0.346 OA
ATOM     29  H2  UNL     1      33.617  -9.748   9.084  1.00  0.00     0.219 HD
ENDBRANCH  24  28
ENDBRANCH  19  20
ENDBRANCH   1  19
TORSDOF 8
ENDMDL
