MODEL 3
REMARK VINA RESULT: -6.537613943      7.757     10.432
REMARK  8 active torsions:
REMARK  status: ('A' for Active; 'I' for Inactive)
REMARK    1  A    between atoms: C2_5  and  O2_6 
REMARK    2  A    between atoms: N2_10  and  C5_11 
REMARK    3  A    between atoms: C5_11  and  C6_12 
REMARK    4  A    between atoms: N3_14  and  C8_15 
REMARK    5  A    between atoms: C9_17  and  C10_18 
REMARK    6  A    between atoms: C10_18  and  O4_19 
REMARK    7  A    between atoms: C11_21  and  O5_22 
REMARK    8  A    between atoms: C12_24  and  O6_25 
ROOT
HETATM    1  C6  UNL     1      37.515   1.795  18.303  1.00  0.00     0.058 A 
HETATM    2  C7  UNL     1      37.958   2.529  17.209  1.00  0.00     0.138 A 
HETATM    3  N3  UNL     1      37.190   2.251  16.137  1.00  0.00    -0.253 N 
HETATM    4  N4  UNL     1      36.293   1.372  16.546  1.00  0.00    -0.018 NA
HETATM    5  N5  UNL     1      36.471   1.089  17.835  1.00  0.00    -0.285 N 
ATOM      6  H5  UNL     1      35.906   0.438  18.381  1.00  0.00     0.184 HD
ENDROOT
BRANCH   3   7
HETATM    7  C8  UNL     1      37.327   2.816  14.784  1.00  0.00     0.273 C 
HETATM    8  O3  UNL     1      37.875   4.071  14.803  1.00  0.00    -0.352 OA
HETATM    9  C9  UNL     1      37.552   4.588  13.552  1.00  0.00     0.179 C 
HETATM   10  C11 UNL     1      36.111   4.205  13.283  1.00  0.00     0.182 C 
HETATM   11  C12 UNL     1      35.965   2.974  14.143  1.00  0.00     0.199 C 
BRANCH   9  12
HETATM   12  C10 UNL     1      38.388   3.994  12.439  1.00  0.00     0.198 C 
BRANCH  12  13
HETATM   13  O4  UNL     1      38.262   4.889  11.352  1.00  0.00    -0.398 OA
ATOM     14  H4  UNL     1      39.131   4.954  10.973  1.00  0.00     0.209 HD
ENDBRANCH  12  13
ENDBRANCH   9  12
BRANCH  10  15
HETATM   15  O5  UNL     1      35.271   5.240  13.700  1.00  0.00    -0.390 OA
ATOM     16  H5  UNL     1      34.892   5.019  14.542  1.00  0.00     0.210 HD
ENDBRANCH  10  15
BRANCH  11  17
HETATM   17  O6  UNL     1      35.657   1.844  13.430  1.00  0.00    -0.388 OA
ATOM     18  H6  UNL     1      34.960   1.369  13.868  1.00  0.00     0.210 HD
ENDBRANCH  11  17
ENDBRANCH   3   7
BRANCH   1  19
HETATM   19  C5  UNL     1      38.107   1.829  19.667  1.00  0.00     0.187 C 
BRANCH  19  20
HETATM   20  N2  UNL     1      37.461   2.864  20.442  1.00  0.00    -0.325 N 
HETATM   21  C1  UNL     1      36.227   2.550  21.059  1.00  0.00     0.324 A 
HETATM   22  O1  UNL     1      35.700   1.396  20.940  1.00  0.00    -0.247 OA
HETATM   23  N1  UNL     1      35.587   3.564  21.823  1.00  0.00    -0.289 N 
HETATM   24  C2  UNL     1      36.203   4.828  21.931  1.00  0.00     0.141 A 
ATOM     25  H1  UNL     1      34.696   3.380  22.286  1.00  0.00     0.172 HD
HETATM   26  C3  UNL     1      37.342   5.085  21.348  1.00  0.00     0.049 A 
HETATM   27  C4  UNL     1      38.119   4.144  20.531  1.00  0.00     0.159 A 
BRANCH  24  28
HETATM   28  O2  UNL     1      35.581   5.840  22.682  1.00  0.00    -0.346 OA
ATOM     29  H2  UNL     1      34.697   6.110  22.463  1.00  0.00     0.219 HD
ENDBRANCH  24  28
ENDBRANCH  19  20
ENDBRANCH   1  19
TORSDOF 8
ENDMDL
