MODEL 6
REMARK VINA RESULT: -6.789115403      2.042      8.388
REMARK  8 active torsions:
REMARK  status: ('A' for Active; 'I' for Inactive)
REMARK    1  A    between atoms: C3_3  and  O1_4 
REMARK    2  A    between atoms: N2_10  and  C5_11 
REMARK    3  A    between atoms: C5_11  and  C6_12 
REMARK    4  A    between atoms: N3_14  and  C8_15 
REMARK    5  A    between atoms: C9_17  and  C10_18 
REMARK    6  A    between atoms: C10_18  and  O4_19 
REMARK    7  A    between atoms: C11_21  and  O5_22 
REMARK    8  A    between atoms: C12_24  and  O6_25 
ROOT
HETATM    1  C6  UNL     1      37.735   3.105  23.243  1.00  0.00     0.062 A 
HETATM    2  C7  UNL     1      37.999   4.449  23.373  1.00  0.00     0.143 A 
HETATM    3  N3  UNL     1      36.956   5.138  22.877  1.00  0.00    -0.255 N 
HETATM    4  N4  UNL     1      36.102   4.233  22.467  1.00  0.00    -0.238 N 
ATOM      5  H4  UNL     1      35.203   4.455  22.038  1.00  0.00     0.208 HD
HETATM    6  N5  UNL     1      36.532   3.005  22.668  1.00  0.00    -0.287 N 
ATOM      7  H5  UNL     1      36.042   2.142  22.430  1.00  0.00     0.188 HD
ENDROOT
BRANCH   1   8
HETATM    8  C5  UNL     1      38.612   2.003  23.659  1.00  0.00     0.188 C 
BRANCH   8   9
HETATM    9  N2  UNL     1      38.140   0.698  23.194  1.00  0.00    -0.324 N 
HETATM   10  C4  UNL     1      37.399  -0.163  24.012  1.00  0.00     0.324 A 
HETATM   11  N1  UNL     1      36.982  -1.410  23.477  1.00  0.00    -0.289 N 
HETATM   12  O2  UNL     1      37.119   0.178  25.193  1.00  0.00    -0.247 OA
HETATM   13  C3  UNL     1      37.296  -1.796  22.147  1.00  0.00     0.147 A 
ATOM     14  H1  UNL     1      36.443  -2.046  24.064  1.00  0.00     0.172 HD
HETATM   15  C2  UNL     1      37.991  -0.975  21.401  1.00  0.00    -0.015 A 
HETATM   16  C1  UNL     1      38.297  -1.434  19.999  1.00  0.00     0.050 C 
HETATM   17  C13 UNL     1      38.472   0.331  21.845  1.00  0.00     0.166 A 
BRANCH  13  18
HETATM   18  O1  UNL     1      36.863  -3.046  21.651  1.00  0.00    -0.346 OA
ATOM     19  H1  UNL     1      36.656  -3.763  22.239  1.00  0.00     0.219 HD
ENDBRANCH  13  18
ENDBRANCH   8   9
ENDBRANCH   1   8
BRANCH   3  20
HETATM   20  C8  UNL     1      36.884   6.578  22.848  1.00  0.00     0.276 C 
HETATM   21  O3  UNL     1      36.528   7.045  24.085  1.00  0.00    -0.352 OA
HETATM   22  C9  UNL     1      35.212   7.453  24.049  1.00  0.00     0.179 C 
HETATM   23  C11 UNL     1      35.117   8.110  22.681  1.00  0.00     0.182 C 
HETATM   24  C12 UNL     1      35.902   7.104  21.840  1.00  0.00     0.200 C 
BRANCH  22  25
HETATM   25  C10 UNL     1      34.907   8.459  25.135  1.00  0.00     0.198 C 
BRANCH  25  26
HETATM   26  O4  UNL     1      33.560   8.747  25.097  1.00  0.00    -0.398 OA
ATOM     27  H4  UNL     1      33.451   9.629  24.763  1.00  0.00     0.209 HD
ENDBRANCH  25  26
ENDBRANCH  22  25
BRANCH  23  28
HETATM   28  O5  UNL     1      33.829   8.265  22.243  1.00  0.00    -0.390 OA
ATOM     29  H5  UNL     1      33.387   9.013  22.629  1.00  0.00     0.210 HD
ENDBRANCH  23  28
BRANCH  24  30
HETATM   30  O6  UNL     1      36.498   7.705  20.746  1.00  0.00    -0.388 OA
ATOM     31  H6  UNL     1      36.338   7.250  19.928  1.00  0.00     0.210 HD
ENDBRANCH  24  30
ENDBRANCH   3  20
TORSDOF 8
ENDMDL
