MODEL 5
REMARK VINA RESULT: -6.791892503      4.686      7.628
REMARK  8 active torsions:
REMARK  status: ('A' for Active; 'I' for Inactive)
REMARK    1  A    between atoms: C3_3  and  O1_4 
REMARK    2  A    between atoms: N2_10  and  C5_11 
REMARK    3  A    between atoms: C5_11  and  C6_12 
REMARK    4  A    between atoms: N3_14  and  C8_15 
REMARK    5  A    between atoms: C9_17  and  C10_18 
REMARK    6  A    between atoms: C10_18  and  O4_19 
REMARK    7  A    between atoms: C11_21  and  O5_22 
REMARK    8  A    between atoms: C12_24  and  O6_25 
ROOT
HETATM    1  C6  UNL     1      34.760   8.684  24.492  1.00  0.00     0.062 A 
HETATM    2  C7  UNL     1      35.440   7.689  23.826  1.00  0.00     0.143 A 
HETATM    3  N3  UNL     1      34.672   6.586  23.810  1.00  0.00    -0.255 N 
HETATM    4  N4  UNL     1      33.574   6.914  24.447  1.00  0.00    -0.238 N 
ATOM      5  H4  UNL     1      32.794   6.274  24.597  1.00  0.00     0.208 HD
HETATM    6  N5  UNL     1      33.589   8.160  24.870  1.00  0.00    -0.287 N 
ATOM      7  H5  UNL     1      32.850   8.636  25.387  1.00  0.00     0.188 HD
ENDROOT
BRANCH   1   8
HETATM    8  C5  UNL     1      35.239  10.050  24.735  1.00  0.00     0.188 C 
BRANCH   8   9
HETATM    9  N2  UNL     1      35.032  10.485  26.117  1.00  0.00    -0.324 N 
HETATM   10  C4  UNL     1      34.071  11.442  26.463  1.00  0.00     0.324 A 
HETATM   11  N1  UNL     1      33.939  11.803  27.829  1.00  0.00    -0.289 N 
HETATM   12  O2  UNL     1      33.350  11.961  25.568  1.00  0.00    -0.247 OA
HETATM   13  C3  UNL     1      34.751  11.219  28.839  1.00  0.00     0.147 A 
ATOM     14  H1  UNL     1      33.244  12.500  28.094  1.00  0.00     0.172 HD
HETATM   15  C2  UNL     1      35.643  10.327  28.492  1.00  0.00    -0.015 A 
HETATM   16  C1  UNL     1      36.477   9.742  29.601  1.00  0.00     0.050 C 
HETATM   17  C13 UNL     1      35.867   9.880  27.119  1.00  0.00     0.166 A 
BRANCH  13  18
HETATM   18  O1  UNL     1      34.589  11.606  30.189  1.00  0.00    -0.346 OA
ATOM     19  H1  UNL     1      35.075  11.177  30.884  1.00  0.00     0.219 HD
ENDBRANCH  13  18
ENDBRANCH   8   9
ENDBRANCH   1   8
BRANCH   3  20
HETATM   20  C8  UNL     1      35.063   5.342  23.194  1.00  0.00     0.276 C 
HETATM   21  O3  UNL     1      34.791   4.303  24.043  1.00  0.00    -0.352 OA
HETATM   22  C9  UNL     1      35.972   3.852  24.593  1.00  0.00     0.179 C 
HETATM   23  C11 UNL     1      36.928   3.939  23.415  1.00  0.00     0.182 C 
HETATM   24  C12 UNL     1      36.520   5.290  22.830  1.00  0.00     0.200 C 
BRANCH  22  25
HETATM   25  C10 UNL     1      35.858   2.422  25.071  1.00  0.00     0.198 C 
BRANCH  25  26
HETATM   26  O4  UNL     1      37.127   1.929  25.277  1.00  0.00    -0.398 OA
ATOM     27  H4  UNL     1      37.150   1.026  24.982  1.00  0.00     0.209 HD
ENDBRANCH  25  26
ENDBRANCH  22  25
BRANCH  23  28
HETATM   28  O5  UNL     1      38.247   3.905  23.784  1.00  0.00    -0.390 OA
ATOM     29  H5  UNL     1      38.681   3.092  23.556  1.00  0.00     0.210 HD
ENDBRANCH  23  28
BRANCH  24  30
HETATM   30  O6  UNL     1      36.754   5.352  21.469  1.00  0.00    -0.388 OA
ATOM     31  H6  UNL     1      37.662   5.202  21.231  1.00  0.00     0.210 HD
ENDBRANCH  24  30
ENDBRANCH   3  20
TORSDOF 8
ENDMDL
