MODEL 2
REMARK VINA RESULT: -7.144059574      2.919      4.415
REMARK  8 active torsions:
REMARK  status: ('A' for Active; 'I' for Inactive)
REMARK    1  A    between atoms: C3_3  and  O1_4 
REMARK    2  A    between atoms: N2_10  and  C5_11 
REMARK    3  A    between atoms: C5_11  and  C6_12 
REMARK    4  A    between atoms: N3_14  and  C8_15 
REMARK    5  A    between atoms: C9_17  and  C10_18 
REMARK    6  A    between atoms: C10_18  and  O4_19 
REMARK    7  A    between atoms: C11_21  and  O5_22 
REMARK    8  A    between atoms: C12_24  and  O6_25 
ROOT
HETATM    1  C6  UNL     1      36.207   5.294  23.809  1.00  0.00     0.062 A 
HETATM    2  C7  UNL     1      37.182   4.339  23.636  1.00  0.00     0.143 A 
HETATM    3  N3  UNL     1      36.839   3.248  24.343  1.00  0.00    -0.255 N 
HETATM    4  N4  UNL     1      35.699   3.545  24.916  1.00  0.00    -0.238 N 
ATOM      5  H4  UNL     1      35.186   2.906  25.523  1.00  0.00     0.208 HD
HETATM    6  N5  UNL     1      35.288   4.761  24.621  1.00  0.00    -0.287 N 
ATOM      7  H5  UNL     1      34.433   5.210  24.949  1.00  0.00     0.188 HD
ENDROOT
BRANCH   1   8
HETATM    8  C5  UNL     1      36.190   6.636  23.212  1.00  0.00     0.188 C 
BRANCH   8   9
HETATM    9  N2  UNL     1      35.678   7.656  24.129  1.00  0.00    -0.324 N 
HETATM   10  C4  UNL     1      34.367   8.141  24.049  1.00  0.00     0.324 A 
HETATM   11  N1  UNL     1      33.956   9.130  24.980  1.00  0.00    -0.289 N 
HETATM   12  O2  UNL     1      33.585   7.698  23.165  1.00  0.00    -0.247 OA
HETATM   13  C3  UNL     1      34.835   9.631  25.977  1.00  0.00     0.147 A 
ATOM     14  H1  UNL     1      33.004   9.492  24.931  1.00  0.00     0.172 HD
HETATM   15  C2  UNL     1      36.056   9.163  26.032  1.00  0.00    -0.015 A 
HETATM   16  C1  UNL     1      36.947   9.728  27.107  1.00  0.00     0.050 C 
HETATM   17  C13 UNL     1      36.588   8.146  25.127  1.00  0.00     0.166 A 
BRANCH  13  18
HETATM   18  O1  UNL     1      34.388  10.616  26.886  1.00  0.00    -0.346 OA
ATOM     19  H1  UNL     1      33.812  10.394  27.608  1.00  0.00     0.219 HD
ENDBRANCH  13  18
ENDBRANCH   8   9
ENDBRANCH   1   8
BRANCH   3  20
HETATM   20  C8  UNL     1      37.629   2.043  24.397  1.00  0.00     0.276 C 
HETATM   21  O3  UNL     1      38.309   1.886  23.219  1.00  0.00    -0.352 OA
HETATM   22  C9  UNL     1      37.705   0.889  22.483  1.00  0.00     0.179 C 
HETATM   23  C11 UNL     1      37.340  -0.126  23.554  1.00  0.00     0.182 C 
HETATM   24  C12 UNL     1      36.813   0.806  24.645  1.00  0.00     0.200 C 
BRANCH  22  25
HETATM   25  C10 UNL     1      38.658   0.275  21.483  1.00  0.00     0.198 C 
BRANCH  25  26
HETATM   26  O4  UNL     1      37.926  -0.462  20.578  1.00  0.00    -0.398 OA
ATOM     27  H4  UNL     1      38.504  -0.738  19.877  1.00  0.00     0.209 HD
ENDBRANCH  25  26
ENDBRANCH  22  25
BRANCH  23  28
HETATM   28  O5  UNL     1      36.401  -1.034  23.143  1.00  0.00    -0.390 OA
ATOM     29  H5  UNL     1      36.010  -1.521  23.858  1.00  0.00     0.210 HD
ENDBRANCH  23  28
BRANCH  24  30
HETATM   30  O6  UNL     1      36.989   0.269  25.907  1.00  0.00    -0.388 OA
ATOM     31  H6  UNL     1      36.441  -0.488  26.078  1.00  0.00     0.210 HD
ENDBRANCH  24  30
ENDBRANCH   3  20
TORSDOF 8
ENDMDL
