MODEL 2
REMARK VINA RESULT: -6.967711347      2.653      4.463
REMARK  8 active torsions:
REMARK  status: ('A' for Active; 'I' for Inactive)
REMARK    1  A    between atoms: C2_5  and  O2_6 
REMARK    2  A    between atoms: N2_11  and  C5_12 
REMARK    3  A    between atoms: C5_12  and  C6_13 
REMARK    4  A    between atoms: N3_15  and  C8_16 
REMARK    5  A    between atoms: C9_18  and  C10_19 
REMARK    6  A    between atoms: C10_19  and  O4_20 
REMARK    7  A    between atoms: C11_22  and  O5_23 
REMARK    8  A    between atoms: C12_25  and  O6_26 
ROOT
HETATM    1  C6  UNL     1      35.269  -4.694  12.816  1.00  0.00     0.062 A 
HETATM    2  C7  UNL     1      36.173  -3.699  13.172  1.00  0.00     0.143 A 
HETATM    3  N3  UNL     1      36.182  -2.759  12.213  1.00  0.00    -0.255 N 
HETATM    4  N4  UNL     1      35.323  -3.137  11.287  1.00  0.00    -0.238 N 
ATOM      5  H4  UNL     1      35.114  -2.621  10.432  1.00  0.00     0.208 HD
HETATM    6  N5  UNL     1      34.777  -4.286  11.638  1.00  0.00    -0.287 N 
ATOM      7  H5  UNL     1      34.080  -4.791  11.091  1.00  0.00     0.188 HD
ENDROOT
BRANCH   1   8
HETATM    8  C5  UNL     1      34.989  -5.890  13.625  1.00  0.00     0.188 C 
BRANCH   8   9
HETATM    9  N2  UNL     1      34.677  -7.049  12.770  1.00  0.00    -0.322 N 
HETATM   10  C1  UNL     1      33.368  -7.232  12.267  1.00  0.00     0.325 A 
HETATM   11  O1  UNL     1      32.514  -6.348  12.599  1.00  0.00    -0.247 OA
HETATM   12  N1  UNL     1      33.022  -8.328  11.444  1.00  0.00    -0.287 N 
HETATM   13  C2  UNL     1      34.032  -9.261  11.126  1.00  0.00     0.181 A 
ATOM     14  H1  UNL     1      32.071  -8.441  11.091  1.00  0.00     0.172 HD
HETATM   15  C3  UNL     1      35.254  -9.093  11.594  1.00  0.00     0.162 A 
HETATM   16  F1  UNL     1      36.194 -10.050  11.239  1.00  0.00    -0.204 F 
HETATM   17  C4  UNL     1      35.709  -7.993  12.452  1.00  0.00     0.202 A 
BRANCH  13  18
HETATM   18  O2  UNL     1      33.772 -10.382  10.311  1.00  0.00    -0.344 OA
ATOM     19  H2  UNL     1      33.724 -11.259  10.672  1.00  0.00     0.219 HD
ENDBRANCH  13  18
ENDBRANCH   8   9
ENDBRANCH   1   8
BRANCH   3  20
HETATM   20  C8  UNL     1      37.023  -1.581  12.286  1.00  0.00     0.276 C 
HETATM   21  O3  UNL     1      37.310  -1.316  13.603  1.00  0.00    -0.352 OA
HETATM   22  C9  UNL     1      37.598   0.013  13.741  1.00  0.00     0.179 C 
HETATM   23  C11 UNL     1      37.115   0.737  12.524  1.00  0.00     0.182 C 
HETATM   24  C12 UNL     1      36.343  -0.347  11.801  1.00  0.00     0.200 C 
BRANCH  22  25
HETATM   25  C10 UNL     1      39.123   0.174  13.796  1.00  0.00     0.198 C 
BRANCH  25  26
HETATM   26  O4  UNL     1      39.547   1.251  13.050  1.00  0.00    -0.398 OA
ATOM     27  H4  UNL     1      40.073   1.851  13.566  1.00  0.00     0.209 HD
ENDBRANCH  25  26
ENDBRANCH  22  25
BRANCH  23  28
HETATM   28  O5  UNL     1      36.268   1.768  12.947  1.00  0.00    -0.390 OA
ATOM     29  H5  UNL     1      35.754   2.049  12.199  1.00  0.00     0.210 HD
ENDBRANCH  23  28
BRANCH  24  30
HETATM   30  O6  UNL     1      36.636  -0.209  10.435  1.00  0.00    -0.388 OA
ATOM     31  H6  UNL     1      35.842   0.073   9.998  1.00  0.00     0.210 HD
ENDBRANCH  24  30
ENDBRANCH   3  20
TORSDOF 8
ENDMDL
