MODEL 1
REMARK VINA RESULT: -7.252664289      0.000      0.000
REMARK  8 active torsions:
REMARK  status: ('A' for Active; 'I' for Inactive)
REMARK    1  A    between atoms: C2_5  and  O2_6 
REMARK    2  A    between atoms: N2_11  and  C5_12 
REMARK    3  A    between atoms: C5_12  and  C6_13 
REMARK    4  A    between atoms: N3_15  and  C8_16 
REMARK    5  A    between atoms: C9_18  and  C10_19 
REMARK    6  A    between atoms: C10_19  and  O4_20 
REMARK    7  A    between atoms: C11_22  and  O5_23 
REMARK    8  A    between atoms: C12_25  and  O6_26 
ROOT
HETATM    1  C6  UNL     1      34.067  -8.312  11.754  1.00  0.00     0.062 A 
HETATM    2  C7  UNL     1      34.854  -7.215  12.090  1.00  0.00     0.143 A 
HETATM    3  N3  UNL     1      34.073  -6.125  12.151  1.00  0.00    -0.255 N 
HETATM    4  N4  UNL     1      32.844  -6.507  11.868  1.00  0.00    -0.238 N 
ATOM      5  H4  UNL     1      32.029  -5.895  11.836  1.00  0.00     0.208 HD
HETATM    6  N5  UNL     1      32.833  -7.806  11.630  1.00  0.00    -0.287 N 
ATOM      7  H5  UNL     1      32.002  -8.347  11.387  1.00  0.00     0.188 HD
ENDROOT
BRANCH   1   8
HETATM    8  C5  UNL     1      34.577  -9.683  11.595  1.00  0.00     0.188 C 
BRANCH   8   9
HETATM    9  N2  UNL     1      34.526 -10.108  10.185  1.00  0.00    -0.322 N 
HETATM   10  C1  UNL     1      33.560 -11.050   9.761  1.00  0.00     0.325 A 
HETATM   11  O1  UNL     1      32.768 -11.483  10.659  1.00  0.00    -0.247 OA
HETATM   12  N1  UNL     1      33.472 -11.489   8.419  1.00  0.00    -0.287 N 
HETATM   13  C2  UNL     1      34.389 -10.957   7.488  1.00  0.00     0.181 A 
ATOM     14  H1  UNL     1      32.767 -12.169   8.133  1.00  0.00     0.172 HD
HETATM   15  C3  UNL     1      35.292 -10.079   7.882  1.00  0.00     0.162 A 
HETATM   16  F1  UNL     1      36.160  -9.600   6.911  1.00  0.00    -0.204 F 
HETATM   17  C4  UNL     1      35.462  -9.564   9.245  1.00  0.00     0.202 A 
BRANCH  13  18
HETATM   18  O2  UNL     1      34.371 -11.340   6.131  1.00  0.00    -0.344 OA
ATOM     19  H2  UNL     1      35.158 -11.628   5.685  1.00  0.00     0.219 HD
ENDBRANCH  13  18
ENDBRANCH   8   9
ENDBRANCH   1   8
BRANCH   3  20
HETATM   20  C8  UNL     1      34.593  -4.812  12.480  1.00  0.00     0.276 C 
HETATM   21  O3  UNL     1      34.817  -4.114  11.319  1.00  0.00    -0.352 OA
HETATM   22  C9  UNL     1      35.773  -3.164  11.543  1.00  0.00     0.179 C 
HETATM   23  C11 UNL     1      36.487  -3.494  12.815  1.00  0.00     0.182 C 
HETATM   24  C12 UNL     1      35.927  -4.862  13.143  1.00  0.00     0.200 C 
BRANCH  22  25
HETATM   25  C10 UNL     1      35.075  -1.813  11.744  1.00  0.00     0.198 C 
BRANCH  25  26
HETATM   26  O4  UNL     1      35.633  -1.103  12.783  1.00  0.00    -0.398 OA
ATOM     27  H4  UNL     1      35.110  -0.343  13.010  1.00  0.00     0.209 HD
ENDBRANCH  25  26
ENDBRANCH  22  25
BRANCH  23  28
HETATM   28  O5  UNL     1      37.857  -3.560  12.534  1.00  0.00    -0.390 OA
ATOM     29  H5  UNL     1      38.218  -4.295  13.015  1.00  0.00     0.210 HD
ENDBRANCH  23  28
BRANCH  24  30
HETATM   30  O6  UNL     1      35.711  -4.889  14.530  1.00  0.00    -0.388 OA
ATOM     31  H6  UNL     1      36.035  -5.720  14.856  1.00  0.00     0.210 HD
ENDBRANCH  24  30
ENDBRANCH   3  20
TORSDOF 8
ENDMDL
