MODEL 3
REMARK VINA RESULT: -6.776501447      2.665      4.416
REMARK  8 active torsions:
REMARK  status: ('A' for Active; 'I' for Inactive)
REMARK    1  A    between atoms: C2_5  and  O2_6 
REMARK    2  A    between atoms: N2_11  and  C5_12 
REMARK    3  A    between atoms: C5_12  and  C6_13 
REMARK    4  A    between atoms: N3_15  and  C8_16 
REMARK    5  A    between atoms: C9_18  and  C10_19 
REMARK    6  A    between atoms: C10_19  and  O4_20 
REMARK    7  A    between atoms: C11_22  and  O5_23 
REMARK    8  A    between atoms: C12_25  and  O6_26 
ROOT
HETATM    1  C6  UNL     1      35.306  -4.747  12.710  1.00  0.00     0.062 A 
HETATM    2  C7  UNL     1      36.498  -4.032  12.715  1.00  0.00     0.143 A 
HETATM    3  N3  UNL     1      36.398  -3.019  11.840  1.00  0.00    -0.255 N 
HETATM    4  N4  UNL     1      35.198  -3.083  11.300  1.00  0.00    -0.238 N 
ATOM      5  H4  UNL     1      34.832  -2.442  10.597  1.00  0.00     0.208 HD
HETATM    6  N5  UNL     1      34.542  -4.108  11.812  1.00  0.00    -0.287 N 
ATOM      7  H5  UNL     1      33.590  -4.376  11.560  1.00  0.00     0.188 HD
ENDROOT
BRANCH   1   8
HETATM    8  C5  UNL     1      35.042  -5.930  13.544  1.00  0.00     0.188 C 
BRANCH   8   9
HETATM    9  N2  UNL     1      34.694  -7.098  12.716  1.00  0.00    -0.322 N 
HETATM   10  C1  UNL     1      33.370  -7.271  12.251  1.00  0.00     0.325 A 
HETATM   11  O1  UNL     1      32.535  -6.370  12.590  1.00  0.00    -0.247 OA
HETATM   12  N1  UNL     1      32.988  -8.375  11.454  1.00  0.00    -0.287 N 
HETATM   13  C2  UNL     1      33.977  -9.326  11.124  1.00  0.00     0.181 A 
ATOM     14  H1  UNL     1      32.027  -8.481  11.128  1.00  0.00     0.172 HD
HETATM   15  C3  UNL     1      35.212  -9.167  11.557  1.00  0.00     0.162 A 
HETATM   16  F1  UNL     1      36.131 -10.141  11.193  1.00  0.00    -0.204 F 
HETATM   17  C4  UNL     1      35.705  -8.060  12.386  1.00  0.00     0.202 A 
BRANCH  13  18
HETATM   18  O2  UNL     1      33.681 -10.455  10.334  1.00  0.00    -0.344 OA
ATOM     19  H2  UNL     1      34.335 -10.856   9.774  1.00  0.00     0.219 HD
ENDBRANCH  13  18
ENDBRANCH   8   9
ENDBRANCH   1   8
BRANCH   3  20
HETATM   20  C8  UNL     1      37.479  -2.080  11.609  1.00  0.00     0.276 C 
HETATM   21  O3  UNL     1      38.430  -2.242  12.587  1.00  0.00    -0.352 OA
HETATM   22  C9  UNL     1      39.132  -1.078  12.728  1.00  0.00     0.179 C 
HETATM   23  C11 UNL     1      38.364   0.027  12.074  1.00  0.00     0.182 C 
HETATM   24  C12 UNL     1      37.055  -0.658  11.739  1.00  0.00     0.200 C 
BRANCH  22  25
HETATM   25  C10 UNL     1      40.462  -1.221  11.978  1.00  0.00     0.198 C 
BRANCH  25  26
HETATM   26  O4  UNL     1      40.440  -0.553  10.774  1.00  0.00    -0.398 OA
ATOM     27  H4  UNL     1      41.264  -0.642  10.308  1.00  0.00     0.209 HD
ENDBRANCH  25  26
ENDBRANCH  22  25
BRANCH  23  28
HETATM   28  O5  UNL     1      38.179   1.040  13.021  1.00  0.00    -0.390 OA
ATOM     29  H5  UNL     1      37.276   1.004  13.315  1.00  0.00     0.210 HD
ENDBRANCH  23  28
BRANCH  24  30
HETATM   30  O6  UNL     1      36.680  -0.209  10.462  1.00  0.00    -0.388 OA
ATOM     31  H6  UNL     1      36.959   0.696  10.383  1.00  0.00     0.210 HD
ENDBRANCH  24  30
ENDBRANCH   3  20
TORSDOF 8
ENDMDL
