MODEL 3
REMARK VINA RESULT: -9.239095434      0.912      2.192
REMARK  3 active torsions:
REMARK  status: ('A' for Active; 'I' for Inactive)
REMARK    1  A    between atoms: C5_9  and  C6_10 
REMARK    2  A    between atoms: C6_10  and  N4_11 
REMARK    3  A    between atoms: N4_11  and  C7_13 
ROOT
HETATM    1  N1  UNL     1      29.100   8.391   6.579  1.00  0.00    -0.063 NA
HETATM    2  C1  UNL     1      29.103   8.647   5.181  1.00  0.00     0.195 A 
HETATM    3  N2  UNL     1      30.117   9.361   4.629  1.00  0.00    -0.318 N 
ATOM      4  H2  UNL     1      30.864   9.703   5.233  1.00  0.00     0.169 HD
HETATM    5  C2  UNL     1      30.170   9.633   3.310  1.00  0.00     0.132 A 
HETATM    6  N3  UNL     1      31.245  10.379   2.781  1.00  0.00    -0.082 NA
HETATM    7  C3  UNL     1      29.176   9.183   2.483  1.00  0.00     0.050 A 
HETATM    8  C4  UNL     1      29.246   9.467   1.156  1.00  0.00     0.028 A 
HETATM    9  C5  UNL     1      28.264   9.028   0.306  1.00  0.00    -0.024 A 
HETATM   10  C13 UNL     1      27.226   8.298   0.872  1.00  0.00     0.098 A 
HETATM   11  N5  UNL     1      27.184   8.031   2.193  1.00  0.00    -0.351 N 
ATOM     12  H5  UNL     1      26.403   7.491   2.565  1.00  0.00     0.166 HD
HETATM   13  C14 UNL     1      28.141   8.457   3.031  1.00  0.00     0.121 A 
HETATM   14  N6  UNL     1      28.135   8.214   4.352  1.00  0.00    -0.316 N 
ATOM     15  H6  UNL     1      27.362   7.675   4.745  1.00  0.00     0.170 HD
ENDROOT
BRANCH   9  16
HETATM   16  C6  UNL     1      28.242   9.275  -1.129  1.00  0.00     0.160 C 
BRANCH  16  17
HETATM   17  N4  UNL     1      27.559  10.485  -1.511  1.00  0.00    -0.384 N 
ATOM     18  H4  UNL     1      26.554  10.492  -1.683  1.00  0.00     0.160 HD
BRANCH  17  19
HETATM   19  C7  UNL     1      28.335  11.670  -1.642  1.00  0.00     0.051 A 
HETATM   20  C8  UNL     1      29.382  11.774  -2.559  1.00  0.00     0.054 A 
HETATM   21  C9  UNL     1      30.140  12.896  -2.706  1.00  0.00     0.036 A 
HETATM   22 CL1  UNL     1      31.453  13.003  -3.868  1.00  0.00    -0.084 Cl
HETATM   23  C10 UNL     1      29.888  14.004  -1.921  1.00  0.00     0.026 A 
HETATM   24  C11 UNL     1      28.860  13.947  -0.998  1.00  0.00     0.028 A 
HETATM   25  C12 UNL     1      28.109  12.798  -0.872  1.00  0.00     0.060 A 
HETATM   26 CL2  UNL     1      26.823  12.793   0.317  1.00  0.00    -0.082 Cl
ENDBRANCH  17  19
ENDBRANCH  16  17
ENDBRANCH   9  16
TORSDOF 3
ENDMDL
