MODEL 2
REMARK VINA RESULT: -9.324104070      1.354      2.437
REMARK  3 active torsions:
REMARK  status: ('A' for Active; 'I' for Inactive)
REMARK    1  A    between atoms: C5_9  and  C6_10 
REMARK    2  A    between atoms: C6_10  and  N4_11 
REMARK    3  A    between atoms: N4_11  and  C7_13 
ROOT
HETATM    1  N1  UNL     1      30.839   8.118   7.433  1.00  0.00    -0.063 NA
HETATM    2  C1  UNL     1      30.417   8.304   6.089  1.00  0.00     0.195 A 
HETATM    3  N2  UNL     1      31.340   8.530   5.119  1.00  0.00    -0.318 N 
ATOM      4  H2  UNL     1      32.326   8.561   5.375  1.00  0.00     0.169 HD
HETATM    5  C2  UNL     1      30.996   8.713   3.828  1.00  0.00     0.132 A 
HETATM    6  N3  UNL     1      31.990   8.945   2.854  1.00  0.00    -0.082 NA
HETATM    7  C3  UNL     1      29.677   8.675   3.465  1.00  0.00     0.050 A 
HETATM    8  C4  UNL     1      29.349   8.861   2.160  1.00  0.00     0.028 A 
HETATM    9  C5  UNL     1      28.035   8.827   1.769  1.00  0.00    -0.024 A 
HETATM   10  C13 UNL     1      27.092   8.597   2.763  1.00  0.00     0.098 A 
HETATM   11  N5  UNL     1      27.447   8.414   4.050  1.00  0.00    -0.351 N 
ATOM     12  H5  UNL     1      26.721   8.248   4.747  1.00  0.00     0.166 HD
HETATM   13  C14 UNL     1      28.731   8.446   4.441  1.00  0.00     0.121 A 
HETATM   14  N6  UNL     1      29.126   8.270   5.712  1.00  0.00    -0.316 N 
ATOM     15  H6  UNL     1      28.415   8.102   6.424  1.00  0.00     0.170 HD
ENDROOT
BRANCH   9  16
HETATM   16  C6  UNL     1      27.575   9.014   0.400  1.00  0.00     0.160 C 
BRANCH  16  17
HETATM   17  N4  UNL     1      26.818  10.221   0.189  1.00  0.00    -0.384 N 
ATOM     18  H4  UNL     1      25.890  10.340   0.595  1.00  0.00     0.160 HD
BRANCH  17  19
HETATM   19  C7  UNL     1      27.409  11.243  -0.605  1.00  0.00     0.051 A 
HETATM   20  C8  UNL     1      27.296  11.261  -1.996  1.00  0.00     0.054 A 
HETATM   21  C9  UNL     1      27.850  12.226  -2.781  1.00  0.00     0.036 A 
HETATM   22 CL1  UNL     1      27.694  12.226  -4.530  1.00  0.00    -0.084 Cl
HETATM   23  C10 UNL     1      28.569  13.254  -2.202  1.00  0.00     0.026 A 
HETATM   24  C11 UNL     1      28.708  13.278  -0.827  1.00  0.00     0.028 A 
HETATM   25  C12 UNL     1      28.136  12.287  -0.058  1.00  0.00     0.060 A 
HETATM   26 CL2  UNL     1      28.350  12.378   1.678  1.00  0.00    -0.082 Cl
ENDBRANCH  17  19
ENDBRANCH  16  17
ENDBRANCH   9  16
TORSDOF 3
ENDMDL
