MODEL 1
REMARK VINA RESULT: -9.370862786      0.000      0.000
REMARK  3 active torsions:
REMARK  status: ('A' for Active; 'I' for Inactive)
REMARK    1  A    between atoms: C5_9  and  C6_10 
REMARK    2  A    between atoms: C6_10  and  N4_11 
REMARK    3  A    between atoms: N4_11  and  C7_13 
ROOT
HETATM    1  N1  UNL     1      29.143   8.300   6.707  1.00  0.00    -0.063 NA
HETATM    2  C1  UNL     1      29.143   8.559   5.310  1.00  0.00     0.195 A 
HETATM    3  N2  UNL     1      30.175   9.242   4.752  1.00  0.00    -0.318 N 
ATOM      4  H2  UNL     1      30.937   9.559   5.352  1.00  0.00     0.169 HD
HETATM    5  C2  UNL     1      30.227   9.515   3.433  1.00  0.00     0.132 A 
HETATM    6  N3  UNL     1      31.321  10.229   2.898  1.00  0.00    -0.082 NA
HETATM    7  C3  UNL     1      29.214   9.097   2.613  1.00  0.00     0.050 A 
HETATM    8  C4  UNL     1      29.283   9.381   1.286  1.00  0.00     0.028 A 
HETATM    9  C5  UNL     1      28.283   8.973   0.442  1.00  0.00    -0.024 A 
HETATM   10  C13 UNL     1      27.227   8.274   1.015  1.00  0.00     0.098 A 
HETATM   11  N5  UNL     1      27.186   8.007   2.335  1.00  0.00    -0.351 N 
ATOM     12  H5  UNL     1      26.391   7.491   2.712  1.00  0.00     0.166 HD
HETATM   13  C14 UNL     1      28.161   8.402   3.167  1.00  0.00     0.121 A 
HETATM   14  N6  UNL     1      28.157   8.156   4.488  1.00  0.00    -0.316 N 
ATOM     15  H6  UNL     1      27.371   7.641   4.885  1.00  0.00     0.170 HD
ENDROOT
BRANCH   9  16
HETATM   16  C6  UNL     1      28.257   9.224  -0.992  1.00  0.00     0.160 C 
BRANCH  16  17
HETATM   17  N4  UNL     1      27.485  10.376  -1.379  1.00  0.00    -0.384 N 
ATOM     18  H4  UNL     1      26.605  10.276  -1.886  1.00  0.00     0.160 HD
BRANCH  17  19
HETATM   19  C7  UNL     1      27.990  11.660  -1.031  1.00  0.00     0.051 A 
HETATM   20  C8  UNL     1      27.518  12.368   0.075  1.00  0.00     0.054 A 
HETATM   21  C9  UNL     1      27.983  13.598   0.432  1.00  0.00     0.036 A 
HETATM   22 CL1  UNL     1      27.372  14.469   1.829  1.00  0.00    -0.084 Cl
HETATM   23  C10 UNL     1      28.971  14.203  -0.319  1.00  0.00     0.026 A 
HETATM   24  C11 UNL     1      29.470  13.539  -1.425  1.00  0.00     0.028 A 
HETATM   25  C12 UNL     1      28.980  12.296  -1.761  1.00  0.00     0.060 A 
HETATM   26 CL2  UNL     1      29.655  11.509  -3.173  1.00  0.00    -0.082 Cl
ENDBRANCH  17  19
ENDBRANCH  16  17
ENDBRANCH   9  16
TORSDOF 3
ENDMDL
