MODEL 1
REMARK VINA RESULT: -7.818038585      0.000      0.000
REMARK  6 active torsions:
REMARK  status: ('A' for Active; 'I' for Inactive)
REMARK    1  A    between atoms: S1_2  and  C2_3 
REMARK    2  A    between atoms: C2_3  and  C3_4 
REMARK    3  A    between atoms: C4_6  and  N1_7 
REMARK    4  A    between atoms: C10_19  and  O2_20 
REMARK    5  A    between atoms: C11_22  and  O3_23 
REMARK    6  A    between atoms: C12_25  and  O4_26 
ROOT
HETATM    1  N1  UNL     1     -38.421  -6.686  38.929  1.00  0.00    -0.297 N 
HETATM    2  C5  UNL     1     -39.402  -6.300  38.113  1.00  0.00     0.187 A 
HETATM    3  N2  UNL     1     -38.859  -5.816  36.978  1.00  0.00    -0.350 N 
ATOM      4  H2  UNL     1     -39.377  -5.451  36.179  1.00  0.00     0.166 HD
HETATM    5  C6  UNL     1     -37.522  -5.895  37.076  1.00  0.00     0.085 A 
HETATM    6  C7  UNL     1     -37.263  -6.441  38.301  1.00  0.00     0.137 A 
HETATM    7  N3  UNL     1     -35.997  -6.727  38.867  1.00  0.00    -0.337 N 
ATOM      8  H3  UNL     1     -35.990  -6.907  39.870  1.00  0.00     0.168 HD
HETATM    9  C8  UNL     1     -34.860  -6.790  38.282  1.00  0.00     0.177 C 
HETATM   10  N4  UNL     1     -34.607  -6.580  36.898  1.00  0.00    -0.383 N 
ATOM     11  H4  UNL     1     -33.615  -6.614  36.664  1.00  0.00     0.160 HD
HETATM   12  C9  UNL     1     -35.443  -6.334  35.767  1.00  0.00     0.158 C 
HETATM   13  C10 UNL     1     -36.617  -5.447  36.013  1.00  0.00     0.189 C 
ENDROOT
BRANCH   1  14
HETATM   14  C4  UNL     1     -38.518  -7.261  40.252  1.00  0.00     0.262 C 
HETATM   15  O1  UNL     1     -38.430  -8.620  40.292  1.00  0.00    -0.355 OA
HETATM   16  C3  UNL     1     -39.426  -9.129  41.090  1.00  0.00     0.165 C 
HETATM   17  C12 UNL     1     -40.149  -7.999  41.761  1.00  0.00     0.180 C 
HETATM   18  C11 UNL     1     -39.848  -6.843  40.834  1.00  0.00     0.198 C 
BRANCH  16  19
HETATM   19  C2  UNL     1     -40.350  -9.964  40.249  1.00  0.00     0.108 C 
BRANCH  19  20
HETATM   20  S1  UNL     1     -40.485 -11.667  40.767  1.00  0.00    -0.171 SA
HETATM   21  C1  UNL     1     -38.957 -12.376  41.371  1.00  0.00     0.089 C 
ENDBRANCH  19  20
ENDBRANCH  16  19
BRANCH  17  22
HETATM   22  O4  UNL     1     -39.579  -7.676  43.004  1.00  0.00    -0.390 OA
ATOM     23  H4  UNL     1     -39.956  -8.186  43.711  1.00  0.00     0.210 HD
ENDBRANCH  17  22
BRANCH  18  24
HETATM   24  O3  UNL     1     -39.690  -5.639  41.492  1.00  0.00    -0.388 OA
ATOM     25  H3  UNL     1     -40.445  -5.491  42.049  1.00  0.00     0.210 HD
ENDBRANCH  18  24
ENDBRANCH   1  14
BRANCH  13  26
HETATM   26  O2  UNL     1     -37.339  -5.399  34.801  1.00  0.00    -0.388 OA
ATOM     27  H2  UNL     1     -37.221  -6.225  34.347  1.00  0.00     0.210 HD
ENDBRANCH  13  26
TORSDOF 6
ENDMDL
