MODEL 5
REMARK VINA RESULT: -4.119843925      2.919      6.313
REMARK  6 active torsions:
REMARK  status: ('A' for Active; 'I' for Inactive)
REMARK    1  A    between atoms: S1_2  and  C2_3 
REMARK    2  A    between atoms: C2_3  and  C3_4 
REMARK    3  A    between atoms: C4_6  and  N1_7 
REMARK    4  A    between atoms: C10_19  and  O2_20 
REMARK    5  A    between atoms: C11_22  and  O3_23 
REMARK    6  A    between atoms: C12_25  and  O4_26 
ROOT
HETATM    1  N1  UNL     1     -39.281  -7.475  40.084  1.00  0.00    -0.297 N 
HETATM    2  C5  UNL     1     -39.343  -6.641  41.123  1.00  0.00     0.187 A 
HETATM    3  N2  UNL     1     -39.593  -7.353  42.239  1.00  0.00    -0.350 N 
ATOM      4  H2  UNL     1     -39.691  -6.972  43.180  1.00  0.00     0.166 HD
HETATM    5  C6  UNL     1     -39.691  -8.650  41.906  1.00  0.00     0.085 A 
HETATM    6  C7  UNL     1     -39.494  -8.712  40.556  1.00  0.00     0.137 A 
HETATM    7  N3  UNL     1     -39.500  -9.865  39.735  1.00  0.00    -0.337 N 
ATOM      8  H3  UNL     1     -39.573  -9.696  38.732  1.00  0.00     0.168 HD
HETATM    9  C8  UNL     1     -39.424 -11.093  40.088  1.00  0.00     0.177 C 
HETATM   10  N4  UNL     1     -39.316 -11.586  41.417  1.00  0.00    -0.383 N 
ATOM     11  H4  UNL     1     -39.338 -12.605  41.469  1.00  0.00     0.160 HD
HETATM   12  C9  UNL     1     -39.183 -10.963  42.695  1.00  0.00     0.158 C 
HETATM   13  C10 UNL     1     -39.965  -9.707  42.886  1.00  0.00     0.189 C 
ENDROOT
BRANCH   1  14
HETATM   14  C4  UNL     1     -39.040  -7.170  38.691  1.00  0.00     0.262 C 
HETATM   15  O1  UNL     1     -37.946  -7.779  38.155  1.00  0.00    -0.355 OA
HETATM   16  C3  UNL     1     -37.205  -6.865  37.446  1.00  0.00     0.165 C 
HETATM   17  C12 UNL     1     -37.952  -5.566  37.380  1.00  0.00     0.180 C 
HETATM   18  C11 UNL     1     -38.870  -5.673  38.576  1.00  0.00     0.198 C 
BRANCH  16  19
HETATM   19  C2  UNL     1     -35.862  -6.706  38.103  1.00  0.00     0.108 C 
BRANCH  19  20
HETATM   20  S1  UNL     1     -34.512  -6.431  36.969  1.00  0.00    -0.171 SA
HETATM   21  C1  UNL     1     -34.876  -5.269  35.658  1.00  0.00     0.089 C 
ENDBRANCH  19  20
ENDBRANCH  16  19
BRANCH  17  22
HETATM   22  O4  UNL     1     -38.777  -5.492  36.245  1.00  0.00    -0.390 OA
ATOM     23  H4  UNL     1     -39.407  -6.203  36.217  1.00  0.00     0.210 HD
ENDBRANCH  17  22
BRANCH  18  24
HETATM   24  O3  UNL     1     -40.108  -5.097  38.371  1.00  0.00    -0.388 OA
ATOM     25  H3  UNL     1     -40.247  -4.425  39.027  1.00  0.00     0.210 HD
ENDBRANCH  18  24
ENDBRANCH   1  14
BRANCH  13  26
HETATM   26  O2  UNL     1     -39.633  -9.223  44.170  1.00  0.00    -0.388 OA
ATOM     27  H2  UNL     1     -38.968  -9.790  44.543  1.00  0.00     0.210 HD
ENDBRANCH  13  26
TORSDOF 6
ENDMDL
