MODEL 3
REMARK VINA RESULT: -4.918090477      2.598      6.065
REMARK  6 active torsions:
REMARK  status: ('A' for Active; 'I' for Inactive)
REMARK    1  A    between atoms: S1_2  and  C2_3 
REMARK    2  A    between atoms: C2_3  and  C3_4 
REMARK    3  A    between atoms: C4_6  and  N1_7 
REMARK    4  A    between atoms: C10_19  and  O2_20 
REMARK    5  A    between atoms: C11_22  and  O3_23 
REMARK    6  A    between atoms: C12_25  and  O4_26 
ROOT
HETATM    1  N1  UNL     1     -38.810  -7.001  39.316  1.00  0.00    -0.297 N 
HETATM    2  C5  UNL     1     -38.978  -5.934  40.099  1.00  0.00     0.187 A 
HETATM    3  N2  UNL     1     -39.464  -6.340  41.289  1.00  0.00    -0.350 N 
ATOM      4  H2  UNL     1     -39.687  -5.734  42.078  1.00  0.00     0.166 HD
HETATM    5  C6  UNL     1     -39.607  -7.674  41.261  1.00  0.00     0.085 A 
HETATM    6  C7  UNL     1     -39.194  -8.074  40.022  1.00  0.00     0.137 A 
HETATM    7  N3  UNL     1     -39.153  -9.394  39.511  1.00  0.00    -0.337 N 
ATOM      8  H3  UNL     1     -39.045  -9.476  38.501  1.00  0.00     0.168 HD
HETATM    9  C8  UNL     1     -39.233 -10.498  40.153  1.00  0.00     0.177 C 
HETATM   10  N4  UNL     1     -39.385 -10.651  41.559  1.00  0.00    -0.383 N 
ATOM     11  H4  UNL     1     -39.495 -11.624  41.846  1.00  0.00     0.160 HD
HETATM   12  C9  UNL     1     -39.418  -9.736  42.655  1.00  0.00     0.158 C 
HETATM   13  C10 UNL     1     -40.120  -8.445  42.398  1.00  0.00     0.189 C 
ENDROOT
BRANCH   1  14
HETATM   14  C4  UNL     1     -38.319  -7.059  37.958  1.00  0.00     0.262 C 
HETATM   15  O1  UNL     1     -37.012  -7.425  37.839  1.00  0.00    -0.355 OA
HETATM   16  C3  UNL     1     -36.367  -6.575  36.972  1.00  0.00     0.165 C 
HETATM   17  C12 UNL     1     -37.370  -5.654  36.344  1.00  0.00     0.180 C 
HETATM   18  C11 UNL     1     -38.497  -5.687  37.351  1.00  0.00     0.198 C 
BRANCH  16  19
HETATM   19  C2  UNL     1     -35.306  -5.820  37.724  1.00  0.00     0.108 C 
BRANCH  19  20
HETATM   20  S1  UNL     1     -34.538  -6.742  39.044  1.00  0.00    -0.171 SA
HETATM   21  C1  UNL     1     -32.975  -7.494  38.605  1.00  0.00     0.089 C 
ENDBRANCH  19  20
ENDBRANCH  16  19
BRANCH  17  22
HETATM   22  O4  UNL     1     -37.885  -6.178  35.146  1.00  0.00    -0.390 OA
ATOM     23  H4  UNL     1     -38.773  -5.884  34.983  1.00  0.00     0.210 HD
ENDBRANCH  17  22
BRANCH  18  24
HETATM   24  O3  UNL     1     -39.750  -5.613  36.774  1.00  0.00    -0.388 OA
ATOM     25  H3  UNL     1     -40.406  -5.630  37.461  1.00  0.00     0.210 HD
ENDBRANCH  18  24
ENDBRANCH   1  14
BRANCH  13  26
HETATM   26  O2  UNL     1     -39.970  -7.671  43.568  1.00  0.00    -0.388 OA
ATOM     27  H2  UNL     1     -40.508  -8.052  44.253  1.00  0.00     0.210 HD
ENDBRANCH  13  26
TORSDOF 6
ENDMDL
