MODEL 8
REMARK VINA RESULT: -2.908089470      1.103      1.190
REMARK  6 active torsions:
REMARK  status: ('A' for Active; 'I' for Inactive)
REMARK    1  A    between atoms: S1_2  and  C2_3 
REMARK    2  A    between atoms: C2_3  and  C3_4 
REMARK    3  A    between atoms: C4_6  and  N1_7 
REMARK    4  A    between atoms: C10_19  and  O2_20 
REMARK    5  A    between atoms: C11_22  and  O3_23 
REMARK    6  A    between atoms: C12_25  and  O4_26 
ROOT
HETATM    1  N1  UNL     1     -38.935  -7.260  39.245  1.00  0.00    -0.297 N 
HETATM    2  C5  UNL     1     -40.119  -7.011  38.684  1.00  0.00     0.187 A 
HETATM    3  N2  UNL     1     -39.925  -6.291  37.561  1.00  0.00    -0.350 N 
ATOM      4  H2  UNL     1     -40.657  -5.961  36.932  1.00  0.00     0.166 HD
HETATM    5  C6  UNL     1     -38.608  -6.082  37.409  1.00  0.00     0.085 A 
HETATM    6  C7  UNL     1     -38.001  -6.693  38.468  1.00  0.00     0.137 A 
HETATM    7  N3  UNL     1     -36.615  -6.753  38.752  1.00  0.00    -0.337 N 
ATOM      8  H3  UNL     1     -36.368  -7.041  39.698  1.00  0.00     0.168 HD
HETATM    9  C8  UNL     1     -35.633  -6.495  37.974  1.00  0.00     0.177 C 
HETATM   10  N4  UNL     1     -35.714  -6.077  36.617  1.00  0.00    -0.383 N 
ATOM     11  H4  UNL     1     -34.804  -5.862  36.209  1.00  0.00     0.160 HD
HETATM   12  C9  UNL     1     -36.796  -5.895  35.702  1.00  0.00     0.158 C 
HETATM   13  C10 UNL     1     -38.045  -5.325  36.285  1.00  0.00     0.189 C 
ENDROOT
BRANCH   1  14
HETATM   14  C4  UNL     1     -38.645  -7.989  40.459  1.00  0.00     0.262 C 
HETATM   15  O1  UNL     1     -38.259  -9.282  40.270  1.00  0.00    -0.355 OA
HETATM   16  C3  UNL     1     -38.946 -10.104  41.130  1.00  0.00     0.165 C 
HETATM   17  C12 UNL     1     -39.750  -9.267  42.079  1.00  0.00     0.180 C 
HETATM   18  C11 UNL     1     -39.893  -7.974  41.309  1.00  0.00     0.198 C 
BRANCH  16  19
HETATM   19  C2  UNL     1     -39.815 -11.035  40.331  1.00  0.00     0.108 C 
BRANCH  19  20
HETATM   20  S1  UNL     1     -39.899 -12.699  40.971  1.00  0.00    -0.171 SA
HETATM   21  C1  UNL     1     -39.147 -12.908  42.581  1.00  0.00     0.089 C 
ENDBRANCH  19  20
ENDBRANCH  16  19
BRANCH  17  22
HETATM   22  O4  UNL     1     -39.031  -8.961  43.248  1.00  0.00    -0.390 OA
ATOM     23  H4  UNL     1     -39.597  -8.637  43.938  1.00  0.00     0.210 HD
ENDBRANCH  17  22
BRANCH  18  24
HETATM   24  O3  UNL     1     -39.873  -6.851  42.114  1.00  0.00    -0.388 OA
ATOM     25  H3  UNL     1     -38.970  -6.598  42.265  1.00  0.00     0.210 HD
ENDBRANCH  18  24
ENDBRANCH   1  14
BRANCH  13  26
HETATM   26  O2  UNL     1     -38.996  -5.300  35.242  1.00  0.00    -0.388 OA
ATOM     27  H2  UNL     1     -38.696  -5.876  34.548  1.00  0.00     0.210 HD
ENDBRANCH  13  26
TORSDOF 6
ENDMDL
