MODEL 4
REMARK VINA RESULT: -4.482331632      2.896      6.354
REMARK  6 active torsions:
REMARK  status: ('A' for Active; 'I' for Inactive)
REMARK    1  A    between atoms: S1_2  and  C2_3 
REMARK    2  A    between atoms: C2_3  and  C3_4 
REMARK    3  A    between atoms: C4_6  and  N1_7 
REMARK    4  A    between atoms: C10_19  and  O2_20 
REMARK    5  A    between atoms: C11_22  and  O3_23 
REMARK    6  A    between atoms: C12_25  and  O4_26 
ROOT
HETATM    1  N1  UNL     1     -39.031  -7.090  39.506  1.00  0.00    -0.297 N 
HETATM    2  C5  UNL     1     -39.250  -6.006  40.251  1.00  0.00     0.187 A 
HETATM    3  N2  UNL     1     -39.705  -6.394  41.460  1.00  0.00    -0.350 N 
ATOM      4  H2  UNL     1     -39.954  -5.773  42.229  1.00  0.00     0.166 HD
HETATM    5  C6  UNL     1     -39.775  -7.735  41.480  1.00  0.00     0.085 A 
HETATM    6  C7  UNL     1     -39.350  -8.156  40.253  1.00  0.00     0.137 A 
HETATM    7  N3  UNL     1     -39.241  -9.490  39.789  1.00  0.00    -0.337 N 
ATOM      8  H3  UNL     1     -39.137  -9.602  38.781  1.00  0.00     0.168 HD
HETATM    9  C8  UNL     1     -39.256 -10.572  40.470  1.00  0.00     0.177 C 
HETATM   10  N4  UNL     1     -39.389 -10.683  41.882  1.00  0.00    -0.383 N 
ATOM     11  H4  UNL     1     -39.443 -11.649  42.204  1.00  0.00     0.160 HD
HETATM   12  C9  UNL     1     -39.463  -9.732  42.944  1.00  0.00     0.158 C 
HETATM   13  C10 UNL     1     -40.237  -8.491  42.649  1.00  0.00     0.189 C 
ENDROOT
BRANCH   1  14
HETATM   14  C4  UNL     1     -38.547  -7.170  38.146  1.00  0.00     0.262 C 
HETATM   15  O1  UNL     1     -37.294  -7.689  38.015  1.00  0.00    -0.355 OA
HETATM   16  C3  UNL     1     -36.549  -6.901  37.171  1.00  0.00     0.165 C 
HETATM   17  C12 UNL     1     -37.431  -5.848  36.570  1.00  0.00     0.180 C 
HETATM   18  C11 UNL     1     -38.555  -5.770  37.577  1.00  0.00     0.198 C 
BRANCH  16  19
HETATM   19  C2  UNL     1     -35.406  -6.302  37.942  1.00  0.00     0.108 C 
BRANCH  19  20
HETATM   20  S1  UNL     1     -34.545  -4.992  37.089  1.00  0.00    -0.171 SA
HETATM   21  C1  UNL     1     -34.712  -5.039  35.308  1.00  0.00     0.089 C 
ENDBRANCH  19  20
ENDBRANCH  16  19
BRANCH  17  22
HETATM   22  O4  UNL     1     -38.004  -6.271  35.358  1.00  0.00    -0.390 OA
ATOM     23  H4  UNL     1     -38.830  -6.719  35.494  1.00  0.00     0.210 HD
ENDBRANCH  17  22
BRANCH  18  24
HETATM   24  O3  UNL     1     -39.789  -5.527  37.004  1.00  0.00    -0.388 OA
ATOM     25  H3  UNL     1     -39.756  -5.775  36.088  1.00  0.00     0.210 HD
ENDBRANCH  18  24
ENDBRANCH   1  14
BRANCH  13  26
HETATM   26  O2  UNL     1     -40.119  -7.668  43.790  1.00  0.00    -0.388 OA
ATOM     27  H2  UNL     1     -40.006  -8.225  44.552  1.00  0.00     0.210 HD
ENDBRANCH  13  26
TORSDOF 6
ENDMDL
