MODEL 7
REMARK VINA RESULT: -6.445299071      1.209      1.226
REMARK  3 active torsions:
REMARK  status: ('A' for Active; 'I' for Inactive)
REMARK    1  A    between atoms: N1_1  and  C1_5 
REMARK    2  A    between atoms: C1_5  and  C2_6 
REMARK    3  A    between atoms: C2_6  and  C3_7 
ROOT
HETATM    1  C3  UNL     1       6.085   3.650  48.878  1.00  0.00    -0.029 A 
HETATM    2  C4  UNL     1       5.803   3.927  50.197  1.00  0.00     0.096 A 
HETATM    3  N2  UNL     1       4.869   3.037  50.609  1.00  0.00    -0.365 N 
ATOM      4  H2  UNL     1       4.467   3.000  51.546  1.00  0.00     0.165 HD
HETATM    5  C5  UNL     1       4.549   2.206  49.595  1.00  0.00     0.042 A 
HETATM    6  C6  UNL     1       3.661   1.150  49.529  1.00  0.00     0.030 A 
HETATM    7  C7  UNL     1       3.528   0.452  48.337  1.00  0.00     0.002 A 
HETATM    8  C8  UNL     1       4.274   0.812  47.236  1.00  0.00     0.001 A 
HETATM    9  C9  UNL     1       5.151   1.867  47.328  1.00  0.00     0.014 A 
HETATM   10  C10 UNL     1       5.303   2.581  48.511  1.00  0.00    -0.002 A 
ENDROOT
BRANCH   1  11
HETATM   11  C2  UNL     1       7.031   4.337  47.983  1.00  0.00     0.068 C 
BRANCH  11  12
HETATM   12  C1  UNL     1       6.853   5.828  47.983  1.00  0.00     0.234 C 
BRANCH  12  13
HETATM   13  N1  UNL     1       8.163   6.438  47.896  1.00  0.00    -0.079 N 
ATOM     14  H13 UNL     1       8.325   7.128  48.629  1.00  0.00     0.274 HD
ATOM     15  H12 UNL     1       8.914   5.795  48.145  1.00  0.00     0.274 HD
ATOM     16  H11 UNL     1       8.271   6.827  46.959  1.00  0.00     0.274 HD
ENDBRANCH  12  13
ENDBRANCH  11  12
ENDBRANCH   1  11
TORSDOF 3
ENDMDL
