MODEL 11
REMARK VINA RESULT: -6.273585487      1.802      4.466
REMARK  3 active torsions:
REMARK  status: ('A' for Active; 'I' for Inactive)
REMARK    1  A    between atoms: N1_1  and  C1_5 
REMARK    2  A    between atoms: C1_5  and  C2_6 
REMARK    3  A    between atoms: C2_6  and  C3_7 
ROOT
HETATM    1  C3  UNL     1       5.121   1.947  47.712  1.00  0.00    -0.029 A 
HETATM    2  C4  UNL     1       5.303   2.322  46.400  1.00  0.00     0.096 A 
HETATM    3  N2  UNL     1       5.699   3.616  46.397  1.00  0.00    -0.365 N 
ATOM      4  H2  UNL     1       5.910   4.163  45.562  1.00  0.00     0.165 HD
HETATM    5  C5  UNL     1       5.774   4.076  47.664  1.00  0.00     0.042 A 
HETATM    6  C6  UNL     1       6.127   5.314  48.165  1.00  0.00     0.030 A 
HETATM    7  C7  UNL     1       6.119   5.515  49.538  1.00  0.00     0.002 A 
HETATM    8  C8  UNL     1       5.761   4.490  50.386  1.00  0.00     0.001 A 
HETATM    9  C9  UNL     1       5.414   3.267  49.863  1.00  0.00     0.014 A 
HETATM   10  C10 UNL     1       5.415   3.040  48.491  1.00  0.00    -0.002 A 
ENDROOT
BRANCH   1  11
HETATM   11  C2  UNL     1       4.693   0.641  48.237  1.00  0.00     0.068 C 
BRANCH  11  12
HETATM   12  C1  UNL     1       3.209   0.431  48.135  1.00  0.00     0.234 C 
BRANCH  12  13
HETATM   13  N1  UNL     1       2.781  -0.334  49.287  1.00  0.00    -0.079 N 
ATOM     14  H13 UNL     1       2.849  -1.341  49.139  1.00  0.00     0.274 HD
ATOM     15  H12 UNL     1       3.433  -0.267  50.069  1.00  0.00     0.274 HD
ATOM     16  H11 UNL     1       1.838  -0.035  49.534  1.00  0.00     0.274 HD
ENDBRANCH  12  13
ENDBRANCH  11  12
ENDBRANCH   1  11
TORSDOF 3
ENDMDL
