MODEL 1
REMARK VINA RESULT: -6.762799762      0.000      0.000
REMARK  3 active torsions:
REMARK  status: ('A' for Active; 'I' for Inactive)
REMARK    1  A    between atoms: N1_1  and  C1_5 
REMARK    2  A    between atoms: C1_5  and  C2_6 
REMARK    3  A    between atoms: C2_6  and  C3_7 
ROOT
HETATM    1  C3  UNL     1       5.969   3.813  48.595  1.00  0.00    -0.029 A 
HETATM    2  C4  UNL     1       5.839   4.396  49.835  1.00  0.00     0.096 A 
HETATM    3  N2  UNL     1       5.103   3.558  50.603  1.00  0.00    -0.365 N 
ATOM      4  H2  UNL     1       4.845   3.728  51.576  1.00  0.00     0.165 HD
HETATM    5  C5  UNL     1       4.762   2.463  49.891  1.00  0.00     0.042 A 
HETATM    6  C6  UNL     1       4.028   1.345  50.236  1.00  0.00     0.030 A 
HETATM    7  C7  UNL     1       3.827   0.350  49.290  1.00  0.00     0.002 A 
HETATM    8  C8  UNL     1       4.356   0.481  48.024  1.00  0.00     0.001 A 
HETATM    9  C9  UNL     1       5.084   1.603  47.706  1.00  0.00     0.014 A 
HETATM   10  C10 UNL     1       5.299   2.613  48.637  1.00  0.00    -0.002 A 
ENDROOT
BRANCH   1  11
HETATM   11  C2  UNL     1       6.678   4.330  47.413  1.00  0.00     0.068 C 
BRANCH  11  12
HETATM   12  C1  UNL     1       5.745   4.866  46.365  1.00  0.00     0.234 C 
BRANCH  12  13
HETATM   13  N1  UNL     1       5.372   6.214  46.741  1.00  0.00    -0.079 N 
ATOM     14  H13 UNL     1       4.701   6.237  47.509  1.00  0.00     0.274 HD
ATOM     15  H12 UNL     1       6.129   6.717  47.205  1.00  0.00     0.274 HD
ATOM     16  H11 UNL     1       5.033   6.694  45.908  1.00  0.00     0.274 HD
ENDBRANCH  12  13
ENDBRANCH  11  12
ENDBRANCH   1  11
TORSDOF 3
ENDMDL
