MODEL 14
REMARK VINA RESULT: -6.076799709      1.559      2.382
REMARK  3 active torsions:
REMARK  status: ('A' for Active; 'I' for Inactive)
REMARK    1  A    between atoms: N1_1  and  C1_5 
REMARK    2  A    between atoms: C1_5  and  C2_6 
REMARK    3  A    between atoms: C2_6  and  C3_7 
ROOT
HETATM    1  C3  UNL     1       6.136   5.111  48.997  1.00  0.00    -0.029 A 
HETATM    2  C4  UNL     1       6.004   4.518  50.233  1.00  0.00     0.096 A 
HETATM    3  N2  UNL     1       5.585   3.247  50.032  1.00  0.00    -0.365 N 
ATOM      4  H2  UNL     1       5.402   2.566  50.769  1.00  0.00     0.165 HD
HETATM    5  C5  UNL     1       5.446   3.013  48.709  1.00  0.00     0.042 A 
HETATM    6  C6  UNL     1       5.050   1.883  48.021  1.00  0.00     0.030 A 
HETATM    7  C7  UNL     1       4.996   1.920  46.635  1.00  0.00     0.002 A 
HETATM    8  C8  UNL     1       5.334   3.073  45.959  1.00  0.00     0.001 A 
HETATM    9  C9  UNL     1       5.725   4.184  46.667  1.00  0.00     0.014 A 
HETATM   10  C10 UNL     1       5.788   4.171  48.056  1.00  0.00    -0.002 A 
ENDROOT
BRANCH   1  11
HETATM   11  C2  UNL     1       6.561   6.485  48.684  1.00  0.00     0.068 C 
BRANCH  11  12
HETATM   12  C1  UNL     1       5.441   7.479  48.793  1.00  0.00     0.234 C 
BRANCH  12  13
HETATM   13  N1  UNL     1       5.201   8.034  47.477  1.00  0.00    -0.079 N 
ATOM     14  H13 UNL     1       5.787   7.609  46.758  1.00  0.00     0.274 HD
ATOM     15  H12 UNL     1       4.296   7.761  47.094  1.00  0.00     0.274 HD
ATOM     16  H11 UNL     1       5.318   9.045  47.532  1.00  0.00     0.274 HD
ENDBRANCH  12  13
ENDBRANCH  11  12
ENDBRANCH   1  11
TORSDOF 3
ENDMDL
