MODEL 4
REMARK VINA RESULT: -6.593781405      0.976      1.105
REMARK  3 active torsions:
REMARK  status: ('A' for Active; 'I' for Inactive)
REMARK    1  A    between atoms: N1_1  and  C1_5 
REMARK    2  A    between atoms: C1_5  and  C2_6 
REMARK    3  A    between atoms: C2_6  and  C3_7 
ROOT
HETATM    1  C3  UNL     1       5.957   4.188  48.932  1.00  0.00    -0.029 A 
HETATM    2  C4  UNL     1       5.678   4.239  50.279  1.00  0.00     0.096 A 
HETATM    3  N2  UNL     1       5.058   3.082  50.611  1.00  0.00    -0.365 N 
ATOM      4  H2  UNL     1       4.733   2.838  51.546  1.00  0.00     0.165 HD
HETATM    5  C5  UNL     1       4.935   2.298  49.518  1.00  0.00     0.042 A 
HETATM    6  C6  UNL     1       4.381   1.044  49.356  1.00  0.00     0.030 A 
HETATM    7  C7  UNL     1       4.389   0.459  48.098  1.00  0.00     0.002 A 
HETATM    8  C8  UNL     1       4.944   1.127  47.027  1.00  0.00     0.001 A 
HETATM    9  C9  UNL     1       5.489   2.374  47.215  1.00  0.00     0.014 A 
HETATM   10  C10 UNL     1       5.494   2.981  48.466  1.00  0.00    -0.002 A 
ENDROOT
BRANCH   1  11
HETATM   11  C2  UNL     1       6.621   5.203  48.098  1.00  0.00     0.068 C 
BRANCH  11  12
HETATM   12  C1  UNL     1       5.978   6.555  48.206  1.00  0.00     0.234 C 
BRANCH  12  13
HETATM   13  N1  UNL     1       5.425   6.896  46.912  1.00  0.00    -0.079 N 
ATOM     14  H13 UNL     1       5.987   7.586  46.413  1.00  0.00     0.274 HD
ATOM     15  H12 UNL     1       5.509   6.137  46.236  1.00  0.00     0.274 HD
ATOM     16  H11 UNL     1       4.460   7.198  47.048  1.00  0.00     0.274 HD
ENDBRANCH  12  13
ENDBRANCH  11  12
ENDBRANCH   1  11
TORSDOF 3
ENDMDL
