MODEL 2
REMARK VINA RESULT: -6.698852677      2.013      4.725
REMARK  3 active torsions:
REMARK  status: ('A' for Active; 'I' for Inactive)
REMARK    1  A    between atoms: N1_1  and  C1_5 
REMARK    2  A    between atoms: C1_5  and  C2_6 
REMARK    3  A    between atoms: C2_6  and  C3_7 
ROOT
HETATM    1  C3  UNL     1       4.879   1.530  47.900  1.00  0.00    -0.029 A 
HETATM    2  C4  UNL     1       4.591   1.213  46.591  1.00  0.00     0.096 A 
HETATM    3  N2  UNL     1       4.896   2.292  45.833  1.00  0.00    -0.365 N 
ATOM      4  H2  UNL     1       4.786   2.348  44.821  1.00  0.00     0.165 HD
HETATM    5  C5  UNL     1       5.368   3.284  46.618  1.00  0.00     0.042 A 
HETATM    6  C6  UNL     1       5.804   4.559  46.311  1.00  0.00     0.030 A 
HETATM    7  C7  UNL     1       6.246   5.386  47.333  1.00  0.00     0.002 A 
HETATM    8  C8  UNL     1       6.247   4.938  48.636  1.00  0.00     0.001 A 
HETATM    9  C9  UNL     1       5.808   3.666  48.915  1.00  0.00     0.014 A 
HETATM   10  C10 UNL     1       5.361   2.817  47.909  1.00  0.00    -0.002 A 
ENDROOT
BRANCH   1  11
HETATM   11  C2  UNL     1       4.720   0.692  49.098  1.00  0.00     0.068 C 
BRANCH  11  12
HETATM   12  C1  UNL     1       3.391   0.887  49.772  1.00  0.00     0.234 C 
BRANCH  12  13
HETATM   13  N1  UNL     1       2.489  -0.140  49.293  1.00  0.00    -0.079 N 
ATOM     14  H13 UNL     1       2.408  -0.151  48.277  1.00  0.00     0.274 HD
ATOM     15  H12 UNL     1       2.865  -1.081  49.411  1.00  0.00     0.274 HD
ATOM     16  H11 UNL     1       1.590  -0.014  49.758  1.00  0.00     0.274 HD
ENDBRANCH  12  13
ENDBRANCH  11  12
ENDBRANCH   1  11
TORSDOF 3
ENDMDL
