MODEL 12
REMARK VINA RESULT: -6.120093854      1.849      4.993
REMARK  3 active torsions:
REMARK  status: ('A' for Active; 'I' for Inactive)
REMARK    1  A    between atoms: N1_1  and  C1_5 
REMARK    2  A    between atoms: C1_5  and  C2_6 
REMARK    3  A    between atoms: C2_6  and  C3_7 
ROOT
HETATM    1  C3  UNL     1       5.664   3.562  48.768  1.00  0.00    -0.029 A 
HETATM    2  C4  UNL     1       5.819   2.939  47.550  1.00  0.00     0.096 A 
HETATM    3  N2  UNL     1       5.985   3.907  46.617  1.00  0.00    -0.365 N 
ATOM      4  H2  UNL     1       6.124   3.742  45.620  1.00  0.00     0.165 HD
HETATM    5  C5  UNL     1       5.941   5.122  47.203  1.00  0.00     0.042 A 
HETATM    6  C6  UNL     1       6.059   6.392  46.675  1.00  0.00     0.030 A 
HETATM    7  C7  UNL     1       5.974   7.487  47.523  1.00  0.00     0.002 A 
HETATM    8  C8  UNL     1       5.773   7.304  48.874  1.00  0.00     0.001 A 
HETATM    9  C9  UNL     1       5.658   6.029  49.374  1.00  0.00     0.014 A 
HETATM   10  C10 UNL     1       5.742   4.916  48.546  1.00  0.00    -0.002 A 
ENDROOT
BRANCH   1  11
HETATM   11  C2  UNL     1       5.453   2.945  50.087  1.00  0.00     0.068 C 
BRANCH  11  12
HETATM   12  C1  UNL     1       4.144   2.215  50.185  1.00  0.00     0.234 C 
BRANCH  12  13
HETATM   13  N1  UNL     1       4.349   1.025  50.985  1.00  0.00    -0.079 N 
ATOM     14  H13 UNL     1       5.153   0.478  50.677  1.00  0.00     0.274 HD
ATOM     15  H12 UNL     1       4.679   1.237  51.926  1.00  0.00     0.274 HD
ATOM     16  H11 UNL     1       3.483   0.488  50.982  1.00  0.00     0.274 HD
ENDBRANCH  12  13
ENDBRANCH  11  12
ENDBRANCH   1  11
TORSDOF 3
ENDMDL
