MODEL 1
REMARK VINA RESULT: -7.902427678      0.000      0.000
REMARK  2 active torsions:
REMARK  status: ('A' for Active; 'I' for Inactive)
REMARK    1  A    between atoms: C3_4  and  N1_5 
REMARK       I    between atoms: N1_5  and  C4_7 
REMARK    2  A    between atoms: C4_7  and  C5_9 
ROOT
HETATM    1  N1  UNL     1      30.975 -13.340   3.619  1.00  0.00    -0.326 N 
ATOM      2  H1  UNL     1      30.681 -13.190   2.654  1.00  0.00     0.169 HD
HETATM    3  C4  UNL     1      31.786 -12.355   4.170  1.00  0.00     0.259 C 
HETATM    4  O2  UNL     1      32.166 -12.557   5.385  1.00  0.00    -0.267 OA
ENDROOT
BRANCH   1   5
HETATM    5  C3  UNL     1      30.504 -14.537   4.238  1.00  0.00     0.022 A 
HETATM    6  C2  UNL     1      31.212 -15.778   3.775  1.00  0.00     0.160 A 
HETATM    7  C1  UNL     1      30.742 -17.001   4.397  1.00  0.00     0.227 A 
HETATM    8  O1  UNL     1      31.281 -18.122   4.071  1.00  0.00    -0.273 OA
HETATM    9  N2  UNL     1      29.704 -16.986   5.353  1.00  0.00    -0.337 N 
HETATM   10  C12 UNL     1      29.122 -15.912   5.726  1.00  0.00     0.093 A 
ATOM     11  H2  UNL     1      29.407 -17.870   5.764  1.00  0.00     0.168 HD
HETATM   12  C11 UNL     1      29.564 -14.641   5.122  1.00  0.00     0.042 A 
ENDBRANCH   1   5
BRANCH   3  13
HETATM   13  C5  UNL     1      32.269 -11.130   3.568  1.00  0.00     0.075 A 
HETATM   14  C6  UNL     1      31.633  -9.932   3.636  1.00  0.00     0.051 A 
HETATM   15 CL1  UNL     1      30.175  -9.682   4.570  1.00  0.00    -0.083 Cl
HETATM   16  C7  UNL     1      32.145  -8.797   2.983  1.00  0.00     0.025 A 
HETATM   17  C8  UNL     1      33.298  -8.856   2.259  1.00  0.00     0.003 A 
HETATM   18  C9  UNL     1      33.962 -10.057   2.176  1.00  0.00     0.025 A 
HETATM   19  C10 UNL     1      33.455 -11.166   2.818  1.00  0.00     0.051 A 
HETATM   20 CL2  UNL     1      34.314 -12.676   2.696  1.00  0.00    -0.083 Cl
ENDBRANCH   3  13
TORSDOF 2
ENDMDL
