MODEL 2
REMARK VINA RESULT: -7.898759048      1.031      1.477
REMARK  2 active torsions:
REMARK  status: ('A' for Active; 'I' for Inactive)
REMARK    1  A    between atoms: C3_4  and  N1_5 
REMARK       I    between atoms: N1_5  and  C4_7 
REMARK    2  A    between atoms: C4_7  and  C5_9 
ROOT
HETATM    1  N1  UNL     1      31.447 -13.573   3.407  1.00  0.00    -0.326 N 
ATOM      2  H1  UNL     1      31.294 -13.470   2.404  1.00  0.00     0.169 HD
HETATM    3  C4  UNL     1      31.983 -12.470   4.060  1.00  0.00     0.259 C 
HETATM    4  O2  UNL     1      32.187 -12.612   5.324  1.00  0.00    -0.267 OA
ENDROOT
BRANCH   1   5
HETATM    5  C3  UNL     1      31.086 -14.835   3.968  1.00  0.00     0.022 A 
HETATM    6  C2  UNL     1      29.659 -14.906   4.431  1.00  0.00     0.160 A 
HETATM    7  C1  UNL     1      29.278 -16.183   5.003  1.00  0.00     0.227 A 
HETATM    8  O1  UNL     1      28.078 -16.351   5.432  1.00  0.00    -0.273 OA
HETATM    9  N2  UNL     1      30.201 -17.247   5.099  1.00  0.00    -0.337 N 
HETATM   10  C12 UNL     1      31.409 -17.155   4.696  1.00  0.00     0.093 A 
ATOM     11  H2  UNL     1      29.889 -18.128   5.509  1.00  0.00     0.168 HD
HETATM   12  C11 UNL     1      31.844 -15.875   4.106  1.00  0.00     0.042 A 
ENDBRANCH   1   5
BRANCH   3  13
HETATM   13  C5  UNL     1      32.348 -11.178   3.517  1.00  0.00     0.075 A 
HETATM   14  C6  UNL     1      31.589 -10.057   3.614  1.00  0.00     0.051 A 
HETATM   15 CL1  UNL     1      30.093  -9.996   4.518  1.00  0.00    -0.083 Cl
HETATM   16  C7  UNL     1      31.993  -8.849   3.016  1.00  0.00     0.025 A 
HETATM   17  C8  UNL     1      33.162  -8.759   2.321  1.00  0.00     0.003 A 
HETATM   18  C9  UNL     1      33.950  -9.882   2.211  1.00  0.00     0.025 A 
HETATM   19  C10 UNL     1      33.547 -11.061   2.797  1.00  0.00     0.051 A 
HETATM   20 CL2  UNL     1      34.562 -12.468   2.641  1.00  0.00    -0.083 Cl
ENDBRANCH   3  13
TORSDOF 2
ENDMDL
