MODEL 12
REMARK VINA RESULT: -7.329794592      2.642      6.354
REMARK  2 active torsions:
REMARK  status: ('A' for Active; 'I' for Inactive)
REMARK    1  A    between atoms: C3_4  and  N1_5 
REMARK       I    between atoms: N1_5  and  C4_7 
REMARK    2  A    between atoms: C4_7  and  C5_9 
ROOT
HETATM    1  N1  UNL     1      32.687 -12.655   3.753  1.00  0.00    -0.326 N 
ATOM      2  H1  UNL     1      32.792 -12.459   4.749  1.00  0.00     0.169 HD
HETATM    3  C4  UNL     1      31.665 -13.531   3.409  1.00  0.00     0.259 C 
HETATM    4  O2  UNL     1      31.545 -13.786   2.151  1.00  0.00    -0.267 OA
ENDROOT
BRANCH   1   5
HETATM    5  C3  UNL     1      33.607 -11.995   2.885  1.00  0.00     0.022 A 
HETATM    6  C2  UNL     1      33.336 -10.528   2.716  1.00  0.00     0.160 A 
HETATM    7  C1  UNL     1      34.265  -9.845   1.836  1.00  0.00     0.227 A 
HETATM    8  O1  UNL     1      34.123  -8.586   1.622  1.00  0.00    -0.273 OA
HETATM    9  N2  UNL     1      35.324 -10.537   1.208  1.00  0.00    -0.337 N 
HETATM   10  C12 UNL     1      35.527 -11.787   1.372  1.00  0.00     0.093 A 
ATOM     11  H2  UNL     1      35.952 -10.016   0.597  1.00  0.00     0.168 HD
HETATM   12  C11 UNL     1      34.609 -12.526   2.259  1.00  0.00     0.042 A 
ENDBRANCH   1   5
BRANCH   3  13
HETATM   13  C5  UNL     1      30.713 -14.205   4.267  1.00  0.00     0.075 A 
HETATM   14  C6  UNL     1      29.540 -13.670   4.690  1.00  0.00     0.051 A 
HETATM   15 CL1  UNL     1      28.960 -12.108   4.155  1.00  0.00    -0.083 Cl
HETATM   16  C7  UNL     1      28.690 -14.372   5.564  1.00  0.00     0.025 A 
HETATM   17  C8  UNL     1      29.013 -15.616   6.018  1.00  0.00     0.003 A 
HETATM   18  C9  UNL     1      30.196 -16.181   5.602  1.00  0.00     0.025 A 
HETATM   19  C10 UNL     1      31.024 -15.487   4.747  1.00  0.00     0.051 A 
HETATM   20 CL2  UNL     1      32.517 -16.225   4.238  1.00  0.00    -0.083 Cl
ENDBRANCH   3  13
TORSDOF 2
ENDMDL
