MODEL 3
REMARK VINA RESULT: -7.860804390      0.189      2.127
REMARK  2 active torsions:
REMARK  status: ('A' for Active; 'I' for Inactive)
REMARK    1  A    between atoms: C3_4  and  N1_5 
REMARK       I    between atoms: N1_5  and  C4_7 
REMARK    2  A    between atoms: C4_7  and  C5_9 
ROOT
HETATM    1  N1  UNL     1      31.068 -13.441   3.504  1.00  0.00    -0.326 N 
ATOM      2  H1  UNL     1      30.816 -13.329   2.523  1.00  0.00     0.169 HD
HETATM    3  C4  UNL     1      31.858 -12.437   4.050  1.00  0.00     0.259 C 
HETATM    4  O2  UNL     1      32.186 -12.592   5.287  1.00  0.00    -0.267 OA
ENDROOT
BRANCH   1   5
HETATM    5  C3  UNL     1      30.566 -14.611   4.150  1.00  0.00     0.022 A 
HETATM    6  C2  UNL     1      31.260 -15.877   3.735  1.00  0.00     0.160 A 
HETATM    7  C1  UNL     1      30.759 -17.074   4.384  1.00  0.00     0.227 A 
HETATM    8  O1  UNL     1      31.283 -18.213   4.099  1.00  0.00    -0.273 OA
HETATM    9  N2  UNL     1      29.706 -17.013   5.322  1.00  0.00    -0.337 N 
HETATM   10  C12 UNL     1      29.137 -15.920   5.654  1.00  0.00     0.093 A 
ATOM     11  H2  UNL     1      29.387 -17.880   5.753  1.00  0.00     0.168 HD
HETATM   12  C11 UNL     1      29.611 -14.674   5.021  1.00  0.00     0.042 A 
ENDBRANCH   1   5
BRANCH   3  13
HETATM   13  C5  UNL     1      32.372 -11.238   3.421  1.00  0.00     0.075 A 
HETATM   14  C6  UNL     1      33.562 -11.153   2.775  1.00  0.00     0.051 A 
HETATM   15 CL1  UNL     1      34.604 -12.535   2.515  1.00  0.00    -0.083 Cl
HETATM   16  C7  UNL     1      34.013  -9.936   2.233  1.00  0.00     0.025 A 
HETATM   17  C8  UNL     1      33.270  -8.798   2.333  1.00  0.00     0.003 A 
HETATM   18  C9  UNL     1      32.058  -8.858   2.982  1.00  0.00     0.025 A 
HETATM   19  C10 UNL     1      31.624 -10.054   3.513  1.00  0.00     0.051 A 
HETATM   20 CL2  UNL     1      30.088 -10.102   4.331  1.00  0.00    -0.083 Cl
ENDBRANCH   3  13
TORSDOF 2
ENDMDL
