MODEL 9
REMARK VINA RESULT: -7.468209458      2.666      6.684
REMARK  2 active torsions:
REMARK  status: ('A' for Active; 'I' for Inactive)
REMARK    1  A    between atoms: C3_4  and  N1_5 
REMARK       I    between atoms: N1_5  and  C4_7 
REMARK    2  A    between atoms: C4_7  and  C5_9 
ROOT
HETATM    1  N1  UNL     1      32.723 -12.718   3.716  1.00  0.00    -0.326 N 
ATOM      2  H1  UNL     1      32.804 -12.527   4.714  1.00  0.00     0.169 HD
HETATM    3  C4  UNL     1      31.751 -13.641   3.349  1.00  0.00     0.259 C 
HETATM    4  O2  UNL     1      31.662 -13.888   2.087  1.00  0.00    -0.267 OA
ENDROOT
BRANCH   1   5
HETATM    5  C3  UNL     1      33.621 -12.004   2.867  1.00  0.00     0.022 A 
HETATM    6  C2  UNL     1      33.292 -10.546   2.727  1.00  0.00     0.160 A 
HETATM    7  C1  UNL     1      34.198  -9.808   1.866  1.00  0.00     0.227 A 
HETATM    8  O1  UNL     1      34.007  -8.551   1.677  1.00  0.00    -0.273 OA
HETATM    9  N2  UNL     1      35.286 -10.445   1.231  1.00  0.00    -0.337 N 
HETATM   10  C12 UNL     1      35.539 -11.688   1.371  1.00  0.00     0.093 A 
ATOM     11  H2  UNL     1      35.897  -9.887   0.635  1.00  0.00     0.168 HD
HETATM   12  C11 UNL     1      34.646 -12.482   2.236  1.00  0.00     0.042 A 
ENDBRANCH   1   5
BRANCH   3  13
HETATM   13  C5  UNL     1      30.822 -14.370   4.187  1.00  0.00     0.075 A 
HETATM   14  C6  UNL     1      31.050 -15.607   4.699  1.00  0.00     0.051 A 
HETATM   15 CL1  UNL     1      32.569 -16.453   4.500  1.00  0.00    -0.083 Cl
HETATM   16  C7  UNL     1      30.075 -16.270   5.466  1.00  0.00     0.025 A 
HETATM   17  C8  UNL     1      28.867 -15.695   5.726  1.00  0.00     0.003 A 
HETATM   18  C9  UNL     1      28.613 -14.441   5.220  1.00  0.00     0.025 A 
HETATM   19  C10 UNL     1      29.572 -13.798   4.468  1.00  0.00     0.051 A 
HETATM   20 CL2  UNL     1      29.224 -12.213   3.838  1.00  0.00    -0.083 Cl
ENDBRANCH   3  13
TORSDOF 2
ENDMDL
