MODEL 9
REMARK VINA RESULT: -7.722391950      2.627      6.587
REMARK  2 active torsions:
REMARK  status: ('A' for Active; 'I' for Inactive)
REMARK    1  A    between atoms: C3_4  and  N1_5 
REMARK       I    between atoms: N1_5  and  C4_7 
REMARK    2  A    between atoms: C4_7  and  C5_9 
ROOT
HETATM    1  N1  UNL     1      13.282 -13.187  24.126  1.00  0.00    -0.326 N 
ATOM      2  H1  UNL     1      12.426 -12.637  24.201  1.00  0.00     0.169 HD
HETATM    3  C4  UNL     1      13.854 -13.257  22.862  1.00  0.00     0.259 C 
HETATM    4  O2  UNL     1      14.927 -13.964  22.770  1.00  0.00    -0.267 OA
ENDROOT
BRANCH   1   5
HETATM    5  C3  UNL     1      13.745 -13.790  25.333  1.00  0.00     0.022 A 
HETATM    6  C2  UNL     1      14.191 -12.802  26.373  1.00  0.00     0.160 A 
HETATM    7  C1  UNL     1      14.664 -13.402  27.605  1.00  0.00     0.227 A 
HETATM    8  O1  UNL     1      15.070 -12.645  28.561  1.00  0.00    -0.273 OA
HETATM    9  N2  UNL     1      14.689 -14.804  27.776  1.00  0.00    -0.337 N 
HETATM   10  C12 UNL     1      14.302 -15.618  26.872  1.00  0.00     0.093 A 
ATOM     11  H2  UNL     1      15.029 -15.181  28.659  1.00  0.00     0.168 HD
HETATM   12  C11 UNL     1      13.812 -15.056  25.599  1.00  0.00     0.042 A 
ENDBRANCH   1   5
BRANCH   3  13
HETATM   13  C5  UNL     1      13.410 -12.648  21.625  1.00  0.00     0.075 A 
HETATM   14  C6  UNL     1      12.737 -13.297  20.641  1.00  0.00     0.051 A 
HETATM   15 CL1  UNL     1      12.208 -14.958  20.788  1.00  0.00    -0.083 Cl
HETATM   16  C7  UNL     1      12.383 -12.645  19.446  1.00  0.00     0.025 A 
HETATM   17  C8  UNL     1      12.702 -11.337  19.232  1.00  0.00     0.003 A 
HETATM   18  C9  UNL     1      13.383 -10.657  20.215  1.00  0.00     0.025 A 
HETATM   19  C10 UNL     1      13.727 -11.302  21.382  1.00  0.00     0.051 A 
HETATM   20 CL2  UNL     1      14.591 -10.418  22.609  1.00  0.00    -0.083 Cl
ENDBRANCH   3  13
TORSDOF 2
ENDMDL
