MODEL 2
REMARK VINA RESULT: -8.140327994      0.182      2.127
REMARK  2 active torsions:
REMARK  status: ('A' for Active; 'I' for Inactive)
REMARK    1  A    between atoms: C3_4  and  N1_5 
REMARK       I    between atoms: N1_5  and  C4_7 
REMARK    2  A    between atoms: C4_7  and  C5_9 
ROOT
HETATM    1  N1  UNL     1      14.164 -13.295  23.284  1.00  0.00    -0.326 N 
ATOM      2  H1  UNL     1      15.096 -13.671  23.452  1.00  0.00     0.169 HD
HETATM    3  C4  UNL     1      13.516 -12.754  24.387  1.00  0.00     0.259 C 
HETATM    4  O2  UNL     1      12.332 -12.293  24.172  1.00  0.00    -0.267 OA
ENDROOT
BRANCH   1   5
HETATM    5  C3  UNL     1      13.684 -13.388  21.943  1.00  0.00     0.022 A 
HETATM    6  C2  UNL     1      12.644 -14.454  21.744  1.00  0.00     0.160 A 
HETATM    7  C1  UNL     1      12.148 -14.558  20.385  1.00  0.00     0.227 A 
HETATM    8  O1  UNL     1      11.255 -15.440  20.105  1.00  0.00    -0.273 OA
HETATM    9  N2  UNL     1      12.627 -13.711  19.362  1.00  0.00    -0.337 N 
HETATM   10  C12 UNL     1      13.512 -12.814  19.564  1.00  0.00     0.093 A 
ATOM     11  H2  UNL     1      12.249 -13.821  18.422  1.00  0.00     0.168 HD
HETATM   12  C11 UNL     1      14.048 -12.667  20.931  1.00  0.00     0.042 A 
ENDBRANCH   1   5
BRANCH   3  13
HETATM   13  C5  UNL     1      13.983 -12.639  25.753  1.00  0.00     0.075 A 
HETATM   14  C6  UNL     1      14.099 -13.676  26.621  1.00  0.00     0.051 A 
HETATM   15 CL1  UNL     1      13.800 -15.338  26.162  1.00  0.00    -0.083 Cl
HETATM   16  C7  UNL     1      14.515 -13.473  27.949  1.00  0.00     0.025 A 
HETATM   17  C8  UNL     1      14.819 -12.228  28.414  1.00  0.00     0.003 A 
HETATM   18  C9  UNL     1      14.711 -11.161  27.553  1.00  0.00     0.025 A 
HETATM   19  C10 UNL     1      14.301 -11.367  26.254  1.00  0.00     0.051 A 
HETATM   20 CL2  UNL     1      14.170  -9.998  25.186  1.00  0.00    -0.083 Cl
ENDBRANCH   3  13
TORSDOF 2
ENDMDL
