MODEL 3
REMARK VINA RESULT: -8.072889161      1.595      2.029
REMARK  2 active torsions:
REMARK  status: ('A' for Active; 'I' for Inactive)
REMARK    1  A    between atoms: C3_4  and  N1_5 
REMARK       I    between atoms: N1_5  and  C4_7 
REMARK    2  A    between atoms: C4_7  and  C5_9 
ROOT
HETATM    1  N1  UNL     1      14.112 -12.925  23.042  1.00  0.00    -0.326 N 
ATOM      2  H1  UNL     1      15.043 -13.331  23.130  1.00  0.00     0.169 HD
HETATM    3  C4  UNL     1      13.446 -12.664  24.233  1.00  0.00     0.259 C 
HETATM    4  O2  UNL     1      12.264 -12.163  24.117  1.00  0.00    -0.267 OA
ENDROOT
BRANCH   1   5
HETATM    5  C3  UNL     1      13.652 -12.695  21.711  1.00  0.00     0.022 A 
HETATM    6  C2  UNL     1      14.053 -11.360  21.153  1.00  0.00     0.160 A 
HETATM    7  C1  UNL     1      13.592 -11.114  19.800  1.00  0.00     0.227 A 
HETATM    8  O1  UNL     1      13.880 -10.000  19.227  1.00  0.00    -0.273 OA
HETATM    9  N2  UNL     1      12.831 -12.075  19.099  1.00  0.00    -0.337 N 
HETATM   10  C12 UNL     1      12.506 -13.202  19.602  1.00  0.00     0.093 A 
ATOM     11  H2  UNL     1      12.528 -11.858  18.149  1.00  0.00     0.168 HD
HETATM   12  C11 UNL     1      12.952 -13.500  20.977  1.00  0.00     0.042 A 
ENDBRANCH   1   5
BRANCH   3  13
HETATM   13  C5  UNL     1      13.893 -12.877  25.594  1.00  0.00     0.075 A 
HETATM   14  C6  UNL     1      14.350 -11.902  26.420  1.00  0.00     0.051 A 
HETATM   15 CL1  UNL     1      14.355 -10.208  25.979  1.00  0.00    -0.083 Cl
HETATM   16  C7  UNL     1      14.813 -12.199  27.715  1.00  0.00     0.025 A 
HETATM   17  C8  UNL     1      14.818 -13.477  28.188  1.00  0.00     0.003 A 
HETATM   18  C9  UNL     1      14.359 -14.483  27.371  1.00  0.00     0.025 A 
HETATM   19  C10 UNL     1      13.908 -14.185  26.104  1.00  0.00     0.051 A 
HETATM   20 CL2  UNL     1      13.334 -15.478  25.089  1.00  0.00    -0.083 Cl
ENDBRANCH   3  13
TORSDOF 2
ENDMDL
