MODEL 1
REMARK VINA RESULT: -8.229810244      0.000      0.000
REMARK  2 active torsions:
REMARK  status: ('A' for Active; 'I' for Inactive)
REMARK    1  A    between atoms: C3_4  and  N1_5 
REMARK       I    between atoms: N1_5  and  C4_7 
REMARK    2  A    between atoms: C4_7  and  C5_9 
ROOT
HETATM    1  N1  UNL     1      14.151 -13.127  23.287  1.00  0.00    -0.326 N 
ATOM      2  H1  UNL     1      15.095 -13.467  23.468  1.00  0.00     0.169 HD
HETATM    3  C4  UNL     1      13.475 -12.594  24.378  1.00  0.00     0.259 C 
HETATM    4  O2  UNL     1      12.277 -12.178  24.147  1.00  0.00    -0.267 OA
ENDROOT
BRANCH   1   5
HETATM    5  C3  UNL     1      13.685 -13.257  21.944  1.00  0.00     0.022 A 
HETATM    6  C2  UNL     1      12.686 -14.361  21.754  1.00  0.00     0.160 A 
HETATM    7  C1  UNL     1      12.204 -14.504  20.393  1.00  0.00     0.227 A 
HETATM    8  O1  UNL     1      11.345 -15.421  20.120  1.00  0.00    -0.273 OA
HETATM    9  N2  UNL     1      12.660 -13.655  19.361  1.00  0.00    -0.337 N 
HETATM   10  C12 UNL     1      13.511 -12.724  19.556  1.00  0.00     0.093 A 
ATOM     11  H2  UNL     1      12.294 -13.792  18.420  1.00  0.00     0.168 HD
HETATM   12  C11 UNL     1      14.032 -12.539  20.924  1.00  0.00     0.042 A 
ENDBRANCH   1   5
BRANCH   3  13
HETATM   13  C5  UNL     1      13.927 -12.441  25.745  1.00  0.00     0.075 A 
HETATM   14  C6  UNL     1      14.314 -11.266  26.305  1.00  0.00     0.051 A 
HETATM   15 CL1  UNL     1      14.211  -9.734  25.466  1.00  0.00    -0.083 Cl
HETATM   16  C7  UNL     1      14.788 -11.210  27.628  1.00  0.00     0.025 A 
HETATM   17  C8  UNL     1      14.874 -12.331  28.398  1.00  0.00     0.003 A 
HETATM   18  C9  UNL     1      14.486 -13.534  27.854  1.00  0.00     0.025 A 
HETATM   19  C10 UNL     1      14.025 -13.582  26.557  1.00  0.00     0.051 A 
HETATM   20 CL2  UNL     1      13.542 -15.117  25.892  1.00  0.00    -0.083 Cl
ENDBRANCH   3  13
TORSDOF 2
ENDMDL
