MODEL 11
REMARK VINA RESULT: -7.603580233      2.613      6.294
REMARK  2 active torsions:
REMARK  status: ('A' for Active; 'I' for Inactive)
REMARK    1  A    between atoms: C3_4  and  N1_5 
REMARK       I    between atoms: N1_5  and  C4_7 
REMARK    2  A    between atoms: C4_7  and  C5_9 
ROOT
HETATM    1  N1  UNL     1      13.381 -13.204  24.116  1.00  0.00    -0.326 N 
ATOM      2  H1  UNL     1      12.541 -12.629  24.174  1.00  0.00     0.169 HD
HETATM    3  C4  UNL     1      13.975 -13.290  22.863  1.00  0.00     0.259 C 
HETATM    4  O2  UNL     1      15.029 -14.029  22.792  1.00  0.00    -0.267 OA
ENDROOT
BRANCH   1   5
HETATM    5  C3  UNL     1      13.802 -13.823  25.331  1.00  0.00     0.022 A 
HETATM    6  C2  UNL     1      14.231 -12.849  26.390  1.00  0.00     0.160 A 
HETATM    7  C1  UNL     1      14.661 -13.465  27.631  1.00  0.00     0.227 A 
HETATM    8  O1  UNL     1      15.051 -12.721  28.604  1.00  0.00    -0.273 OA
HETATM    9  N2  UNL     1      14.661 -14.868  27.791  1.00  0.00    -0.337 N 
HETATM   10  C12 UNL     1      14.289 -15.670  26.870  1.00  0.00     0.093 A 
ATOM     11  H2  UNL     1      14.972 -15.257  28.681  1.00  0.00     0.168 HD
HETATM   12  C11 UNL     1      13.843 -15.091  25.588  1.00  0.00     0.042 A 
ENDBRANCH   1   5
BRANCH   3  13
HETATM   13  C5  UNL     1      13.575 -12.666  21.619  1.00  0.00     0.075 A 
HETATM   14  C6  UNL     1      13.846 -11.380  21.277  1.00  0.00     0.051 A 
HETATM   15 CL1  UNL     1      14.826 -10.320  22.265  1.00  0.00    -0.083 Cl
HETATM   16  C7  UNL     1      13.379 -10.833  20.069  1.00  0.00     0.025 A 
HETATM   17  C8  UNL     1      12.640 -11.573  19.195  1.00  0.00     0.003 A 
HETATM   18  C9  UNL     1      12.355 -12.880  19.517  1.00  0.00     0.025 A 
HETATM   19  C10 UNL     1      12.814 -13.409  20.703  1.00  0.00     0.051 A 
HETATM   20 CL2  UNL     1      12.437 -15.065  21.088  1.00  0.00    -0.083 Cl
ENDBRANCH   3  13
TORSDOF 2
ENDMDL
