MODEL 2
REMARK VINA RESULT: -10.880815209      1.574      2.457
REMARK  7 active torsions:
REMARK  status: ('A' for Active; 'I' for Inactive)
REMARK    1  A    between atoms: N1_2  and  C1_4 
REMARK    2  A    between atoms: C5_8  and  C6_9 
REMARK    3  A    between atoms: C6_9  and  N2_10 
REMARK    4  A    between atoms: N2_10  and  C7_12 
REMARK    5  A    between atoms: C8_15  and  C9_16 
REMARK    6  A    between atoms: C12_26  and  C13_27 
REMARK    7  A    between atoms: N7_31  and  C15_32 
ROOT
HETATM    1  C7  UNL     1      -2.187 -14.741  14.763  1.00  0.00     0.120 A 
HETATM    2  N3  UNL     1      -1.154 -14.241  15.457  1.00  0.00    -0.324 N 
ATOM      3  H3  UNL     1      -1.197 -13.272  15.773  1.00  0.00     0.169 HD
HETATM    4  C8  UNL     1      -0.076 -14.965  15.748  1.00  0.00     0.193 A 
HETATM    5  N4  UNL     1       0.014 -16.276  15.339  1.00  0.00    -0.324 N 
ATOM      6  H4  UNL     1       0.842 -16.822  15.575  1.00  0.00     0.169 HD
HETATM    7  C10 UNL     1      -0.974 -16.844  14.634  1.00  0.00     0.120 A 
HETATM    8  N5  UNL     1      -0.850 -18.103  14.146  1.00  0.00    -0.351 N 
ATOM      9  H5  UNL     1      -0.036 -18.676  14.367  1.00  0.00     0.166 HD
HETATM   10  C11 UNL     1      -1.833 -18.573  13.364  1.00  0.00     0.102 A 
HETATM   11  C12 UNL     1      -2.955 -17.859  13.030  1.00  0.00    -0.007 A 
HETATM   12  C21 UNL     1      -3.085 -16.567  13.535  1.00  0.00     0.032 A 
HETATM   13  C22 UNL     1      -2.083 -16.058  14.344  1.00  0.00     0.053 A 
ENDROOT
BRANCH  11  14
HETATM   14  C13 UNL     1      -3.956 -18.403  12.082  1.00  0.00     0.009 A 
HETATM   15  C14 UNL     1      -3.679 -18.735  10.776  1.00  0.00     0.121 A 
HETATM   16  N6  UNL     1      -4.827 -19.272  10.234  1.00  0.00    -0.309 N 
HETATM   17  N7  UNL     1      -5.775 -19.290  11.127  1.00  0.00    -0.298 N 
ATOM     18  H6  UNL     1      -4.921 -19.606   9.274  1.00  0.00     0.186 HD
HETATM   19  C20 UNL     1      -5.274 -18.758  12.283  1.00  0.00     0.124 A 
BRANCH  17  20
HETATM   20  C15 UNL     1      -7.121 -19.786  10.961  1.00  0.00     0.110 C 
HETATM   21  C16 UNL     1      -7.946 -19.180  12.108  1.00  0.00     0.055 C 
HETATM   22  C17 UNL     1      -9.334 -19.720  12.099  1.00  0.00     0.234 C 
HETATM   23  N8  UNL     1      -9.261 -21.148  12.311  1.00  0.00    -0.075 N 
HETATM   24  C18 UNL     1      -8.627 -21.755  11.164  1.00  0.00     0.234 C 
ATOM     25  H82 UNL     1      -8.797 -21.389  13.186  1.00  0.00     0.277 HD
ATOM     26  H81 UNL     1     -10.172 -21.559  12.515  1.00  0.00     0.277 HD
HETATM   27  C19 UNL     1      -7.160 -21.303  11.100  1.00  0.00     0.055 C 
ENDBRANCH  17  20
ENDBRANCH  11  14
BRANCH   1  28
HETATM   28  N2  UNL     1      -3.408 -14.075  14.568  1.00  0.00    -0.351 N 
ATOM     29  H2  UNL     1      -3.932 -14.327  13.730  1.00  0.00     0.166 HD
BRANCH  28  30
HETATM   30  C6  UNL     1      -3.990 -13.103  15.395  1.00  0.00     0.101 C 
BRANCH  30  31
HETATM   31  C5  UNL     1      -4.508 -13.378  16.715  1.00  0.00    -0.018 A 
HETATM   32  C4  UNL     1      -5.804 -13.489  17.093  1.00  0.00     0.013 A 
HETATM   33  C3  UNL     1      -6.186 -13.752  18.408  1.00  0.00     0.003 A 
HETATM   34  C2  UNL     1      -5.224 -13.914  19.392  1.00  0.00     0.036 A 
HETATM   35  C1  UNL     1      -3.900 -13.806  19.052  1.00  0.00     0.103 A 
HETATM   36  C23 UNL     1      -3.544 -13.546  17.746  1.00  0.00     0.048 A 
BRANCH  35  37
HETATM   37  N1  UNL     1      -2.898 -13.977  20.067  1.00  0.00    -0.116 N 
HETATM   38  O1  UNL     1      -1.806 -14.417  19.736  1.00  0.00    -0.532 OA
HETATM   39  O2  UNL     1      -3.176 -13.648  21.354  1.00  0.00    -0.532 OA
ENDBRANCH  35  37
ENDBRANCH  30  31
ENDBRANCH  28  30
ENDBRANCH   1  28
BRANCH   4  40
HETATM   40  C9  UNL     1       1.111 -14.469  16.505  1.00  0.00     0.449 C 
HETATM   41  F1  UNL     1       2.185 -14.235  15.612  1.00  0.00    -0.163 F 
HETATM   42  F2  UNL     1       0.735 -13.234  17.022  1.00  0.00    -0.163 F 
HETATM   43  F3  UNL     1       1.485 -15.349  17.482  1.00  0.00    -0.163 F 
ENDBRANCH   4  40
TORSDOF 7
ENDMDL
