MODEL 5
REMARK VINA RESULT: -10.665341775      4.583      6.722
REMARK  7 active torsions:
REMARK  status: ('A' for Active; 'I' for Inactive)
REMARK    1  A    between atoms: N1_2  and  C1_4 
REMARK    2  A    between atoms: C5_8  and  C6_9 
REMARK    3  A    between atoms: C6_9  and  N2_10 
REMARK    4  A    between atoms: N2_10  and  C7_12 
REMARK    5  A    between atoms: C8_15  and  C9_16 
REMARK    6  A    between atoms: C12_26  and  C13_27 
REMARK    7  A    between atoms: N7_31  and  C15_32 
ROOT
HETATM    1  C7  UNL     1      -3.855 -13.515  17.141  1.00  0.00     0.120 A 
HETATM    2  N3  UNL     1      -3.340 -13.707  18.365  1.00  0.00    -0.324 N 
ATOM      3  H3  UNL     1      -2.328 -13.765  18.468  1.00  0.00     0.169 HD
HETATM    4  C8  UNL     1      -4.106 -13.825  19.447  1.00  0.00     0.193 A 
HETATM    5  N4  UNL     1      -5.476 -13.749  19.344  1.00  0.00    -0.324 N 
ATOM      6  H4  UNL     1      -6.051 -13.833  20.182  1.00  0.00     0.169 HD
HETATM    7  C10 UNL     1      -6.064 -13.567  18.153  1.00  0.00     0.120 A 
HETATM    8  N5  UNL     1      -7.415 -13.588  18.031  1.00  0.00    -0.351 N 
ATOM      9  H5  UNL     1      -8.017 -13.667  18.850  1.00  0.00     0.166 HD
HETATM   10  C11 UNL     1      -7.935 -13.501  16.798  1.00  0.00     0.102 A 
HETATM   11  C12 UNL     1      -7.186 -13.389  15.656  1.00  0.00    -0.007 A 
HETATM   12  C21 UNL     1      -5.798 -13.363  15.781  1.00  0.00     0.032 A 
HETATM   13  C22 UNL     1      -5.236 -13.453  17.044  1.00  0.00     0.053 A 
ENDROOT
BRANCH  11  14
HETATM   14  C13 UNL     1      -7.822 -13.396  14.317  1.00  0.00     0.009 A 
HETATM   15  C14 UNL     1      -9.082 -13.886  14.065  1.00  0.00     0.121 A 
HETATM   16  N6  UNL     1      -9.357 -13.656  12.734  1.00  0.00    -0.309 N 
HETATM   17  N7  UNL     1      -8.350 -13.054  12.169  1.00  0.00    -0.298 N 
ATOM     18  H6  UNL     1     -10.222 -13.918  12.262  1.00  0.00     0.186 HD
HETATM   19  C20 UNL     1      -7.380 -12.878  13.116  1.00  0.00     0.124 A 
BRANCH  17  20
HETATM   20  C15 UNL     1      -8.248 -12.626  10.793  1.00  0.00     0.110 C 
HETATM   21  C16 UNL     1      -7.826 -13.866   9.988  1.00  0.00     0.055 C 
HETATM   22  C17 UNL     1      -7.581 -13.508   8.564  1.00  0.00     0.234 C 
HETATM   23  N8  UNL     1      -6.491 -12.559   8.521  1.00  0.00    -0.075 N 
HETATM   24  C18 UNL     1      -6.925 -11.327   9.136  1.00  0.00     0.234 C 
ATOM     25  H82 UNL     1      -5.638 -12.925   8.943  1.00  0.00     0.277 HD
ATOM     26  H81 UNL     1      -6.133 -12.418   7.577  1.00  0.00     0.277 HD
HETATM   27  C19 UNL     1      -7.164 -11.567  10.635  1.00  0.00     0.055 C 
ENDBRANCH  17  20
ENDBRANCH  11  14
BRANCH   1  28
HETATM   28  N2  UNL     1      -3.093 -13.227  15.997  1.00  0.00    -0.351 N 
ATOM     29  H2  UNL     1      -3.599 -12.828  15.206  1.00  0.00     0.166 HD
BRANCH  28  30
HETATM   30  C6  UNL     1      -1.716 -13.424  15.818  1.00  0.00     0.101 C 
BRANCH  30  31
HETATM   31  C5  UNL     1      -1.072 -14.714  15.906  1.00  0.00    -0.018 A 
HETATM   32  C4  UNL     1      -0.128 -15.113  16.792  1.00  0.00     0.013 A 
HETATM   33  C3  UNL     1       0.430 -16.391  16.775  1.00  0.00     0.003 A 
HETATM   34  C2  UNL     1       0.021 -17.315  15.826  1.00  0.00     0.036 A 
HETATM   35  C1  UNL     1      -0.930 -16.950  14.909  1.00  0.00     0.103 A 
HETATM   36  C23 UNL     1      -1.469 -15.682  14.944  1.00  0.00     0.048 A 
BRANCH  35  37
HETATM   37  N1  UNL     1      -1.361 -17.905  13.926  1.00  0.00    -0.116 N 
HETATM   38  O1  UNL     1      -0.631 -18.852  13.678  1.00  0.00    -0.532 OA
HETATM   39  O2  UNL     1      -2.557 -17.741  13.305  1.00  0.00    -0.532 OA
ENDBRANCH  35  37
ENDBRANCH  30  31
ENDBRANCH  28  30
ENDBRANCH   1  28
BRANCH   4  40
HETATM   40  C9  UNL     1      -3.601 -14.051  20.833  1.00  0.00     0.449 C 
HETATM   41  F1  UNL     1      -3.965 -15.348  21.270  1.00  0.00    -0.163 F 
HETATM   42  F2  UNL     1      -2.214 -14.028  20.734  1.00  0.00    -0.163 F 
HETATM   43  F3  UNL     1      -4.075 -13.105  21.699  1.00  0.00    -0.163 F 
ENDBRANCH   4  40
TORSDOF 7
ENDMDL
