MODEL 1
REMARK VINA RESULT: -10.971106678      0.000      0.000
REMARK  7 active torsions:
REMARK  status: ('A' for Active; 'I' for Inactive)
REMARK    1  A    between atoms: N1_2  and  C1_4 
REMARK    2  A    between atoms: C5_8  and  C6_9 
REMARK    3  A    between atoms: C6_9  and  N2_10 
REMARK    4  A    between atoms: N2_10  and  C7_12 
REMARK    5  A    between atoms: C8_15  and  C9_16 
REMARK    6  A    between atoms: C12_26  and  C13_27 
REMARK    7  A    between atoms: N7_31  and  C15_32 
ROOT
HETATM    1  C7  UNL     1      -1.996 -14.807  14.792  1.00  0.00     0.120 A 
HETATM    2  N3  UNL     1      -0.953 -14.470  15.564  1.00  0.00    -0.324 N 
ATOM      3  H3  UNL     1      -0.890 -13.515  15.917  1.00  0.00     0.169 HD
HETATM    4  C8  UNL     1       0.003 -15.339  15.886  1.00  0.00     0.193 A 
HETATM    5  N4  UNL     1      -0.052 -16.636  15.430  1.00  0.00    -0.324 N 
ATOM      6  H4  UNL     1       0.683 -17.294  15.690  1.00  0.00     0.169 HD
HETATM    7  C10 UNL     1      -1.059 -17.045  14.646  1.00  0.00     0.120 A 
HETATM    8  N5  UNL     1      -1.068 -18.293  14.114  1.00  0.00    -0.351 N 
ATOM      9  H5  UNL     1      -0.350 -18.974  14.358  1.00  0.00     0.166 HD
HETATM   10  C11 UNL     1      -2.053 -18.603  13.258  1.00  0.00     0.102 A 
HETATM   11  C12 UNL     1      -3.051 -17.738  12.891  1.00  0.00    -0.007 A 
HETATM   12  C21 UNL     1      -3.044 -16.458  13.440  1.00  0.00     0.032 A 
HETATM   13  C22 UNL     1      -2.037 -16.111  14.326  1.00  0.00     0.053 A 
ENDROOT
BRANCH  11  14
HETATM   14  C13 UNL     1      -4.052 -18.113  11.865  1.00  0.00     0.009 A 
HETATM   15  C14 UNL     1      -5.386 -17.785  11.934  1.00  0.00     0.121 A 
HETATM   16  N6  UNL     1      -5.983 -18.235  10.776  1.00  0.00    -0.309 N 
HETATM   17  N7  UNL     1      -5.098 -18.808  10.012  1.00  0.00    -0.298 N 
ATOM     18  H6  UNL     1      -6.973 -18.135  10.551  1.00  0.00     0.186 HD
HETATM   19  C20 UNL     1      -3.891 -18.754  10.653  1.00  0.00     0.124 A 
BRANCH  17  20
HETATM   20  C15 UNL     1      -5.316 -19.395   8.711  1.00  0.00     0.110 C 
HETATM   21  C16 UNL     1      -5.391 -20.914   8.932  1.00  0.00     0.055 C 
HETATM   22  C17 UNL     1      -5.501 -21.630   7.631  1.00  0.00     0.234 C 
HETATM   23  N8  UNL     1      -4.308 -21.350   6.862  1.00  0.00    -0.075 N 
HETATM   24  C18 UNL     1      -4.302 -19.950   6.509  1.00  0.00     0.234 C 
ATOM     25  H82 UNL     1      -3.457 -21.633   7.347  1.00  0.00     0.277 HD
ATOM     26  H81 UNL     1      -4.217 -21.958   6.049  1.00  0.00     0.277 HD
HETATM   27  C19 UNL     1      -4.141 -19.108   7.783  1.00  0.00     0.055 C 
ENDBRANCH  17  20
ENDBRANCH  11  14
BRANCH   1  28
HETATM   28  N2  UNL     1      -3.107 -13.981  14.555  1.00  0.00    -0.351 N 
ATOM     29  H2  UNL     1      -3.568 -14.091  13.652  1.00  0.00     0.166 HD
BRANCH  28  30
HETATM   30  C6  UNL     1      -3.655 -13.021  15.420  1.00  0.00     0.101 C 
BRANCH  30  31
HETATM   31  C5  UNL     1      -4.263 -13.340  16.691  1.00  0.00    -0.018 A 
HETATM   32  C4  UNL     1      -5.580 -13.491  16.968  1.00  0.00     0.013 A 
HETATM   33  C3  UNL     1      -6.052 -13.795  18.244  1.00  0.00     0.003 A 
HETATM   34  C2  UNL     1      -5.161 -13.955  19.294  1.00  0.00     0.036 A 
HETATM   35  C1  UNL     1      -3.819 -13.806  19.057  1.00  0.00     0.103 A 
HETATM   36  C23 UNL     1      -3.374 -13.508  17.787  1.00  0.00     0.048 A 
BRANCH  35  37
HETATM   37  N1  UNL     1      -2.891 -13.976  20.140  1.00  0.00    -0.116 N 
HETATM   38  O1  UNL     1      -1.764 -14.371  19.882  1.00  0.00    -0.532 OA
HETATM   39  O2  UNL     1      -3.277 -13.694  21.411  1.00  0.00    -0.532 OA
ENDBRANCH  35  37
ENDBRANCH  30  31
ENDBRANCH  28  30
ENDBRANCH   1  28
BRANCH   4  40
HETATM   40  C9  UNL     1       1.194 -15.028  16.730  1.00  0.00     0.449 C 
HETATM   41  F1  UNL     1       1.858 -16.229  17.082  1.00  0.00    -0.163 F 
HETATM   42  F2  UNL     1       2.057 -14.311  15.909  1.00  0.00    -0.163 F 
HETATM   43  F3  UNL     1       0.844 -14.330  17.852  1.00  0.00    -0.163 F 
ENDBRANCH   4  40
TORSDOF 7
ENDMDL
