MODEL 4
REMARK VINA RESULT: -10.699148471      4.225      6.717
REMARK  7 active torsions:
REMARK  status: ('A' for Active; 'I' for Inactive)
REMARK    1  A    between atoms: N1_2  and  C1_4 
REMARK    2  A    between atoms: C5_8  and  C6_9 
REMARK    3  A    between atoms: C6_9  and  N2_10 
REMARK    4  A    between atoms: N2_10  and  C7_12 
REMARK    5  A    between atoms: C8_15  and  C9_16 
REMARK    6  A    between atoms: C12_26  and  C13_27 
REMARK    7  A    between atoms: N7_31  and  C15_32 
ROOT
HETATM    1  C7  UNL     1      -3.953 -13.387  17.102  1.00  0.00     0.120 A 
HETATM    2  N3  UNL     1      -3.407 -13.645  18.300  1.00  0.00    -0.324 N 
ATOM      3  H3  UNL     1      -2.391 -13.685  18.379  1.00  0.00     0.169 HD
HETATM    4  C8  UNL     1      -4.146 -13.849  19.389  1.00  0.00     0.193 A 
HETATM    5  N4  UNL     1      -5.519 -13.800  19.318  1.00  0.00    -0.324 N 
ATOM      6  H4  UNL     1      -6.073 -13.951  20.161  1.00  0.00     0.169 HD
HETATM    7  C10 UNL     1      -6.137 -13.556  18.154  1.00  0.00     0.120 A 
HETATM    8  N5  UNL     1      -7.490 -13.602  18.059  1.00  0.00    -0.351 N 
ATOM      9  H5  UNL     1      -8.071 -13.747  18.884  1.00  0.00     0.166 HD
HETATM   10  C11 UNL     1      -8.038 -13.448  16.845  1.00  0.00     0.102 A 
HETATM   11  C12 UNL     1      -7.317 -13.246  15.697  1.00  0.00    -0.007 A 
HETATM   12  C21 UNL     1      -5.928 -13.194  15.795  1.00  0.00     0.032 A 
HETATM   13  C22 UNL     1      -5.337 -13.352  17.038  1.00  0.00     0.053 A 
ENDROOT
BRANCH  11  14
HETATM   14  C13 UNL     1      -7.983 -13.182  14.374  1.00  0.00     0.009 A 
HETATM   15  C14 UNL     1      -9.330 -13.381  14.179  1.00  0.00     0.121 A 
HETATM   16  N6  UNL     1      -9.589 -13.170  12.841  1.00  0.00    -0.309 N 
HETATM   17  N7  UNL     1      -8.490 -12.852  12.219  1.00  0.00    -0.298 N 
ATOM     18  H6  UNL     1     -10.507 -13.251  12.404  1.00  0.00     0.186 HD
HETATM   19  C20 UNL     1      -7.474 -12.851  13.135  1.00  0.00     0.124 A 
BRANCH  17  20
HETATM   20  C15 UNL     1      -8.339 -12.539  10.818  1.00  0.00     0.110 C 
HETATM   21  C16 UNL     1      -7.886 -13.840  10.134  1.00  0.00     0.055 C 
HETATM   22  C17 UNL     1      -7.589 -13.600   8.695  1.00  0.00     0.234 C 
HETATM   23  N8  UNL     1      -6.500 -12.652   8.613  1.00  0.00    -0.075 N 
HETATM   24  C18 UNL     1      -6.959 -11.375   9.107  1.00  0.00     0.234 C 
ATOM     25  H82 UNL     1      -5.663 -12.977   9.094  1.00  0.00     0.277 HD
ATOM     26  H81 UNL     1      -6.108 -12.588   7.674  1.00  0.00     0.277 HD
HETATM   27  C19 UNL     1      -7.253 -11.491  10.611  1.00  0.00     0.055 C 
ENDBRANCH  17  20
ENDBRANCH  11  14
BRANCH   1  28
HETATM   28  N2  UNL     1      -3.223 -13.008  15.964  1.00  0.00    -0.351 N 
ATOM     29  H2  UNL     1      -3.415 -12.076  15.594  1.00  0.00     0.166 HD
BRANCH  28  30
HETATM   30  C6  UNL     1      -2.261 -13.763  15.277  1.00  0.00     0.101 C 
BRANCH  30  31
HETATM   31  C5  UNL     1      -2.532 -15.043  14.666  1.00  0.00    -0.018 A 
HETATM   32  C4  UNL     1      -3.663 -15.442  14.038  1.00  0.00     0.013 A 
HETATM   33  C3  UNL     1      -3.813 -16.715  13.488  1.00  0.00     0.003 A 
HETATM   34  C2  UNL     1      -2.778 -17.633  13.571  1.00  0.00     0.036 A 
HETATM   35  C1  UNL     1      -1.616 -17.270  14.202  1.00  0.00     0.103 A 
HETATM   36  C23 UNL     1      -1.489 -16.007  14.737  1.00  0.00     0.048 A 
BRANCH  35  37
HETATM   37  N1  UNL     1      -0.538 -18.216  14.286  1.00  0.00    -0.116 N 
HETATM   38  O1  UNL     1      -0.379 -19.000  13.362  1.00  0.00    -0.532 OA
HETATM   39  O2  UNL     1       0.276 -18.217  15.373  1.00  0.00    -0.532 OA
ENDBRANCH  35  37
ENDBRANCH  30  31
ENDBRANCH  28  30
ENDBRANCH   1  28
BRANCH   4  40
HETATM   40  C9  UNL     1      -3.605 -14.151  20.746  1.00  0.00     0.449 C 
HETATM   41  F1  UNL     1      -4.048 -15.430  21.165  1.00  0.00    -0.163 F 
HETATM   42  F2  UNL     1      -2.225 -14.229  20.591  1.00  0.00    -0.163 F 
HETATM   43  F3  UNL     1      -3.972 -13.198  21.654  1.00  0.00    -0.163 F 
ENDBRANCH   4  40
TORSDOF 7
ENDMDL
