MODEL 6
REMARK VINA RESULT: -10.628822343      4.210      6.771
REMARK  7 active torsions:
REMARK  status: ('A' for Active; 'I' for Inactive)
REMARK    1  A    between atoms: N1_2  and  C1_4 
REMARK    2  A    between atoms: C5_8  and  C6_9 
REMARK    3  A    between atoms: C6_9  and  N2_10 
REMARK    4  A    between atoms: N2_10  and  C7_12 
REMARK    5  A    between atoms: C8_15  and  C9_16 
REMARK    6  A    between atoms: C12_26  and  C13_27 
REMARK    7  A    between atoms: N7_31  and  C15_32 
ROOT
HETATM    1  C7  UNL     1      -3.693 -13.591  17.086  1.00  0.00     0.120 A 
HETATM    2  N3  UNL     1      -3.180 -13.739  18.316  1.00  0.00    -0.324 N 
ATOM      3  H3  UNL     1      -2.167 -13.787  18.425  1.00  0.00     0.169 HD
HETATM    4  C8  UNL     1      -3.948 -13.825  19.400  1.00  0.00     0.193 A 
HETATM    5  N4  UNL     1      -5.319 -13.762  19.290  1.00  0.00    -0.324 N 
ATOM      6  H4  UNL     1      -5.895 -13.821  20.129  1.00  0.00     0.169 HD
HETATM    7  C10 UNL     1      -5.904 -13.623  18.093  1.00  0.00     0.120 A 
HETATM    8  N5  UNL     1      -7.255 -13.657  17.967  1.00  0.00    -0.351 N 
ATOM      9  H5  UNL     1      -7.858 -13.713  18.787  1.00  0.00     0.166 HD
HETATM   10  C11 UNL     1      -7.771 -13.615  16.730  1.00  0.00     0.102 A 
HETATM   11  C12 UNL     1      -7.019 -13.536  15.587  1.00  0.00    -0.007 A 
HETATM   12  C21 UNL     1      -5.632 -13.496  15.716  1.00  0.00     0.032 A 
HETATM   13  C22 UNL     1      -5.073 -13.541  16.982  1.00  0.00     0.053 A 
ENDROOT
BRANCH  11  14
HETATM   14  C13 UNL     1      -7.651 -13.592  14.248  1.00  0.00     0.009 A 
HETATM   15  C14 UNL     1      -8.829 -14.249  13.978  1.00  0.00     0.121 A 
HETATM   16  N6  UNL     1      -9.138 -14.019  12.655  1.00  0.00    -0.309 N 
HETATM   17  N7  UNL     1      -8.228 -13.262  12.111  1.00  0.00    -0.298 N 
ATOM     18  H6  UNL     1      -9.958 -14.387  12.172  1.00  0.00     0.186 HD
HETATM   19  C20 UNL     1      -7.291 -12.979  13.065  1.00  0.00     0.124 A 
BRANCH  17  20
HETATM   20  C15 UNL     1      -8.192 -12.781  10.749  1.00  0.00     0.110 C 
HETATM   21  C16 UNL     1      -7.806 -13.987   9.878  1.00  0.00     0.055 C 
HETATM   22  C17 UNL     1      -7.628 -13.573   8.458  1.00  0.00     0.234 C 
HETATM   23  N8  UNL     1      -6.544 -12.618   8.402  1.00  0.00    -0.075 N 
HETATM   24  C18 UNL     1      -6.951 -11.413   9.084  1.00  0.00     0.234 C 
ATOM     25  H82 UNL     1      -5.671 -12.997   8.768  1.00  0.00     0.277 HD
ATOM     26  H81 UNL     1      -6.231 -12.439   7.448  1.00  0.00     0.277 HD
HETATM   27  C19 UNL     1      -7.119 -11.711  10.581  1.00  0.00     0.055 C 
ENDBRANCH  17  20
ENDBRANCH  11  14
BRANCH   1  28
HETATM   28  N2  UNL     1      -2.929 -13.336  15.934  1.00  0.00    -0.351 N 
ATOM     29  H2  UNL     1      -3.260 -12.583  15.330  1.00  0.00     0.166 HD
BRANCH  28  30
HETATM   30  C6  UNL     1      -1.763 -13.997  15.521  1.00  0.00     0.101 C 
BRANCH  30  31
HETATM   31  C5  UNL     1      -1.751 -15.326  14.956  1.00  0.00    -0.018 A 
HETATM   32  C4  UNL     1      -0.783 -16.267  15.064  1.00  0.00     0.013 A 
HETATM   33  C3  UNL     1      -0.881 -17.522  14.464  1.00  0.00     0.003 A 
HETATM   34  C2  UNL     1      -2.003 -17.850  13.719  1.00  0.00     0.036 A 
HETATM   35  C1  UNL     1      -3.004 -16.924  13.582  1.00  0.00     0.103 A 
HETATM   36  C23 UNL     1      -2.888 -15.690  14.185  1.00  0.00     0.048 A 
BRANCH  35  37
HETATM   37  N1  UNL     1      -4.172 -17.261  12.816  1.00  0.00    -0.116 N 
HETATM   38  O1  UNL     1      -5.270 -17.043  13.306  1.00  0.00    -0.532 OA
HETATM   39  O2  UNL     1      -4.035 -17.801  11.578  1.00  0.00    -0.532 OA
ENDBRANCH  35  37
ENDBRANCH  30  31
ENDBRANCH  28  30
ENDBRANCH   1  28
BRANCH   4  40
HETATM   40  C9  UNL     1      -3.445 -14.001  20.794  1.00  0.00     0.449 C 
HETATM   41  F1  UNL     1      -4.066 -13.058  21.650  1.00  0.00    -0.163 F 
HETATM   42  F2  UNL     1      -3.880 -15.260  21.193  1.00  0.00    -0.163 F 
HETATM   43  F3  UNL     1      -2.085 -13.878  20.854  1.00  0.00    -0.163 F 
ENDBRANCH   4  40
TORSDOF 7
ENDMDL
