MODEL 1
REMARK VINA RESULT: -8.766441453      0.000      0.000
REMARK  5 active torsions:
REMARK  status: ('A' for Active; 'I' for Inactive)
REMARK    1  A    between atoms: C2_2  and  C3_3 
REMARK    2  A    between atoms: C5_9  and  S1_10 
REMARK    3  A    between atoms: S1_10  and  C6_11 
REMARK    4  A    between atoms: C13_27  and  N7_28 
REMARK    5  A    between atoms: C16_31  and  N8_32 
ROOT
HETATM    1  C3  UNL     1     -10.502  -3.399 -21.463  1.00  0.00     0.033 A 
HETATM    2  N1  UNL     1     -11.220  -4.258 -20.724  1.00  0.00    -0.344 N 
ATOM      3  H1  UNL     1     -12.083  -4.706 -21.033  1.00  0.00     0.167 HD
HETATM    4  C4  UNL     1     -10.650  -4.448 -19.525  1.00  0.00     0.123 A 
HETATM    5  N2  UNL     1     -10.956  -5.182 -18.434  1.00  0.00    -0.322 N 
ATOM      6  H2  UNL     1     -11.798  -5.756 -18.453  1.00  0.00     0.169 HD
HETATM    7  C5  UNL     1     -10.204  -5.188 -17.332  1.00  0.00     0.152 A 
HETATM    8  N6  UNL     1      -9.098  -4.449 -17.283  1.00  0.00    -0.322 N 
ATOM      9  H6  UNL     1      -8.528  -4.459 -16.437  1.00  0.00     0.169 HD
HETATM   10  C13 UNL     1      -8.710  -3.674 -18.345  1.00  0.00     0.121 A 
HETATM   11  C18 UNL     1      -9.495  -3.679 -19.465  1.00  0.00     0.076 A 
HETATM   12  C19 UNL     1      -9.419  -3.035 -20.673  1.00  0.00     0.074 A 
HETATM   13 CL1  UNL     1      -8.176  -1.922 -21.147  1.00  0.00    -0.081 Cl
ENDROOT
BRANCH   7  14
HETATM   14  S1  UNL     1     -10.675  -6.175 -15.945  1.00  0.00    -0.053 SA
BRANCH  14  15
HETATM   15  C6  UNL     1     -11.493  -5.143 -14.731  1.00  0.00     0.026 A 
HETATM   16  C7  UNL     1     -12.865  -5.017 -14.689  1.00  0.00     0.108 A 
HETATM   17  N3  UNL     1     -13.522  -4.259 -13.802  1.00  0.00    -0.349 N 
HETATM   18  C8  UNL     1     -12.858  -3.560 -12.879  1.00  0.00     0.132 A 
ATOM     19  H3  UNL     1     -14.540  -4.216 -13.832  1.00  0.00     0.167 HD
HETATM   20  N4  UNL     1     -13.475  -2.785 -11.968  1.00  0.00    -0.345 N 
HETATM   21  C11 UNL     1     -11.482  -3.638 -12.863  1.00  0.00     0.081 A 
HETATM   22  C9  UNL     1     -12.723  -2.122 -11.082  1.00  0.00     0.164 A 
ATOM     23  H4  UNL     1     -14.492  -2.705 -11.952  1.00  0.00     0.167 HD
HETATM   24  C10 UNL     1     -11.347  -2.184 -11.045  1.00  0.00     0.261 A 
HETATM   25  O1  UNL     1     -10.681  -1.533 -10.183  1.00  0.00    -0.267 OA
HETATM   26  N5  UNL     1     -10.728  -2.954 -11.952  1.00  0.00    -0.319 N 
ATOM     27  H5  UNL     1      -9.711  -3.028 -11.961  1.00  0.00     0.169 HD
HETATM   28  C12 UNL     1     -10.792  -4.428 -13.785  1.00  0.00     0.054 A 
ENDBRANCH  14  15
ENDBRANCH   7  14
BRANCH  10  29
HETATM   29  N7  UNL     1      -7.520  -2.971 -18.182  1.00  0.00    -0.364 N 
HETATM   30  C14 UNL     1      -6.199  -3.325 -18.650  1.00  0.00     0.126 C 
HETATM   31  C15 UNL     1      -5.439  -3.092 -17.311  1.00  0.00     0.054 C 
HETATM   32  C16 UNL     1      -5.921  -1.696 -16.989  1.00  0.00     0.203 C 
HETATM   33  C17 UNL     1      -7.362  -1.716 -17.459  1.00  0.00     0.157 C 
BRANCH  32  34
HETATM   34  N8  UNL     1      -5.149  -0.696 -17.695  1.00  0.00    -0.073 N 
ATOM     35  H83 UNL     1      -5.620  -0.395 -18.549  1.00  0.00     0.274 HD
ATOM     36  H82 UNL     1      -5.144   0.194 -17.196  1.00  0.00     0.274 HD
ATOM     37  H81 UNL     1      -4.202  -1.024 -17.885  1.00  0.00     0.274 HD
ENDBRANCH  32  34
ENDBRANCH  10  29
BRANCH   1  38
HETATM   38  C2  UNL     1     -10.763  -2.902 -22.852  1.00  0.00     0.054 C 
HETATM   39  C1  UNL     1     -11.276  -1.498 -22.859  1.00  0.00     0.011 C 
ENDBRANCH   1  38
TORSDOF 5
ENDMDL
