MODEL 2
REMARK VINA RESULT: -8.668776871      3.632      5.165
REMARK  5 active torsions:
REMARK  status: ('A' for Active; 'I' for Inactive)
REMARK    1  A    between atoms: C2_2  and  C3_3 
REMARK    2  A    between atoms: C5_9  and  S1_10 
REMARK    3  A    between atoms: S1_10  and  C6_11 
REMARK    4  A    between atoms: C13_27  and  N7_28 
REMARK    5  A    between atoms: C16_31  and  N8_32 
ROOT
HETATM    1  C3  UNL     1      -5.315  -1.243 -14.887  1.00  0.00     0.033 A 
HETATM    2  N1  UNL     1      -6.652  -1.329 -14.951  1.00  0.00    -0.344 N 
ATOM      3  H1  UNL     1      -7.293  -0.566 -14.735  1.00  0.00     0.167 HD
HETATM    4  C4  UNL     1      -7.032  -2.557 -15.337  1.00  0.00     0.123 A 
HETATM    5  N2  UNL     1      -8.221  -3.160 -15.546  1.00  0.00    -0.322 N 
ATOM      6  H2  UNL     1      -9.074  -2.619 -15.405  1.00  0.00     0.169 HD
HETATM    7  C5  UNL     1      -8.329  -4.433 -15.930  1.00  0.00     0.152 A 
HETATM    8  N6  UNL     1      -7.230  -5.160 -16.123  1.00  0.00    -0.322 N 
ATOM      9  H6  UNL     1      -7.320  -6.132 -16.417  1.00  0.00     0.169 HD
HETATM   10  C13 UNL     1      -5.981  -4.628 -15.935  1.00  0.00     0.121 A 
HETATM   11  C18 UNL     1      -5.891  -3.321 -15.540  1.00  0.00     0.076 A 
HETATM   12  C19 UNL     1      -4.837  -2.492 -15.256  1.00  0.00     0.074 A 
HETATM   13 CL1  UNL     1      -3.160  -2.932 -15.326  1.00  0.00    -0.081 Cl
ENDROOT
BRANCH   7  14
HETATM   14  S1  UNL     1      -9.924  -5.149 -16.180  1.00  0.00    -0.053 SA
BRANCH  14  15
HETATM   15  C6  UNL     1     -11.037  -4.587 -14.895  1.00  0.00     0.026 A 
HETATM   16  C7  UNL     1     -12.388  -4.857 -14.934  1.00  0.00     0.108 A 
HETATM   17  N3  UNL     1     -13.260  -4.460 -13.999  1.00  0.00    -0.349 N 
HETATM   18  C8  UNL     1     -12.850  -3.755 -12.941  1.00  0.00     0.132 A 
ATOM     19  H3  UNL     1     -14.247  -4.697 -14.095  1.00  0.00     0.167 HD
HETATM   20  N4  UNL     1     -13.689  -3.334 -11.976  1.00  0.00    -0.345 N 
HETATM   21  C11 UNL     1     -11.511  -3.448 -12.838  1.00  0.00     0.081 A 
HETATM   22  C9  UNL     1     -13.185  -2.633 -10.955  1.00  0.00     0.164 A 
ATOM     23  H4  UNL     1     -14.687  -3.544 -12.023  1.00  0.00     0.167 HD
HETATM   24  C10 UNL     1     -11.850  -2.314 -10.829  1.00  0.00     0.261 A 
HETATM   25  O1  UNL     1     -11.424  -1.645  -9.838  1.00  0.00    -0.267 OA
HETATM   26  N5  UNL     1     -11.011  -2.731 -11.788  1.00  0.00    -0.319 N 
ATOM     27  H5  UNL     1     -10.015  -2.516 -11.734  1.00  0.00     0.169 HD
HETATM   28  C12 UNL     1     -10.598  -3.861 -13.810  1.00  0.00     0.054 A 
ENDBRANCH  14  15
ENDBRANCH   7  14
BRANCH  10  29
HETATM   29  N7  UNL     1      -4.912  -5.480 -16.200  1.00  0.00    -0.364 N 
HETATM   30  C14 UNL     1      -4.199  -5.663 -17.444  1.00  0.00     0.126 C 
HETATM   31  C15 UNL     1      -4.243  -7.220 -17.476  1.00  0.00     0.054 C 
HETATM   32  C16 UNL     1      -3.706  -7.514 -16.094  1.00  0.00     0.203 C 
HETATM   33  C17 UNL     1      -4.302  -6.403 -15.252  1.00  0.00     0.157 C 
BRANCH  32  34
HETATM   34  N8  UNL     1      -2.259  -7.474 -16.072  1.00  0.00    -0.073 N 
ATOM     35  H83 UNL     1      -1.864  -8.377 -15.808  1.00  0.00     0.274 HD
ATOM     36  H82 UNL     1      -1.872  -7.402 -17.013  1.00  0.00     0.274 HD
ATOM     37  H81 UNL     1      -1.917  -6.725 -15.469  1.00  0.00     0.274 HD
ENDBRANCH  32  34
ENDBRANCH  10  29
BRANCH   1  38
HETATM   38  C2  UNL     1      -4.462  -0.071 -14.504  1.00  0.00     0.054 C 
HETATM   39  C1  UNL     1      -4.696   0.355 -13.091  1.00  0.00     0.011 C 
ENDBRANCH   1  38
TORSDOF 5
ENDMDL
