MODEL 3
REMARK VINA RESULT: -8.538710492      0.964      1.492
REMARK  5 active torsions:
REMARK  status: ('A' for Active; 'I' for Inactive)
REMARK    1  A    between atoms: C2_2  and  C3_3 
REMARK    2  A    between atoms: C5_9  and  S1_10 
REMARK    3  A    between atoms: S1_10  and  C6_11 
REMARK    4  A    between atoms: C13_27  and  N7_28 
REMARK    5  A    between atoms: C16_31  and  N8_32 
ROOT
HETATM    1  C3  UNL     1     -10.434  -3.255 -21.573  1.00  0.00     0.033 A 
HETATM    2  N1  UNL     1     -11.282  -4.018 -20.868  1.00  0.00    -0.344 N 
ATOM      3  H1  UNL     1     -12.157  -4.397 -21.230  1.00  0.00     0.167 HD
HETATM    4  C4  UNL     1     -10.824  -4.214 -19.622  1.00  0.00     0.123 A 
HETATM    5  N2  UNL     1     -11.278  -4.876 -18.537  1.00  0.00    -0.322 N 
ATOM      6  H2  UNL     1     -12.166  -5.373 -18.605  1.00  0.00     0.169 HD
HETATM    7  C5  UNL     1     -10.616  -4.909 -17.380  1.00  0.00     0.152 A 
HETATM    8  N6  UNL     1      -9.453  -4.271 -17.267  1.00  0.00    -0.322 N 
ATOM      9  H6  UNL     1      -8.952  -4.301 -16.379  1.00  0.00     0.169 HD
HETATM   10  C13 UNL     1      -8.916  -3.573 -18.317  1.00  0.00     0.121 A 
HETATM   11  C18 UNL     1      -9.611  -3.550 -19.496  1.00  0.00     0.076 A 
HETATM   12  C19 UNL     1      -9.386  -2.960 -20.712  1.00  0.00     0.074 A 
HETATM   13 CL1  UNL     1      -8.013  -1.981 -21.120  1.00  0.00    -0.081 Cl
ENDROOT
BRANCH   7  14
HETATM   14  S1  UNL     1     -11.279  -5.798 -16.006  1.00  0.00    -0.053 SA
BRANCH  14  15
HETATM   15  C6  UNL     1     -11.274  -4.744 -14.558  1.00  0.00     0.026 A 
HETATM   16  C7  UNL     1     -10.115  -4.171 -14.080  1.00  0.00     0.108 A 
HETATM   17  N3  UNL     1     -10.059  -3.377 -13.004  1.00  0.00    -0.349 N 
HETATM   18  C8  UNL     1     -11.164  -3.089 -12.312  1.00  0.00     0.132 A 
ATOM     19  H3  UNL     1      -9.164  -2.988 -12.710  1.00  0.00     0.167 HD
HETATM   20  N4  UNL     1     -11.157  -2.296 -11.224  1.00  0.00    -0.345 N 
HETATM   21  C11 UNL     1     -12.360  -3.629 -12.733  1.00  0.00     0.081 A 
HETATM   22  C9  UNL     1     -12.316  -2.066 -10.597  1.00  0.00     0.164 A 
ATOM     23  H4  UNL     1     -10.289  -1.880 -10.886  1.00  0.00     0.167 HD
HETATM   24  C10 UNL     1     -13.523  -2.594 -10.998  1.00  0.00     0.261 A 
HETATM   25  O1  UNL     1     -14.595  -2.343 -10.365  1.00  0.00    -0.267 OA
HETATM   26  N5  UNL     1     -13.535  -3.384 -12.081  1.00  0.00    -0.319 N 
ATOM     27  H5  UNL     1     -14.407  -3.797 -12.412  1.00  0.00     0.169 HD
HETATM   28  C12 UNL     1     -12.423  -4.458 -13.855  1.00  0.00     0.054 A 
ENDBRANCH  14  15
ENDBRANCH   7  14
BRANCH  10  29
HETATM   29  N7  UNL     1      -7.682  -2.975 -18.082  1.00  0.00    -0.364 N 
HETATM   30  C14 UNL     1      -6.369  -3.450 -18.458  1.00  0.00     0.126 C 
HETATM   31  C15 UNL     1      -5.681  -3.263 -17.073  1.00  0.00     0.054 C 
HETATM   32  C16 UNL     1      -6.059  -1.825 -16.799  1.00  0.00     0.203 C 
HETATM   33  C17 UNL     1      -7.462  -1.726 -17.363  1.00  0.00     0.157 C 
BRANCH  32  34
HETATM   34  N8  UNL     1      -5.157  -0.907 -17.462  1.00  0.00    -0.073 N 
ATOM     35  H83 UNL     1      -4.462  -0.533 -16.815  1.00  0.00     0.274 HD
ATOM     36  H82 UNL     1      -4.530  -1.396 -18.101  1.00  0.00     0.274 HD
ATOM     37  H81 UNL     1      -5.668  -0.162 -17.935  1.00  0.00     0.274 HD
ENDBRANCH  32  34
ENDBRANCH  10  29
BRANCH   1  38
HETATM   38  C2  UNL     1     -10.543  -2.787 -22.993  1.00  0.00     0.054 C 
HETATM   39  C1  UNL     1     -11.290  -1.498 -23.104  1.00  0.00     0.011 C 
ENDBRANCH   1  38
TORSDOF 5
ENDMDL
