MODEL 2
REMARK VINA RESULT: -8.010555711      0.711      1.130
REMARK  5 active torsions:
REMARK  status: ('A' for Active; 'I' for Inactive)
REMARK    1  A    between atoms: C1_2  and  C2_4 
REMARK    2  A    between atoms: C2_4  and  C3_5 
REMARK    3  A    between atoms: C3_5  and  C4_6 
REMARK    4  A    between atoms: C4_6  and  C5_7 
REMARK    5  A    between atoms: C5_7  and  C6_8 
ROOT
HETATM    1  C6  UNL     1      40.457  -8.564   0.891  1.00  0.00     0.072 C 
HETATM    2  S1  UNL     1      41.647  -8.289   2.263  1.00  0.00    -0.160 SA
HETATM    3  C7  UNL     1      42.874  -7.289   1.334  1.00  0.00     0.101 C 
HETATM    4  C8  UNL     1      42.397  -7.447  -0.066  1.00  0.00     0.119 C 
HETATM    5  N1  UNL     1      42.617  -6.160  -0.740  1.00  0.00    -0.336 N 
ATOM      6  H1  UNL     1      43.370  -5.912  -1.382  1.00  0.00     0.164 HD
HETATM    7  C9  UNL     1      41.544  -5.338  -0.298  1.00  0.00     0.316 C 
HETATM    8  O3  UNL     1      41.531  -4.078  -0.404  1.00  0.00    -0.247 OA
HETATM    9  N2  UNL     1      40.521  -6.179   0.270  1.00  0.00    -0.335 N 
ATOM     10  H2  UNL     1      39.702  -5.885   0.802  1.00  0.00     0.164 HD
HETATM   11  C10 UNL     1      40.900  -7.516  -0.071  1.00  0.00     0.123 C 
ENDROOT
BRANCH   1  12
HETATM   12  C5  UNL     1      39.055  -8.416   1.361  1.00  0.00     0.017 C 
BRANCH  12  13
HETATM   13  C4  UNL     1      38.267  -9.620   0.906  1.00  0.00     0.002 C 
BRANCH  13  14
HETATM   14  C3  UNL     1      38.507 -10.831   1.758  1.00  0.00     0.010 C 
BRANCH  14  15
HETATM   15  C2  UNL     1      39.155 -11.946   0.977  1.00  0.00     0.113 C 
BRANCH  15  16
HETATM   16  C1  UNL     1      38.395 -13.205   1.054  1.00  0.00     0.172 C 
HETATM   17  O1  UNL     1      38.662 -14.084   1.898  1.00  0.00    -0.648 OA
HETATM   18  O2  UNL     1      37.362 -13.426   0.176  1.00  0.00    -0.648 OA
ENDBRANCH  15  16
ENDBRANCH  14  15
ENDBRANCH  13  14
ENDBRANCH  12  13
ENDBRANCH   1  12
TORSDOF 5
ENDMDL
