MODEL 4
REMARK VINA RESULT: -6.593808029      4.893      7.998
REMARK  5 active torsions:
REMARK  status: ('A' for Active; 'I' for Inactive)
REMARK    1  A    between atoms: C1_2  and  C2_4 
REMARK    2  A    between atoms: C2_4  and  C3_5 
REMARK    3  A    between atoms: C3_5  and  C4_6 
REMARK    4  A    between atoms: C4_6  and  C5_7 
REMARK    5  A    between atoms: C5_7  and  C6_8 
ROOT
HETATM    1  C6  UNL     1      38.759 -13.411   0.896  1.00  0.00     0.072 C 
HETATM    2  S1  UNL     1      39.523 -13.877  -0.708  1.00  0.00    -0.160 SA
HETATM    3  C7  UNL     1      39.910 -15.624  -0.302  1.00  0.00     0.101 C 
HETATM    4  C8  UNL     1      39.644 -15.662   1.160  1.00  0.00     0.119 C 
HETATM    5  N1  UNL     1      39.051 -16.975   1.453  1.00  0.00    -0.336 N 
ATOM      6  H1  UNL     1      39.510 -17.791   1.857  1.00  0.00     0.164 HD
HETATM    7  C9  UNL     1      37.694 -16.852   1.047  1.00  0.00     0.316 C 
HETATM    8  O3  UNL     1      36.924 -17.836   0.851  1.00  0.00    -0.247 OA
HETATM    9  N2  UNL     1      37.379 -15.453   0.907  1.00  0.00    -0.335 N 
ATOM     10  H2  UNL     1      36.541 -15.045   0.491  1.00  0.00     0.164 HD
HETATM   11  C10 UNL     1      38.493 -14.757   1.475  1.00  0.00     0.123 C 
ENDROOT
BRANCH   1  12
HETATM   12  C5  UNL     1      37.545 -12.577   0.688  1.00  0.00     0.017 C 
BRANCH  12  13
HETATM   13  C4  UNL     1      37.505 -11.514   1.758  1.00  0.00     0.002 C 
BRANCH  13  14
HETATM   14  C3  UNL     1      38.792 -10.754   1.876  1.00  0.00     0.010 C 
BRANCH  14  15
HETATM   15  C2  UNL     1      38.755  -9.463   1.100  1.00  0.00     0.113 C 
BRANCH  15  16
HETATM   16  C1  UNL     1      40.002  -8.689   1.230  1.00  0.00     0.172 C 
HETATM   17  O1  UNL     1      40.374  -7.890   0.348  1.00  0.00    -0.648 OA
HETATM   18  O2  UNL     1      40.781  -8.845   2.350  1.00  0.00    -0.648 OA
ENDBRANCH  15  16
ENDBRANCH  14  15
ENDBRANCH  13  14
ENDBRANCH  12  13
ENDBRANCH   1  12
TORSDOF 5
ENDMDL
