MODEL 6
REMARK VINA RESULT: -6.337527518      5.274      8.485
REMARK  5 active torsions:
REMARK  status: ('A' for Active; 'I' for Inactive)
REMARK    1  A    between atoms: C1_2  and  C2_4 
REMARK    2  A    between atoms: C2_4  and  C3_5 
REMARK    3  A    between atoms: C3_5  and  C4_6 
REMARK    4  A    between atoms: C4_6  and  C5_7 
REMARK    5  A    between atoms: C5_7  and  C6_8 
ROOT
HETATM    1  C6  UNL     1      38.955 -14.225   1.242  1.00  0.00     0.072 C 
HETATM    2  S1  UNL     1      39.757 -14.635  -0.358  1.00  0.00    -0.160 SA
HETATM    3  C7  UNL     1      39.739 -16.462  -0.186  1.00  0.00     0.101 C 
HETATM    4  C8  UNL     1      39.333 -16.629   1.235  1.00  0.00     0.119 C 
HETATM    5  N1  UNL     1      38.460 -17.811   1.294  1.00  0.00    -0.336 N 
ATOM      6  H1  UNL     1      38.703 -18.751   1.604  1.00  0.00     0.164 HD
HETATM    7  C9  UNL     1      37.201 -17.347   0.822  1.00  0.00     0.316 C 
HETATM    8  O3  UNL     1      36.270 -18.110   0.435  1.00  0.00    -0.247 OA
HETATM    9  N2  UNL     1      37.193 -15.907   0.866  1.00  0.00    -0.335 N 
ATOM     10  H2  UNL     1      36.499 -15.279   0.460  1.00  0.00     0.164 HD
HETATM   11  C10 UNL     1      38.366 -15.546   1.601  1.00  0.00     0.123 C 
ENDROOT
BRANCH   1  12
HETATM   12  C5  UNL     1      37.962 -13.131   1.079  1.00  0.00     0.017 C 
BRANCH  12  13
HETATM   13  C4  UNL     1      38.705 -11.842   0.828  1.00  0.00     0.002 C 
BRANCH  13  14
HETATM   14  C3  UNL     1      38.321 -10.751   1.781  1.00  0.00     0.010 C 
BRANCH  14  15
HETATM   15  C2  UNL     1      38.480  -9.384   1.164  1.00  0.00     0.113 C 
BRANCH  15  16
HETATM   16  C1  UNL     1      39.855  -8.869   1.279  1.00  0.00     0.172 C 
HETATM   17  O1  UNL     1      40.556  -9.086   2.288  1.00  0.00    -0.648 OA
HETATM   18  O2  UNL     1      40.389  -8.130   0.252  1.00  0.00    -0.648 OA
ENDBRANCH  15  16
ENDBRANCH  14  15
ENDBRANCH  13  14
ENDBRANCH  12  13
ENDBRANCH   1  12
TORSDOF 5
ENDMDL
