MODEL 5
REMARK VINA RESULT: -6.473845942      5.167      8.349
REMARK  5 active torsions:
REMARK  status: ('A' for Active; 'I' for Inactive)
REMARK    1  A    between atoms: C1_2  and  C2_4 
REMARK    2  A    between atoms: C2_4  and  C3_5 
REMARK    3  A    between atoms: C3_5  and  C4_6 
REMARK    4  A    between atoms: C4_6  and  C5_7 
REMARK    5  A    between atoms: C5_7  and  C6_8 
ROOT
HETATM    1  C6  UNL     1      39.022 -14.112   1.044  1.00  0.00     0.072 C 
HETATM    2  S1  UNL     1      40.151 -15.152   0.035  1.00  0.00    -0.160 SA
HETATM    3  C7  UNL     1      39.514 -16.792   0.556  1.00  0.00     0.101 C 
HETATM    4  C8  UNL     1      38.620 -16.425   1.686  1.00  0.00     0.119 C 
HETATM    5  N1  UNL     1      37.460 -17.326   1.624  1.00  0.00    -0.336 N 
ATOM      6  H1  UNL     1      37.280 -18.153   2.192  1.00  0.00     0.164 HD
HETATM    7  C9  UNL     1      36.644 -16.784   0.593  1.00  0.00     0.316 C 
HETATM    8  O3  UNL     1      35.712 -17.422   0.023  1.00  0.00    -0.247 OA
HETATM    9  N2  UNL     1      37.065 -15.431   0.332  1.00  0.00    -0.335 N 
ATOM     10  H2  UNL     1      36.780 -14.832  -0.443  1.00  0.00     0.164 HD
HETATM   11  C10 UNL     1      37.970 -15.108   1.392  1.00  0.00     0.123 C 
ENDROOT
BRANCH   1  12
HETATM   12  C5  UNL     1      38.532 -12.944   0.266  1.00  0.00     0.017 C 
BRANCH  12  13
HETATM   13  C4  UNL     1      37.760 -12.039   1.194  1.00  0.00     0.002 C 
BRANCH  13  14
HETATM   14  C3  UNL     1      38.621 -10.999   1.846  1.00  0.00     0.010 C 
BRANCH  14  15
HETATM   15  C2  UNL     1      38.516  -9.666   1.149  1.00  0.00     0.113 C 
BRANCH  15  16
HETATM   16  C1  UNL     1      39.770  -8.897   1.210  1.00  0.00     0.172 C 
HETATM   17  O1  UNL     1      40.142  -8.170   0.266  1.00  0.00    -0.648 OA
HETATM   18  O2  UNL     1      40.558  -8.975   2.332  1.00  0.00    -0.648 OA
ENDBRANCH  15  16
ENDBRANCH  14  15
ENDBRANCH  13  14
ENDBRANCH  12  13
ENDBRANCH   1  12
TORSDOF 5
ENDMDL
