MODEL 3
REMARK VINA RESULT: -7.092073162      1.630      1.864
REMARK  5 active torsions:
REMARK  status: ('A' for Active; 'I' for Inactive)
REMARK    1  A    between atoms: C1_2  and  C2_4 
REMARK    2  A    between atoms: C2_4  and  C3_5 
REMARK    3  A    between atoms: C3_5  and  C4_6 
REMARK    4  A    between atoms: C4_6  and  C5_7 
REMARK    5  A    between atoms: C5_7  and  C6_8 
ROOT
HETATM    1  C6  UNL     1      40.822  -8.213   2.170  1.00  0.00     0.072 C 
HETATM    2  S1  UNL     1      39.621  -7.130   1.299  1.00  0.00    -0.160 SA
HETATM    3  C7  UNL     1      40.794  -5.815   0.786  1.00  0.00     0.101 C 
HETATM    4  C8  UNL     1      42.016  -6.184   1.551  1.00  0.00     0.119 C 
HETATM    5  N1  UNL     1      43.167  -5.888   0.686  1.00  0.00    -0.336 N 
ATOM      6  H1  UNL     1      43.791  -5.083   0.731  1.00  0.00     0.164 HD
HETATM    7  C9  UNL     1      43.216  -6.978  -0.226  1.00  0.00     0.316 C 
HETATM    8  O3  UNL     1      43.865  -6.959  -1.312  1.00  0.00    -0.247 OA
HETATM    9  N2  UNL     1      42.419  -8.057   0.299  1.00  0.00    -0.335 N 
ATOM     10  H2  UNL     1      42.136  -8.910  -0.185  1.00  0.00     0.164 HD
HETATM   11  C10 UNL     1      42.108  -7.676   1.642  1.00  0.00     0.123 C 
ENDROOT
BRANCH   1  12
HETATM   12  C5  UNL     1      40.576  -9.645   1.856  1.00  0.00     0.017 C 
BRANCH  12  13
HETATM   13  C4  UNL     1      39.187  -9.780   1.284  1.00  0.00     0.002 C 
BRANCH  13  14
HETATM   14  C3  UNL     1      38.371 -10.833   1.972  1.00  0.00     0.010 C 
BRANCH  14  15
HETATM   15  C2  UNL     1      37.585 -11.665   0.990  1.00  0.00     0.113 C 
BRANCH  15  16
HETATM   16  C1  UNL     1      38.232 -12.955   0.698  1.00  0.00     0.172 C 
HETATM   17  O1  UNL     1      38.275 -13.422  -0.458  1.00  0.00    -0.648 OA
HETATM   18  O2  UNL     1      38.807 -13.671   1.720  1.00  0.00    -0.648 OA
ENDBRANCH  15  16
ENDBRANCH  14  15
ENDBRANCH  13  14
ENDBRANCH  12  13
ENDBRANCH   1  12
TORSDOF 5
ENDMDL
