MODEL 11
REMARK VINA RESULT: -5.434910752      4.193      6.884
REMARK  3 active torsions:
REMARK  status: ('A' for Active; 'I' for Inactive)
REMARK    1  A    between atoms: N1_2  and  C1_4 
REMARK    2  A    between atoms: C2_5  and  N2_6 
REMARK    3  A    between atoms: N2_6  and  C3_8 
ROOT
HETATM    1  C1  UNL     1      15.934 -41.840  10.620  1.00  0.00     0.160 A 
HETATM    2  C2  UNL     1      14.588 -42.166  10.827  1.00  0.00     0.068 A 
HETATM    3  C9  UNL     1      14.287 -43.389  11.380  1.00  0.00     0.034 A 
HETATM    4  C10 UNL     1      15.291 -44.300  11.735  1.00  0.00     0.036 A 
HETATM    5  C11 UNL     1      16.598 -43.941  11.514  1.00  0.00     0.088 A 
HETATM    6  N3  UNL     1      17.784 -44.560  11.727  1.00  0.00    -0.239 N 
ATOM      7  H3  UNL     1      17.907 -45.489  12.129  1.00  0.00     0.197 HD
HETATM    8  O3  UNL     1      18.730 -43.781  11.336  1.00  0.00    -0.156 OA
HETATM    9  N4  UNL     1      18.257 -42.656  10.864  1.00  0.00    -0.237 N 
ATOM     10  H4  UNL     1      18.807 -41.881  10.494  1.00  0.00     0.197 HD
HETATM   11  C12 UNL     1      16.923 -42.705  10.954  1.00  0.00     0.120 A 
ENDROOT
BRANCH   2  12
HETATM   12  N2  UNL     1      13.569 -41.261  10.439  1.00  0.00    -0.354 N 
ATOM     13  H2  UNL     1      13.817 -40.519   9.784  1.00  0.00     0.166 HD
BRANCH  12  14
HETATM   14  C3  UNL     1      12.234 -41.317  10.899  1.00  0.00     0.037 A 
HETATM   15  C4  UNL     1      11.879 -41.229  12.229  1.00  0.00     0.071 A 
HETATM   16  C5  UNL     1      10.546 -41.335  12.646  1.00  0.00     0.120 A 
HETATM   17  F1  UNL     1      10.207 -41.246  13.964  1.00  0.00    -0.206 F 
HETATM   18  C6  UNL     1       9.541 -41.531  11.729  1.00  0.00     0.066 A 
HETATM   19  C7  UNL     1       9.862 -41.624  10.364  1.00  0.00     0.039 A 
HETATM   20 CL1  UNL     1       8.565 -41.865   9.208  1.00  0.00    -0.084 Cl
HETATM   21  C8  UNL     1      11.170 -41.514  10.027  1.00  0.00     0.053 A 
ENDBRANCH  12  14
ENDBRANCH   2  12
BRANCH   1  22
HETATM   22  N1  UNL     1      16.197 -40.544  10.045  1.00  0.00    -0.111 N 
HETATM   23  O1  UNL     1      15.701 -39.551  10.624  1.00  0.00    -0.532 OA
HETATM   24  O2  UNL     1      16.954 -40.464   8.922  1.00  0.00    -0.532 OA
ENDBRANCH   1  22
TORSDOF 3
ENDMDL
