MODEL 6
REMARK VINA RESULT: -7.050621917      0.830      1.022
REMARK  3 active torsions:
REMARK  status: ('A' for Active; 'I' for Inactive)
REMARK    1  A    between atoms: N1_2  and  C1_4 
REMARK    2  A    between atoms: C2_5  and  N2_6 
REMARK    3  A    between atoms: N2_6  and  C3_8 
ROOT
HETATM    1  C1  UNL     1      10.564 -41.705   9.978  1.00  0.00     0.160 A 
HETATM    2  C2  UNL     1      11.884 -41.988   9.607  1.00  0.00     0.068 A 
HETATM    3  C9  UNL     1      12.291 -41.661   8.333  1.00  0.00     0.034 A 
HETATM    4  C10 UNL     1      11.419 -41.057   7.418  1.00  0.00     0.036 A 
HETATM    5  C11 UNL     1      10.133 -40.798   7.823  1.00  0.00     0.088 A 
HETATM    6  N3  UNL     1       9.056 -40.246   7.213  1.00  0.00    -0.239 N 
ATOM      7  H3  UNL     1       9.029 -39.896   6.256  1.00  0.00     0.197 HD
HETATM    8  O3  UNL     1       8.074 -40.237   8.043  1.00  0.00    -0.156 OA
HETATM    9  N4  UNL     1       8.418 -40.756   9.195  1.00  0.00    -0.237 N 
ATOM     10  H4  UNL     1       7.815 -40.861  10.011  1.00  0.00     0.197 HD
HETATM   11  C12 UNL     1       9.702 -41.123   9.109  1.00  0.00     0.120 A 
ENDROOT
BRANCH   2  12
HETATM   12  N2  UNL     1      12.759 -42.627  10.519  1.00  0.00    -0.354 N 
ATOM     13  H2  UNL     1      12.344 -43.194  11.258  1.00  0.00     0.166 HD
BRANCH  12  14
HETATM   14  C3  UNL     1      14.168 -42.530  10.475  1.00  0.00     0.037 A 
HETATM   15  C4  UNL     1      15.010 -43.623  10.496  1.00  0.00     0.071 A 
HETATM   16  C5  UNL     1      16.404 -43.482  10.497  1.00  0.00     0.120 A 
HETATM   17  F1  UNL     1      17.226 -44.569  10.518  1.00  0.00    -0.206 F 
HETATM   18  C6  UNL     1      16.978 -42.233  10.475  1.00  0.00     0.066 A 
HETATM   19  C7  UNL     1      16.155 -41.095  10.451  1.00  0.00     0.039 A 
HETATM   20 CL1  UNL     1      16.908 -39.511  10.415  1.00  0.00    -0.084 Cl
HETATM   21  C8  UNL     1      14.815 -41.301  10.453  1.00  0.00     0.053 A 
ENDBRANCH  12  14
ENDBRANCH   2  12
BRANCH   1  22
HETATM   22  N1  UNL     1      10.189 -42.061  11.324  1.00  0.00    -0.111 N 
HETATM   23  O1  UNL     1      10.383 -41.203  12.216  1.00  0.00    -0.532 OA
HETATM   24  O2  UNL     1       9.656 -43.286  11.557  1.00  0.00    -0.532 OA
ENDBRANCH   1  22
TORSDOF 3
ENDMDL
