MODEL 1
REMARK VINA RESULT: -10.242108056      0.000      0.000
REMARK  3 active torsions:
REMARK  status: ('A' for Active; 'I' for Inactive)
REMARK    1  A    between atoms: N1_2  and  C1_4 
REMARK    2  A    between atoms: C2_5  and  N2_6 
REMARK    3  A    between atoms: N2_6  and  C3_8 
ROOT
HETATM    1  C1  UNL     1      10.935 -41.456  10.594  1.00  0.00     0.160 A 
HETATM    2  C2  UNL     1      12.246 -41.780  10.224  1.00  0.00     0.068 A 
HETATM    3  C9  UNL     1      12.559 -41.812   8.885  1.00  0.00     0.034 A 
HETATM    4  C10 UNL     1      11.602 -41.529   7.901  1.00  0.00     0.036 A 
HETATM    5  C11 UNL     1      10.329 -41.217   8.308  1.00  0.00     0.088 A 
HETATM    6  N3  UNL     1       9.188 -40.904   7.647  1.00  0.00    -0.239 N 
ATOM      7  H3  UNL     1       9.086 -40.842   6.634  1.00  0.00     0.197 HD
HETATM    8  O3  UNL     1       8.257 -40.699   8.509  1.00  0.00    -0.156 OA
HETATM    9  N4  UNL     1       8.696 -40.854   9.732  1.00  0.00    -0.237 N 
ATOM     10  H4  UNL     1       8.148 -40.747  10.586  1.00  0.00     0.197 HD
HETATM   11  C12 UNL     1       9.992 -41.180   9.662  1.00  0.00     0.120 A 
ENDROOT
BRANCH   2  12
HETATM   12  N2  UNL     1      13.208 -42.098  11.214  1.00  0.00    -0.354 N 
ATOM     13  H2  UNL     1      12.876 -42.258  12.166  1.00  0.00     0.166 HD
BRANCH  12  14
HETATM   14  C3  UNL     1      14.596 -42.208  10.973  1.00  0.00     0.037 A 
HETATM   15  C4  UNL     1      15.323 -43.357  11.207  1.00  0.00     0.071 A 
HETATM   16  C5  UNL     1      16.707 -43.410  10.997  1.00  0.00     0.120 A 
HETATM   17  F1  UNL     1      17.416 -44.551  11.231  1.00  0.00    -0.206 F 
HETATM   18  C6  UNL     1      17.387 -42.304  10.545  1.00  0.00     0.066 A 
HETATM   19  C7  UNL     1      16.682 -41.115  10.294  1.00  0.00     0.039 A 
HETATM   20 CL1  UNL     1      17.567 -39.717   9.710  1.00  0.00    -0.084 Cl
HETATM   21  C8  UNL     1      15.345 -41.130  10.518  1.00  0.00     0.053 A 
ENDBRANCH  12  14
ENDBRANCH   2  12
BRANCH   1  22
HETATM   22  N1  UNL     1      10.659 -41.429  12.010  1.00  0.00    -0.111 N 
HETATM   23  O1  UNL     1       9.498 -41.732  12.371  1.00  0.00    -0.532 OA
HETATM   24  O2  UNL     1      11.651 -41.081  12.867  1.00  0.00    -0.532 OA
ENDBRANCH   1  22
TORSDOF 3
ENDMDL
