MODEL 10
REMARK VINA RESULT: -5.606734774      4.262      6.952
REMARK  3 active torsions:
REMARK  status: ('A' for Active; 'I' for Inactive)
REMARK    1  A    between atoms: N1_2  and  C1_4 
REMARK    2  A    between atoms: C2_5  and  N2_6 
REMARK    3  A    between atoms: N2_6  and  C3_8 
ROOT
HETATM    1  C1  UNL     1      16.079 -41.926  10.433  1.00  0.00     0.160 A 
HETATM    2  C2  UNL     1      14.703 -42.180  10.469  1.00  0.00     0.068 A 
HETATM    3  C9  UNL     1      14.265 -43.338  11.071  1.00  0.00     0.034 A 
HETATM    4  C10 UNL     1      15.162 -44.252  11.641  1.00  0.00     0.036 A 
HETATM    5  C11 UNL     1      16.504 -43.964  11.582  1.00  0.00     0.088 A 
HETATM    6  N3  UNL     1      17.615 -44.607  12.013  1.00  0.00    -0.239 N 
ATOM      7  H3  UNL     1      17.633 -45.501  12.504  1.00  0.00     0.197 HD
HETATM    8  O3  UNL     1      18.644 -43.902  11.701  1.00  0.00    -0.156 OA
HETATM    9  N4  UNL     1      18.300 -42.805  11.075  1.00  0.00    -0.237 N 
ATOM     10  H4  UNL     1      18.935 -42.088  10.726  1.00  0.00     0.197 HD
HETATM   11  C12 UNL     1      16.965 -42.795  10.976  1.00  0.00     0.120 A 
ENDROOT
BRANCH   2  12
HETATM   12  N2  UNL     1      13.795 -41.274   9.866  1.00  0.00    -0.354 N 
ATOM     13  H2  UNL     1      14.183 -40.458   9.392  1.00  0.00     0.166 HD
BRANCH  12  14
HETATM   14  C3  UNL     1      12.390 -41.425   9.877  1.00  0.00     0.037 A 
HETATM   15  C4  UNL     1      11.636 -41.640   8.743  1.00  0.00     0.071 A 
HETATM   16  C5  UNL     1      10.239 -41.739   8.792  1.00  0.00     0.120 A 
HETATM   17  F1  UNL     1       9.503 -41.952   7.664  1.00  0.00    -0.206 F 
HETATM   18  C6  UNL     1       9.574 -41.624   9.990  1.00  0.00     0.066 A 
HETATM   19  C7  UNL     1      10.307 -41.407  11.168  1.00  0.00     0.039 A 
HETATM   20 CL1  UNL     1       9.440 -41.272  12.688  1.00  0.00    -0.084 Cl
HETATM   21  C8  UNL     1      11.654 -41.320  11.052  1.00  0.00     0.053 A 
ENDBRANCH  12  14
ENDBRANCH   2  12
BRANCH   1  22
HETATM   22  N1  UNL     1      16.485 -40.697   9.797  1.00  0.00    -0.111 N 
HETATM   23  O1  UNL     1      16.026 -39.631  10.270  1.00  0.00    -0.532 OA
HETATM   24  O2  UNL     1      17.328 -40.752   8.736  1.00  0.00    -0.532 OA
ENDBRANCH   1  22
TORSDOF 3
ENDMDL
