MODEL 2
REMARK VINA RESULT: -9.435689591      1.563      1.869
REMARK  3 active torsions:
REMARK  status: ('A' for Active; 'I' for Inactive)
REMARK    1  A    between atoms: N1_2  and  C1_4 
REMARK    2  A    between atoms: C2_5  and  N2_6 
REMARK    3  A    between atoms: N2_6  and  C3_8 
ROOT
HETATM    1  C1  UNL     1      10.911 -41.472  10.579  1.00  0.00     0.160 A 
HETATM    2  C2  UNL     1      12.208 -41.812  10.178  1.00  0.00     0.068 A 
HETATM    3  C9  UNL     1      12.493 -41.836   8.831  1.00  0.00     0.034 A 
HETATM    4  C10 UNL     1      11.520 -41.527   7.871  1.00  0.00     0.036 A 
HETATM    5  C11 UNL     1      10.260 -41.200   8.308  1.00  0.00     0.088 A 
HETATM    6  N3  UNL     1       9.111 -40.863   7.675  1.00  0.00    -0.239 N 
ATOM      7  H3  UNL     1       8.988 -40.789   6.666  1.00  0.00     0.197 HD
HETATM    8  O3  UNL     1       8.201 -40.652   8.559  1.00  0.00    -0.156 OA
HETATM    9  N4  UNL     1       8.663 -40.827   9.771  1.00  0.00    -0.237 N 
ATOM     10  H4  UNL     1       8.136 -40.720  10.637  1.00  0.00     0.197 HD
HETATM   11  C12 UNL     1       9.953 -41.171   9.669  1.00  0.00     0.120 A 
ENDROOT
BRANCH   2  12
HETATM   12  N2  UNL     1      13.186 -42.155  11.144  1.00  0.00    -0.354 N 
ATOM     13  H2  UNL     1      12.861 -42.480  12.054  1.00  0.00     0.166 HD
BRANCH  12  14
HETATM   14  C3  UNL     1      14.581 -42.077  10.931  1.00  0.00     0.037 A 
HETATM   15  C4  UNL     1      15.200 -41.019  10.298  1.00  0.00     0.071 A 
HETATM   16  C5  UNL     1      16.581 -41.003  10.066  1.00  0.00     0.120 A 
HETATM   17  F1  UNL     1      17.183 -39.951   9.440  1.00  0.00    -0.206 F 
HETATM   18  C6  UNL     1      17.369 -42.054  10.471  1.00  0.00     0.066 A 
HETATM   19  C7  UNL     1      16.777 -43.149  11.122  1.00  0.00     0.039 A 
HETATM   20 CL1  UNL     1      17.800 -44.477  11.638  1.00  0.00    -0.084 Cl
HETATM   21  C8  UNL     1      15.436 -43.104  11.314  1.00  0.00     0.053 A 
ENDBRANCH  12  14
ENDBRANCH   2  12
BRANCH   1  22
HETATM   22  N1  UNL     1      10.666 -41.455  12.000  1.00  0.00    -0.111 N 
HETATM   23  O1  UNL     1       9.506 -41.733  12.382  1.00  0.00    -0.532 OA
HETATM   24  O2  UNL     1      11.684 -41.143  12.840  1.00  0.00    -0.532 OA
ENDBRANCH   1  22
TORSDOF 3
ENDMDL
