MODEL 4
REMARK VINA RESULT: -11.203405776      0.986      1.427
REMARK  17 active torsions:
REMARK  status: ('A' for Active; 'I' for Inactive)
REMARK    1  A    between atoms: C2_2  and  C4_4 
REMARK    2  A    between atoms: C4_4  and  N1_5 
REMARK       I    between atoms: N1_5  and  C5_7 
REMARK    3  A    between atoms: C5_7  and  C6_9 
REMARK    4  A    between atoms: C6_9  and  N2_10 
REMARK    5  A    between atoms: C6_9  and  C34_50 
REMARK    6  A    between atoms: N2_10  and  C7_13 
REMARK    7  A    between atoms: C7_13  and  C8_14 
REMARK    8  A    between atoms: C8_14  and  C9_15 
REMARK    9  A    between atoms: C8_14  and  N3_22 
REMARK   10  A    between atoms: C9_15  and  C10_16 
REMARK       I    between atoms: N3_22  and  C16_24 
REMARK   11  A    between atoms: C16_24  and  C17_26 
REMARK   12  A    between atoms: C19_28  and  C20_29 
REMARK       I    between atoms: C20_29  and  N4_31 
REMARK   13  A    between atoms: N4_31  and  C21_33 
REMARK   14  A    between atoms: C21_33  and  C23_35 
REMARK   15  A    between atoms: C30_42  and  N5_43 
REMARK   16  A    between atoms: N5_43  and  S1_45 
REMARK   17  A    between atoms: C34_50  and  O6_52 
ROOT
HETATM    1  N3  UNL     1      41.785  -3.596  10.717  1.00  0.00    -0.350 N 
ATOM      2  H3  UNL     1      41.020  -3.395  10.073  1.00  0.00     0.163 HD
HETATM    3  C16 UNL     1      41.505  -3.764  12.120  1.00  0.00     0.252 C 
HETATM    4  O2  UNL     1      42.494  -4.011  12.861  1.00  0.00    -0.268 OA
ENDROOT
BRANCH   1   5
HETATM    5  C8  UNL     1      43.143  -3.708  10.204  1.00  0.00     0.114 C 
BRANCH   5   6
HETATM    6  C7  UNL     1      43.561  -2.331   9.786  1.00  0.00     0.258 C 
BRANCH   6   7
HETATM    7  N2  UNL     1      43.727  -1.394  10.852  1.00  0.00    -0.058 N 
ATOM      8  H22 UNL     1      43.695  -1.844  11.767  1.00  0.00     0.278 HD
ATOM      9  H21 UNL     1      42.917  -0.785  10.958  1.00  0.00     0.278 HD
BRANCH   7  10
HETATM   10  C6  UNL     1      44.963  -0.637  10.655  1.00  0.00     0.305 C 
BRANCH  10  11
HETATM   11  C5  UNL     1      46.072  -1.360  11.290  1.00  0.00     0.251 C 
HETATM   12  N1  UNL     1      47.448  -1.140  11.012  1.00  0.00    -0.359 N 
ATOM     13  H1  UNL     1      47.710  -0.434  10.325  1.00  0.00     0.162 HD
HETATM   14  O1  UNL     1      45.803  -2.257  12.154  1.00  0.00    -0.271 OA
BRANCH  12  15
HETATM   15  C4  UNL     1      48.495  -1.900  11.688  1.00  0.00     0.126 C 
BRANCH  15  16
HETATM   16  C2  UNL     1      48.581  -1.480  13.151  1.00  0.00    -0.005 C 
HETATM   17  C1  UNL     1      49.137  -0.079  13.274  1.00  0.00     0.011 C 
HETATM   18  C3  UNL     1      49.495  -2.438  13.897  1.00  0.00     0.011 C 
ENDBRANCH  15  16
ENDBRANCH  12  15
ENDBRANCH  10  11
BRANCH  10  19
HETATM   19  C34 UNL     1      44.728   0.750  11.249  1.00  0.00     0.154 C 
HETATM   20  C35 UNL     1      43.370   0.899  11.871  1.00  0.00     0.042 C 
BRANCH  19  21
HETATM   21  O6  UNL     1      45.655   0.866  12.315  1.00  0.00    -0.393 OA
ATOM     22  H6  UNL     1      45.187   0.581  13.090  1.00  0.00     0.210 HD
ENDBRANCH  19  21
ENDBRANCH  10  19
ENDBRANCH   7  10
ENDBRANCH   6   7
ENDBRANCH   5   6
BRANCH   5  23
HETATM   23  C9  UNL     1      43.251  -4.721   9.111  1.00  0.00     0.065 C 
BRANCH  23  24
HETATM   24  C10 UNL     1      42.273  -5.818   9.306  1.00  0.00    -0.056 A 
HETATM   25  C11 UNL     1      42.369  -6.703  10.384  1.00  0.00     0.007 A 
HETATM   26  C12 UNL     1      41.467  -7.732  10.580  1.00  0.00     0.001 A 
HETATM   27  C13 UNL     1      40.435  -7.906   9.696  1.00  0.00     0.000 A 
HETATM   28  C14 UNL     1      40.309  -7.048   8.617  1.00  0.00     0.001 A 
HETATM   29  C15 UNL     1      41.220  -6.020   8.431  1.00  0.00     0.007 A 
ENDBRANCH  23  24
ENDBRANCH   5  23
ENDBRANCH   1   5
BRANCH   3  30
HETATM   30  C17 UNL     1      40.152  -3.656  12.649  1.00  0.00     0.035 A 
HETATM   31  C18 UNL     1      39.078  -4.387  12.191  1.00  0.00     0.034 A 
HETATM   32  C19 UNL     1      37.811  -4.263  12.725  1.00  0.00     0.035 A 
HETATM   33  C29 UNL     1      37.662  -3.365  13.752  1.00  0.00     0.047 A 
HETATM   34  C30 UNL     1      38.688  -2.592  14.274  1.00  0.00     0.046 A 
HETATM   35  C33 UNL     1      39.939  -2.771  13.684  1.00  0.00     0.047 A 
BRANCH  32  36
HETATM   36  C20 UNL     1      36.718  -5.073  12.198  1.00  0.00     0.252 C 
HETATM   37  O3  UNL     1      35.909  -5.660  12.973  1.00  0.00    -0.268 OA
HETATM   38  N4  UNL     1      36.490  -5.251  10.814  1.00  0.00    -0.349 N 
ATOM     39  H4  UNL     1      37.121  -4.793  10.155  1.00  0.00     0.163 HD
BRANCH  38  40
HETATM   40  C21 UNL     1      35.388  -6.064  10.278  1.00  0.00     0.114 C 
HETATM   41  C22 UNL     1      36.103  -7.237   9.587  1.00  0.00     0.037 C 
BRANCH  40  42
HETATM   42  C23 UNL     1      34.641  -5.342   9.242  1.00  0.00    -0.036 A 
HETATM   43  C24 UNL     1      35.245  -4.985   8.060  1.00  0.00     0.009 A 
HETATM   44  C25 UNL     1      34.541  -4.291   7.069  1.00  0.00     0.001 A 
HETATM   45  C26 UNL     1      33.231  -3.949   7.255  1.00  0.00     0.000 A 
HETATM   46  C27 UNL     1      32.612  -4.302   8.443  1.00  0.00     0.001 A 
HETATM   47  C28 UNL     1      33.320  -4.982   9.398  1.00  0.00     0.009 A 
ENDBRANCH  40  42
ENDBRANCH  38  40
ENDBRANCH  32  36
BRANCH  34  48
HETATM   48  N5  UNL     1      38.442  -1.708  15.350  1.00  0.00    -0.281 N 
HETATM   49  C31 UNL     1      39.486  -1.407  16.287  1.00  0.00     0.169 C 
BRANCH  48  50
HETATM   50  S1  UNL     1      36.891  -1.000  15.534  1.00  0.00     0.228 S 
HETATM   51  C32 UNL     1      35.937  -2.155  16.532  1.00  0.00     0.186 C 
HETATM   52  O4  UNL     1      36.967   0.336  16.230  1.00  0.00    -0.206 OA
HETATM   53  O5  UNL     1      36.166  -0.901  14.228  1.00  0.00    -0.206 OA
ENDBRANCH  48  50
ENDBRANCH  34  48
ENDBRANCH   3  30
TORSDOF 17
ENDMDL
