MODEL 1
REMARK VINA RESULT: -11.940089631      0.000      0.000
REMARK  17 active torsions:
REMARK  status: ('A' for Active; 'I' for Inactive)
REMARK    1  A    between atoms: C2_2  and  C4_4 
REMARK    2  A    between atoms: C4_4  and  N1_5 
REMARK       I    between atoms: N1_5  and  C5_7 
REMARK    3  A    between atoms: C5_7  and  C6_9 
REMARK    4  A    between atoms: C6_9  and  N2_10 
REMARK    5  A    between atoms: C6_9  and  C34_50 
REMARK    6  A    between atoms: N2_10  and  C7_13 
REMARK    7  A    between atoms: C7_13  and  C8_14 
REMARK    8  A    between atoms: C8_14  and  C9_15 
REMARK    9  A    between atoms: C8_14  and  N3_22 
REMARK   10  A    between atoms: C9_15  and  C10_16 
REMARK       I    between atoms: N3_22  and  C16_24 
REMARK   11  A    between atoms: C16_24  and  C17_26 
REMARK   12  A    between atoms: C19_28  and  C20_29 
REMARK       I    between atoms: C20_29  and  N4_31 
REMARK   13  A    between atoms: N4_31  and  C21_33 
REMARK   14  A    between atoms: C21_33  and  C23_35 
REMARK   15  A    between atoms: C30_42  and  N5_43 
REMARK   16  A    between atoms: N5_43  and  S1_45 
REMARK   17  A    between atoms: C34_50  and  O6_52 
ROOT
HETATM    1  N3  UNL     1      41.719  -3.747  10.751  1.00  0.00    -0.350 N 
ATOM      2  H3  UNL     1      40.937  -3.724  10.096  1.00  0.00     0.163 HD
HETATM    3  C16 UNL     1      41.459  -3.707  12.167  1.00  0.00     0.252 C 
HETATM    4  O2  UNL     1      42.468  -3.740  12.921  1.00  0.00    -0.268 OA
ENDROOT
BRANCH   1   5
HETATM    5  C8  UNL     1      43.080  -3.822  10.239  1.00  0.00     0.114 C 
BRANCH   5   6
HETATM    6  C7  UNL     1      43.440  -2.445   9.771  1.00  0.00     0.258 C 
BRANCH   6   7
HETATM    7  N2  UNL     1      43.833  -1.534  10.801  1.00  0.00    -0.058 N 
ATOM      8  H22 UNL     1      43.959  -2.001  11.699  1.00  0.00     0.278 HD
ATOM      9  H21 UNL     1      43.077  -0.904  11.066  1.00  0.00     0.278 HD
BRANCH   7  10
HETATM   10  C6  UNL     1      45.033  -0.808  10.385  1.00  0.00     0.305 C 
BRANCH  10  11
HETATM   11  C5  UNL     1      46.213  -1.631  10.680  1.00  0.00     0.251 C 
HETATM   12  N1  UNL     1      47.386  -1.682   9.879  1.00  0.00    -0.359 N 
ATOM     13  H1  UNL     1      47.436  -1.117   9.032  1.00  0.00     0.162 HD
HETATM   14  O1  UNL     1      46.206  -2.361  11.724  1.00  0.00    -0.271 OA
BRANCH  12  15
HETATM   15  C4  UNL     1      48.522  -2.525  10.240  1.00  0.00     0.126 C 
BRANCH  15  16
HETATM   16  C2  UNL     1      48.965  -3.346   9.033  1.00  0.00    -0.005 C 
HETATM   17  C1  UNL     1      50.036  -4.338   9.424  1.00  0.00     0.011 C 
HETATM   18  C3  UNL     1      49.521  -2.415   7.969  1.00  0.00     0.011 C 
ENDBRANCH  15  16
ENDBRANCH  12  15
ENDBRANCH  10  11
BRANCH  10  19
HETATM   19  C34 UNL     1      45.023   0.522  11.133  1.00  0.00     0.154 C 
HETATM   20  C35 UNL     1      43.719   0.797  11.823  1.00  0.00     0.042 C 
BRANCH  19  21
HETATM   21  O6  UNL     1      45.983   0.384  12.165  1.00  0.00    -0.393 OA
ATOM     22  H6  UNL     1      46.798   0.707  11.800  1.00  0.00     0.210 HD
ENDBRANCH  19  21
ENDBRANCH  10  19
ENDBRANCH   7  10
ENDBRANCH   6   7
ENDBRANCH   5   6
BRANCH   5  23
HETATM   23  C9  UNL     1      43.229  -4.868   9.183  1.00  0.00     0.065 C 
BRANCH  23  24
HETATM   24  C10 UNL     1      42.224  -5.943   9.356  1.00  0.00    -0.056 A 
HETATM   25  C11 UNL     1      42.254  -6.806  10.456  1.00  0.00     0.007 A 
HETATM   26  C12 UNL     1      41.326  -7.815  10.632  1.00  0.00     0.001 A 
HETATM   27  C13 UNL     1      40.332  -7.991   9.705  1.00  0.00     0.000 A 
HETATM   28  C14 UNL     1      40.271  -7.155   8.603  1.00  0.00     0.001 A 
HETATM   29  C15 UNL     1      41.208  -6.147   8.438  1.00  0.00     0.007 A 
ENDBRANCH  23  24
ENDBRANCH   5  23
ENDBRANCH   1   5
BRANCH   3  30
HETATM   30  C17 UNL     1      40.103  -3.634  12.695  1.00  0.00     0.035 A 
HETATM   31  C18 UNL     1      39.042  -4.368  12.214  1.00  0.00     0.034 A 
HETATM   32  C19 UNL     1      37.771  -4.277  12.747  1.00  0.00     0.035 A 
HETATM   33  C29 UNL     1      37.606  -3.409  13.798  1.00  0.00     0.047 A 
HETATM   34  C30 UNL     1      38.619  -2.636  14.343  1.00  0.00     0.046 A 
HETATM   35  C33 UNL     1      39.874  -2.780  13.752  1.00  0.00     0.047 A 
BRANCH  32  36
HETATM   36  C20 UNL     1      36.692  -5.089  12.195  1.00  0.00     0.252 C 
HETATM   37  O3  UNL     1      35.867  -5.679  12.951  1.00  0.00    -0.268 OA
HETATM   38  N4  UNL     1      36.495  -5.266  10.806  1.00  0.00    -0.349 N 
ATOM     39  H4  UNL     1      37.139  -4.807  10.162  1.00  0.00     0.163 HD
BRANCH  38  40
HETATM   40  C21 UNL     1      35.407  -6.081  10.245  1.00  0.00     0.114 C 
HETATM   41  C22 UNL     1      36.141  -7.242   9.552  1.00  0.00     0.037 C 
BRANCH  40  42
HETATM   42  C23 UNL     1      34.670  -5.353   9.206  1.00  0.00    -0.036 A 
HETATM   43  C24 UNL     1      35.283  -5.001   8.026  1.00  0.00     0.009 A 
HETATM   44  C25 UNL     1      34.590  -4.301   7.032  1.00  0.00     0.001 A 
HETATM   45  C26 UNL     1      33.281  -3.949   7.211  1.00  0.00     0.000 A 
HETATM   46  C27 UNL     1      32.653  -4.298   8.396  1.00  0.00     0.001 A 
HETATM   47  C28 UNL     1      33.352  -4.984   9.355  1.00  0.00     0.009 A 
ENDBRANCH  40  42
ENDBRANCH  38  40
ENDBRANCH  32  36
BRANCH  34  48
HETATM   48  N5  UNL     1      38.357  -1.785  15.442  1.00  0.00    -0.281 N 
HETATM   49  C31 UNL     1      39.345  -1.608  16.467  1.00  0.00     0.169 C 
BRANCH  48  50
HETATM   50  S1  UNL     1      36.853  -0.968  15.548  1.00  0.00     0.228 S 
HETATM   51  C32 UNL     1      35.771  -2.049  16.498  1.00  0.00     0.186 C 
HETATM   52  O4  UNL     1      36.988   0.361  16.246  1.00  0.00    -0.206 OA
HETATM   53  O5  UNL     1      36.202  -0.824  14.207  1.00  0.00    -0.206 OA
ENDBRANCH  48  50
ENDBRANCH  34  48
ENDBRANCH   3  30
TORSDOF 17
ENDMDL
