MODEL 6
REMARK VINA RESULT: -10.076423228      1.926      5.644
REMARK  17 active torsions:
REMARK  status: ('A' for Active; 'I' for Inactive)
REMARK    1  A    between atoms: C2_2  and  C4_4 
REMARK    2  A    between atoms: C4_4  and  N1_5 
REMARK       I    between atoms: N1_5  and  C5_7 
REMARK    3  A    between atoms: C5_7  and  C6_9 
REMARK    4  A    between atoms: C6_9  and  N2_10 
REMARK    5  A    between atoms: C6_9  and  C34_50 
REMARK    6  A    between atoms: N2_10  and  C7_13 
REMARK    7  A    between atoms: C7_13  and  C8_14 
REMARK    8  A    between atoms: C8_14  and  C9_15 
REMARK    9  A    between atoms: C8_14  and  N3_22 
REMARK   10  A    between atoms: C9_15  and  C10_16 
REMARK       I    between atoms: N3_22  and  C16_24 
REMARK   11  A    between atoms: C16_24  and  C17_26 
REMARK   12  A    between atoms: C19_28  and  C20_29 
REMARK       I    between atoms: C20_29  and  N4_31 
REMARK   13  A    between atoms: N4_31  and  C21_33 
REMARK   14  A    between atoms: C21_33  and  C23_35 
REMARK   15  A    between atoms: C30_42  and  N5_43 
REMARK   16  A    between atoms: N5_43  and  S1_45 
REMARK   17  A    between atoms: C34_50  and  O6_52 
ROOT
HETATM    1  N3  UNL     1      41.219  -4.167  10.829  1.00  0.00    -0.350 N 
ATOM      2  H3  UNL     1      40.406  -4.193  10.212  1.00  0.00     0.163 HD
HETATM    3  C16 UNL     1      41.030  -3.947  12.239  1.00  0.00     0.252 C 
HETATM    4  O2  UNL     1      42.073  -3.928  12.945  1.00  0.00    -0.268 OA
ENDROOT
BRANCH   1   5
HETATM    5  C8  UNL     1      42.550  -4.354  10.269  1.00  0.00     0.114 C 
BRANCH   5   6
HETATM    6  C7  UNL     1      42.984  -3.023   9.736  1.00  0.00     0.258 C 
BRANCH   6   7
HETATM    7  N2  UNL     1      43.699  -2.200  10.660  1.00  0.00    -0.058 N 
ATOM      8  H22 UNL     1      43.937  -2.701  11.516  1.00  0.00     0.278 HD
ATOM      9  H21 UNL     1      43.105  -1.479  11.071  1.00  0.00     0.278 HD
BRANCH   7  10
HETATM   10  C6  UNL     1      44.878  -1.634  10.007  1.00  0.00     0.305 C 
BRANCH  10  11
HETATM   11  C5  UNL     1      46.074  -2.330  10.498  1.00  0.00     0.251 C 
HETATM   12  N1  UNL     1      47.180  -2.710   9.691  1.00  0.00    -0.359 N 
ATOM     13  H1  UNL     1      47.166  -2.497   8.694  1.00  0.00     0.162 HD
HETATM   14  O1  UNL     1      46.146  -2.626  11.736  1.00  0.00    -0.271 OA
BRANCH  12  15
HETATM   15  C4  UNL     1      48.337  -3.400  10.254  1.00  0.00     0.126 C 
BRANCH  15  16
HETATM   16  C2  UNL     1      49.457  -3.467   9.220  1.00  0.00    -0.005 C 
HETATM   17  C1  UNL     1      49.346  -2.324   8.236  1.00  0.00     0.011 C 
HETATM   18  C3  UNL     1      49.362  -4.780   8.461  1.00  0.00     0.011 C 
ENDBRANCH  15  16
ENDBRANCH  12  15
ENDBRANCH  10  11
BRANCH  10  19
HETATM   19  C34 UNL     1      44.879  -0.140  10.318  1.00  0.00     0.154 C 
HETATM   20  C35 UNL     1      43.985   0.220  11.469  1.00  0.00     0.042 C 
BRANCH  19  21
HETATM   21  O6  UNL     1      46.197   0.157  10.747  1.00  0.00    -0.393 OA
ATOM     22  H6  UNL     1      46.462   0.919  10.245  1.00  0.00     0.210 HD
ENDBRANCH  19  21
ENDBRANCH  10  19
ENDBRANCH   7  10
ENDBRANCH   6   7
ENDBRANCH   5   6
BRANCH   5  23
HETATM   23  C9  UNL     1      42.584  -5.444   9.248  1.00  0.00     0.065 C 
BRANCH  23  24
HETATM   24  C10 UNL     1      41.723  -6.580   9.655  1.00  0.00    -0.056 A 
HETATM   25  C11 UNL     1      41.852  -7.187  10.908  1.00  0.00     0.007 A 
HETATM   26  C12 UNL     1      41.058  -8.247  11.304  1.00  0.00     0.001 A 
HETATM   27  C13 UNL     1      40.104  -8.735  10.449  1.00  0.00     0.000 A 
HETATM   28  C14 UNL     1      39.948  -8.158   9.200  1.00  0.00     0.001 A 
HETATM   29  C15 UNL     1      40.751  -7.096   8.816  1.00  0.00     0.007 A 
ENDBRANCH  23  24
ENDBRANCH   5  23
ENDBRANCH   1   5
BRANCH   3  30
HETATM   30  C17 UNL     1      39.705  -3.759  12.815  1.00  0.00     0.035 A 
HETATM   31  C18 UNL     1      39.383  -2.767  13.714  1.00  0.00     0.034 A 
HETATM   32  C19 UNL     1      38.111  -2.616  14.231  1.00  0.00     0.035 A 
HETATM   33  C29 UNL     1      37.163  -3.511  13.804  1.00  0.00     0.047 A 
HETATM   34  C30 UNL     1      37.402  -4.537  12.902  1.00  0.00     0.046 A 
HETATM   35  C33 UNL     1      38.709  -4.627  12.423  1.00  0.00     0.047 A 
BRANCH  32  36
HETATM   36  C20 UNL     1      37.834  -1.538  15.175  1.00  0.00     0.252 C 
HETATM   37  O3  UNL     1      37.181  -0.514  14.821  1.00  0.00    -0.268 OA
HETATM   38  N4  UNL     1      38.266  -1.564  16.521  1.00  0.00    -0.349 N 
ATOM     39  H4  UNL     1      38.796  -2.373  16.845  1.00  0.00     0.163 HD
BRANCH  38  40
HETATM   40  C21 UNL     1      37.987  -0.482  17.477  1.00  0.00     0.114 C 
HETATM   41  C22 UNL     1      39.228  -0.469  18.386  1.00  0.00     0.037 C 
BRANCH  40  42
HETATM   42  C23 UNL     1      36.832  -0.796  18.324  1.00  0.00    -0.036 A 
HETATM   43  C24 UNL     1      35.905  -1.733  17.930  1.00  0.00     0.009 A 
HETATM   44  C25 UNL     1      34.797  -2.034  18.731  1.00  0.00     0.001 A 
HETATM   45  C26 UNL     1      34.609  -1.401  19.927  1.00  0.00     0.000 A 
HETATM   46  C27 UNL     1      35.536  -0.456  20.335  1.00  0.00     0.001 A 
HETATM   47  C28 UNL     1      36.613  -0.177  19.535  1.00  0.00     0.009 A 
ENDBRANCH  40  42
ENDBRANCH  38  40
ENDBRANCH  32  36
BRANCH  34  48
HETATM   48  N5  UNL     1      36.354  -5.398  12.503  1.00  0.00    -0.281 N 
HETATM   49  C31 UNL     1      35.480  -5.971  13.487  1.00  0.00     0.169 C 
BRANCH  48  50
HETATM   50  S1  UNL     1      36.131  -5.759  10.842  1.00  0.00     0.228 S 
HETATM   51  C32 UNL     1      34.671  -6.809  10.757  1.00  0.00     0.186 C 
HETATM   52  O4  UNL     1      35.911  -4.511  10.024  1.00  0.00    -0.206 OA
HETATM   53  O5  UNL     1      37.254  -6.584  10.296  1.00  0.00    -0.206 OA
ENDBRANCH  48  50
ENDBRANCH  34  48
ENDBRANCH   3  30
TORSDOF 17
ENDMDL
