MODEL 9
REMARK VINA RESULT: -9.574371552      3.898     10.938
REMARK  17 active torsions:
REMARK  status: ('A' for Active; 'I' for Inactive)
REMARK    1  A    between atoms: C2_2  and  C4_4 
REMARK    2  A    between atoms: C4_4  and  N1_5 
REMARK       I    between atoms: N1_5  and  C5_7 
REMARK    3  A    between atoms: C5_7  and  C6_9 
REMARK    4  A    between atoms: C6_9  and  N2_10 
REMARK    5  A    between atoms: C6_9  and  C34_50 
REMARK    6  A    between atoms: N2_10  and  C7_13 
REMARK    7  A    between atoms: C7_13  and  C8_14 
REMARK    8  A    between atoms: C8_14  and  C9_15 
REMARK    9  A    between atoms: C8_14  and  N3_22 
REMARK   10  A    between atoms: C9_15  and  C10_16 
REMARK       I    between atoms: N3_22  and  C16_24 
REMARK   11  A    between atoms: C16_24  and  C17_26 
REMARK   12  A    between atoms: C19_28  and  C20_29 
REMARK       I    between atoms: C20_29  and  N4_31 
REMARK   13  A    between atoms: N4_31  and  C21_33 
REMARK   14  A    between atoms: C21_33  and  C23_35 
REMARK   15  A    between atoms: C30_42  and  N5_43 
REMARK   16  A    between atoms: N5_43  and  S1_45 
REMARK   17  A    between atoms: C34_50  and  O6_52 
ROOT
HETATM    1  N3  UNL     1      43.483  -3.959  10.592  1.00  0.00    -0.350 N 
ATOM      2  H3  UNL     1      43.813  -4.229  11.519  1.00  0.00     0.163 HD
HETATM    3  C16 UNL     1      44.303  -3.111   9.766  1.00  0.00     0.252 C 
HETATM    4  O2  UNL     1      43.837  -2.816   8.633  1.00  0.00    -0.268 OA
ENDROOT
BRANCH   1   5
HETATM    5  C8  UNL     1      42.189  -4.438  10.126  1.00  0.00     0.114 C 
BRANCH   5   6
HETATM    6  C7  UNL     1      41.330  -4.610  11.341  1.00  0.00     0.258 C 
BRANCH   6   7
HETATM    7  N2  UNL     1      40.345  -3.593  11.540  1.00  0.00    -0.058 N 
ATOM      8  H22 UNL     1      39.738  -3.482  10.728  1.00  0.00     0.278 HD
ATOM      9  H21 UNL     1      40.753  -2.659  11.548  1.00  0.00     0.278 HD
BRANCH   7  10
HETATM   10  C6  UNL     1      39.587  -3.872  12.760  1.00  0.00     0.305 C 
BRANCH  10  11
HETATM   11  C5  UNL     1      38.270  -4.405  12.390  1.00  0.00     0.251 C 
HETATM   12  N1  UNL     1      38.054  -5.639  11.719  1.00  0.00    -0.359 N 
ATOM     13  H1  UNL     1      38.856  -6.215  11.464  1.00  0.00     0.162 HD
HETATM   14  O1  UNL     1      37.230  -3.727  12.680  1.00  0.00    -0.271 OA
BRANCH  12  15
HETATM   15  C4  UNL     1      36.710  -6.104  11.386  1.00  0.00     0.126 C 
BRANCH  15  16
HETATM   16  C2  UNL     1      36.514  -6.086   9.874  1.00  0.00    -0.005 C 
HETATM   17  C1  UNL     1      35.517  -5.021   9.476  1.00  0.00     0.011 C 
HETATM   18  C3  UNL     1      35.995  -7.439   9.418  1.00  0.00     0.011 C 
ENDBRANCH  15  16
ENDBRANCH  12  15
ENDBRANCH  10  11
BRANCH  10  19
HETATM   19  C34 UNL     1      39.511  -2.563  13.540  1.00  0.00     0.154 C 
HETATM   20  C35 UNL     1      39.643  -2.755  15.022  1.00  0.00     0.042 C 
BRANCH  19  21
HETATM   21  O6  UNL     1      40.652  -1.820  13.145  1.00  0.00    -0.393 OA
ATOM     22  H6  UNL     1      40.945  -1.370  13.928  1.00  0.00     0.210 HD
ENDBRANCH  19  21
ENDBRANCH  10  19
ENDBRANCH   7  10
ENDBRANCH   6   7
ENDBRANCH   5   6
BRANCH   5  23
HETATM   23  C9  UNL     1      42.310  -5.678   9.302  1.00  0.00     0.065 C 
BRANCH  23  24
HETATM   24  C10 UNL     1      41.417  -6.745   9.813  1.00  0.00    -0.056 A 
HETATM   25  C11 UNL     1      41.657  -7.380  11.034  1.00  0.00     0.007 A 
HETATM   26  C12 UNL     1      40.835  -8.377  11.525  1.00  0.00     0.001 A 
HETATM   27  C13 UNL     1      39.740  -8.770  10.801  1.00  0.00     0.000 A 
HETATM   28  C14 UNL     1      39.471  -8.163   9.586  1.00  0.00     0.001 A 
HETATM   29  C15 UNL     1      40.304  -7.164   9.105  1.00  0.00     0.007 A 
ENDBRANCH  23  24
ENDBRANCH   5  23
ENDBRANCH   1   5
BRANCH   3  30
HETATM   30  C17 UNL     1      45.600  -2.625  10.218  1.00  0.00     0.035 A 
HETATM   31  C18 UNL     1      45.792  -1.862  11.348  1.00  0.00     0.034 A 
HETATM   32  C19 UNL     1      47.039  -1.427  11.749  1.00  0.00     0.035 A 
HETATM   33  C29 UNL     1      48.101  -1.793  10.960  1.00  0.00     0.047 A 
HETATM   34  C30 UNL     1      47.996  -2.559   9.809  1.00  0.00     0.046 A 
HETATM   35  C33 UNL     1      46.706  -2.961   9.468  1.00  0.00     0.047 A 
BRANCH  32  36
HETATM   36  C20 UNL     1      47.175  -0.626  12.962  1.00  0.00     0.252 C 
HETATM   37  O3  UNL     1      46.686   0.538  13.032  1.00  0.00    -0.268 OA
HETATM   38  N4  UNL     1      47.845  -1.088  14.118  1.00  0.00    -0.349 N 
ATOM     39  H4  UNL     1      48.253  -2.023  14.102  1.00  0.00     0.163 HD
BRANCH  38  40
HETATM   40  C21 UNL     1      47.981  -0.286  15.343  1.00  0.00     0.114 C 
HETATM   41  C22 UNL     1      49.502  -0.119  15.503  1.00  0.00     0.037 C 
BRANCH  40  42
HETATM   42  C23 UNL     1      47.499  -1.016  16.521  1.00  0.00    -0.036 A 
HETATM   43  C24 UNL     1      46.582  -0.447  17.374  1.00  0.00     0.009 A 
HETATM   44  C25 UNL     1      46.123  -1.135  18.503  1.00  0.00     0.001 A 
HETATM   45  C26 UNL     1      46.577  -2.392  18.787  1.00  0.00     0.000 A 
HETATM   46  C27 UNL     1      47.501  -2.975  17.935  1.00  0.00     0.001 A 
HETATM   47  C28 UNL     1      47.937  -2.284  16.835  1.00  0.00     0.009 A 
ENDBRANCH  40  42
ENDBRANCH  38  40
ENDBRANCH  32  36
BRANCH  34  48
HETATM   48  N5  UNL     1      49.152  -2.905   9.073  1.00  0.00    -0.281 N 
HETATM   49  C31 UNL     1      49.559  -2.105   7.953  1.00  0.00     0.169 C 
BRANCH  48  50
HETATM   50  S1  UNL     1      50.065  -4.287   9.518  1.00  0.00     0.228 S 
HETATM   51  C32 UNL     1      50.602  -5.042   7.975  1.00  0.00     0.186 C 
HETATM   52  O4  UNL     1      51.267  -3.917  10.351  1.00  0.00    -0.206 OA
HETATM   53  O5  UNL     1      49.219  -5.317  10.199  1.00  0.00    -0.206 OA
ENDBRANCH  48  50
ENDBRANCH  34  48
ENDBRANCH   3  30
TORSDOF 17
ENDMDL
