MODEL 7
REMARK VINA RESULT: -10.021013688      2.168      6.066
REMARK  17 active torsions:
REMARK  status: ('A' for Active; 'I' for Inactive)
REMARK    1  A    between atoms: C2_2  and  C4_4 
REMARK    2  A    between atoms: C4_4  and  N1_5 
REMARK       I    between atoms: N1_5  and  C5_7 
REMARK    3  A    between atoms: C5_7  and  C6_9 
REMARK    4  A    between atoms: C6_9  and  N2_10 
REMARK    5  A    between atoms: C6_9  and  C34_50 
REMARK    6  A    between atoms: N2_10  and  C7_13 
REMARK    7  A    between atoms: C7_13  and  C8_14 
REMARK    8  A    between atoms: C8_14  and  C9_15 
REMARK    9  A    between atoms: C8_14  and  N3_22 
REMARK   10  A    between atoms: C9_15  and  C10_16 
REMARK       I    between atoms: N3_22  and  C16_24 
REMARK   11  A    between atoms: C16_24  and  C17_26 
REMARK   12  A    between atoms: C19_28  and  C20_29 
REMARK       I    between atoms: C20_29  and  N4_31 
REMARK   13  A    between atoms: N4_31  and  C21_33 
REMARK   14  A    between atoms: C21_33  and  C23_35 
REMARK   15  A    between atoms: C30_42  and  N5_43 
REMARK   16  A    between atoms: N5_43  and  S1_45 
REMARK   17  A    between atoms: C34_50  and  O6_52 
ROOT
HETATM    1  N3  UNL     1      41.302  -4.358  10.473  1.00  0.00    -0.350 N 
ATOM      2  H3  UNL     1      40.499  -4.262   9.851  1.00  0.00     0.163 HD
HETATM    3  C16 UNL     1      41.108  -4.281  11.898  1.00  0.00     0.252 C 
HETATM    4  O2  UNL     1      42.139  -4.408  12.610  1.00  0.00    -0.268 OA
ENDROOT
BRANCH   1   5
HETATM    5  C8  UNL     1      42.627  -4.569   9.906  1.00  0.00     0.114 C 
BRANCH   5   6
HETATM    6  C7  UNL     1      42.946  -3.354   9.090  1.00  0.00     0.258 C 
BRANCH   6   7
HETATM    7  N2  UNL     1      44.205  -2.740   9.376  1.00  0.00    -0.058 N 
ATOM      8  H22 UNL     1      44.310  -1.843   8.904  1.00  0.00     0.278 HD
ATOM      9  H21 UNL     1      44.981  -3.232   8.935  1.00  0.00     0.278 HD
BRANCH   7  10
HETATM   10  C6  UNL     1      44.379  -2.624  10.824  1.00  0.00     0.305 C 
BRANCH  10  11
HETATM   11  C5  UNL     1      43.888  -1.310  11.258  1.00  0.00     0.251 C 
HETATM   12  N1  UNL     1      44.464  -0.065  10.887  1.00  0.00    -0.359 N 
ATOM     13  H1  UNL     1      45.280  -0.057  10.276  1.00  0.00     0.162 HD
HETATM   14  O1  UNL     1      42.872  -1.259  12.027  1.00  0.00    -0.271 OA
BRANCH  12  15
HETATM   15  C4  UNL     1      43.916   1.203  11.360  1.00  0.00     0.126 C 
BRANCH  15  16
HETATM   16  C2  UNL     1      45.040   2.094  11.877  1.00  0.00    -0.005 C 
HETATM   17  C1  UNL     1      46.390   1.526  11.501  1.00  0.00     0.011 C 
HETATM   18  C3  UNL     1      44.951   2.189  13.391  1.00  0.00     0.011 C 
ENDBRANCH  15  16
ENDBRANCH  12  15
ENDBRANCH  10  11
BRANCH  10  19
HETATM   19  C34 UNL     1      45.864  -2.836  11.106  1.00  0.00     0.154 C 
HETATM   20  C35 UNL     1      46.741  -2.451   9.950  1.00  0.00     0.042 C 
BRANCH  19  21
HETATM   21  O6  UNL     1      46.184  -1.933  12.150  1.00  0.00    -0.393 OA
ATOM     22  H6  UNL     1      45.543  -1.235  12.087  1.00  0.00     0.210 HD
ENDBRANCH  19  21
ENDBRANCH  10  19
ENDBRANCH   7  10
ENDBRANCH   6   7
ENDBRANCH   5   6
BRANCH   5  23
HETATM   23  C9  UNL     1      42.712  -5.845   9.134  1.00  0.00     0.065 C 
BRANCH  23  24
HETATM   24  C10 UNL     1      41.746  -6.844   9.650  1.00  0.00    -0.056 A 
HETATM   25  C11 UNL     1      41.911  -7.446  10.901  1.00  0.00     0.007 A 
HETATM   26  C12 UNL     1      41.020  -8.379  11.398  1.00  0.00     0.001 A 
HETATM   27  C13 UNL     1      39.930  -8.741  10.649  1.00  0.00     0.000 A 
HETATM   28  C14 UNL     1      39.735  -8.165   9.405  1.00  0.00     0.001 A 
HETATM   29  C15 UNL     1      40.636  -7.230   8.920  1.00  0.00     0.007 A 
ENDBRANCH  23  24
ENDBRANCH   5  23
ENDBRANCH   1   5
BRANCH   3  30
HETATM   30  C17 UNL     1      39.789  -4.071  12.481  1.00  0.00     0.035 A 
HETATM   31  C18 UNL     1      39.491  -3.079  13.389  1.00  0.00     0.034 A 
HETATM   32  C19 UNL     1      38.225  -2.906  13.912  1.00  0.00     0.035 A 
HETATM   33  C29 UNL     1      37.256  -3.778  13.482  1.00  0.00     0.047 A 
HETATM   34  C30 UNL     1      37.471  -4.801  12.571  1.00  0.00     0.046 A 
HETATM   35  C33 UNL     1      38.773  -4.915  12.086  1.00  0.00     0.047 A 
BRANCH  32  36
HETATM   36  C20 UNL     1      37.974  -1.830  14.866  1.00  0.00     0.252 C 
HETATM   37  O3  UNL     1      37.316  -0.803  14.532  1.00  0.00    -0.268 OA
HETATM   38  N4  UNL     1      38.438  -1.862  16.202  1.00  0.00    -0.349 N 
ATOM     39  H4  UNL     1      38.973  -2.674  16.510  1.00  0.00     0.163 HD
BRANCH  38  40
HETATM   40  C21 UNL     1      38.185  -0.782  17.167  1.00  0.00     0.114 C 
HETATM   41  C22 UNL     1      39.435  -0.794  18.064  1.00  0.00     0.037 C 
BRANCH  40  42
HETATM   42  C23 UNL     1      37.034  -1.084  18.024  1.00  0.00    -0.036 A 
HETATM   43  C24 UNL     1      36.789  -0.345  19.158  1.00  0.00     0.009 A 
HETATM   44  C25 UNL     1      35.697  -0.631  19.985  1.00  0.00     0.001 A 
HETATM   45  C26 UNL     1      34.845  -1.656  19.685  1.00  0.00     0.000 A 
HETATM   46  C27 UNL     1      35.082  -2.408  18.545  1.00  0.00     0.001 A 
HETATM   47  C28 UNL     1      36.157  -2.110  17.750  1.00  0.00     0.009 A 
ENDBRANCH  40  42
ENDBRANCH  38  40
ENDBRANCH  32  36
BRANCH  34  48
HETATM   48  N5  UNL     1      36.403  -5.637  12.170  1.00  0.00    -0.281 N 
HETATM   49  C31 UNL     1      35.660  -6.375  13.150  1.00  0.00     0.169 C 
BRANCH  48  50
HETATM   50  S1  UNL     1      36.001  -5.769  10.508  1.00  0.00     0.228 S 
HETATM   51  C32 UNL     1      34.469  -6.713  10.445  1.00  0.00     0.186 C 
HETATM   52  O4  UNL     1      35.794  -4.417   9.875  1.00  0.00    -0.206 OA
HETATM   53  O5  UNL     1      37.007  -6.583   9.756  1.00  0.00    -0.206 OA
ENDBRANCH  48  50
ENDBRANCH  34  48
ENDBRANCH   3  30
TORSDOF 17
ENDMDL
