MODEL 3
REMARK VINA RESULT: -11.398810416      1.053      1.363
REMARK  17 active torsions:
REMARK  status: ('A' for Active; 'I' for Inactive)
REMARK    1  A    between atoms: C2_2  and  C4_4 
REMARK    2  A    between atoms: C4_4  and  N1_5 
REMARK       I    between atoms: N1_5  and  C5_7 
REMARK    3  A    between atoms: C5_7  and  C6_9 
REMARK    4  A    between atoms: C6_9  and  N2_10 
REMARK    5  A    between atoms: C6_9  and  C34_50 
REMARK    6  A    between atoms: N2_10  and  C7_13 
REMARK    7  A    between atoms: C7_13  and  C8_14 
REMARK    8  A    between atoms: C8_14  and  C9_15 
REMARK    9  A    between atoms: C8_14  and  N3_22 
REMARK   10  A    between atoms: C9_15  and  C10_16 
REMARK       I    between atoms: N3_22  and  C16_24 
REMARK   11  A    between atoms: C16_24  and  C17_26 
REMARK   12  A    between atoms: C19_28  and  C20_29 
REMARK       I    between atoms: C20_29  and  N4_31 
REMARK   13  A    between atoms: N4_31  and  C21_33 
REMARK   14  A    between atoms: C21_33  and  C23_35 
REMARK   15  A    between atoms: C30_42  and  N5_43 
REMARK   16  A    between atoms: N5_43  and  S1_45 
REMARK   17  A    between atoms: C34_50  and  O6_52 
ROOT
HETATM    1  N3  UNL     1      41.689  -3.731  10.822  1.00  0.00    -0.350 N 
ATOM      2  H3  UNL     1      40.913  -3.746  10.160  1.00  0.00     0.163 HD
HETATM    3  C16 UNL     1      41.414  -3.634  12.233  1.00  0.00     0.252 C 
HETATM    4  O2  UNL     1      42.416  -3.621  12.997  1.00  0.00    -0.268 OA
ENDROOT
BRANCH   1   5
HETATM    5  C8  UNL     1      43.056  -3.808  10.327  1.00  0.00     0.114 C 
BRANCH   5   6
HETATM    6  C7  UNL     1      43.423  -2.433   9.859  1.00  0.00     0.258 C 
BRANCH   6   7
HETATM    7  N2  UNL     1      43.872  -1.540  10.881  1.00  0.00    -0.058 N 
ATOM      8  H22 UNL     1      44.023  -2.019  11.770  1.00  0.00     0.278 HD
ATOM      9  H21 UNL     1      43.138  -0.899  11.181  1.00  0.00     0.278 HD
BRANCH   7  10
HETATM   10  C6  UNL     1      45.069  -0.833  10.427  1.00  0.00     0.305 C 
BRANCH  10  11
HETATM   11  C5  UNL     1      46.250  -1.649  10.735  1.00  0.00     0.251 C 
HETATM   12  N1  UNL     1      47.441  -1.677   9.960  1.00  0.00    -0.359 N 
ATOM     13  H1  UNL     1      47.504  -1.097   9.123  1.00  0.00     0.162 HD
HETATM   14  O1  UNL     1      46.227  -2.396  11.767  1.00  0.00    -0.271 OA
BRANCH  12  15
HETATM   15  C4  UNL     1      48.577  -2.515  10.332  1.00  0.00     0.126 C 
BRANCH  15  16
HETATM   16  C2  UNL     1      49.045  -3.321   9.125  1.00  0.00    -0.005 C 
HETATM   17  C1  UNL     1      50.220  -4.200   9.492  1.00  0.00     0.011 C 
HETATM   18  C3  UNL     1      49.470  -2.370   8.019  1.00  0.00     0.011 C 
ENDBRANCH  15  16
ENDBRANCH  12  15
ENDBRANCH  10  11
BRANCH  10  19
HETATM   19  C34 UNL     1      45.072   0.522  11.130  1.00  0.00     0.154 C 
HETATM   20  C35 UNL     1      43.767   0.836  11.803  1.00  0.00     0.042 C 
BRANCH  19  21
HETATM   21  O6  UNL     1      46.024   0.406  12.173  1.00  0.00    -0.393 OA
ATOM     22  H6  UNL     1      46.544   1.199  12.132  1.00  0.00     0.210 HD
ENDBRANCH  19  21
ENDBRANCH  10  19
ENDBRANCH   7  10
ENDBRANCH   6   7
ENDBRANCH   5   6
BRANCH   5  23
HETATM   23  C9  UNL     1      43.216  -4.857   9.276  1.00  0.00     0.065 C 
BRANCH  23  24
HETATM   24  C10 UNL     1      42.215  -5.937   9.447  1.00  0.00    -0.056 A 
HETATM   25  C11 UNL     1      42.223  -6.776  10.565  1.00  0.00     0.007 A 
HETATM   26  C12 UNL     1      41.297  -7.788  10.739  1.00  0.00     0.001 A 
HETATM   27  C13 UNL     1      40.329  -7.991   9.791  1.00  0.00     0.000 A 
HETATM   28  C14 UNL     1      40.291  -7.179   8.670  1.00  0.00     0.001 A 
HETATM   29  C15 UNL     1      41.225  -6.168   8.508  1.00  0.00     0.007 A 
ENDBRANCH  23  24
ENDBRANCH   5  23
ENDBRANCH   1   5
BRANCH   3  30
HETATM   30  C17 UNL     1      40.052  -3.557  12.744  1.00  0.00     0.035 A 
HETATM   31  C18 UNL     1      39.000  -4.307  12.267  1.00  0.00     0.034 A 
HETATM   32  C19 UNL     1      37.724  -4.212  12.785  1.00  0.00     0.035 A 
HETATM   33  C29 UNL     1      37.542  -3.323  13.815  1.00  0.00     0.047 A 
HETATM   34  C30 UNL     1      38.545  -2.532  14.355  1.00  0.00     0.046 A 
HETATM   35  C33 UNL     1      39.807  -2.682  13.780  1.00  0.00     0.047 A 
BRANCH  32  36
HETATM   36  C20 UNL     1      36.654  -5.042  12.238  1.00  0.00     0.252 C 
HETATM   37  O3  UNL     1      35.863  -5.670  13.000  1.00  0.00    -0.268 OA
HETATM   38  N4  UNL     1      36.432  -5.195  10.850  1.00  0.00    -0.349 N 
ATOM     39  H4  UNL     1      37.049  -4.704  10.203  1.00  0.00     0.163 HD
BRANCH  38  40
HETATM   40  C21 UNL     1      35.354  -6.027  10.295  1.00  0.00     0.114 C 
HETATM   41  C22 UNL     1      36.102  -7.196   9.630  1.00  0.00     0.037 C 
BRANCH  40  42
HETATM   42  C23 UNL     1      34.622  -5.324   9.237  1.00  0.00    -0.036 A 
HETATM   43  C24 UNL     1      33.301  -4.980   9.407  1.00  0.00     0.009 A 
HETATM   44  C25 UNL     1      32.593  -4.314   8.399  1.00  0.00     0.001 A 
HETATM   45  C26 UNL     1      33.199  -3.990   7.218  1.00  0.00     0.000 A 
HETATM   46  C27 UNL     1      34.529  -4.332   7.036  1.00  0.00     0.001 A 
HETATM   47  C28 UNL     1      35.203  -4.983   8.036  1.00  0.00     0.009 A 
ENDBRANCH  40  42
ENDBRANCH  38  40
ENDBRANCH  32  36
BRANCH  34  48
HETATM   48  N5  UNL     1      38.266  -1.660  15.432  1.00  0.00    -0.281 N 
HETATM   49  C31 UNL     1      37.321  -0.593  15.268  1.00  0.00     0.169 C 
BRANCH  48  50
HETATM   50  S1  UNL     1      39.063  -1.878  16.934  1.00  0.00     0.228 S 
HETATM   51  C32 UNL     1      37.767  -2.225  18.135  1.00  0.00     0.186 C 
HETATM   52  O4  UNL     1      40.037  -3.029  16.888  1.00  0.00    -0.206 OA
HETATM   53  O5  UNL     1      39.721  -0.618  17.403  1.00  0.00    -0.206 OA
ENDBRANCH  48  50
ENDBRANCH  34  48
ENDBRANCH   3  30
TORSDOF 17
ENDMDL
