MODEL 1
REMARK VINA RESULT: -8.026917013      0.000      0.000
REMARK  4 active torsions:
REMARK  status: ('A' for Active; 'I' for Inactive)
REMARK       I    between atoms: C1_2  and  N1_3 
REMARK    1  A    between atoms: C1_2  and  C11_19 
REMARK    2  A    between atoms: N1_3  and  C2_5 
REMARK    3  A    between atoms: C5_10  and  N3_11 
REMARK       I    between atoms: N3_11  and  C6_13 
REMARK    4  A    between atoms: C6_13  and  C7_15 
ROOT
HETATM    1  C2  UNL     1      -6.656  -5.892 -15.988  1.00  0.00     0.039 A 
HETATM    2  C3  UNL     1      -6.376  -5.268 -14.824  1.00  0.00     0.046 A 
HETATM    3  C4  UNL     1      -5.467  -4.210 -14.723  1.00  0.00     0.092 A 
HETATM    4  N2  UNL     1      -4.864  -3.822 -15.848  1.00  0.00    -0.352 N 
ATOM      5  H2  UNL     1      -4.199  -3.051 -15.791  1.00  0.00     0.166 HD
HETATM    6  C5  UNL     1      -5.077  -4.381 -17.052  1.00  0.00     0.109 A 
HETATM    7  C10 UNL     1      -5.976  -5.420 -17.123  1.00  0.00     0.078 A 
ENDROOT
BRANCH   1   8
HETATM    8  N1  UNL     1      -7.560  -6.957 -16.177  1.00  0.00    -0.323 N 
HETATM    9  C1  UNL     1      -7.255  -8.315 -16.103  1.00  0.00     0.259 C 
HETATM   10  O1  UNL     1      -6.040  -8.690 -15.857  1.00  0.00    -0.267 OA
ATOM     11  H1  UNL     1      -8.527  -6.711 -16.387  1.00  0.00     0.169 HD
BRANCH   9  12
HETATM   12  C11 UNL     1      -8.261  -9.344 -16.303  1.00  0.00     0.075 A 
HETATM   13  C12 UNL     1      -8.383 -10.155 -17.384  1.00  0.00     0.051 A 
HETATM   14 CL1  UNL     1      -7.388  -9.967 -18.827  1.00  0.00    -0.083 Cl
HETATM   15  C13 UNL     1      -9.343 -11.165 -17.467  1.00  0.00     0.025 A 
HETATM   16  C14 UNL     1     -10.186 -11.315 -16.391  1.00  0.00     0.003 A 
HETATM   17  C15 UNL     1     -10.078 -10.508 -15.295  1.00  0.00     0.025 A 
HETATM   18  C16 UNL     1      -9.136  -9.538 -15.244  1.00  0.00     0.051 A 
HETATM   19 CL2  UNL     1      -9.050  -8.525 -13.795  1.00  0.00    -0.083 Cl
ENDBRANCH   9  12
ENDBRANCH   1   8
BRANCH   6  20
HETATM   20  N3  UNL     1      -4.411  -3.935 -18.228  1.00  0.00    -0.313 N 
HETATM   21  C6  UNL     1      -3.069  -4.318 -18.529  1.00  0.00     0.227 C 
HETATM   22  O2  UNL     1      -2.515  -5.071 -17.690  1.00  0.00    -0.273 OA
ATOM     23  H3  UNL     1      -4.908  -3.323 -18.875  1.00  0.00     0.170 HD
BRANCH  21  24
HETATM   24  C7  UNL     1      -2.350  -3.877 -19.735  1.00  0.00     0.078 A 
HETATM   25  C8  UNL     1      -3.025  -3.815 -21.054  1.00  0.00     0.015 A 
HETATM   26  C9  UNL     1      -1.996  -4.897 -20.781  1.00  0.00     0.015 A 
ENDBRANCH  21  24
ENDBRANCH   6  20
TORSDOF 4
ENDMDL
