MODEL 8
REMARK VINA RESULT: -7.599066586      3.563      7.472
REMARK  4 active torsions:
REMARK  status: ('A' for Active; 'I' for Inactive)
REMARK       I    between atoms: C1_2  and  N1_3 
REMARK    1  A    between atoms: C1_2  and  C11_19 
REMARK    2  A    between atoms: N1_3  and  C2_5 
REMARK    3  A    between atoms: C5_10  and  N3_11 
REMARK       I    between atoms: N3_11  and  C6_13 
REMARK    4  A    between atoms: C6_13  and  C7_15 
ROOT
HETATM    1  C2  UNL     1      -8.397  -9.366 -17.177  1.00  0.00     0.039 A 
HETATM    2  C3  UNL     1      -9.426  -9.967 -16.544  1.00  0.00     0.046 A 
HETATM    3  C4  UNL     1      -9.911 -11.229 -16.902  1.00  0.00     0.092 A 
HETATM    4  N2  UNL     1      -9.308 -11.842 -17.922  1.00  0.00    -0.352 N 
ATOM      5  H2  UNL     1      -9.650 -12.764 -18.195  1.00  0.00     0.166 HD
HETATM    6  C5  UNL     1      -8.278 -11.325 -18.613  1.00  0.00     0.109 A 
HETATM    7  C10 UNL     1      -7.820 -10.081 -18.240  1.00  0.00     0.078 A 
ENDROOT
BRANCH   1   8
HETATM    8  N1  UNL     1      -7.843  -8.105 -16.877  1.00  0.00    -0.323 N 
HETATM    9  C1  UNL     1      -7.574  -7.610 -15.602  1.00  0.00     0.259 C 
HETATM   10  O1  UNL     1      -7.854  -8.327 -14.560  1.00  0.00    -0.267 OA
ATOM     11  H1  UNL     1      -7.619  -7.498 -17.665  1.00  0.00     0.169 HD
BRANCH   9  12
HETATM   12  C11 UNL     1      -6.990  -6.297 -15.390  1.00  0.00     0.075 A 
HETATM   13  C12 UNL     1      -7.659  -5.152 -15.101  1.00  0.00     0.051 A 
HETATM   14 CL1  UNL     1      -9.419  -5.061 -15.087  1.00  0.00    -0.083 Cl
HETATM   15  C13 UNL     1      -7.011  -3.941 -14.850  1.00  0.00     0.025 A 
HETATM   16  C14 UNL     1      -5.637  -3.944 -14.908  1.00  0.00     0.003 A 
HETATM   17  C15 UNL     1      -4.948  -5.086 -15.198  1.00  0.00     0.025 A 
HETATM   18  C16 UNL     1      -5.604  -6.245 -15.436  1.00  0.00     0.051 A 
HETATM   19 CL2  UNL     1      -4.650  -7.690 -15.808  1.00  0.00    -0.083 Cl
ENDBRANCH   9  12
ENDBRANCH   1   8
BRANCH   6  20
HETATM   20  N3  UNL     1      -7.663 -12.014 -19.695  1.00  0.00    -0.313 N 
HETATM   21  C6  UNL     1      -8.427 -12.706 -20.683  1.00  0.00     0.227 C 
HETATM   22  O2  UNL     1      -9.673 -12.668 -20.535  1.00  0.00    -0.273 OA
ATOM     23  H3  UNL     1      -6.646 -12.013 -19.767  1.00  0.00     0.170 HD
BRANCH  21  24
HETATM   24  C7  UNL     1      -7.825 -13.428 -21.816  1.00  0.00     0.078 A 
HETATM   25  C8  UNL     1      -6.920 -14.583 -21.599  1.00  0.00     0.015 A 
HETATM   26  C9  UNL     1      -6.356 -13.260 -22.084  1.00  0.00     0.015 A 
ENDBRANCH  21  24
ENDBRANCH   6  20
TORSDOF 4
ENDMDL
