MODEL 2
REMARK VINA RESULT: -8.002339927      0.392      1.929
REMARK  4 active torsions:
REMARK  status: ('A' for Active; 'I' for Inactive)
REMARK       I    between atoms: C1_2  and  N1_3 
REMARK    1  A    between atoms: C1_2  and  C11_19 
REMARK    2  A    between atoms: N1_3  and  C2_5 
REMARK    3  A    between atoms: C5_10  and  N3_11 
REMARK       I    between atoms: N3_11  and  C6_13 
REMARK    4  A    between atoms: C6_13  and  C7_15 
ROOT
HETATM    1  C2  UNL     1      -6.483  -5.877 -16.220  1.00  0.00     0.039 A 
HETATM    2  C3  UNL     1      -6.156  -5.161 -15.123  1.00  0.00     0.046 A 
HETATM    3  C4  UNL     1      -5.226  -4.117 -15.141  1.00  0.00     0.092 A 
HETATM    4  N2  UNL     1      -4.650  -3.840 -16.312  1.00  0.00    -0.352 N 
ATOM      5  H2  UNL     1      -3.969  -3.081 -16.341  1.00  0.00     0.166 HD
HETATM    6  C5  UNL     1      -4.909  -4.496 -17.456  1.00  0.00     0.109 A 
HETATM    7  C10 UNL     1      -5.830  -5.519 -17.411  1.00  0.00     0.078 A 
ENDROOT
BRANCH   1   8
HETATM    8  N1  UNL     1      -7.412  -6.935 -16.290  1.00  0.00    -0.323 N 
HETATM    9  C1  UNL     1      -7.128  -8.289 -16.120  1.00  0.00     0.259 C 
HETATM   10  O1  UNL     1      -5.911  -8.667 -15.890  1.00  0.00    -0.267 OA
ATOM     11  H1  UNL     1      -8.382  -6.687 -16.484  1.00  0.00     0.169 HD
BRANCH   9  12
HETATM   12  C11 UNL     1      -8.158  -9.310 -16.199  1.00  0.00     0.075 A 
HETATM   13  C12 UNL     1      -9.068  -9.615 -15.240  1.00  0.00     0.051 A 
HETATM   14 CL1  UNL     1      -9.034  -8.887 -13.636  1.00  0.00    -0.083 Cl
HETATM   15  C13 UNL     1     -10.068 -10.572 -15.424  1.00  0.00     0.025 A 
HETATM   16  C14 UNL     1     -10.101 -11.214 -16.640  1.00  0.00     0.003 A 
HETATM   17  C15 UNL     1      -9.194 -10.921 -17.616  1.00  0.00     0.025 A 
HETATM   18  C16 UNL     1      -8.236  -9.988 -17.407  1.00  0.00     0.051 A 
HETATM   19 CL2  UNL     1      -7.088  -9.655 -18.714  1.00  0.00    -0.083 Cl
ENDBRANCH   9  12
ENDBRANCH   1   8
BRANCH   6  20
HETATM   20  N3  UNL     1      -4.272  -4.167 -18.685  1.00  0.00    -0.313 N 
HETATM   21  C6  UNL     1      -2.881  -4.403 -18.903  1.00  0.00     0.227 C 
HETATM   22  O2  UNL     1      -2.257  -4.917 -17.941  1.00  0.00    -0.273 OA
ATOM     23  H3  UNL     1      -4.826  -3.751 -19.433  1.00  0.00     0.170 HD
BRANCH  21  24
HETATM   24  C7  UNL     1      -2.188  -4.077 -20.160  1.00  0.00     0.078 A 
HETATM   25  C8  UNL     1      -2.780  -4.419 -21.476  1.00  0.00     0.015 A 
HETATM   26  C9  UNL     1      -1.579  -5.192 -20.962  1.00  0.00     0.015 A 
ENDBRANCH  21  24
ENDBRANCH   6  20
TORSDOF 4
ENDMDL
