MODEL 3
REMARK VINA RESULT: -7.792471886      1.343      2.410
REMARK  4 active torsions:
REMARK  status: ('A' for Active; 'I' for Inactive)
REMARK       I    between atoms: C1_2  and  N1_3 
REMARK    1  A    between atoms: C1_2  and  C11_19 
REMARK    2  A    between atoms: N1_3  and  C2_5 
REMARK    3  A    between atoms: C5_10  and  N3_11 
REMARK       I    between atoms: N3_11  and  C6_13 
REMARK    4  A    between atoms: C6_13  and  C7_15 
ROOT
HETATM    1  C2  UNL     1      -6.658  -5.906 -17.063  1.00  0.00     0.039 A 
HETATM    2  C3  UNL     1      -6.682  -4.844 -16.231  1.00  0.00     0.046 A 
HETATM    3  C4  UNL     1      -5.812  -3.756 -16.354  1.00  0.00     0.092 A 
HETATM    4  N2  UNL     1      -4.926  -3.801 -17.351  1.00  0.00    -0.352 N 
ATOM      5  H2  UNL     1      -4.284  -3.014 -17.455  1.00  0.00     0.166 HD
HETATM    6  C5  UNL     1      -4.825  -4.814 -18.228  1.00  0.00     0.109 A 
HETATM    7  C10 UNL     1      -5.694  -5.872 -18.084  1.00  0.00     0.078 A 
ENDROOT
BRANCH   1   8
HETATM    8  N1  UNL     1      -7.501  -7.035 -17.013  1.00  0.00    -0.323 N 
HETATM    9  C1  UNL     1      -7.191  -8.266 -16.437  1.00  0.00     0.259 C 
HETATM   10  O1  UNL     1      -6.028  -8.449 -15.897  1.00  0.00    -0.267 OA
ATOM     11  H1  UNL     1      -8.423  -6.943 -17.438  1.00  0.00     0.169 HD
BRANCH   9  12
HETATM   12  C11 UNL     1      -8.132  -9.372 -16.424  1.00  0.00     0.075 A 
HETATM   13  C12 UNL     1      -9.051  -9.639 -15.461  1.00  0.00     0.051 A 
HETATM   14 CL1  UNL     1      -9.136  -8.731 -13.954  1.00  0.00    -0.083 Cl
HETATM   15  C13 UNL     1      -9.964 -10.691 -15.559  1.00  0.00     0.025 A 
HETATM   16  C14 UNL     1      -9.900 -11.470 -16.691  1.00  0.00     0.003 A 
HETATM   17  C15 UNL     1      -8.983 -11.216 -17.669  1.00  0.00     0.025 A 
HETATM   18  C16 UNL     1      -8.111 -10.189 -17.545  1.00  0.00     0.051 A 
HETATM   19 CL2  UNL     1      -6.945  -9.914 -18.849  1.00  0.00    -0.083 Cl
ENDBRANCH   9  12
ENDBRANCH   1   8
BRANCH   6  20
HETATM   20  N3  UNL     1      -3.864  -4.821 -19.278  1.00  0.00    -0.313 N 
HETATM   21  C6  UNL     1      -4.225  -4.562 -20.635  1.00  0.00     0.227 C 
HETATM   22  O2  UNL     1      -5.442  -4.330 -20.841  1.00  0.00    -0.273 OA
ATOM     23  H3  UNL     1      -2.889  -5.017 -19.054  1.00  0.00     0.170 HD
BRANCH  21  24
HETATM   24  C7  UNL     1      -3.260  -4.560 -21.745  1.00  0.00     0.078 A 
HETATM   25  C8  UNL     1      -2.252  -5.638 -21.891  1.00  0.00     0.015 A 
HETATM   26  C9  UNL     1      -1.818  -4.251 -21.453  1.00  0.00     0.015 A 
ENDBRANCH  21  24
ENDBRANCH   6  20
TORSDOF 4
ENDMDL
