MODEL 11
REMARK VINA RESULT: -7.796863274      2.789      9.800
REMARK  4 active torsions:
REMARK  status: ('A' for Active; 'I' for Inactive)
REMARK    1  A    between atoms: C5_7  and  C6_8 
REMARK       I    between atoms: C6_8  and  N2_10 
REMARK    2  A    between atoms: N2_10  and  C7_12 
REMARK    3  A    between atoms: C10_17  and  N4_18 
REMARK       I    between atoms: N4_18  and  C11_20 
REMARK    4  A    between atoms: C11_20  and  C12_22 
ROOT
HETATM    1  N1  UNL     1      -3.985  -0.771 -16.119  1.00  0.00    -0.191 NA
HETATM    2  C1  UNL     1      -4.461  -1.820 -16.093  1.00  0.00     0.099 C 
HETATM    3  C2  UNL     1      -5.047  -3.151 -16.080  1.00  0.00     0.048 A 
HETATM    4  C3  UNL     1      -5.655  -3.647 -14.949  1.00  0.00     0.047 A 
HETATM    5  C4  UNL     1      -6.203  -4.907 -14.951  1.00  0.00     0.052 A 
HETATM    6 CL1  UNL     1      -6.954  -5.482 -13.485  1.00  0.00    -0.083 Cl
HETATM    7  C5  UNL     1      -6.180  -5.748 -16.075  1.00  0.00     0.075 A 
HETATM    8  C16 UNL     1      -5.579  -5.245 -17.181  1.00  0.00     0.052 A 
HETATM    9 CL2  UNL     1      -5.532  -6.178 -18.655  1.00  0.00    -0.083 Cl
HETATM   10  C17 UNL     1      -5.017  -3.958 -17.186  1.00  0.00     0.047 A 
ENDROOT
BRANCH   7  11
HETATM   11  C6  UNL     1      -6.828  -7.041 -15.933  1.00  0.00     0.259 C 
HETATM   12  O1  UNL     1      -6.068  -8.068 -15.715  1.00  0.00    -0.267 OA
HETATM   13  N2  UNL     1      -8.187  -7.336 -16.005  1.00  0.00    -0.323 N 
ATOM     14  H2  UNL     1      -8.822  -6.561 -16.193  1.00  0.00     0.169 HD
BRANCH  13  15
HETATM   15  C7  UNL     1      -8.770  -8.633 -15.838  1.00  0.00     0.039 A 
HETATM   16  C8  UNL     1      -9.206  -9.181 -14.670  1.00  0.00     0.046 A 
HETATM   17  C9  UNL     1      -9.736 -10.476 -14.636  1.00  0.00     0.092 A 
HETATM   18  N3  UNL     1      -9.811 -11.163 -15.760  1.00  0.00    -0.352 N 
HETATM   19  C10 UNL     1      -9.402 -10.704 -16.983  1.00  0.00     0.109 A 
ATOM     20  H3  UNL     1     -10.201 -12.104 -15.713  1.00  0.00     0.166 HD
HETATM   21  C15 UNL     1      -8.888  -9.440 -16.992  1.00  0.00     0.078 A 
BRANCH  19  22
HETATM   22  N4  UNL     1      -9.546 -11.561 -18.107  1.00  0.00    -0.313 N 
HETATM   23  C11 UNL     1      -8.638 -11.770 -19.140  1.00  0.00     0.227 C 
HETATM   24  O2  UNL     1      -7.550 -11.163 -19.139  1.00  0.00    -0.273 OA
ATOM     25  H4  UNL     1     -10.419 -12.085 -18.164  1.00  0.00     0.170 HD
BRANCH  23  26
HETATM   26  C12 UNL     1      -8.994 -12.734 -20.248  1.00  0.00     0.078 A 
HETATM   27  C13 UNL     1      -7.929 -13.575 -20.830  1.00  0.00     0.015 A 
HETATM   28  C14 UNL     1      -8.419 -12.369 -21.587  1.00  0.00     0.015 A 
ENDBRANCH  23  26
ENDBRANCH  19  22
ENDBRANCH  13  15
ENDBRANCH   7  11
TORSDOF 4
ENDMDL
