MODEL 3
REMARK VINA RESULT: -8.227016778      1.240      1.315
REMARK  4 active torsions:
REMARK  status: ('A' for Active; 'I' for Inactive)
REMARK    1  A    between atoms: C5_7  and  C6_8 
REMARK       I    between atoms: C6_8  and  N2_10 
REMARK    2  A    between atoms: N2_10  and  C7_12 
REMARK    3  A    between atoms: C10_17  and  N4_18 
REMARK       I    between atoms: N4_18  and  C11_20 
REMARK    4  A    between atoms: C11_20  and  C12_22 
ROOT
HETATM    1  N1  UNL     1     -10.324 -11.954 -15.502  1.00  0.00    -0.191 NA
HETATM    2  C1  UNL     1      -9.702 -11.014 -15.742  1.00  0.00     0.099 C 
HETATM    3  C2  UNL     1      -8.916  -9.822 -16.020  1.00  0.00     0.048 A 
HETATM    4  C3  UNL     1      -8.201  -9.701 -17.189  1.00  0.00     0.047 A 
HETATM    5  C4  UNL     1      -7.462  -8.570 -17.438  1.00  0.00     0.052 A 
HETATM    6 CL1  UNL     1      -6.571  -8.478 -18.935  1.00  0.00    -0.083 Cl
HETATM    7  C5  UNL     1      -7.390  -7.493 -16.540  1.00  0.00     0.075 A 
HETATM    8  C16 UNL     1      -8.101  -7.626 -15.394  1.00  0.00     0.052 A 
HETATM    9 CL2  UNL     1      -8.128  -6.332 -14.223  1.00  0.00    -0.083 Cl
HETATM   10  C17 UNL     1      -8.858  -8.780 -15.133  1.00  0.00     0.047 A 
ENDROOT
BRANCH   7  11
HETATM   11  C6  UNL     1      -6.591  -6.352 -16.956  1.00  0.00     0.259 C 
HETATM   12  O1  UNL     1      -7.143  -5.500 -17.762  1.00  0.00    -0.267 OA
HETATM   13  N2  UNL     1      -5.280  -6.042 -16.601  1.00  0.00    -0.323 N 
ATOM     14  H2  UNL     1      -4.800  -6.694 -15.982  1.00  0.00     0.169 HD
BRANCH  13  15
HETATM   15  C7  UNL     1      -4.550  -4.889 -17.030  1.00  0.00     0.039 A 
HETATM   16  C8  UNL     1      -3.525  -4.866 -17.927  1.00  0.00     0.046 A 
HETATM   17  C9  UNL     1      -2.872  -3.669 -18.245  1.00  0.00     0.092 A 
HETATM   18  N3  UNL     1      -3.268  -2.554 -17.661  1.00  0.00    -0.352 N 
HETATM   19  C10 UNL     1      -4.285  -2.470 -16.749  1.00  0.00     0.109 A 
ATOM     20  H3  UNL     1      -2.780  -1.693 -17.906  1.00  0.00     0.166 HD
HETATM   21  C15 UNL     1      -4.906  -3.649 -16.454  1.00  0.00     0.078 A 
BRANCH  19  22
HETATM   22  N4  UNL     1      -4.599  -1.196 -16.203  1.00  0.00    -0.313 N 
HETATM   23  C11 UNL     1      -3.715  -0.189 -15.828  1.00  0.00     0.227 C 
HETATM   24  O2  UNL     1      -2.489  -0.363 -15.960  1.00  0.00    -0.273 OA
ATOM     25  H4  UNL     1      -5.591  -0.995 -16.071  1.00  0.00     0.170 HD
BRANCH  23  26
HETATM   26  C12 UNL     1      -4.267   1.101 -15.265  1.00  0.00     0.078 A 
HETATM   27  C13 UNL     1      -4.268   2.306 -16.117  1.00  0.00     0.015 A 
HETATM   28  C14 UNL     1      -3.229   2.163 -15.036  1.00  0.00     0.015 A 
ENDBRANCH  23  26
ENDBRANCH  19  22
ENDBRANCH  13  15
ENDBRANCH   7  11
TORSDOF 4
ENDMDL
