MODEL 8
REMARK VINA RESULT: -7.819900826      2.776      9.566
REMARK  4 active torsions:
REMARK  status: ('A' for Active; 'I' for Inactive)
REMARK    1  A    between atoms: C5_7  and  C6_8 
REMARK       I    between atoms: C6_8  and  N2_10 
REMARK    2  A    between atoms: N2_10  and  C7_12 
REMARK    3  A    between atoms: C10_17  and  N4_18 
REMARK       I    between atoms: N4_18  and  C11_20 
REMARK    4  A    between atoms: C11_20  and  C12_22 
ROOT
HETATM    1  N1  UNL     1      -3.966  -0.890 -16.244  1.00  0.00    -0.191 NA
HETATM    2  C1  UNL     1      -4.484  -1.912 -16.127  1.00  0.00     0.099 C 
HETATM    3  C2  UNL     1      -5.151  -3.194 -15.958  1.00  0.00     0.048 A 
HETATM    4  C3  UNL     1      -5.335  -4.043 -17.025  1.00  0.00     0.047 A 
HETATM    5  C4  UNL     1      -5.967  -5.250 -16.851  1.00  0.00     0.052 A 
HETATM    6 CL1  UNL     1      -6.176  -6.281 -18.243  1.00  0.00    -0.083 Cl
HETATM    7  C5  UNL     1      -6.454  -5.685 -15.608  1.00  0.00     0.075 A 
HETATM    8  C16 UNL     1      -6.264  -4.838 -14.566  1.00  0.00     0.052 A 
HETATM    9 CL2  UNL     1      -6.782  -5.290 -12.963  1.00  0.00    -0.083 Cl
HETATM   10  C17 UNL     1      -5.618  -3.602 -14.737  1.00  0.00     0.047 A 
ENDROOT
BRANCH   7  11
HETATM   11  C6  UNL     1      -7.073  -7.000 -15.575  1.00  0.00     0.259 C 
HETATM   12  O1  UNL     1      -6.288  -8.026 -15.474  1.00  0.00    -0.267 OA
HETATM   13  N2  UNL     1      -8.428  -7.316 -15.643  1.00  0.00    -0.323 N 
ATOM     14  H2  UNL     1      -9.082  -6.540 -15.741  1.00  0.00     0.169 HD
BRANCH  13  15
HETATM   15  C7  UNL     1      -8.981  -8.634 -15.587  1.00  0.00     0.039 A 
HETATM   16  C8  UNL     1      -9.450  -9.270 -14.478  1.00  0.00     0.046 A 
HETATM   17  C9  UNL     1      -9.946 -10.577 -14.552  1.00  0.00     0.092 A 
HETATM   18  N3  UNL     1      -9.954 -11.189 -15.720  1.00  0.00    -0.352 N 
HETATM   19  C10 UNL     1      -9.508 -10.640 -16.892  1.00  0.00     0.109 A 
ATOM     20  H3  UNL     1     -10.320 -12.140 -15.753  1.00  0.00     0.166 HD
HETATM   21  C15 UNL     1      -9.028  -9.366 -16.795  1.00  0.00     0.078 A 
BRANCH  19  22
HETATM   22  N4  UNL     1      -9.580 -11.423 -18.076  1.00  0.00    -0.313 N 
HETATM   23  C11 UNL     1      -8.581 -11.634 -19.019  1.00  0.00     0.227 C 
HETATM   24  O2  UNL     1      -7.466 -11.100 -18.869  1.00  0.00    -0.273 OA
ATOM     25  H4  UNL     1     -10.472 -11.885 -18.254  1.00  0.00     0.170 HD
BRANCH  23  26
HETATM   26  C12 UNL     1      -8.873 -12.511 -20.216  1.00  0.00     0.078 A 
HETATM   27  C13 UNL     1      -7.812 -13.405 -20.718  1.00  0.00     0.015 A 
HETATM   28  C14 UNL     1      -8.116 -12.128 -21.456  1.00  0.00     0.015 A 
ENDBRANCH  23  26
ENDBRANCH  19  22
ENDBRANCH  13  15
ENDBRANCH   7  11
TORSDOF 4
ENDMDL
