MODEL 1
REMARK VINA RESULT: -8.648310789      0.000      0.000
REMARK  4 active torsions:
REMARK  status: ('A' for Active; 'I' for Inactive)
REMARK    1  A    between atoms: C5_7  and  C6_8 
REMARK       I    between atoms: C6_8  and  N2_10 
REMARK    2  A    between atoms: N2_10  and  C7_12 
REMARK    3  A    between atoms: C10_17  and  N4_18 
REMARK       I    between atoms: N4_18  and  C11_20 
REMARK    4  A    between atoms: C11_20  and  C12_22 
ROOT
HETATM    1  N1  UNL     1     -10.691 -11.316 -15.379  1.00  0.00    -0.191 NA
HETATM    2  C1  UNL     1      -9.925 -10.460 -15.469  1.00  0.00     0.099 C 
HETATM    3  C2  UNL     1      -8.957  -9.378 -15.556  1.00  0.00     0.048 A 
HETATM    4  C3  UNL     1      -8.157  -9.231 -16.666  1.00  0.00     0.047 A 
HETATM    5  C4  UNL     1      -7.246  -8.205 -16.735  1.00  0.00     0.052 A 
HETATM    6 CL1  UNL     1      -6.255  -8.074 -18.165  1.00  0.00    -0.083 Cl
HETATM    7  C5  UNL     1      -7.076  -7.265 -15.706  1.00  0.00     0.075 A 
HETATM    8  C16 UNL     1      -7.873  -7.422 -14.620  1.00  0.00     0.052 A 
HETATM    9 CL2  UNL     1      -7.787  -6.287 -13.298  1.00  0.00    -0.083 Cl
HETATM   10  C17 UNL     1      -8.806  -8.469 -14.543  1.00  0.00     0.047 A 
ENDROOT
BRANCH   7  11
HETATM   11  C6  UNL     1      -6.094  -6.218 -15.936  1.00  0.00     0.259 C 
HETATM   12  O1  UNL     1      -4.899  -6.410 -15.472  1.00  0.00    -0.267 OA
HETATM   13  N2  UNL     1      -6.267  -5.006 -16.601  1.00  0.00    -0.323 N 
ATOM     14  H2  UNL     1      -7.196  -4.805 -16.968  1.00  0.00     0.169 HD
BRANCH  13  15
HETATM   15  C7  UNL     1      -5.252  -4.019 -16.813  1.00  0.00     0.039 A 
HETATM   16  C8  UNL     1      -4.281  -4.047 -17.767  1.00  0.00     0.046 A 
HETATM   17  C9  UNL     1      -3.327  -3.026 -17.855  1.00  0.00     0.092 A 
HETATM   18  N3  UNL     1      -3.383  -2.028 -16.995  1.00  0.00    -0.352 N 
HETATM   19  C10 UNL     1      -4.316  -1.906 -16.001  1.00  0.00     0.109 A 
ATOM     20  H3  UNL     1      -2.679  -1.295 -17.076  1.00  0.00     0.166 HD
HETATM   21  C15 UNL     1      -5.236  -2.912 -15.934  1.00  0.00     0.078 A 
BRANCH  19  22
HETATM   22  N4  UNL     1      -4.250  -0.771 -15.148  1.00  0.00    -0.313 N 
HETATM   23  C11 UNL     1      -3.119  -0.053 -14.773  1.00  0.00     0.227 C 
HETATM   24  O2  UNL     1      -2.000  -0.395 -15.200  1.00  0.00    -0.273 OA
ATOM     25  H4  UNL     1      -5.137  -0.444 -14.765  1.00  0.00     0.170 HD
BRANCH  23  26
HETATM   26  C12 UNL     1      -3.274   1.132 -13.848  1.00  0.00     0.078 A 
HETATM   27  C13 UNL     1      -2.860   2.466 -14.325  1.00  0.00     0.015 A 
HETATM   28  C14 UNL     1      -1.973   1.712 -13.370  1.00  0.00     0.015 A 
ENDBRANCH  23  26
ENDBRANCH  19  22
ENDBRANCH  13  15
ENDBRANCH   7  11
TORSDOF 4
ENDMDL
