MODEL 2
REMARK VINA RESULT: -8.503430865      0.326      1.814
REMARK  4 active torsions:
REMARK  status: ('A' for Active; 'I' for Inactive)
REMARK    1  A    between atoms: C5_7  and  C6_8 
REMARK       I    between atoms: C6_8  and  N2_10 
REMARK    2  A    between atoms: N2_10  and  C7_12 
REMARK    3  A    between atoms: C10_17  and  N4_18 
REMARK       I    between atoms: N4_18  and  C11_20 
REMARK    4  A    between atoms: C11_20  and  C12_22 
ROOT
HETATM    1  N1  UNL     1     -10.709 -11.196 -15.123  1.00  0.00    -0.191 NA
HETATM    2  C1  UNL     1      -9.920 -10.382 -15.332  1.00  0.00     0.099 C 
HETATM    3  C2  UNL     1      -8.927  -9.360 -15.623  1.00  0.00     0.048 A 
HETATM    4  C3  UNL     1      -8.699  -8.324 -14.746  1.00  0.00     0.047 A 
HETATM    5  C4  UNL     1      -7.759  -7.364 -15.033  1.00  0.00     0.052 A 
HETATM    6 CL1  UNL     1      -7.519  -6.073 -13.886  1.00  0.00    -0.083 Cl
HETATM    7  C5  UNL     1      -6.990  -7.378 -16.208  1.00  0.00     0.075 A 
HETATM    8  C16 UNL     1      -7.225  -8.405 -17.061  1.00  0.00     0.052 A 
HETATM    9 CL2  UNL     1      -6.296  -8.555 -18.530  1.00  0.00    -0.083 Cl
HETATM   10  C17 UNL     1      -8.185  -9.389 -16.773  1.00  0.00     0.047 A 
ENDROOT
BRANCH   7  11
HETATM   11  C6  UNL     1      -6.013  -6.312 -16.358  1.00  0.00     0.259 C 
HETATM   12  O1  UNL     1      -4.830  -6.515 -15.870  1.00  0.00    -0.267 OA
HETATM   13  N2  UNL     1      -6.179  -5.070 -16.967  1.00  0.00    -0.323 N 
ATOM     14  H2  UNL     1      -7.101  -4.860 -17.350  1.00  0.00     0.169 HD
BRANCH  13  15
HETATM   15  C7  UNL     1      -5.170  -4.064 -17.100  1.00  0.00     0.039 A 
HETATM   16  C8  UNL     1      -4.155  -4.050 -18.008  1.00  0.00     0.046 A 
HETATM   17  C9  UNL     1      -3.212  -3.015 -18.019  1.00  0.00     0.092 A 
HETATM   18  N3  UNL     1      -3.323  -2.045 -17.132  1.00  0.00    -0.352 N 
HETATM   19  C10 UNL     1      -4.304  -1.965 -16.181  1.00  0.00     0.109 A 
ATOM     20  H3  UNL     1      -2.626  -1.300 -17.157  1.00  0.00     0.166 HD
HETATM   21  C15 UNL     1      -5.211  -2.985 -16.189  1.00  0.00     0.078 A 
BRANCH  19  22
HETATM   22  N4  UNL     1      -4.293  -0.857 -15.292  1.00  0.00    -0.313 N 
HETATM   23  C11 UNL     1      -3.194  -0.127 -14.853  1.00  0.00     0.227 C 
HETATM   24  O2  UNL     1      -2.053  -0.431 -15.249  1.00  0.00    -0.273 OA
ATOM     25  H4  UNL     1      -5.201  -0.561 -14.932  1.00  0.00     0.170 HD
BRANCH  23  26
HETATM   26  C12 UNL     1      -3.409   1.025 -13.899  1.00  0.00     0.078 A 
HETATM   27  C13 UNL     1      -3.019   2.384 -14.324  1.00  0.00     0.015 A 
HETATM   28  C14 UNL     1      -2.139   1.626 -13.366  1.00  0.00     0.015 A 
ENDBRANCH  23  26
ENDBRANCH  19  22
ENDBRANCH  13  15
ENDBRANCH   7  11
TORSDOF 4
ENDMDL
