MODEL 3
REMARK VINA RESULT: -8.009497004      1.110      1.250
REMARK  4 active torsions:
REMARK  status: ('A' for Active; 'I' for Inactive)
REMARK       I    between atoms: C1_2  and  N1_3 
REMARK    1  A    between atoms: C1_2  and  C11_20 
REMARK    2  A    between atoms: N1_3  and  C2_5 
REMARK    3  A    between atoms: C5_10  and  N3_11 
REMARK       I    between atoms: N3_11  and  C6_13 
REMARK    4  A    between atoms: C6_13  and  C7_15 
ROOT
HETATM    1  C2  UNL     1      -6.310  -5.756 -16.739  1.00  0.00     0.039 A 
HETATM    2  C3  UNL     1      -6.134  -4.914 -15.626  1.00  0.00     0.046 A 
HETATM    3  C4  UNL     1      -5.127  -3.989 -15.702  1.00  0.00     0.092 A 
HETATM    4  N2  UNL     1      -4.335  -3.876 -16.782  1.00  0.00    -0.352 N 
ATOM      5  H2  UNL     1      -3.603  -3.165 -16.774  1.00  0.00     0.166 HD
HETATM    6  C5  UNL     1      -4.457  -4.648 -17.863  1.00  0.00     0.109 A 
HETATM    7  C10 UNL     1      -5.476  -5.608 -17.822  1.00  0.00     0.078 A 
ENDROOT
BRANCH   1   8
HETATM    8  N1  UNL     1      -7.345  -6.725 -16.634  1.00  0.00    -0.323 N 
HETATM    9  C1  UNL     1      -7.218  -8.057 -16.219  1.00  0.00     0.259 C 
HETATM   10  O1  UNL     1      -6.015  -8.418 -15.926  1.00  0.00    -0.267 OA
ATOM     11  H1  UNL     1      -8.284  -6.416 -16.888  1.00  0.00     0.169 HD
BRANCH   9  12
HETATM   12  C11 UNL     1      -8.263  -9.059 -16.089  1.00  0.00     0.075 A 
HETATM   13  C12 UNL     1      -9.066  -9.288 -15.017  1.00  0.00     0.051 A 
HETATM   14 CL1  UNL     1      -8.811  -8.389 -13.537  1.00  0.00    -0.083 Cl
HETATM   15  C13 UNL     1     -10.084 -10.256 -15.023  1.00  0.00     0.025 A 
HETATM   16  C14 UNL     1     -10.315 -11.026 -16.129  1.00  0.00     0.003 A 
HETATM   17  C15 UNL     1      -9.506 -10.802 -17.218  1.00  0.00     0.025 A 
HETATM   18  C16 UNL     1      -8.508  -9.857 -17.220  1.00  0.00     0.051 A 
HETATM   19 CL2  UNL     1      -7.519  -9.632 -18.661  1.00  0.00    -0.083 Cl
ENDBRANCH   9  12
ENDBRANCH   1   8
BRANCH   6  20
HETATM   20  N3  UNL     1      -3.633  -4.552 -19.020  1.00  0.00    -0.313 N 
HETATM   21  C6  UNL     1      -2.256  -4.852 -19.008  1.00  0.00     0.230 C 
HETATM   22  O2  UNL     1      -1.740  -5.219 -17.925  1.00  0.00    -0.273 OA
ATOM     23  H3  UNL     1      -4.059  -4.253 -19.897  1.00  0.00     0.170 HD
BRANCH  21  24
HETATM   24  C7  UNL     1      -1.393  -4.750 -20.231  1.00  0.00     0.115 A 
HETATM   25  C8  UNL     1      -1.646  -3.710 -21.243  1.00  0.00     0.055 A 
HETATM   26  C9  UNL     1      -0.542  -3.472 -20.231  1.00  0.00     0.184 A 
HETATM   27  F1  UNL     1      -0.752  -2.539 -19.263  1.00  0.00    -0.248 F 
ENDBRANCH  21  24
ENDBRANCH   6  20
TORSDOF 4
ENDMDL
