MODEL 2
REMARK VINA RESULT: -8.097146879      0.216      1.834
REMARK  4 active torsions:
REMARK  status: ('A' for Active; 'I' for Inactive)
REMARK       I    between atoms: C1_2  and  N1_3 
REMARK    1  A    between atoms: C1_2  and  C11_20 
REMARK    2  A    between atoms: N1_3  and  C2_5 
REMARK    3  A    between atoms: C5_10  and  N3_11 
REMARK       I    between atoms: N3_11  and  C6_13 
REMARK    4  A    between atoms: C6_13  and  C7_15 
ROOT
HETATM    1  C2  UNL     1      -6.412  -5.857 -16.640  1.00  0.00     0.039 A 
HETATM    2  C3  UNL     1      -6.120  -5.204 -15.430  1.00  0.00     0.046 A 
HETATM    3  C4  UNL     1      -5.093  -4.297 -15.447  1.00  0.00     0.092 A 
HETATM    4  N2  UNL     1      -4.388  -4.031 -16.560  1.00  0.00    -0.352 N 
ATOM      5  H2  UNL     1      -3.636  -3.343 -16.505  1.00  0.00     0.166 HD
HETATM    6  C5  UNL     1      -4.623  -4.621 -17.733  1.00  0.00     0.109 A 
HETATM    7  C10 UNL     1      -5.665  -5.556 -17.755  1.00  0.00     0.078 A 
ENDROOT
BRANCH   1   8
HETATM    8  N1  UNL     1      -7.466  -6.810 -16.598  1.00  0.00    -0.323 N 
HETATM    9  C1  UNL     1      -7.359  -8.175 -16.300  1.00  0.00     0.259 C 
HETATM   10  O1  UNL     1      -6.160  -8.583 -16.061  1.00  0.00    -0.267 OA
ATOM     11  H1  UNL     1      -8.402  -6.463 -16.808  1.00  0.00     0.169 HD
BRANCH   9  12
HETATM   12  C11 UNL     1      -8.424  -9.164 -16.235  1.00  0.00     0.075 A 
HETATM   13  C12 UNL     1      -8.831 -10.013 -17.215  1.00  0.00     0.051 A 
HETATM   14 CL1  UNL     1      -8.118  -9.899 -18.809  1.00  0.00    -0.083 Cl
HETATM   15  C13 UNL     1      -9.842 -10.968 -17.021  1.00  0.00     0.025 A 
HETATM   16  C14 UNL     1     -10.474 -11.087 -15.814  1.00  0.00     0.003 A 
HETATM   17  C15 UNL     1     -10.069 -10.231 -14.818  1.00  0.00     0.025 A 
HETATM   18  C16 UNL     1      -9.081  -9.294 -14.999  1.00  0.00     0.051 A 
HETATM   19 CL2  UNL     1      -8.619  -8.238 -13.665  1.00  0.00    -0.083 Cl
ENDBRANCH   9  12
ENDBRANCH   1   8
BRANCH   6  20
HETATM   20  N3  UNL     1      -3.894  -4.360 -18.928  1.00  0.00    -0.313 N 
HETATM   21  C6  UNL     1      -2.524  -4.657 -19.070  1.00  0.00     0.230 C 
HETATM   22  O2  UNL     1      -1.926  -5.174 -18.096  1.00  0.00    -0.273 OA
ATOM     23  H3  UNL     1      -4.385  -3.939 -19.716  1.00  0.00     0.170 HD
BRANCH  21  24
HETATM   24  C7  UNL     1      -1.761  -4.380 -20.332  1.00  0.00     0.115 A 
HETATM   25  C8  UNL     1      -0.689  -5.288 -20.776  1.00  0.00     0.055 A 
HETATM   26  C9  UNL     1      -2.054  -5.418 -21.425  1.00  0.00     0.184 A 
HETATM   27  F1  UNL     1      -2.809  -6.507 -21.116  1.00  0.00    -0.248 F 
ENDBRANCH  21  24
ENDBRANCH   6  20
TORSDOF 4
ENDMDL
