MODEL 1
REMARK VINA RESULT: -8.136957071      0.000      0.000
REMARK  4 active torsions:
REMARK  status: ('A' for Active; 'I' for Inactive)
REMARK       I    between atoms: C1_2  and  N1_3 
REMARK    1  A    between atoms: C1_2  and  C11_20 
REMARK    2  A    between atoms: N1_3  and  C2_5 
REMARK    3  A    between atoms: C5_10  and  N3_11 
REMARK       I    between atoms: N3_11  and  C6_13 
REMARK    4  A    between atoms: C6_13  and  C7_15 
ROOT
HETATM    1  C2  UNL     1      -6.427  -5.798 -16.553  1.00  0.00     0.039 A 
HETATM    2  C3  UNL     1      -6.152  -5.081 -15.375  1.00  0.00     0.046 A 
HETATM    3  C4  UNL     1      -5.142  -4.157 -15.433  1.00  0.00     0.092 A 
HETATM    4  N2  UNL     1      -4.437  -3.933 -16.556  1.00  0.00    -0.352 N 
ATOM      5  H2  UNL     1      -3.698  -3.230 -16.532  1.00  0.00     0.166 HD
HETATM    6  C5  UNL     1      -4.656  -4.584 -17.699  1.00  0.00     0.109 A 
HETATM    7  C10 UNL     1      -5.681  -5.538 -17.678  1.00  0.00     0.078 A 
ENDROOT
BRANCH   1   8
HETATM    8  N1  UNL     1      -7.463  -6.767 -16.468  1.00  0.00    -0.323 N 
HETATM    9  C1  UNL     1      -7.324  -8.129 -16.168  1.00  0.00     0.259 C 
HETATM   10  O1  UNL     1      -6.111  -8.517 -15.973  1.00  0.00    -0.267 OA
ATOM     11  H1  UNL     1      -8.412  -6.435 -16.644  1.00  0.00     0.169 HD
BRANCH   9  12
HETATM   12  C11 UNL     1      -8.370  -9.134 -16.059  1.00  0.00     0.075 A 
HETATM   13  C12 UNL     1      -9.156  -9.403 -14.985  1.00  0.00     0.051 A 
HETATM   14 CL1  UNL     1      -8.877  -8.561 -13.477  1.00  0.00    -0.083 Cl
HETATM   15  C13 UNL     1     -10.176 -10.368 -15.012  1.00  0.00     0.025 A 
HETATM   16  C14 UNL     1     -10.426 -11.096 -16.143  1.00  0.00     0.003 A 
HETATM   17  C15 UNL     1      -9.633 -10.831 -17.235  1.00  0.00     0.025 A 
HETATM   18  C16 UNL     1      -8.633  -9.888 -17.217  1.00  0.00     0.051 A 
HETATM   19 CL2  UNL     1      -7.666  -9.609 -18.663  1.00  0.00    -0.083 Cl
ENDBRANCH   9  12
ENDBRANCH   1   8
BRANCH   6  20
HETATM   20  N3  UNL     1      -3.926  -4.369 -18.903  1.00  0.00    -0.313 N 
HETATM   21  C6  UNL     1      -2.565  -4.703 -19.044  1.00  0.00     0.230 C 
HETATM   22  O2  UNL     1      -1.974  -5.211 -18.061  1.00  0.00    -0.273 OA
ATOM     23  H3  UNL     1      -4.411  -3.955 -19.698  1.00  0.00     0.170 HD
BRANCH  21  24
HETATM   24  C7  UNL     1      -1.801  -4.473 -20.315  1.00  0.00     0.115 A 
HETATM   25  C8  UNL     1      -0.746  -5.411 -20.737  1.00  0.00     0.055 A 
HETATM   26  C9  UNL     1      -2.116  -5.536 -21.378  1.00  0.00     0.184 A 
HETATM   27  F1  UNL     1      -2.887  -6.603 -21.036  1.00  0.00    -0.248 F 
ENDBRANCH  21  24
ENDBRANCH   6  20
TORSDOF 4
ENDMDL
