MODEL 4
REMARK VINA RESULT: -8.588293984      6.674     10.376
REMARK  4 active torsions:
REMARK  status: ('A' for Active; 'I' for Inactive)
REMARK    1  A    between atoms: C5_7  and  C6_8 
REMARK       I    between atoms: C6_8  and  N2_10 
REMARK    2  A    between atoms: N2_10  and  C7_12 
REMARK    3  A    between atoms: C10_17  and  N4_18 
REMARK       I    between atoms: N4_18  and  C11_20 
REMARK    4  A    between atoms: C11_20  and  C12_22 
ROOT
HETATM    1  N1  UNL     1      -7.846  -6.390 -12.124  1.00  0.00    -0.191 NA
HETATM    2  C1  UNL     1      -7.944  -6.995 -13.089  1.00  0.00     0.099 C 
HETATM    3  C2  UNL     1      -8.047  -7.749 -14.314  1.00  0.00     0.048 A 
HETATM    4  C3  UNL     1      -8.764  -8.921 -14.376  1.00  0.00     0.047 A 
HETATM    5  C4  UNL     1      -8.849  -9.621 -15.548  1.00  0.00     0.052 A 
HETATM    6 CL1  UNL     1      -9.762 -11.109 -15.597  1.00  0.00    -0.083 Cl
HETATM    7  C5  UNL     1      -8.234  -9.219 -16.744  1.00  0.00     0.075 A 
HETATM    8  C16 UNL     1      -7.528  -8.049 -16.658  1.00  0.00     0.052 A 
HETATM    9 CL2  UNL     1      -6.725  -7.336 -18.021  1.00  0.00    -0.083 Cl
HETATM   10  C17 UNL     1      -7.433  -7.321 -15.462  1.00  0.00     0.047 A 
ENDROOT
BRANCH   7  11
HETATM   11  C6  UNL     1      -8.410 -10.017 -17.945  1.00  0.00     0.259 C 
HETATM   12  O1  UNL     1      -9.595 -10.059 -18.435  1.00  0.00    -0.267 OA
HETATM   13  N2  UNL     1      -7.448 -10.761 -18.646  1.00  0.00    -0.323 N 
ATOM     14  H2  UNL     1      -6.500 -10.761 -18.271  1.00  0.00     0.169 HD
BRANCH  13  15
HETATM   15  C7  UNL     1      -7.671 -11.509 -19.820  1.00  0.00     0.039 A 
HETATM   16  C8  UNL     1      -8.355 -12.708 -19.709  1.00  0.00     0.046 A 
HETATM   17  C9  UNL     1      -8.598 -13.515 -20.800  1.00  0.00     0.092 A 
HETATM   18  N3  UNL     1      -8.147 -13.101 -21.985  1.00  0.00    -0.352 N 
HETATM   19  C10 UNL     1      -7.479 -11.960 -22.178  1.00  0.00     0.109 A 
ATOM     20  H3  UNL     1      -8.325 -13.693 -22.797  1.00  0.00     0.166 HD
HETATM   21  C15 UNL     1      -7.240 -11.148 -21.052  1.00  0.00     0.078 A 
BRANCH  19  22
HETATM   22  N4  UNL     1      -7.020 -11.563 -23.464  1.00  0.00    -0.313 N 
HETATM   23  C11 UNL     1      -7.755 -11.973 -24.603  1.00  0.00     0.230 C 
HETATM   24  O2  UNL     1      -8.793 -12.678 -24.439  1.00  0.00    -0.273 OA
ATOM     25  H4  UNL     1      -6.179 -10.995 -23.564  1.00  0.00     0.170 HD
BRANCH  23  26
HETATM   26  C12 UNL     1      -7.368 -11.617 -25.994  1.00  0.00     0.115 A 
HETATM   27  C13 UNL     1      -8.461 -11.695 -27.028  1.00  0.00     0.055 A 
HETATM   28  C14 UNL     1      -8.006 -10.338 -26.522  1.00  0.00     0.184 A 
HETATM   29  F1  UNL     1      -8.817  -9.643 -25.674  1.00  0.00    -0.248 F 
ENDBRANCH  23  26
ENDBRANCH  19  22
ENDBRANCH  13  15
ENDBRANCH   7  11
TORSDOF 4
ENDMDL
