MODEL 2
REMARK VINA RESULT: -8.817480602      0.239      1.770
REMARK  4 active torsions:
REMARK  status: ('A' for Active; 'I' for Inactive)
REMARK    1  A    between atoms: C5_7  and  C6_8 
REMARK       I    between atoms: C6_8  and  N2_10 
REMARK    2  A    between atoms: N2_10  and  C7_12 
REMARK    3  A    between atoms: C10_17  and  N4_18 
REMARK       I    between atoms: N4_18  and  C11_20 
REMARK    4  A    between atoms: C11_20  and  C12_22 
ROOT
HETATM    1  N1  UNL     1     -10.576 -11.592 -15.616  1.00  0.00    -0.191 NA
HETATM    2  C1  UNL     1      -9.811 -10.752 -15.745  1.00  0.00     0.099 C 
HETATM    3  C2  UNL     1      -8.848  -9.696 -15.932  1.00  0.00     0.048 A 
HETATM    4  C3  UNL     1      -8.704  -8.686 -15.010  1.00  0.00     0.047 A 
HETATM    5  C4  UNL     1      -7.783  -7.693 -15.206  1.00  0.00     0.052 A 
HETATM    6 CL1  UNL     1      -7.624  -6.420 -14.021  1.00  0.00    -0.083 Cl
HETATM    7  C5  UNL     1      -6.938  -7.621 -16.325  1.00  0.00     0.075 A 
HETATM    8  C16 UNL     1      -7.099  -8.638 -17.228  1.00  0.00     0.052 A 
HETATM    9 CL2  UNL     1      -6.132  -8.781 -18.662  1.00  0.00    -0.083 Cl
HETATM   10  C17 UNL     1      -8.039  -9.663 -17.039  1.00  0.00     0.047 A 
ENDROOT
BRANCH   7  11
HETATM   11  C6  UNL     1      -5.972  -6.542 -16.426  1.00  0.00     0.259 C 
HETATM   12  O1  UNL     1      -4.860  -6.710 -15.809  1.00  0.00    -0.267 OA
HETATM   13  N2  UNL     1      -6.094  -5.323 -17.113  1.00  0.00    -0.323 N 
ATOM     14  H2  UNL     1      -6.974  -5.153 -17.599  1.00  0.00     0.169 HD
BRANCH  13  15
HETATM   15  C7  UNL     1      -5.115  -4.313 -17.191  1.00  0.00     0.039 A 
HETATM   16  C8  UNL     1      -4.071  -4.486 -18.084  1.00  0.00     0.046 A 
HETATM   17  C9  UNL     1      -3.057  -3.561 -18.212  1.00  0.00     0.092 A 
HETATM   18  N3  UNL     1      -3.111  -2.476 -17.437  1.00  0.00    -0.352 N 
HETATM   19  C10 UNL     1      -4.080  -2.233 -16.551  1.00  0.00     0.109 A 
ATOM     20  H3  UNL     1      -2.364  -1.787 -17.528  1.00  0.00     0.166 HD
HETATM   21  C15 UNL     1      -5.109  -3.191 -16.434  1.00  0.00     0.078 A 
BRANCH  19  22
HETATM   22  N4  UNL     1      -4.093  -1.060 -15.748  1.00  0.00    -0.313 N 
HETATM   23  C11 UNL     1      -3.015  -0.149 -15.862  1.00  0.00     0.230 C 
HETATM   24  O2  UNL     1      -2.079  -0.409 -16.673  1.00  0.00    -0.273 OA
ATOM     25  H4  UNL     1      -4.862  -0.879 -15.103  1.00  0.00     0.170 HD
BRANCH  23  26
HETATM   26  C12 UNL     1      -2.923   1.107 -15.073  1.00  0.00     0.115 A 
HETATM   27  C13 UNL     1      -1.956   2.144 -15.584  1.00  0.00     0.055 A 
HETATM   28  C14 UNL     1      -3.447   2.347 -15.789  1.00  0.00     0.184 A 
HETATM   29  F1  UNL     1      -3.971   2.177 -17.036  1.00  0.00    -0.248 F 
ENDBRANCH  23  26
ENDBRANCH  19  22
ENDBRANCH  13  15
ENDBRANCH   7  11
TORSDOF 4
ENDMDL
