MODEL 1
REMARK VINA RESULT: -8.991682599      0.000      0.000
REMARK  4 active torsions:
REMARK  status: ('A' for Active; 'I' for Inactive)
REMARK    1  A    between atoms: C5_7  and  C6_8 
REMARK       I    between atoms: C6_8  and  N2_10 
REMARK    2  A    between atoms: N2_10  and  C7_12 
REMARK    3  A    between atoms: C10_17  and  N4_18 
REMARK       I    between atoms: N4_18  and  C11_20 
REMARK    4  A    between atoms: C11_20  and  C12_22 
ROOT
HETATM    1  N1  UNL     1     -10.572 -11.688 -15.622  1.00  0.00    -0.191 NA
HETATM    2  C1  UNL     1      -9.821 -10.832 -15.716  1.00  0.00     0.099 C 
HETATM    3  C2  UNL     1      -8.873  -9.750 -15.811  1.00  0.00     0.048 A 
HETATM    4  C3  UNL     1      -8.069  -9.598 -16.916  1.00  0.00     0.047 A 
HETATM    5  C4  UNL     1      -7.174  -8.565 -16.986  1.00  0.00     0.052 A 
HETATM    6 CL1  UNL     1      -6.162  -8.397 -18.400  1.00  0.00    -0.083 Cl
HETATM    7  C5  UNL     1      -7.007  -7.607 -15.974  1.00  0.00     0.075 A 
HETATM    8  C16 UNL     1      -7.819  -7.779 -14.886  1.00  0.00     0.052 A 
HETATM    9 CL2  UNL     1      -7.818  -6.690 -13.534  1.00  0.00    -0.083 Cl
HETATM   10  C17 UNL     1      -8.740  -8.834 -14.800  1.00  0.00     0.047 A 
ENDROOT
BRANCH   7  11
HETATM   11  C6  UNL     1      -6.051  -6.529 -16.158  1.00  0.00     0.259 C 
HETATM   12  O1  UNL     1      -4.902  -6.685 -15.609  1.00  0.00    -0.267 OA
HETATM   13  N2  UNL     1      -6.218  -5.324 -16.858  1.00  0.00    -0.323 N 
ATOM     14  H2  UNL     1      -7.128  -5.164 -17.291  1.00  0.00     0.169 HD
BRANCH  13  15
HETATM   15  C7  UNL     1      -5.247  -4.315 -17.019  1.00  0.00     0.039 A 
HETATM   16  C8  UNL     1      -4.285  -4.488 -18.000  1.00  0.00     0.046 A 
HETATM   17  C9  UNL     1      -3.285  -3.564 -18.213  1.00  0.00     0.092 A 
HETATM   18  N3  UNL     1      -3.270  -2.481 -17.434  1.00  0.00    -0.352 N 
HETATM   19  C10 UNL     1      -4.158  -2.239 -16.467  1.00  0.00     0.109 A 
ATOM     20  H3  UNL     1      -2.532  -1.793 -17.587  1.00  0.00     0.166 HD
HETATM   21  C15 UNL     1      -5.174  -3.195 -16.263  1.00  0.00     0.078 A 
BRANCH  19  22
HETATM   22  N4  UNL     1      -4.099  -1.067 -15.663  1.00  0.00    -0.313 N 
HETATM   23  C11 UNL     1      -2.995  -0.195 -15.818  1.00  0.00     0.230 C 
HETATM   24  O2  UNL     1      -2.100  -0.485 -16.664  1.00  0.00    -0.273 OA
ATOM     25  H4  UNL     1      -4.836  -0.861 -14.989  1.00  0.00     0.170 HD
BRANCH  23  26
HETATM   26  C12 UNL     1      -2.830   1.057 -15.032  1.00  0.00     0.115 A 
HETATM   27  C13 UNL     1      -1.875   2.076 -15.599  1.00  0.00     0.055 A 
HETATM   28  C14 UNL     1      -3.371   2.309 -15.711  1.00  0.00     0.184 A 
HETATM   29  F1  UNL     1      -3.975   2.155 -16.923  1.00  0.00    -0.248 F 
ENDBRANCH  23  26
ENDBRANCH  19  22
ENDBRANCH  13  15
ENDBRANCH   7  11
TORSDOF 4
ENDMDL
