MODEL 3
REMARK VINA RESULT: -9.197624482      0.461      1.029
REMARK  2 active torsions:
REMARK  status: ('A' for Active; 'I' for Inactive)
REMARK    1  A    between atoms: C2_2  and  N1_5 
REMARK    2  A    between atoms: C5_8  and  C6_9 
ROOT
HETATM    1  N1  UNL     1      84.040  44.652 -35.033  1.00  0.00    -0.266 N 
HETATM    2  N2  UNL     1      83.167  45.330 -35.714  1.00  0.00    -0.294 N 
ATOM      3  H2  UNL     1      83.090  45.300 -36.732  1.00  0.00     0.187 HD
HETATM    4  C5  UNL     1      82.391  46.061 -34.939  1.00  0.00     0.076 A 
HETATM    5  C16 UNL     1      82.816  45.822 -33.653  1.00  0.00     0.080 A 
HETATM    6  C17 UNL     1      82.413  46.308 -32.401  1.00  0.00     0.133 A 
HETATM    7  N3  UNL     1      81.313  47.193 -32.358  1.00  0.00    -0.082 NA
HETATM    8  N4  UNL     1      83.071  45.883 -31.323  1.00  0.00    -0.340 N 
ATOM      9  H4  UNL     1      82.777  46.238 -30.413  1.00  0.00     0.167 HD
HETATM   10  C18 UNL     1      84.092  45.022 -31.358  1.00  0.00     0.183 A 
HETATM   11  N5  UNL     1      84.488  44.539 -32.588  1.00  0.00    -0.337 N 
ATOM     12  H5  UNL     1      85.264  43.879 -32.644  1.00  0.00     0.168 HD
HETATM   13  C19 UNL     1      83.871  44.925 -33.705  1.00  0.00     0.140 A 
ENDROOT
BRANCH   4  14
HETATM   14  C6  UNL     1      81.341  47.019 -35.247  1.00  0.00     0.004 A 
HETATM   15  C7  UNL     1      80.058  46.830 -34.820  1.00  0.00     0.014 A 
HETATM   16  C8  UNL     1      79.070  47.753 -35.182  1.00  0.00     0.002 A 
HETATM   17  C9  UNL     1      79.447  48.830 -35.967  1.00  0.00     0.012 A 
HETATM   18  C10 UNL     1      80.750  48.998 -36.382  1.00  0.00    -0.025 A 
HETATM   19  C11 UNL     1      81.077  50.106 -37.140  1.00  0.00     0.012 A 
HETATM   20  C15 UNL     1      81.736  48.099 -36.036  1.00  0.00    -0.013 A 
HETATM   21  C12 UNL     1      82.391  50.348 -37.567  1.00  0.00     0.001 A 
HETATM   22  C13 UNL     1      83.348  49.423 -37.198  1.00  0.00     0.001 A 
HETATM   23  C14 UNL     1      83.036  48.311 -36.444  1.00  0.00     0.013 A 
ENDBRANCH   4  14
BRANCH   1  24
HETATM   24  C2  UNL     1      85.022  43.728 -35.526  1.00  0.00     0.044 C 
HETATM   25  C1  UNL     1      85.195  42.641 -34.499  1.00  0.00     0.039 C 
HETATM   26  C3  UNL     1      86.392  44.400 -35.648  1.00  0.00     0.039 C 
HETATM   27  C4  UNL     1      84.669  43.109 -36.856  1.00  0.00     0.039 C 
ENDBRANCH   1  24
TORSDOF 2
ENDMDL
