MODEL 18
REMARK VINA RESULT: -8.252268476      2.341      6.502
REMARK  2 active torsions:
REMARK  status: ('A' for Active; 'I' for Inactive)
REMARK    1  A    between atoms: C2_2  and  N1_5 
REMARK    2  A    between atoms: C5_8  and  C6_9 
ROOT
HETATM    1  N1  UNL     1      81.147  48.514 -34.977  1.00  0.00    -0.266 N 
HETATM    2  N2  UNL     1      81.772  47.442 -34.594  1.00  0.00    -0.294 N 
ATOM      3  H2  UNL     1      81.477  46.859 -33.810  1.00  0.00     0.187 HD
HETATM    4  C5  UNL     1      82.833  47.194 -35.337  1.00  0.00     0.076 A 
HETATM    5  C16 UNL     1      82.879  48.203 -36.271  1.00  0.00     0.080 A 
HETATM    6  C17 UNL     1      83.765  48.508 -37.314  1.00  0.00     0.133 A 
HETATM    7  N3  UNL     1      84.832  47.617 -37.556  1.00  0.00    -0.082 NA
HETATM    8  N4  UNL     1      83.531  49.606 -38.033  1.00  0.00    -0.340 N 
ATOM      9  H4  UNL     1      84.178  49.827 -38.790  1.00  0.00     0.167 HD
HETATM   10  C18 UNL     1      82.505  50.435 -37.825  1.00  0.00     0.183 A 
HETATM   11  N5  UNL     1      81.628  50.135 -36.802  1.00  0.00    -0.337 N 
ATOM     12  H5  UNL     1      80.834  50.749 -36.622  1.00  0.00     0.168 HD
HETATM   13  C19 UNL     1      81.807  49.051 -36.045  1.00  0.00     0.140 A 
ENDROOT
BRANCH   4  14
HETATM   14  C6  UNL     1      83.861  46.169 -35.246  1.00  0.00     0.004 A 
HETATM   15  C7  UNL     1      85.180  46.496 -35.113  1.00  0.00     0.014 A 
HETATM   16  C8  UNL     1      86.139  45.477 -35.078  1.00  0.00     0.002 A 
HETATM   17  C9  UNL     1      85.697  44.168 -35.180  1.00  0.00     0.012 A 
HETATM   18  C10 UNL     1      84.359  43.868 -35.310  1.00  0.00    -0.025 A 
HETATM   19  C11 UNL     1      83.971  42.543 -35.378  1.00  0.00     0.012 A 
HETATM   20  C15 UNL     1      83.401  44.858 -35.347  1.00  0.00    -0.013 A 
HETATM   21  C12 UNL     1      82.622  42.173 -35.481  1.00  0.00     0.001 A 
HETATM   22  C13 UNL     1      81.694  43.195 -35.515  1.00  0.00     0.001 A 
HETATM   23  C14 UNL     1      82.067  44.522 -35.450  1.00  0.00     0.013 A 
ENDBRANCH   4  14
BRANCH   1  24
HETATM   24  C2  UNL     1      79.942  49.075 -34.434  1.00  0.00     0.044 C 
HETATM   25  C1  UNL     1      79.552  48.263 -33.227  1.00  0.00     0.039 C 
HETATM   26  C3  UNL     1      78.780  48.931 -35.420  1.00  0.00     0.039 C 
HETATM   27  C4  UNL     1      80.063  50.528 -34.043  1.00  0.00     0.039 C 
ENDBRANCH   1  24
TORSDOF 2
ENDMDL
