MODEL 1
REMARK VINA RESULT: -9.896143412      0.000      0.000
REMARK  2 active torsions:
REMARK  status: ('A' for Active; 'I' for Inactive)
REMARK    1  A    between atoms: C2_2  and  N1_5 
REMARK    2  A    between atoms: C5_8  and  C6_9 
ROOT
HETATM    1  N1  UNL     1      83.605  44.396 -34.965  1.00  0.00    -0.266 N 
HETATM    2  N2  UNL     1      82.715  45.088 -35.610  1.00  0.00    -0.294 N 
ATOM      3  H2  UNL     1      82.511  44.969 -36.603  1.00  0.00     0.187 HD
HETATM    4  C5  UNL     1      82.107  45.963 -34.833  1.00  0.00     0.076 A 
HETATM    5  C16 UNL     1      82.666  45.806 -33.586  1.00  0.00     0.080 A 
HETATM    6  C17 UNL     1      82.464  46.447 -32.355  1.00  0.00     0.133 A 
HETATM    7  N3  UNL     1      81.459  47.435 -32.282  1.00  0.00    -0.082 NA
HETATM    8  N4  UNL     1      83.212  46.063 -31.320  1.00  0.00    -0.340 N 
ATOM      9  H4  UNL     1      83.064  46.531 -30.426  1.00  0.00     0.167 HD
HETATM   10  C18 UNL     1      84.142  45.107 -31.380  1.00  0.00     0.183 A 
HETATM   11  N5  UNL     1      84.340  44.472 -32.589  1.00  0.00    -0.337 N 
ATOM     12  H5  UNL     1      85.043  43.737 -32.663  1.00  0.00     0.168 HD
HETATM   13  C19 UNL     1      83.625  44.809 -33.663  1.00  0.00     0.140 A 
ENDROOT
BRANCH   4  14
HETATM   14  C6  UNL     1      81.114  46.985 -35.120  1.00  0.00     0.004 A 
HETATM   15  C7  UNL     1      79.823  46.862 -34.691  1.00  0.00     0.014 A 
HETATM   16  C8  UNL     1      78.889  47.848 -35.033  1.00  0.00     0.002 A 
HETATM   17  C9  UNL     1      79.326  48.916 -35.798  1.00  0.00     0.012 A 
HETATM   18  C10 UNL     1      80.636  49.016 -36.214  1.00  0.00    -0.025 A 
HETATM   19  C11 UNL     1      81.024  50.118 -36.953  1.00  0.00     0.012 A 
HETATM   20  C15 UNL     1      81.568  48.055 -35.889  1.00  0.00    -0.013 A 
HETATM   21  C12 UNL     1      82.349  50.291 -37.380  1.00  0.00     0.001 A 
HETATM   22  C13 UNL     1      83.252  49.306 -37.032  1.00  0.00     0.001 A 
HETATM   23  C14 UNL     1      82.878  48.199 -36.298  1.00  0.00     0.013 A 
ENDBRANCH   4  14
BRANCH   1  24
HETATM   24  C2  UNL     1      84.435  43.337 -35.466  1.00  0.00     0.044 C 
HETATM   25  C1  UNL     1      84.141  43.169 -36.933  1.00  0.00     0.039 C 
HETATM   26  C3  UNL     1      84.067  42.001 -34.817  1.00  0.00     0.039 C 
HETATM   27  C4  UNL     1      85.913  43.574 -35.275  1.00  0.00     0.039 C 
ENDBRANCH   1  24
TORSDOF 2
ENDMDL
