MODEL 2
REMARK VINA RESULT: -9.428360547      1.172      1.317
REMARK  2 active torsions:
REMARK  status: ('A' for Active; 'I' for Inactive)
REMARK    1  A    between atoms: C2_2  and  N1_5 
REMARK    2  A    between atoms: C5_8  and  C6_9 
ROOT
HETATM    1  N1  UNL     1      83.205  43.129 -35.301  1.00  0.00    -0.266 N 
HETATM    2  N2  UNL     1      82.382  43.991 -35.818  1.00  0.00    -0.294 N 
ATOM      3  H2  UNL     1      81.921  43.869 -36.720  1.00  0.00     0.187 HD
HETATM    4  C5  UNL     1      82.212  45.043 -35.041  1.00  0.00     0.076 A 
HETATM    5  C16 UNL     1      83.001  44.822 -33.935  1.00  0.00     0.080 A 
HETATM    6  C17 UNL     1      83.264  45.569 -32.778  1.00  0.00     0.133 A 
HETATM    7  N3  UNL     1      82.579  46.792 -32.611  1.00  0.00    -0.082 NA
HETATM    8  N4  UNL     1      84.124  45.067 -31.892  1.00  0.00    -0.340 N 
ATOM      9  H4  UNL     1      84.315  45.612 -31.051  1.00  0.00     0.167 HD
HETATM   10  C18 UNL     1      84.750  43.895 -32.034  1.00  0.00     0.183 A 
HETATM   11  N5  UNL     1      84.489  43.156 -33.170  1.00  0.00    -0.337 N 
ATOM     12  H5  UNL     1      84.951  42.257 -33.303  1.00  0.00     0.168 HD
HETATM   13  C19 UNL     1      83.640  43.603 -34.095  1.00  0.00     0.140 A 
ENDROOT
BRANCH   4  14
HETATM   14  C6  UNL     1      81.459  46.273 -35.228  1.00  0.00     0.004 A 
HETATM   15  C7  UNL     1      80.153  46.373 -34.841  1.00  0.00     0.014 A 
HETATM   16  C8  UNL     1      79.454  47.560 -35.086  1.00  0.00     0.002 A 
HETATM   17  C9  UNL     1      80.130  48.591 -35.718  1.00  0.00     0.012 A 
HETATM   18  C10 UNL     1      81.448  48.464 -36.095  1.00  0.00    -0.025 A 
HETATM   19  C11 UNL     1      82.083  49.535 -36.696  1.00  0.00     0.012 A 
HETATM   20  C15 UNL     1      82.153  47.302 -35.863  1.00  0.00    -0.013 A 
HETATM   21  C12 UNL     1      83.432  49.476 -37.075  1.00  0.00     0.001 A 
HETATM   22  C13 UNL     1      84.101  48.295 -36.825  1.00  0.00     0.001 A 
HETATM   23  C14 UNL     1      83.480  47.217 -36.228  1.00  0.00     0.013 A 
ENDBRANCH   4  14
BRANCH   1  24
HETATM   24  C2  UNL     1      83.605  41.858 -35.836  1.00  0.00     0.044 C 
HETATM   25  C1  UNL     1      82.892  41.660 -37.147  1.00  0.00     0.039 C 
HETATM   26  C3  UNL     1      83.136  40.714 -34.935  1.00  0.00     0.039 C 
HETATM   27  C4  UNL     1      85.093  41.724 -36.050  1.00  0.00     0.039 C 
ENDBRANCH   1  24
TORSDOF 2
ENDMDL
