MODEL 1
REMARK VINA RESULT: -9.042762420      0.000      0.000
REMARK  3 active torsions:
REMARK  status: ('A' for Active; 'I' for Inactive)
REMARK    1  A    between atoms: C2_2  and  N1_5 
REMARK    2  A    between atoms: C5_8  and  C6_9 
REMARK    3  A    between atoms: C6_9  and  C7_10 
ROOT
HETATM    1  N1  UNL     1      39.090  15.527  16.306  1.00  0.00    -0.267 N 
HETATM    2  N2  UNL     1      39.509  14.396  16.783  1.00  0.00    -0.299 N 
ATOM      3  H2  UNL     1      40.431  14.009  16.588  1.00  0.00     0.187 HD
HETATM    4  C5  UNL     1      38.583  13.779  17.576  1.00  0.00     0.047 A 
HETATM    5  C17 UNL     1      37.503  14.589  17.596  1.00  0.00     0.075 A 
HETATM    6  C18 UNL     1      36.273  14.524  18.210  1.00  0.00     0.133 A 
HETATM    7  N3  UNL     1      35.966  13.433  19.064  1.00  0.00    -0.082 NA
HETATM    8  N4  UNL     1      35.415  15.539  18.004  1.00  0.00    -0.340 N 
ATOM      9  H4  UNL     1      34.497  15.511  18.448  1.00  0.00     0.167 HD
HETATM   10  C19 UNL     1      35.740  16.604  17.216  1.00  0.00     0.183 A 
HETATM   11  N5  UNL     1      36.931  16.663  16.627  1.00  0.00    -0.337 N 
ATOM     12  H5  UNL     1      37.162  17.466  16.043  1.00  0.00     0.168 HD
HETATM   13  C20 UNL     1      37.830  15.688  16.789  1.00  0.00     0.139 A 
ENDROOT
BRANCH   4  14
HETATM   14  C6  UNL     1      38.899  12.431  18.163  1.00  0.00     0.099 C 
BRANCH  14  15
HETATM   15  C7  UNL     1      40.134  11.939  17.533  1.00  0.00    -0.041 A 
HETATM   16  C8  UNL     1      40.089  11.543  16.187  1.00  0.00     0.008 A 
HETATM   17  C9  UNL     1      41.174  10.954  15.601  1.00  0.00     0.001 A 
HETATM   18  C10 UNL     1      42.343  10.729  16.299  1.00  0.00     0.012 A 
HETATM   19  C11 UNL     1      42.410  11.112  17.616  1.00  0.00    -0.025 A 
HETATM   20  C12 UNL     1      43.590  10.964  18.337  1.00  0.00     0.012 A 
HETATM   21  C16 UNL     1      41.292  11.716  18.211  1.00  0.00    -0.019 A 
HETATM   22  C13 UNL     1      43.744  11.386  19.638  1.00  0.00     0.001 A 
HETATM   23  C14 UNL     1      42.656  11.976  20.218  1.00  0.00     0.001 A 
HETATM   24  C15 UNL     1      41.482  12.129  19.517  1.00  0.00     0.013 A 
ENDBRANCH  14  15
ENDBRANCH   4  14
BRANCH   1  25
HETATM   25  C2  UNL     1      39.787  16.463  15.433  1.00  0.00     0.044 C 
HETATM   26  C1  UNL     1      41.235  15.977  15.303  1.00  0.00     0.039 C 
HETATM   27  C3  UNL     1      39.867  17.848  16.015  1.00  0.00     0.039 C 
HETATM   28  C4  UNL     1      39.200  16.415  14.060  1.00  0.00     0.039 C 
ENDBRANCH   1  25
TORSDOF 3
ENDMDL
