MODEL 3
REMARK VINA RESULT: -8.936145126      3.006      5.329
REMARK  3 active torsions:
REMARK  status: ('A' for Active; 'I' for Inactive)
REMARK    1  A    between atoms: C2_2  and  N1_5 
REMARK    2  A    between atoms: C5_8  and  C6_9 
REMARK    3  A    between atoms: C6_9  and  C7_10 
ROOT
HETATM    1  N1  UNL     1      42.132  18.117  15.356  1.00  0.00    -0.267 N 
HETATM    2  N2  UNL     1      41.591  16.966  15.101  1.00  0.00    -0.299 N 
ATOM      3  H2  UNL     1      42.009  16.076  15.367  1.00  0.00     0.187 HD
HETATM    4  C5  UNL     1      40.401  17.075  14.440  1.00  0.00     0.047 A 
HETATM    5  C17 UNL     1      40.182  18.396  14.269  1.00  0.00     0.075 A 
HETATM    6  C18 UNL     1      39.171  19.129  13.689  1.00  0.00     0.133 A 
HETATM    7  N3  UNL     1      38.038  18.467  13.150  1.00  0.00    -0.082 NA
HETATM    8  N4  UNL     1      39.284  20.469  13.699  1.00  0.00    -0.340 N 
ATOM      9  H4  UNL     1      38.548  21.032  13.274  1.00  0.00     0.167 HD
HETATM   10  C19 UNL     1      40.357  21.094  14.262  1.00  0.00     0.183 A 
HETATM   11  N5  UNL     1      41.330  20.381  14.823  1.00  0.00    -0.337 N 
ATOM     12  H5  UNL     1      42.126  20.862  15.243  1.00  0.00     0.168 HD
HETATM   13  C20 UNL     1      41.281  19.047  14.847  1.00  0.00     0.139 A 
ENDROOT
BRANCH   4  14
HETATM   14  C6  UNL     1      39.673  15.826  14.025  1.00  0.00     0.099 C 
BRANCH  14  15
HETATM   15  C7  UNL     1      39.024  15.261  15.219  1.00  0.00    -0.041 A 
HETATM   16  C8  UNL     1      38.000  15.997  15.836  1.00  0.00     0.008 A 
HETATM   17  C9  UNL     1      37.463  15.577  17.021  1.00  0.00     0.001 A 
HETATM   18  C10 UNL     1      37.898  14.429  17.650  1.00  0.00     0.012 A 
HETATM   19  C11 UNL     1      38.896  13.692  17.060  1.00  0.00    -0.025 A 
HETATM   20  C12 UNL     1      39.319  12.494  17.626  1.00  0.00     0.012 A 
HETATM   21  C16 UNL     1      39.443  14.128  15.845  1.00  0.00    -0.019 A 
HETATM   22  C13 UNL     1      40.267  11.676  17.054  1.00  0.00     0.001 A 
HETATM   23  C14 UNL     1      40.798  12.099  15.868  1.00  0.00     0.001 A 
HETATM   24  C15 UNL     1      40.391  13.283  15.297  1.00  0.00     0.013 A 
ENDBRANCH  14  15
ENDBRANCH   4  14
BRANCH   1  25
HETATM   25  C2  UNL     1      43.387  18.404  16.040  1.00  0.00     0.044 C 
HETATM   26  C1  UNL     1      43.961  17.067  16.524  1.00  0.00     0.039 C 
HETATM   27  C3  UNL     1      43.194  19.242  17.275  1.00  0.00     0.039 C 
HETATM   28  C4  UNL     1      44.379  18.965  15.075  1.00  0.00     0.039 C 
ENDBRANCH   1  25
TORSDOF 3
ENDMDL
