MODEL 2
REMARK VINA RESULT: -8.983497758      2.725      4.848
REMARK  3 active torsions:
REMARK  status: ('A' for Active; 'I' for Inactive)
REMARK    1  A    between atoms: C2_2  and  N1_5 
REMARK    2  A    between atoms: C5_8  and  C6_9 
REMARK    3  A    between atoms: C6_9  and  C7_10 
ROOT
HETATM    1  N1  UNL     1      41.659  18.274  15.744  1.00  0.00    -0.267 N 
HETATM    2  N2  UNL     1      40.889  17.371  15.220  1.00  0.00    -0.299 N 
ATOM      3  H2  UNL     1      41.228  16.621  14.619  1.00  0.00     0.187 HD
HETATM    4  C5  UNL     1      39.575  17.532  15.560  1.00  0.00     0.047 A 
HETATM    5  C17 UNL     1      39.522  18.619  16.359  1.00  0.00     0.075 A 
HETATM    6  C18 UNL     1      38.502  19.272  17.014  1.00  0.00     0.133 A 
HETATM    7  N3  UNL     1      37.178  18.769  16.940  1.00  0.00    -0.082 NA
HETATM    8  N4  UNL     1      38.821  20.356  17.744  1.00  0.00    -0.340 N 
ATOM      9  H4  UNL     1      38.081  20.856  18.237  1.00  0.00     0.167 HD
HETATM   10  C19 UNL     1      40.105  20.802  17.843  1.00  0.00     0.183 A 
HETATM   11  N5  UNL     1      41.086  20.166  17.211  1.00  0.00    -0.337 N 
ATOM     12  H5  UNL     1      42.043  20.509  17.295  1.00  0.00     0.168 HD
HETATM   13  C20 UNL     1      40.840  19.083  16.467  1.00  0.00     0.139 A 
ENDROOT
BRANCH   4  14
HETATM   14  C6  UNL     1      38.548  16.594  14.989  1.00  0.00     0.099 C 
BRANCH  14  15
HETATM   15  C7  UNL     1      38.465  15.419  15.870  1.00  0.00    -0.041 A 
HETATM   16  C8  UNL     1      37.623  15.480  16.991  1.00  0.00     0.008 A 
HETATM   17  C9  UNL     1      37.617  14.467  17.910  1.00  0.00     0.001 A 
HETATM   18  C10 UNL     1      38.427  13.359  17.774  1.00  0.00     0.012 A 
HETATM   19  C11 UNL     1      39.256  13.277  16.682  1.00  0.00    -0.025 A 
HETATM   20  C12 UNL     1      40.041  12.148  16.472  1.00  0.00     0.012 A 
HETATM   21  C16 UNL     1      39.257  14.320  15.744  1.00  0.00    -0.019 A 
HETATM   22  C13 UNL     1      40.844  11.975  15.367  1.00  0.00     0.001 A 
HETATM   23  C14 UNL     1      40.843  12.989  14.451  1.00  0.00     0.001 A 
HETATM   24  C15 UNL     1      40.073  14.113  14.646  1.00  0.00     0.013 A 
ENDBRANCH  14  15
ENDBRANCH   4  14
BRANCH   1  25
HETATM   25  C2  UNL     1      43.102  18.430  15.614  1.00  0.00     0.044 C 
HETATM   26  C1  UNL     1      43.650  17.132  15.008  1.00  0.00     0.039 C 
HETATM   27  C3  UNL     1      43.789  18.587  16.943  1.00  0.00     0.039 C 
HETATM   28  C4  UNL     1      43.413  19.517  14.638  1.00  0.00     0.039 C 
ENDBRANCH   1  25
TORSDOF 3
ENDMDL
