MODEL 3
REMARK VINA RESULT: -8.521696421      1.949      2.692
REMARK  4 active torsions:
REMARK  status: ('A' for Active; 'I' for Inactive)
REMARK    1  A    between atoms: C5_5  and  N1_6 
REMARK    2  A    between atoms: N1_6  and  C6_8 
REMARK    3  A    between atoms: C11_13  and  C12_14 
REMARK    4  A    between atoms: C13_17  and  C14_18 
ROOT
HETATM    1  N1  UNL     1     -27.793 -28.272   7.230  1.00  0.00    -0.354 N 
ATOM      2  H1  UNL     1     -28.494 -27.847   7.837  1.00  0.00     0.166 HD
ENDROOT
BRANCH   1   3
HETATM    3  C5  UNL     1     -27.607 -27.724   5.941  1.00  0.00     0.049 A 
HETATM    4  C4  UNL     1     -26.300 -27.669   5.429  1.00  0.00     0.031 A 
HETATM    5  C3  UNL     1     -26.103 -27.236   4.134  1.00  0.00     0.009 A 
HETATM    6  C2  UNL     1     -27.173 -26.865   3.347  1.00  0.00    -0.061 A 
HETATM    7  C1  UNL     1     -26.894 -26.410   1.961  1.00  0.00     0.048 C 
HETATM    8  C15 UNL     1     -28.444 -26.920   3.843  1.00  0.00     0.027 A 
HETATM    9  C13 UNL     1     -28.668 -27.357   5.163  1.00  0.00     0.068 A 
BRANCH   9  10
HETATM   10  C14 UNL     1     -30.027 -27.347   5.627  1.00  0.00     0.211 C 
HETATM   11  O3  UNL     1     -30.386 -26.708   6.628  1.00  0.00    -0.644 OA
HETATM   12  O4  UNL     1     -31.042 -28.072   4.961  1.00  0.00    -0.644 OA
ENDBRANCH   9  10
ENDBRANCH   1   3
BRANCH   1  13
HETATM   13  C6  UNL     1     -27.051 -29.391   7.733  1.00  0.00     0.049 A 
HETATM   14  C7  UNL     1     -27.495 -30.665   7.489  1.00  0.00     0.030 A 
HETATM   15  C8  UNL     1     -26.814 -31.823   7.832  1.00  0.00     0.002 A 
HETATM   16  C9  UNL     1     -25.606 -31.648   8.461  1.00  0.00     0.001 A 
HETATM   17  C10 UNL     1     -25.102 -30.402   8.734  1.00  0.00     0.021 A 
HETATM   18  C11 UNL     1     -25.833 -29.268   8.367  1.00  0.00     0.067 A 
BRANCH  18  19
HETATM   19  C12 UNL     1     -25.263 -27.979   8.726  1.00  0.00     0.211 C 
HETATM   20  O1  UNL     1     -24.007 -27.791   8.524  1.00  0.00    -0.644 OA
HETATM   21  O2  UNL     1     -25.959 -26.925   9.273  1.00  0.00    -0.644 OA
ENDBRANCH  18  19
ENDBRANCH   1  13
TORSDOF 4
ENDMDL
