MODEL 4
REMARK VINA RESULT: -8.490283947      1.285      1.581
REMARK  4 active torsions:
REMARK  status: ('A' for Active; 'I' for Inactive)
REMARK    1  A    between atoms: C5_5  and  N1_6 
REMARK    2  A    between atoms: N1_6  and  C6_8 
REMARK    3  A    between atoms: C11_13  and  C12_14 
REMARK    4  A    between atoms: C13_17  and  C14_18 
ROOT
HETATM    1  N1  UNL     1     -26.858 -28.454   7.942  1.00  0.00    -0.354 N 
ATOM      2  H1  UNL     1     -26.753 -27.983   8.840  1.00  0.00     0.166 HD
ENDROOT
BRANCH   1   3
HETATM    3  C5  UNL     1     -26.962 -27.658   6.780  1.00  0.00     0.049 A 
HETATM    4  C4  UNL     1     -26.137 -27.973   5.687  1.00  0.00     0.031 A 
HETATM    5  C3  UNL     1     -26.293 -27.279   4.505  1.00  0.00     0.009 A 
HETATM    6  C2  UNL     1     -27.247 -26.289   4.392  1.00  0.00    -0.061 A 
HETATM    7  C1  UNL     1     -27.365 -25.580   3.093  1.00  0.00     0.048 C 
HETATM    8  C15 UNL     1     -28.051 -25.983   5.453  1.00  0.00     0.027 A 
HETATM    9  C13 UNL     1     -27.907 -26.678   6.670  1.00  0.00     0.068 A 
BRANCH   9  10
HETATM   10  C14 UNL     1     -28.759 -26.271   7.752  1.00  0.00     0.211 C 
HETATM   11  O3  UNL     1     -29.885 -25.784   7.569  1.00  0.00    -0.644 OA
HETATM   12  O4  UNL     1     -28.357 -26.404   9.102  1.00  0.00    -0.644 OA
ENDBRANCH   9  10
ENDBRANCH   1   3
BRANCH   1  13
HETATM   13  C6  UNL     1     -26.890 -29.887   7.930  1.00  0.00     0.049 A 
HETATM   14  C7  UNL     1     -25.762 -30.595   8.252  1.00  0.00     0.030 A 
HETATM   15  C8  UNL     1     -25.697 -31.975   8.376  1.00  0.00     0.002 A 
HETATM   16  C9  UNL     1     -26.869 -32.655   8.154  1.00  0.00     0.001 A 
HETATM   17  C10 UNL     1     -28.034 -32.010   7.829  1.00  0.00     0.021 A 
HETATM   18  C11 UNL     1     -28.041 -30.616   7.717  1.00  0.00     0.067 A 
BRANCH  18  19
HETATM   19  C12 UNL     1     -29.298 -29.999   7.326  1.00  0.00     0.211 C 
HETATM   20  O1  UNL     1     -30.069 -29.547   8.250  1.00  0.00    -0.644 OA
HETATM   21  O2  UNL     1     -29.746 -29.854   6.032  1.00  0.00    -0.644 OA
ENDBRANCH  18  19
ENDBRANCH   1  13
TORSDOF 4
ENDMDL
