MODEL 2
REMARK VINA RESULT: -8.556499634      2.772      3.898
REMARK  4 active torsions:
REMARK  status: ('A' for Active; 'I' for Inactive)
REMARK    1  A    between atoms: C5_5  and  N1_6 
REMARK    2  A    between atoms: N1_6  and  C6_8 
REMARK    3  A    between atoms: C11_13  and  C12_14 
REMARK    4  A    between atoms: C13_17  and  C14_18 
ROOT
HETATM    1  N1  UNL     1     -27.403 -32.011   7.119  1.00  0.00    -0.354 N 
ATOM      2  H1  UNL     1     -27.620 -31.989   6.122  1.00  0.00     0.166 HD
ENDROOT
BRANCH   1   3
HETATM    3  C5  UNL     1     -26.938 -30.822   7.724  1.00  0.00     0.049 A 
HETATM    4  C4  UNL     1     -25.632 -30.812   8.243  1.00  0.00     0.031 A 
HETATM    5  C3  UNL     1     -25.117 -29.635   8.745  1.00  0.00     0.009 A 
HETATM    6  C2  UNL     1     -25.869 -28.479   8.737  1.00  0.00    -0.061 A 
HETATM    7  C1  UNL     1     -25.257 -27.245   9.290  1.00  0.00     0.048 C 
HETATM    8  C15 UNL     1     -27.138 -28.487   8.232  1.00  0.00     0.027 A 
HETATM    9  C13 UNL     1     -27.684 -29.678   7.716  1.00  0.00     0.068 A 
BRANCH   9  10
HETATM   10  C14 UNL     1     -29.039 -29.618   7.241  1.00  0.00     0.211 C 
HETATM   11  O3  UNL     1     -29.989 -30.111   7.869  1.00  0.00    -0.644 OA
HETATM   12  O4  UNL     1     -29.368 -28.986   6.019  1.00  0.00    -0.644 OA
ENDBRANCH   9  10
ENDBRANCH   1   3
BRANCH   1  13
HETATM   13  C6  UNL     1     -27.587 -33.244   7.825  1.00  0.00     0.049 A 
HETATM   14  C7  UNL     1     -26.774 -33.547   8.886  1.00  0.00     0.030 A 
HETATM   15  C8  UNL     1     -26.919 -34.655   9.708  1.00  0.00     0.002 A 
HETATM   16  C9  UNL     1     -27.967 -35.491   9.412  1.00  0.00     0.001 A 
HETATM   17  C10 UNL     1     -28.820 -35.247   8.366  1.00  0.00     0.021 A 
HETATM   18  C11 UNL     1     -28.624 -34.115   7.569  1.00  0.00     0.067 A 
BRANCH  18  19
HETATM   19  C12 UNL     1     -29.536 -33.940   6.449  1.00  0.00     0.211 C 
HETATM   20  O1  UNL     1     -30.170 -34.970   6.012  1.00  0.00    -0.644 OA
HETATM   21  O2  UNL     1     -29.785 -32.750   5.804  1.00  0.00    -0.644 OA
ENDBRANCH  18  19
ENDBRANCH   1  13
TORSDOF 4
ENDMDL
