MODEL 5
REMARK VINA RESULT: -8.436036951      2.616      5.764
REMARK  4 active torsions:
REMARK  status: ('A' for Active; 'I' for Inactive)
REMARK    1  A    between atoms: C5_5  and  N1_6 
REMARK    2  A    between atoms: N1_6  and  C6_8 
REMARK    3  A    between atoms: C11_13  and  C12_14 
REMARK    4  A    between atoms: C13_17  and  C14_18 
ROOT
HETATM    1  N1  UNL     1     -27.687 -31.164   7.212  1.00  0.00    -0.354 N 
ATOM      2  H1  UNL     1     -28.274 -31.059   6.384  1.00  0.00     0.166 HD
ENDROOT
BRANCH   1   3
HETATM    3  C5  UNL     1     -27.521 -32.459   7.750  1.00  0.00     0.049 A 
HETATM    4  C4  UNL     1     -26.487 -32.660   8.680  1.00  0.00     0.031 A 
HETATM    5  C3  UNL     1     -26.369 -33.887   9.300  1.00  0.00     0.009 A 
HETATM    6  C2  UNL     1     -27.254 -34.905   9.016  1.00  0.00    -0.061 A 
HETATM    7  C1  UNL     1     -27.074 -36.202   9.717  1.00  0.00     0.048 C 
HETATM    8  C15 UNL     1     -28.261 -34.711   8.114  1.00  0.00     0.027 A 
HETATM    9  C13 UNL     1     -28.399 -33.467   7.468  1.00  0.00     0.068 A 
BRANCH   9  10
HETATM   10  C14 UNL     1     -29.455 -33.352   6.502  1.00  0.00     0.211 C 
HETATM   11  O3  UNL     1     -29.836 -34.310   5.811  1.00  0.00    -0.644 OA
HETATM   12  O4  UNL     1     -30.128 -32.127   6.282  1.00  0.00    -0.644 OA
ENDBRANCH   9  10
ENDBRANCH   1   3
BRANCH   1  13
HETATM   13  C6  UNL     1     -27.077 -29.989   7.762  1.00  0.00     0.049 A 
HETATM   14  C7  UNL     1     -25.765 -30.027   8.157  1.00  0.00     0.030 A 
HETATM   15  C8  UNL     1     -25.038 -28.934   8.604  1.00  0.00     0.002 A 
HETATM   16  C9  UNL     1     -25.710 -27.737   8.642  1.00  0.00     0.001 A 
HETATM   17  C10 UNL     1     -27.023 -27.628   8.260  1.00  0.00     0.021 A 
HETATM   18  C11 UNL     1     -27.708 -28.765   7.818  1.00  0.00     0.067 A 
BRANCH  18  19
HETATM   19  C12 UNL     1     -29.109 -28.588   7.471  1.00  0.00     0.211 C 
HETATM   20  O1  UNL     1     -29.866 -27.955   8.295  1.00  0.00    -0.644 OA
HETATM   21  O2  UNL     1     -29.708 -29.048   6.320  1.00  0.00    -0.644 OA
ENDBRANCH  18  19
ENDBRANCH   1  13
TORSDOF 4
ENDMDL
