MODEL 14
REMARK VINA RESULT: -6.706484548      1.212      2.969
REMARK  1 active torsions:
REMARK  status: ('A' for Active; 'I' for Inactive)
REMARK    1  A    between atoms: O1_2  and  C2_3 
ROOT
HETATM    1  C2  UNL     1     -11.144  -3.579 -20.208  1.00  0.00     0.166 A 
HETATM    2  N1  UNL     1     -12.386  -3.080 -19.962  1.00  0.00    -0.319 N 
ATOM      3  H1  UNL     1     -12.993  -3.524 -19.273  1.00  0.00     0.169 HD
HETATM    4  C3  UNL     1     -12.804  -1.992 -20.640  1.00  0.00     0.140 A 
HETATM    5  N2  UNL     1     -14.020  -1.440 -20.452  1.00  0.00    -0.315 N 
ATOM      6  H2  UNL     1     -14.654  -1.858 -19.772  1.00  0.00     0.170 HD
HETATM    7  C4  UNL     1     -14.417  -0.354 -21.139  1.00  0.00     0.195 A 
HETATM    8  N3  UNL     1     -15.694   0.246 -20.958  1.00  0.00    -0.063 NA
HETATM    9  N4  UNL     1     -13.587   0.203 -22.039  1.00  0.00    -0.317 N 
ATOM     10  H4  UNL     1     -13.908   1.026 -22.549  1.00  0.00     0.169 HD
HETATM   11  C5  UNL     1     -12.355  -0.271 -22.301  1.00  0.00     0.149 A 
HETATM   12  N5  UNL     1     -11.495   0.327 -23.250  1.00  0.00    -0.080 NA
HETATM   13  C6  UNL     1     -11.979  -1.397 -21.570  1.00  0.00     0.119 A 
HETATM   14  N6  UNL     1     -10.741  -1.864 -21.840  1.00  0.00    -0.351 N 
ATOM     15  H6  UNL     1     -10.137  -1.416 -22.529  1.00  0.00     0.166 HD
HETATM   16  C7  UNL     1     -10.343  -2.961 -21.144  1.00  0.00     0.057 A 
HETATM   17  C8  UNL     1      -8.979  -3.552 -21.378  1.00  0.00     0.072 C 
ENDROOT
BRANCH   1  18
HETATM   18  O1  UNL     1     -10.657  -4.697 -19.543  1.00  0.00    -0.339 OA
HETATM   19  C1  UNL     1     -11.573  -5.545 -18.849  1.00  0.00     0.211 C 
ENDBRANCH   1  18
TORSDOF 1
ENDMDL
