MODEL 8
REMARK VINA RESULT: -6.894782426      2.588      4.923
REMARK  1 active torsions:
REMARK  status: ('A' for Active; 'I' for Inactive)
REMARK    1  A    between atoms: O1_2  and  C2_3 
ROOT
HETATM    1  C2  UNL     1     -12.158  -0.407 -22.504  1.00  0.00     0.166 A 
HETATM    2  N1  UNL     1     -11.009  -0.316 -23.229  1.00  0.00    -0.319 N 
ATOM      3  H1  UNL     1     -10.908   0.402 -23.947  1.00  0.00     0.169 HD
HETATM    4  C3  UNL     1     -10.007  -1.184 -22.986  1.00  0.00     0.140 A 
HETATM    5  N2  UNL     1      -8.841  -1.157 -23.662  1.00  0.00    -0.315 N 
ATOM      6  H2  UNL     1      -8.705  -0.455 -24.388  1.00  0.00     0.170 HD
HETATM    7  C4  UNL     1      -7.853  -2.034 -23.404  1.00  0.00     0.195 A 
HETATM    8  N3  UNL     1      -6.615  -2.025 -24.103  1.00  0.00    -0.063 NA
HETATM    9  N4  UNL     1      -8.024  -2.964 -22.448  1.00  0.00    -0.317 N 
ATOM     10  H4  UNL     1      -7.263  -3.619 -22.268  1.00  0.00     0.169 HD
HETATM   11  C5  UNL     1      -9.149  -3.076 -21.717  1.00  0.00     0.149 A 
HETATM   12  N5  UNL     1      -9.313  -4.060 -20.716  1.00  0.00    -0.080 NA
HETATM   13  C6  UNL     1     -10.149  -2.151 -22.014  1.00  0.00     0.119 A 
HETATM   14  N6  UNL     1     -11.273  -2.271 -21.275  1.00  0.00    -0.351 N 
ATOM     15  H6  UNL     1     -11.370  -2.990 -20.557  1.00  0.00     0.166 HD
HETATM   16  C7  UNL     1     -12.269  -1.384 -21.539  1.00  0.00     0.057 A 
HETATM   17  C8  UNL     1     -13.559  -1.442 -20.765  1.00  0.00     0.072 C 
ENDROOT
BRANCH   1  18
HETATM   18  O1  UNL     1     -13.225   0.458 -22.708  1.00  0.00    -0.339 OA
HETATM   19  C1  UNL     1     -12.977   1.863 -22.776  1.00  0.00     0.211 C 
ENDBRANCH   1  18
TORSDOF 1
ENDMDL
