MODEL 7
REMARK VINA RESULT: -6.942979225      2.185      4.630
REMARK  1 active torsions:
REMARK  status: ('A' for Active; 'I' for Inactive)
REMARK    1  A    between atoms: O1_2  and  C2_3 
ROOT
HETATM    1  C2  UNL     1     -13.205   0.027 -22.004  1.00  0.00     0.166 A 
HETATM    2  N1  UNL     1     -11.931  -0.285 -22.369  1.00  0.00    -0.319 N 
ATOM      3  H1  UNL     1     -11.429   0.296 -23.040  1.00  0.00     0.169 HD
HETATM    4  C3  UNL     1     -11.341  -1.372 -21.831  1.00  0.00     0.140 A 
HETATM    5  N2  UNL     1     -10.084  -1.746 -22.142  1.00  0.00    -0.315 N 
ATOM      6  H2  UNL     1      -9.551  -1.189 -22.811  1.00  0.00     0.170 HD
HETATM    7  C4  UNL     1      -9.513  -2.834 -21.594  1.00  0.00     0.195 A 
HETATM    8  N3  UNL     1      -8.189  -3.248 -21.906  1.00  0.00    -0.063 NA
HETATM    9  N4  UNL     1     -10.207  -3.574 -20.711  1.00  0.00    -0.317 N 
ATOM     10  H4  UNL     1      -9.756  -4.395 -20.307  1.00  0.00     0.169 HD
HETATM   11  C5  UNL     1     -11.467  -3.287 -20.334  1.00  0.00     0.149 A 
HETATM   12  N5  UNL     1     -12.183  -4.076 -19.405  1.00  0.00    -0.080 NA
HETATM   13  C6  UNL     1     -12.024  -2.153 -20.924  1.00  0.00     0.119 A 
HETATM   14  N6  UNL     1     -13.288  -1.874 -20.539  1.00  0.00    -0.351 N 
ATOM     15  H6  UNL     1     -13.786  -2.457 -19.866  1.00  0.00     0.166 HD
HETATM   16  C7  UNL     1     -13.861  -0.774 -21.095  1.00  0.00     0.057 A 
HETATM   17  C8  UNL     1     -15.267  -0.384 -20.725  1.00  0.00     0.072 C 
ENDROOT
BRANCH   1  18
HETATM   18  O1  UNL     1     -13.866   1.133 -22.524  1.00  0.00    -0.339 OA
HETATM   19  C1  UNL     1     -13.190   2.391 -22.562  1.00  0.00     0.211 C 
ENDBRANCH   1  18
TORSDOF 1
ENDMDL
