MODEL 10
REMARK VINA RESULT: -6.877564778      2.302      4.363
REMARK  1 active torsions:
REMARK  status: ('A' for Active; 'I' for Inactive)
REMARK    1  A    between atoms: O1_2  and  C2_3 
ROOT
HETATM    1  C2  UNL     1     -10.620  -0.126 -23.540  1.00  0.00     0.166 A 
HETATM    2  N1  UNL     1     -10.144  -1.218 -22.881  1.00  0.00    -0.319 N 
ATOM      3  H1  UNL     1      -9.219  -1.589 -23.100  1.00  0.00     0.169 HD
HETATM    4  C3  UNL     1     -10.908  -1.803 -21.937  1.00  0.00     0.140 A 
HETATM    5  N2  UNL     1     -10.506  -2.886 -21.243  1.00  0.00    -0.315 N 
ATOM      6  H2  UNL     1      -9.588  -3.285 -21.435  1.00  0.00     0.170 HD
HETATM    7  C4  UNL     1     -11.285  -3.454 -20.304  1.00  0.00     0.195 A 
HETATM    8  N3  UNL     1     -10.883  -4.596 -19.560  1.00  0.00    -0.063 NA
HETATM    9  N4  UNL     1     -12.498  -2.934 -20.045  1.00  0.00    -0.317 N 
ATOM     10  H4  UNL     1     -13.073  -3.380 -19.330  1.00  0.00     0.169 HD
HETATM   11  C5  UNL     1     -12.992  -1.856 -20.682  1.00  0.00     0.149 A 
HETATM   12  N5  UNL     1     -14.270  -1.323 -20.397  1.00  0.00    -0.080 NA
HETATM   13  C6  UNL     1     -12.157  -1.295 -21.647  1.00  0.00     0.119 A 
HETATM   14  N6  UNL     1     -12.662  -0.215 -22.279  1.00  0.00    -0.351 N 
ATOM     15  H6  UNL     1     -13.587   0.154 -22.057  1.00  0.00     0.166 HD
HETATM   16  C7  UNL     1     -11.872   0.356 -23.226  1.00  0.00     0.057 A 
HETATM   17  C8  UNL     1     -12.352   1.565 -23.983  1.00  0.00     0.072 C 
ENDROOT
BRANCH   1  18
HETATM   18  O1  UNL     1      -9.880   0.519 -24.522  1.00  0.00    -0.339 OA
HETATM   19  C1  UNL     1      -8.462   0.353 -24.545  1.00  0.00     0.211 C 
ENDBRANCH   1  18
TORSDOF 1
ENDMDL
