MODEL 9
REMARK VINA RESULT: -6.207812819      3.149      3.676
REMARK  12 active torsions:
REMARK  status: ('A' for Active; 'I' for Inactive)
REMARK    1  A    between atoms: C2_2  and  C3_3 
REMARK    2  A    between atoms: C3_3  and  C4_4 
REMARK    3  A    between atoms: C4_4  and  C5_5 
REMARK    4  A    between atoms: C5_5  and  C6_6 
REMARK    5  A    between atoms: C6_6  and  C7_7 
REMARK    6  A    between atoms: C7_7  and  C8_8 
REMARK    7  A    between atoms: C8_8  and  C9_9 
REMARK    8  A    between atoms: C9_9  and  C10_10 
REMARK    9  A    between atoms: C10_10  and  C11_11 
REMARK   10  A    between atoms: C11_11  and  C12_12 
REMARK   11  A    between atoms: C12_12  and  O1_13 
REMARK   12  A    between atoms: O1_13  and  S1_14 
ROOT
HETATM    1  C9  UNL     1      23.734  36.134  18.790  1.00  0.00     0.000 C 
ENDROOT
BRANCH   1   2
HETATM    2  C8  UNL     1      23.211  34.741  18.560  1.00  0.00     0.000 C 
BRANCH   2   3
HETATM    3  C7  UNL     1      24.368  33.928  17.859  1.00  0.00     0.000 C 
BRANCH   3   4
HETATM    4  C6  UNL     1      24.351  32.524  18.519  1.00  0.00     0.000 C 
BRANCH   4   5
HETATM    5  C5  UNL     1      23.043  32.377  19.226  1.00  0.00     0.000 C 
BRANCH   5   6
HETATM    6  C4  UNL     1      22.707  31.150  19.926  1.00  0.00     0.000 C 
BRANCH   6   7
HETATM    7  C3  UNL     1      23.481  29.996  19.250  1.00  0.00    -0.000 C 
BRANCH   7   8
HETATM    8  C2  UNL     1      22.868  28.649  19.564  1.00  0.00    -0.005 C 
HETATM    9  C1  UNL     1      21.576  28.779  20.315  1.00  0.00     0.005 C 
ENDBRANCH   7   8
ENDBRANCH   6   7
ENDBRANCH   5   6
ENDBRANCH   4   5
ENDBRANCH   3   4
ENDBRANCH   2   3
ENDBRANCH   1   2
BRANCH   1  10
HETATM   10  C10 UNL     1      22.907  37.277  18.180  1.00  0.00     0.002 C 
BRANCH  10  11
HETATM   11  C11 UNL     1      23.633  37.847  17.046  1.00  0.00     0.028 C 
BRANCH  11  12
HETATM   12  C12 UNL     1      23.476  39.279  16.572  1.00  0.00     0.193 C 
BRANCH  12  13
HETATM   13  O1  UNL     1      24.779  39.716  16.986  1.00  0.00    -0.257 OA
BRANCH  13  14
HETATM   14  S1  UNL     1      25.137  41.114  17.085  1.00  0.00     0.251 S 
HETATM   15  O2  UNL     1      25.130  42.000  18.464  1.00  0.00    -0.572 OA
HETATM   16  O3  UNL     1      24.724  42.059  15.890  1.00  0.00    -0.572 OA
HETATM   17  O4  UNL     1      27.052  41.087  16.889  1.00  0.00    -0.572 OA
ENDBRANCH  13  14
ENDBRANCH  12  13
ENDBRANCH  11  12
ENDBRANCH  10  11
ENDBRANCH   1  10
TORSDOF 12
ENDMDL
