MODEL 12
REMARK VINA RESULT: -6.165333495      2.776      3.423
REMARK  12 active torsions:
REMARK  status: ('A' for Active; 'I' for Inactive)
REMARK    1  A    between atoms: C2_2  and  C3_3 
REMARK    2  A    between atoms: C3_3  and  C4_4 
REMARK    3  A    between atoms: C4_4  and  C5_5 
REMARK    4  A    between atoms: C5_5  and  C6_6 
REMARK    5  A    between atoms: C6_6  and  C7_7 
REMARK    6  A    between atoms: C7_7  and  C8_8 
REMARK    7  A    between atoms: C8_8  and  C9_9 
REMARK    8  A    between atoms: C9_9  and  C10_10 
REMARK    9  A    between atoms: C10_10  and  C11_11 
REMARK   10  A    between atoms: C11_11  and  C12_12 
REMARK   11  A    between atoms: C12_12  and  O1_13 
REMARK   12  A    between atoms: O1_13  and  S1_14 
ROOT
HETATM    1  C9  UNL     1      23.430  36.180  18.719  1.00  0.00     0.000 C 
ENDROOT
BRANCH   1   2
HETATM    2  C8  UNL     1      22.995  34.745  18.581  1.00  0.00     0.000 C 
BRANCH   2   3
HETATM    3  C7  UNL     1      24.156  33.987  17.826  1.00  0.00     0.000 C 
BRANCH   3   4
HETATM    4  C6  UNL     1      24.271  32.604  18.522  1.00  0.00     0.000 C 
BRANCH   4   5
HETATM    5  C5  UNL     1      22.994  32.365  19.259  1.00  0.00     0.000 C 
BRANCH   5   6
HETATM    6  C4  UNL     1      22.805  31.165  20.055  1.00  0.00     0.000 C 
BRANCH   6   7
HETATM    7  C3  UNL     1      23.559  30.012  19.354  1.00  0.00    -0.000 C 
BRANCH   7   8
HETATM    8  C2  UNL     1      22.815  28.701  19.473  1.00  0.00    -0.005 C 
HETATM    9  C1  UNL     1      21.682  28.782  20.454  1.00  0.00     0.005 C 
ENDBRANCH   7   8
ENDBRANCH   6   7
ENDBRANCH   5   6
ENDBRANCH   4   5
ENDBRANCH   3   4
ENDBRANCH   2   3
ENDBRANCH   1   2
BRANCH   1  10
HETATM   10  C10 UNL     1      23.714  36.931  17.408  1.00  0.00     0.002 C 
BRANCH  10  11
HETATM   11  C11 UNL     1      22.988  38.199  17.409  1.00  0.00     0.028 C 
BRANCH  11  12
HETATM   12  C12 UNL     1      23.102  39.243  16.316  1.00  0.00     0.193 C 
BRANCH  12  13
HETATM   13  O1  UNL     1      23.550  40.306  17.171  1.00  0.00    -0.257 OA
BRANCH  13  14
HETATM   14  S1  UNL     1      24.805  40.993  16.966  1.00  0.00     0.251 S 
HETATM   15  O2  UNL     1      25.080  42.154  15.842  1.00  0.00    -0.572 OA
HETATM   16  O3  UNL     1      26.132  40.157  17.144  1.00  0.00    -0.572 OA
HETATM   17  O4  UNL     1      24.907  42.173  18.484  1.00  0.00    -0.572 OA
ENDBRANCH  13  14
ENDBRANCH  12  13
ENDBRANCH  11  12
ENDBRANCH  10  11
ENDBRANCH   1  10
TORSDOF 12
ENDMDL
