MODEL 3
REMARK VINA RESULT: -6.939967912      0.891      2.221
REMARK  3 active torsions:
REMARK  status: ('A' for Active; 'I' for Inactive)
REMARK    1  A    between atoms: N1_2  and  C2_5 
REMARK    2  A    between atoms: C2_5  and  C4_7 
REMARK    3  A    between atoms: C4_7  and  C5_8 
ROOT
HETATM    1  C4  UNL     1      -4.805  -3.667  16.265  1.00  0.00     0.071 C 
ENDROOT
BRANCH   1   2
HETATM    2  C2  UNL     1      -3.436  -3.163  15.970  1.00  0.00     0.185 C 
HETATM    3  C3  UNL     1      -3.375  -1.657  15.844  1.00  0.00     0.040 C 
BRANCH   2   4
HETATM    4  N1  UNL     1      -2.804  -3.829  14.855  1.00  0.00    -0.075 N 
HETATM    5  C1  UNL     1      -1.409  -4.170  15.171  1.00  0.00     0.267 C 
ATOM      6  H12 UNL     1      -2.874  -3.279  13.999  1.00  0.00     0.277 HD
ATOM      7  H11 UNL     1      -3.334  -4.648  14.556  1.00  0.00     0.277 HD
ENDBRANCH   2   4
ENDBRANCH   1   2
BRANCH   1   8
HETATM    8  C5  UNL     1      -4.871  -5.011  16.829  1.00  0.00    -0.056 A 
HETATM    9  C6  UNL     1      -3.770  -5.673  17.333  1.00  0.00     0.007 A 
HETATM   10  C7  UNL     1      -3.878  -6.960  17.865  1.00  0.00     0.001 A 
HETATM   11  C8  UNL     1      -5.085  -7.614  17.904  1.00  0.00     0.000 A 
HETATM   12  C9  UNL     1      -6.187  -6.961  17.403  1.00  0.00     0.001 A 
HETATM   13  C10 UNL     1      -6.068  -5.690  16.881  1.00  0.00     0.007 A 
ENDBRANCH   1   8
TORSDOF 3
ENDMDL
