MODEL 7
REMARK VINA RESULT: -6.842196144      2.490      4.807
REMARK  3 active torsions:
REMARK  status: ('A' for Active; 'I' for Inactive)
REMARK    1  A    between atoms: N1_2  and  C2_5 
REMARK    2  A    between atoms: C2_5  and  C4_7 
REMARK    3  A    between atoms: C4_7  and  C5_8 
ROOT
HETATM    1  C4  UNL     1      -5.062  -6.134  18.012  1.00  0.00     0.071 C 
ENDROOT
BRANCH   1   2
HETATM    2  C2  UNL     1      -6.382  -6.515  17.438  1.00  0.00     0.185 C 
HETATM    3  C3  UNL     1      -7.544  -5.822  18.116  1.00  0.00     0.040 C 
BRANCH   2   4
HETATM    4  N1  UNL     1      -6.580  -7.942  17.342  1.00  0.00    -0.075 N 
HETATM    5  C1  UNL     1      -7.982  -8.257  17.035  1.00  0.00     0.267 C 
ATOM      6  H12 UNL     1      -6.260  -8.424  18.182  1.00  0.00     0.277 HD
ATOM      7  H11 UNL     1      -5.942  -8.366  16.668  1.00  0.00     0.277 HD
ENDBRANCH   2   4
ENDBRANCH   1   2
BRANCH   1   8
HETATM    8  C5  UNL     1      -4.192  -5.367  17.128  1.00  0.00    -0.056 A 
HETATM    9  C6  UNL     1      -4.640  -4.318  16.352  1.00  0.00     0.007 A 
HETATM   10  C7  UNL     1      -3.771  -3.608  15.519  1.00  0.00     0.001 A 
HETATM   11  C8  UNL     1      -2.438  -3.931  15.443  1.00  0.00     0.000 A 
HETATM   12  C9  UNL     1      -1.984  -4.976  16.214  1.00  0.00     0.001 A 
HETATM   13  C10 UNL     1      -2.851  -5.668  17.032  1.00  0.00     0.007 A 
ENDBRANCH   1   8
TORSDOF 3
ENDMDL
