MODEL 4
REMARK VINA RESULT: -6.920351833      2.768      5.268
REMARK  3 active torsions:
REMARK  status: ('A' for Active; 'I' for Inactive)
REMARK    1  A    between atoms: N1_2  and  C2_5 
REMARK    2  A    between atoms: C2_5  and  C4_7 
REMARK    3  A    between atoms: C4_7  and  C5_8 
ROOT
HETATM    1  C4  UNL     1      -5.785  -7.155  17.800  1.00  0.00     0.071 C 
ENDROOT
BRANCH   1   2
HETATM    2  C2  UNL     1      -7.093  -7.111  17.091  1.00  0.00     0.185 C 
HETATM    3  C3  UNL     1      -8.184  -6.447  17.902  1.00  0.00     0.040 C 
BRANCH   2   4
HETATM    4  N1  UNL     1      -7.508  -8.391  16.564  1.00  0.00    -0.075 N 
HETATM    5  C1  UNL     1      -8.717  -8.871  17.248  1.00  0.00     0.267 C 
ATOM      6  H12 UNL     1      -6.754  -9.077  16.604  1.00  0.00     0.277 HD
ATOM      7  H11 UNL     1      -7.635  -8.358  15.553  1.00  0.00     0.277 HD
ENDBRANCH   2   4
ENDBRANCH   1   2
BRANCH   1   8
HETATM    8  C5  UNL     1      -4.840  -6.105  17.439  1.00  0.00    -0.056 A 
HETATM    9  C6  UNL     1      -3.541  -6.067  17.900  1.00  0.00     0.007 A 
HETATM   10  C7  UNL     1      -2.668  -5.041  17.528  1.00  0.00     0.001 A 
HETATM   11  C8  UNL     1      -3.074  -4.033  16.689  1.00  0.00     0.000 A 
HETATM   12  C9  UNL     1      -4.368  -4.063  16.224  1.00  0.00     0.001 A 
HETATM   13  C10 UNL     1      -5.220  -5.081  16.599  1.00  0.00     0.007 A 
ENDBRANCH   1   8
TORSDOF 3
ENDMDL
