MODEL 2
REMARK VINA RESULT: -7.390390446      0.086      1.417
REMARK  3 active torsions:
REMARK  status: ('A' for Active; 'I' for Inactive)
REMARK    1  A    between atoms: N1_2  and  C2_5 
REMARK    2  A    between atoms: C2_5  and  C4_7 
REMARK    3  A    between atoms: C4_7  and  C5_8 
ROOT
HETATM    1  C4  UNL     1      -3.031  -4.122  16.985  1.00  0.00     0.071 C 
ENDROOT
BRANCH   1   2
HETATM    2  C2  UNL     1      -2.843  -3.667  15.580  1.00  0.00     0.185 C 
HETATM    3  C3  UNL     1      -1.732  -4.404  14.864  1.00  0.00     0.040 C 
BRANCH   2   4
HETATM    4  N1  UNL     1      -2.719  -2.234  15.449  1.00  0.00    -0.075 N 
HETATM    5  C1  UNL     1      -3.844  -1.550  16.101  1.00  0.00     0.267 C 
ATOM      6  H12 UNL     1      -2.620  -1.953  14.473  1.00  0.00     0.277 HD
ATOM      7  H11 UNL     1      -1.821  -1.900  15.797  1.00  0.00     0.277 HD
ENDBRANCH   2   4
ENDBRANCH   1   2
BRANCH   1   8
HETATM    8  C5  UNL     1      -3.997  -5.198  17.172  1.00  0.00    -0.056 A 
HETATM    9  C6  UNL     1      -3.669  -6.421  17.720  1.00  0.00     0.007 A 
HETATM   10  C7  UNL     1      -4.628  -7.424  17.882  1.00  0.00     0.001 A 
HETATM   11  C8  UNL     1      -5.933  -7.228  17.501  1.00  0.00     0.000 A 
HETATM   12  C9  UNL     1      -6.268  -6.011  16.954  1.00  0.00     0.001 A 
HETATM   13  C10 UNL     1      -5.313  -5.029  16.800  1.00  0.00     0.007 A 
ENDBRANCH   1   8
TORSDOF 3
ENDMDL
