MODEL 5
REMARK VINA RESULT: -6.915830359      2.782      5.099
REMARK  3 active torsions:
REMARK  status: ('A' for Active; 'I' for Inactive)
REMARK    1  A    between atoms: N1_2  and  C2_5 
REMARK    2  A    between atoms: C2_5  and  C4_7 
REMARK    3  A    between atoms: C4_7  and  C5_8 
ROOT
HETATM    1  C4  UNL     1      -5.826  -7.130  17.799  1.00  0.00     0.071 C 
ENDROOT
BRANCH   1   2
HETATM    2  C2  UNL     1      -7.129  -7.130  17.078  1.00  0.00     0.185 C 
HETATM    3  C3  UNL     1      -8.244  -6.488  17.874  1.00  0.00     0.040 C 
BRANCH   2   4
HETATM    4  N1  UNL     1      -7.503  -8.426  16.562  1.00  0.00    -0.075 N 
HETATM    5  C1  UNL     1      -8.699  -8.937  17.247  1.00  0.00     0.267 C 
ATOM      6  H12 UNL     1      -6.728  -9.089  16.611  1.00  0.00     0.277 HD
ATOM      7  H11 UNL     1      -7.626  -8.407  15.550  1.00  0.00     0.277 HD
ENDBRANCH   2   4
ENDBRANCH   1   2
BRANCH   1   8
HETATM    8  C5  UNL     1      -4.896  -6.074  17.413  1.00  0.00    -0.056 A 
HETATM    9  C6  UNL     1      -5.245  -5.025  16.588  1.00  0.00     0.007 A 
HETATM   10  C7  UNL     1      -4.322  -4.034  16.245  1.00  0.00     0.001 A 
HETATM   11  C8  UNL     1      -3.033  -4.070  16.717  1.00  0.00     0.000 A 
HETATM   12  C9  UNL     1      -2.677  -5.113  17.540  1.00  0.00     0.001 A 
HETATM   13  C10 UNL     1      -3.597  -6.084  17.871  1.00  0.00     0.007 A 
ENDBRANCH   1   8
TORSDOF 3
ENDMDL
