MODEL 12
REMARK VINA RESULT: -4.588480043      3.942      5.369
REMARK  6 active torsions:
REMARK  status: ('A' for Active; 'I' for Inactive)
REMARK    1  A    between atoms: C2_2  and  O1_3 
REMARK    2  A    between atoms: O1_3  and  C3_4 
REMARK    3  A    between atoms: C3_4  and  C4_6 
REMARK    4  A    between atoms: C5_7  and  C6_8 
REMARK    5  A    between atoms: C9_11  and  O3_12 
REMARK    6  A    between atoms: C10_14  and  O4_15 
ROOT
HETATM    1  C6  UNL     1       7.067 -15.700 114.304  1.00  0.00    -0.033 A 
HETATM    2  C7  UNL     1       7.005 -16.852 115.076  1.00  0.00     0.014 A 
HETATM    3  C8  UNL     1       6.615 -18.045 114.539  1.00  0.00     0.040 A 
HETATM    4  C9  UNL     1       6.269 -18.105 113.183  1.00  0.00     0.098 A 
HETATM    5  C10 UNL     1       6.321 -16.983 112.396  1.00  0.00     0.099 A 
HETATM    6  C11 UNL     1       6.721 -15.797 112.978  1.00  0.00     0.050 A 
ENDROOT
BRANCH   1   7
HETATM    7  C5  UNL     1       7.493 -14.466 114.948  1.00  0.00     0.017 C 
HETATM    8  C4  UNL     1       8.261 -13.590 114.348  1.00  0.00     0.083 C 
BRANCH   8   9
HETATM    9  C3  UNL     1       8.662 -12.360 115.043  1.00  0.00     0.282 C 
HETATM   10  O2  UNL     1       9.646 -11.679 114.672  1.00  0.00    -0.260 OA
BRANCH   9  11
HETATM   11  O1  UNL     1       7.967 -11.890 116.148  1.00  0.00    -0.319 OA
BRANCH  11  12
HETATM   12  C2  UNL     1       8.557 -11.776 117.402  1.00  0.00     0.174 C 
HETATM   13  C1  UNL     1       8.467 -13.014 118.243  1.00  0.00     0.034 C 
ENDBRANCH  11  12
ENDBRANCH   9  11
ENDBRANCH   8   9
ENDBRANCH   1   7
BRANCH   5  14
HETATM   14  O4  UNL     1       5.986 -17.016 111.058  1.00  0.00    -0.358 OA
ATOM     15  H4  UNL     1       5.098 -17.187 110.767  1.00  0.00     0.217 HD
ENDBRANCH   5  14
BRANCH   4  16
HETATM   16  O3  UNL     1       5.881 -19.312 112.669  1.00  0.00    -0.358 OA
ATOM     17  H3  UNL     1       5.022 -19.642 112.902  1.00  0.00     0.217 HD
ENDBRANCH   4  16
TORSDOF 6
ENDMDL
