MODEL 2
REMARK VINA RESULT: -4.958770873      1.393      2.034
REMARK  6 active torsions:
REMARK  status: ('A' for Active; 'I' for Inactive)
REMARK    1  A    between atoms: C2_2  and  O1_3 
REMARK    2  A    between atoms: O1_3  and  C3_4 
REMARK    3  A    between atoms: C3_4  and  C4_6 
REMARK    4  A    between atoms: C5_7  and  C6_8 
REMARK    5  A    between atoms: C9_11  and  O3_12 
REMARK    6  A    between atoms: C10_14  and  O4_15 
ROOT
HETATM    1  C6  UNL     1       7.095 -16.857 115.104  1.00  0.00    -0.033 A 
HETATM    2  C7  UNL     1       7.150 -15.715 114.317  1.00  0.00     0.014 A 
HETATM    3  C8  UNL     1       6.785 -15.742 113.001  1.00  0.00     0.040 A 
HETATM    4  C9  UNL     1       6.349 -16.948 112.437  1.00  0.00     0.098 A 
HETATM    5  C10 UNL     1       6.284 -18.091 113.190  1.00  0.00     0.099 A 
HETATM    6  C11 UNL     1       6.661 -18.021 114.515  1.00  0.00     0.050 A 
ENDROOT
BRANCH   1   7
HETATM    7  C5  UNL     1       7.499 -16.749 116.498  1.00  0.00     0.017 C 
HETATM    8  C4  UNL     1       7.096 -17.596 117.413  1.00  0.00     0.083 C 
BRANCH   8   9
HETATM    9  C3  UNL     1       7.534 -17.441 118.807  1.00  0.00     0.282 C 
HETATM   10  O2  UNL     1       7.317 -16.394 119.459  1.00  0.00    -0.260 OA
BRANCH   9  11
HETATM   11  O1  UNL     1       8.211 -18.454 119.472  1.00  0.00    -0.319 OA
BRANCH  11  12
HETATM   12  C2  UNL     1       9.125 -19.282 118.827  1.00  0.00     0.174 C 
HETATM   13  C1  UNL     1       8.716 -20.723 118.763  1.00  0.00     0.034 C 
ENDBRANCH  11  12
ENDBRANCH   9  11
ENDBRANCH   8   9
ENDBRANCH   1   7
BRANCH   5  14
HETATM   14  O4  UNL     1       5.857 -19.291 112.658  1.00  0.00    -0.358 OA
ATOM     15  H4  UNL     1       5.001 -19.386 112.256  1.00  0.00     0.217 HD
ENDBRANCH   5  14
BRANCH   4  16
HETATM   16  O3  UNL     1       5.990 -16.948 111.117  1.00  0.00    -0.358 OA
ATOM     17  H3  UNL     1       5.851 -17.787 110.692  1.00  0.00     0.217 HD
ENDBRANCH   4  16
TORSDOF 6
ENDMDL
