MODEL 8
REMARK VINA RESULT: -4.685414212      1.521      2.031
REMARK  6 active torsions:
REMARK  status: ('A' for Active; 'I' for Inactive)
REMARK    1  A    between atoms: C2_2  and  O1_3 
REMARK    2  A    between atoms: O1_3  and  C3_4 
REMARK    3  A    between atoms: C3_4  and  C4_6 
REMARK    4  A    between atoms: C5_7  and  C6_8 
REMARK    5  A    between atoms: C9_11  and  O3_12 
REMARK    6  A    between atoms: C10_14  and  O4_15 
ROOT
HETATM    1  C6  UNL     1       7.527 -17.484 114.176  1.00  0.00    -0.033 A 
HETATM    2  C7  UNL     1       8.409 -17.020 113.211  1.00  0.00     0.014 A 
HETATM    3  C8  UNL     1       7.988 -16.737 111.943  1.00  0.00     0.040 A 
HETATM    4  C9  UNL     1       6.639 -16.921 111.612  1.00  0.00     0.098 A 
HETATM    5  C10 UNL     1       5.745 -17.377 112.546  1.00  0.00     0.099 A 
HETATM    6  C11 UNL     1       6.211 -17.651 113.816  1.00  0.00     0.050 A 
ENDROOT
BRANCH   1   7
HETATM    7  C5  UNL     1       8.050 -17.763 115.505  1.00  0.00     0.017 C 
HETATM    8  C4  UNL     1       7.280 -18.128 116.500  1.00  0.00     0.083 C 
BRANCH   8   9
HETATM    9  C3  UNL     1       7.860 -18.398 117.823  1.00  0.00     0.282 C 
HETATM   10  O2  UNL     1       7.478 -17.793 118.851  1.00  0.00    -0.260 OA
BRANCH   9  11
HETATM   11  O1  UNL     1       8.862 -19.342 117.998  1.00  0.00    -0.319 OA
BRANCH  11  12
HETATM   12  C2  UNL     1       8.608 -20.607 118.518  1.00  0.00     0.174 C 
HETATM   13  C1  UNL     1       9.308 -20.896 119.811  1.00  0.00     0.034 C 
ENDBRANCH  11  12
ENDBRANCH   9  11
ENDBRANCH   8   9
ENDBRANCH   1   7
BRANCH   5  14
HETATM   14  O4  UNL     1       4.411 -17.566 112.246  1.00  0.00    -0.358 OA
ATOM     15  H4  UNL     1       3.907 -16.916 111.769  1.00  0.00     0.217 HD
ENDBRANCH   5  14
BRANCH   4  16
HETATM   16  O3  UNL     1       6.243 -16.630 110.336  1.00  0.00    -0.358 OA
ATOM     17  H3  UNL     1       5.423 -16.164 110.217  1.00  0.00     0.217 HD
ENDBRANCH   4  16
TORSDOF 6
ENDMDL
