MODEL 7
REMARK VINA RESULT: -4.737742941      0.879      1.894
REMARK  6 active torsions:
REMARK  status: ('A' for Active; 'I' for Inactive)
REMARK    1  A    between atoms: C2_2  and  O1_3 
REMARK    2  A    between atoms: O1_3  and  C3_4 
REMARK    3  A    between atoms: C3_4  and  C4_6 
REMARK    4  A    between atoms: C5_7  and  C6_8 
REMARK    5  A    between atoms: C9_11  and  O3_12 
REMARK    6  A    between atoms: C10_14  and  O4_15 
ROOT
HETATM    1  C6  UNL     1       6.925 -17.915 115.892  1.00  0.00    -0.033 A 
HETATM    2  C7  UNL     1       6.474 -16.685 116.351  1.00  0.00     0.014 A 
HETATM    3  C8  UNL     1       5.869 -15.794 115.511  1.00  0.00     0.040 A 
HETATM    4  C9  UNL     1       5.702 -16.130 114.161  1.00  0.00     0.098 A 
HETATM    5  C10 UNL     1       6.137 -17.338 113.681  1.00  0.00     0.099 A 
HETATM    6  C11 UNL     1       6.743 -18.210 114.562  1.00  0.00     0.050 A 
ENDROOT
BRANCH   1   7
HETATM    7  C5  UNL     1       7.559 -18.811 116.848  1.00  0.00     0.017 C 
HETATM    8  C4  UNL     1       8.053 -18.387 117.986  1.00  0.00     0.083 C 
BRANCH   8   9
HETATM    9  C3  UNL     1       8.683 -19.334 118.916  1.00  0.00     0.282 C 
HETATM   10  O2  UNL     1       9.003 -19.005 120.081  1.00  0.00    -0.260 OA
BRANCH   9  11
HETATM   11  O1  UNL     1       8.953 -20.644 118.547  1.00  0.00    -0.319 OA
BRANCH  11  12
HETATM   12  C2  UNL     1      10.238 -21.076 118.233  1.00  0.00     0.174 C 
HETATM   13  C1  UNL     1      10.649 -20.815 116.815  1.00  0.00     0.034 C 
ENDBRANCH  11  12
ENDBRANCH   9  11
ENDBRANCH   8   9
ENDBRANCH   1   7
BRANCH   5  14
HETATM   14  O4  UNL     1       5.984 -17.693 112.356  1.00  0.00    -0.358 OA
ATOM     15  H4  UNL     1       6.290 -18.529 112.022  1.00  0.00     0.217 HD
ENDBRANCH   5  14
BRANCH   4  16
HETATM   16  O3  UNL     1       5.093 -15.220 113.341  1.00  0.00    -0.358 OA
ATOM     17  H3  UNL     1       4.768 -14.416 113.728  1.00  0.00     0.217 HD
ENDBRANCH   4  16
TORSDOF 6
ENDMDL
