MODEL 6
REMARK VINA RESULT: -4.738883238      1.117      1.987
REMARK  6 active torsions:
REMARK  status: ('A' for Active; 'I' for Inactive)
REMARK    1  A    between atoms: C2_2  and  O1_3 
REMARK    2  A    between atoms: O1_3  and  C3_4 
REMARK    3  A    between atoms: C3_4  and  C4_6 
REMARK    4  A    between atoms: C5_7  and  C6_8 
REMARK    5  A    between atoms: C9_11  and  O3_12 
REMARK    6  A    between atoms: C10_14  and  O4_15 
ROOT
HETATM    1  C6  UNL     1       6.834 -17.217 115.572  1.00  0.00    -0.033 A 
HETATM    2  C7  UNL     1       5.978 -16.159 115.301  1.00  0.00     0.014 A 
HETATM    3  C8  UNL     1       5.188 -16.154 114.187  1.00  0.00     0.040 A 
HETATM    4  C9  UNL     1       5.245 -17.239 113.303  1.00  0.00     0.098 A 
HETATM    5  C10 UNL     1       6.080 -18.298 113.546  1.00  0.00     0.099 A 
HETATM    6  C11 UNL     1       6.862 -18.265 114.682  1.00  0.00     0.050 A 
ENDROOT
BRANCH   1   7
HETATM    7  C5  UNL     1       7.644 -17.150 116.779  1.00  0.00     0.017 C 
HETATM    8  C4  UNL     1       7.160 -17.425 117.966  1.00  0.00     0.083 C 
BRANCH   8   9
HETATM    9  C3  UNL     1       8.021 -17.343 119.153  1.00  0.00     0.282 C 
HETATM   10  O2  UNL     1       8.392 -16.245 119.629  1.00  0.00    -0.260 OA
BRANCH   9  11
HETATM   11  O1  UNL     1       8.467 -18.482 119.808  1.00  0.00    -0.319 OA
BRANCH  11  12
HETATM   12  C2  UNL     1       9.381 -19.359 119.231  1.00  0.00     0.174 C 
HETATM   13  C1  UNL     1       8.799 -20.679 118.822  1.00  0.00     0.034 C 
ENDBRANCH  11  12
ENDBRANCH   9  11
ENDBRANCH   8   9
ENDBRANCH   1   7
BRANCH   5  14
HETATM   14  O4  UNL     1       6.154 -19.379 112.691  1.00  0.00    -0.358 OA
ATOM     15  H4  UNL     1       6.786 -20.077 112.818  1.00  0.00     0.217 HD
ENDBRANCH   5  14
BRANCH   4  16
HETATM   16  O3  UNL     1       4.443 -17.210 112.194  1.00  0.00    -0.358 OA
ATOM     17  H3  UNL     1       4.848 -17.026 111.355  1.00  0.00     0.217 HD
ENDBRANCH   4  16
TORSDOF 6
ENDMDL
