MODEL 5
REMARK VINA RESULT: -4.751354266      1.862      2.935
REMARK  6 active torsions:
REMARK  status: ('A' for Active; 'I' for Inactive)
REMARK    1  A    between atoms: C2_2  and  O1_3 
REMARK    2  A    between atoms: O1_3  and  C3_4 
REMARK    3  A    between atoms: C3_4  and  C4_6 
REMARK    4  A    between atoms: C5_7  and  C6_8 
REMARK    5  A    between atoms: C9_11  and  O3_12 
REMARK    6  A    between atoms: C10_14  and  O4_15 
ROOT
HETATM    1  C6  UNL     1       7.004 -16.913 115.207  1.00  0.00    -0.033 A 
HETATM    2  C7  UNL     1       7.034 -15.745 114.457  1.00  0.00     0.014 A 
HETATM    3  C8  UNL     1       6.689 -15.742 113.136  1.00  0.00     0.040 A 
HETATM    4  C9  UNL     1       6.298 -16.942 112.528  1.00  0.00     0.098 A 
HETATM    5  C10 UNL     1       6.258 -18.110 113.243  1.00  0.00     0.099 A 
HETATM    6  C11 UNL     1       6.615 -18.071 114.576  1.00  0.00     0.050 A 
ENDROOT
BRANCH   1   7
HETATM    7  C5  UNL     1       7.385 -16.836 116.609  1.00  0.00     0.017 C 
HETATM    8  C4  UNL     1       7.319 -17.871 117.412  1.00  0.00     0.083 C 
BRANCH   8   9
HETATM    9  C3  UNL     1       7.717 -17.740 118.820  1.00  0.00     0.282 C 
HETATM   10  O2  UNL     1       8.479 -18.565 119.374  1.00  0.00    -0.260 OA
BRANCH   9  11
HETATM   11  O1  UNL     1       7.266 -16.690 119.608  1.00  0.00    -0.319 OA
BRANCH  11  12
HETATM   12  C2  UNL     1       7.595 -16.579 120.955  1.00  0.00     0.174 C 
HETATM   13  C1  UNL     1       6.527 -17.054 121.894  1.00  0.00     0.034 C 
ENDBRANCH  11  12
ENDBRANCH   9  11
ENDBRANCH   8   9
ENDBRANCH   1   7
BRANCH   5  14
HETATM   14  O4  UNL     1       5.876 -19.305 112.668  1.00  0.00    -0.358 OA
ATOM     15  H4  UNL     1       6.254 -20.135 112.936  1.00  0.00     0.217 HD
ENDBRANCH   5  14
BRANCH   4  16
HETATM   16  O3  UNL     1       5.957 -16.912 111.203  1.00  0.00    -0.358 OA
ATOM     17  H3  UNL     1       5.781 -17.738 110.768  1.00  0.00     0.217 HD
ENDBRANCH   4  16
TORSDOF 6
ENDMDL
