MODEL 11
REMARK VINA RESULT: -7.625455418      1.839      7.325
REMARK  7 active torsions:
REMARK  status: ('A' for Active; 'I' for Inactive)
REMARK    1  A    between atoms: C2_3  and  O2_4 
REMARK    2  A    between atoms: C3_6  and  C4_7 
REMARK    3  A    between atoms: C6_9  and  O3_10 
REMARK    4  A    between atoms: C7_12  and  O4_13 
REMARK    5  A    between atoms: C8_15  and  O5_16 
REMARK    6  A    between atoms: C12_22  and  O7_23 
REMARK    7  A    between atoms: C14_26  and  O8_27 
ROOT
HETATM    1  O1  UNL     1       8.817  17.328  39.870  1.00  0.00    -0.284 OA
HETATM    2  C1  UNL     1      10.025  17.391  40.169  1.00  0.00     0.223 A 
HETATM    3  C2  UNL     1      10.977  16.859  39.280  1.00  0.00     0.152 A 
HETATM    4  C3  UNL     1      12.303  16.898  39.551  1.00  0.00     0.123 A 
HETATM    5  O6  UNL     1      12.658  17.468  40.706  1.00  0.00    -0.306 OA
HETATM    6  C10 UNL     1      11.814  17.971  41.557  1.00  0.00     0.096 A 
HETATM    7  C11 UNL     1      12.279  18.546  42.738  1.00  0.00     0.075 A 
HETATM    8  C12 UNL     1      11.443  19.085  43.659  1.00  0.00     0.071 A 
HETATM    9  C13 UNL     1      10.094  19.065  43.423  1.00  0.00     0.074 A 
HETATM   10  C14 UNL     1       9.565  18.499  42.249  1.00  0.00     0.085 A 
HETATM   11  C15 UNL     1      10.442  17.968  41.349  1.00  0.00     0.084 A 
ENDROOT
BRANCH   4  12
HETATM   12  C4  UNL     1      13.335  16.371  38.681  1.00  0.00     0.006 A 
HETATM   13  C5  UNL     1      13.518  16.741  37.386  1.00  0.00     0.054 A 
HETATM   14  C6  UNL     1      14.544  16.189  36.591  1.00  0.00     0.102 A 
HETATM   15  C7  UNL     1      15.411  15.247  37.092  1.00  0.00     0.132 A 
HETATM   16  C8  UNL     1      15.215  14.885  38.397  1.00  0.00     0.102 A 
HETATM   17  C9  UNL     1      14.230  15.407  39.179  1.00  0.00     0.054 A 
BRANCH  14  18
HETATM   18  O3  UNL     1      14.708  16.585  35.268  1.00  0.00    -0.358 OA
ATOM     19  H3  UNL     1      14.983  15.962  34.605  1.00  0.00     0.217 HD
ENDBRANCH  14  18
BRANCH  15  20
HETATM   20  O4  UNL     1      16.415  14.714  36.296  1.00  0.00    -0.356 OA
ATOM     21  H4  UNL     1      16.211  14.087  35.612  1.00  0.00     0.218 HD
ENDBRANCH  15  20
BRANCH  16  22
HETATM   22  O5  UNL     1      16.087  13.926  38.927  1.00  0.00    -0.358 OA
ATOM     23  H5  UNL     1      16.859  13.717  38.415  1.00  0.00     0.217 HD
ENDBRANCH  16  22
ENDBRANCH   4  12
BRANCH   3  24
HETATM   24  O2  UNL     1      10.486  16.300  38.126  1.00  0.00    -0.355 OA
ATOM     25  H2  UNL     1      10.443  16.871  37.368  1.00  0.00     0.218 HD
ENDBRANCH   3  24
BRANCH  10  26
HETATM   26  O8  UNL     1       8.235  18.512  42.078  1.00  0.00    -0.360 OA
ATOM     27  H8  UNL     1       7.894  18.672  41.205  1.00  0.00     0.217 HD
ENDBRANCH  10  26
BRANCH   8  28
HETATM   28  O7  UNL     1      11.953  19.651  44.831  1.00  0.00    -0.361 OA
ATOM     29  H7  UNL     1      11.500  19.532  45.657  1.00  0.00     0.217 HD
ENDBRANCH   8  28
TORSDOF 7
ENDMDL
