MODEL 14
REMARK VINA RESULT: -7.566231874      2.386      7.153
REMARK  7 active torsions:
REMARK  status: ('A' for Active; 'I' for Inactive)
REMARK    1  A    between atoms: C2_3  and  O2_4 
REMARK    2  A    between atoms: C3_6  and  C4_7 
REMARK    3  A    between atoms: C6_9  and  O3_10 
REMARK    4  A    between atoms: C7_12  and  O4_13 
REMARK    5  A    between atoms: C8_15  and  O5_16 
REMARK    6  A    between atoms: C12_22  and  O7_23 
REMARK    7  A    between atoms: C14_26  and  O8_27 
ROOT
HETATM    1  O1  UNL     1      12.164  17.381  43.388  1.00  0.00    -0.284 OA
HETATM    2  C1  UNL     1      11.619  16.992  42.338  1.00  0.00     0.223 A 
HETATM    3  C2  UNL     1      12.216  17.302  41.104  1.00  0.00     0.152 A 
HETATM    4  C3  UNL     1      11.670  16.906  39.930  1.00  0.00     0.123 A 
HETATM    5  O6  UNL     1      10.535  16.205  40.007  1.00  0.00    -0.306 OA
HETATM    6  C10 UNL     1       9.948  15.895  41.125  1.00  0.00     0.096 A 
HETATM    7  C11 UNL     1       8.765  15.159  41.107  1.00  0.00     0.075 A 
HETATM    8  C12 UNL     1       8.113  14.810  42.242  1.00  0.00     0.071 A 
HETATM    9  C13 UNL     1       8.632  15.192  43.451  1.00  0.00     0.074 A 
HETATM   10  C14 UNL     1       9.823  15.935  43.533  1.00  0.00     0.085 A 
HETATM   11  C15 UNL     1      10.448  16.266  42.366  1.00  0.00     0.084 A 
ENDROOT
BRANCH   4  12
HETATM   12  C4  UNL     1      12.232  17.191  38.624  1.00  0.00     0.006 A 
HETATM   13  C5  UNL     1      11.826  18.203  37.812  1.00  0.00     0.054 A 
HETATM   14  C6  UNL     1      12.414  18.427  36.550  1.00  0.00     0.102 A 
HETATM   15  C7  UNL     1      13.430  17.628  36.080  1.00  0.00     0.132 A 
HETATM   16  C8  UNL     1      13.827  16.613  36.908  1.00  0.00     0.102 A 
HETATM   17  C9  UNL     1      13.271  16.383  38.129  1.00  0.00     0.054 A 
BRANCH  14  18
HETATM   18  O3  UNL     1      11.980  19.469  35.739  1.00  0.00    -0.358 OA
ATOM     19  H3  UNL     1      11.070  19.529  35.469  1.00  0.00     0.217 HD
ENDBRANCH  14  18
BRANCH  15  20
HETATM   20  O4  UNL     1      13.997  17.862  34.836  1.00  0.00    -0.356 OA
ATOM     21  H4  UNL     1      14.756  17.369  34.549  1.00  0.00     0.218 HD
ENDBRANCH  15  20
BRANCH  16  22
HETATM   22  O5  UNL     1      14.860  15.788  36.449  1.00  0.00    -0.358 OA
ATOM     23  H5  UNL     1      14.692  15.287  35.659  1.00  0.00     0.217 HD
ENDBRANCH  16  22
ENDBRANCH   4  12
BRANCH   3  24
HETATM   24  O2  UNL     1      13.380  18.028  41.156  1.00  0.00    -0.355 OA
ATOM     25  H2  UNL     1      13.329  18.929  40.860  1.00  0.00     0.218 HD
ENDBRANCH   3  24
BRANCH  10  26
HETATM   26  O8  UNL     1      10.279  16.277  44.746  1.00  0.00    -0.360 OA
ATOM     27  H8  UNL     1      10.356  17.201  44.956  1.00  0.00     0.217 HD
ENDBRANCH  10  26
BRANCH   8  28
HETATM   28  O7  UNL     1       6.928  14.071  42.177  1.00  0.00    -0.361 OA
ATOM     29  H7  UNL     1       6.894  13.188  42.526  1.00  0.00     0.217 HD
ENDBRANCH   8  28
TORSDOF 7
ENDMDL
