MODEL 13
REMARK VINA RESULT: -7.578193617      2.380      6.980
REMARK  7 active torsions:
REMARK  status: ('A' for Active; 'I' for Inactive)
REMARK    1  A    between atoms: C2_3  and  O2_4 
REMARK    2  A    between atoms: C3_6  and  C4_7 
REMARK    3  A    between atoms: C6_9  and  O3_10 
REMARK    4  A    between atoms: C7_12  and  O4_13 
REMARK    5  A    between atoms: C8_15  and  O5_16 
REMARK    6  A    between atoms: C12_22  and  O7_23 
REMARK    7  A    between atoms: C14_26  and  O8_27 
ROOT
HETATM    1  O1  UNL     1      12.210  17.336  43.391  1.00  0.00    -0.284 OA
HETATM    2  C1  UNL     1      11.673  16.939  42.340  1.00  0.00     0.223 A 
HETATM    3  C2  UNL     1      12.288  17.226  41.109  1.00  0.00     0.152 A 
HETATM    4  C3  UNL     1      11.753  16.821  39.933  1.00  0.00     0.123 A 
HETATM    5  O6  UNL     1      10.609  16.133  40.006  1.00  0.00    -0.306 OA
HETATM    6  C10 UNL     1      10.005  15.844  41.120  1.00  0.00     0.096 A 
HETATM    7  C11 UNL     1       8.815  15.121  41.097  1.00  0.00     0.075 A 
HETATM    8  C12 UNL     1       8.145  14.793  42.230  1.00  0.00     0.071 A 
HETATM    9  C13 UNL     1       8.654  15.186  43.440  1.00  0.00     0.074 A 
HETATM   10  C14 UNL     1       9.851  15.918  43.526  1.00  0.00     0.085 A 
HETATM   11  C15 UNL     1      10.494  16.226  42.362  1.00  0.00     0.084 A 
ENDROOT
BRANCH   4  12
HETATM   12  C4  UNL     1      12.333  17.082  38.631  1.00  0.00     0.006 A 
HETATM   13  C5  UNL     1      13.370  16.386  38.093  1.00  0.00     0.054 A 
HETATM   14  C6  UNL     1      13.890  16.691  36.819  1.00  0.00     0.102 A 
HETATM   15  C7  UNL     1      13.370  17.710  36.057  1.00  0.00     0.132 A 
HETATM   16  C8  UNL     1      12.326  18.401  36.611  1.00  0.00     0.102 A 
HETATM   17  C9  UNL     1      11.812  18.121  37.840  1.00  0.00     0.054 A 
BRANCH  14  18
HETATM   18  O3  UNL     1      14.952  15.963  36.293  1.00  0.00    -0.358 OA
ATOM     19  H3  UNL     1      15.053  15.862  35.353  1.00  0.00     0.217 HD
ENDBRANCH  14  18
BRANCH  15  20
HETATM   20  O4  UNL     1      13.893  17.996  34.804  1.00  0.00    -0.356 OA
ATOM     21  H4  UNL     1      14.606  17.481  34.447  1.00  0.00     0.218 HD
ENDBRANCH  15  20
BRANCH  16  22
HETATM   22  O5  UNL     1      11.782  19.444  35.851  1.00  0.00    -0.358 OA
ATOM     23  H5  UNL     1      11.593  19.258  34.939  1.00  0.00     0.217 HD
ENDBRANCH  16  22
ENDBRANCH   4  12
BRANCH   3  24
HETATM   24  O2  UNL     1      13.460  17.941  41.166  1.00  0.00    -0.355 OA
ATOM     25  H2  UNL     1      14.197  17.580  40.687  1.00  0.00     0.218 HD
ENDBRANCH   3  24
BRANCH  10  26
HETATM   26  O8  UNL     1      10.297  16.271  44.741  1.00  0.00    -0.360 OA
ATOM     27  H8  UNL     1      10.676  15.599  45.296  1.00  0.00     0.217 HD
ENDBRANCH  10  26
BRANCH   8  28
HETATM   28  O7  UNL     1       6.953  14.067  42.160  1.00  0.00    -0.361 OA
ATOM     29  H7  UNL     1       6.948  13.186  41.803  1.00  0.00     0.217 HD
ENDBRANCH   8  28
TORSDOF 7
ENDMDL
