MODEL 12
REMARK VINA RESULT: -9.483745104      2.207      2.762
REMARK  11 active torsions:
REMARK  status: ('A' for Active; 'I' for Inactive)
REMARK    1  A    between atoms: C2_2  and  N1_3 
REMARK    2  A    between atoms: C2_2  and  C25_38 
REMARK       I    between atoms: N1_3  and  C3_5 
REMARK    3  A    between atoms: C3_5  and  C4_7 
REMARK    4  A    between atoms: C4_7  and  N2_9 
REMARK       I    between atoms: N2_9  and  C6_11 
REMARK    5  A    between atoms: C6_11  and  C7_13 
REMARK    6  A    between atoms: C7_13  and  C8_14 
REMARK    7  A    between atoms: C7_13  and  C18_27 
REMARK    8  A    between atoms: C8_14  and  C9_15 
REMARK    9  A    between atoms: C11_17  and  C12_18 
REMARK   10  A    between atoms: C18_27  and  P1_28 
REMARK   11  A    between atoms: P1_28  and  C19_31 
ROOT
HETATM    1  C7  UNL     1      -6.645  25.699  -4.283  1.00  0.00     0.094 C 
ENDROOT
BRANCH   1   2
HETATM    2  C6  UNL     1      -6.948  27.110  -4.670  1.00  0.00     0.223 C 
HETATM    3  N2  UNL     1      -5.944  28.115  -4.738  1.00  0.00    -0.348 N 
ATOM      4  H2  UNL     1      -4.976  27.879  -4.518  1.00  0.00     0.163 HD
HETATM    5  O2  UNL     1      -8.116  27.478  -4.955  1.00  0.00    -0.273 OA
BRANCH   3   6
HETATM    6  C4  UNL     1      -6.290  29.482  -5.121  1.00  0.00     0.172 C 
HETATM    7  C5  UNL     1      -5.536  30.491  -4.291  1.00  0.00     0.042 C 
BRANCH   6   8
HETATM    8  C3  UNL     1      -6.006  29.671  -6.561  1.00  0.00     0.240 C 
HETATM    9  N1  UNL     1      -6.840  29.175  -7.595  1.00  0.00    -0.347 N 
ATOM     10  H1  UNL     1      -7.689  28.658  -7.367  1.00  0.00     0.163 HD
HETATM   11  O1  UNL     1      -4.976  30.302  -6.896  1.00  0.00    -0.271 OA
BRANCH   9  12
HETATM   12  C2  UNL     1      -6.480  29.408  -8.972  1.00  0.00     0.169 C 
HETATM   13  C1  UNL     1      -5.884  28.161  -9.594  1.00  0.00     0.042 C 
BRANCH  12  14
HETATM   14  C25 UNL     1      -7.634  29.913  -9.771  1.00  0.00     0.253 C 
HETATM   15  N4  UNL     1      -8.071  31.243  -9.495  1.00  0.00    -0.060 NA
HETATM   16  O6  UNL     1      -8.189  29.198 -10.644  1.00  0.00    -0.275 OA
ENDBRANCH  12  14
ENDBRANCH   9  12
ENDBRANCH   6   8
ENDBRANCH   3   6
ENDBRANCH   1   2
BRANCH   1  17
HETATM   17  C8  UNL     1      -6.941  24.755  -5.398  1.00  0.00     0.081 C 
BRANCH  17  18
HETATM   18  C9  UNL     1      -5.946  23.683  -5.603  1.00  0.00     0.079 A 
HETATM   19  C10 UNL     1      -4.665  23.861  -6.058  1.00  0.00     0.067 A 
HETATM   20  C11 UNL     1      -4.074  22.599  -6.103  1.00  0.00     0.067 A 
HETATM   21  N3  UNL     1      -5.010  21.747  -5.681  1.00  0.00    -0.260 N 
HETATM   22  O3  UNL     1      -6.085  22.394  -5.397  1.00  0.00    -0.242 OA
ATOM     23  H3  UNL     1      -4.891  20.737  -5.596  1.00  0.00     0.195 HD
BRANCH  20  24
HETATM   24  C12 UNL     1      -2.709  22.352  -6.533  1.00  0.00    -0.007 A 
HETATM   25  C13 UNL     1      -1.633  22.992  -5.964  1.00  0.00     0.014 A 
HETATM   26  C14 UNL     1      -0.331  22.761  -6.370  1.00  0.00     0.001 A 
HETATM   27  C15 UNL     1      -0.077  21.859  -7.381  1.00  0.00     0.000 A 
HETATM   28  C16 UNL     1      -1.150  21.210  -7.959  1.00  0.00     0.001 A 
HETATM   29  C17 UNL     1      -2.463  21.449  -7.544  1.00  0.00     0.014 A 
ENDBRANCH  20  24
ENDBRANCH  17  18
ENDBRANCH   1  17
BRANCH   1  30
HETATM   30  C18 UNL     1      -7.339  25.327  -3.001  1.00  0.00     0.123 C 
BRANCH  30  31
HETATM   31  P1  UNL     1      -6.459  25.293  -1.522  1.00  0.00     0.141 P 
HETATM   32  O4  UNL     1      -7.049  24.375  -0.208  1.00  0.00    -0.664 OA
HETATM   33  O5  UNL     1      -4.859  25.718  -1.529  1.00  0.00    -0.664 OA
BRANCH  31  34
HETATM   34  C19 UNL     1      -7.029  26.623  -0.748  1.00  0.00     0.030 A 
HETATM   35  C20 UNL     1      -6.530  27.906  -1.006  1.00  0.00     0.019 A 
HETATM   36  C21 UNL     1      -6.992  29.030  -0.431  1.00  0.00     0.020 A 
HETATM   37  C22 UNL     1      -8.013  28.951   0.469  1.00  0.00     0.011 A 
HETATM   38 BR1  UNL     1      -8.704  30.547   1.302  1.00  0.00    -0.051 Br
HETATM   39  C23 UNL     1      -8.553  27.741   0.775  1.00  0.00     0.020 A 
HETATM   40  C24 UNL     1      -8.062  26.638   0.176  1.00  0.00     0.019 A 
ENDBRANCH  31  34
ENDBRANCH  30  31
ENDBRANCH   1  30
TORSDOF 11
ENDMDL
