MODEL 4
REMARK VINA RESULT: -9.751565416      2.219      2.770
REMARK  11 active torsions:
REMARK  status: ('A' for Active; 'I' for Inactive)
REMARK    1  A    between atoms: C2_2  and  N1_3 
REMARK    2  A    between atoms: C2_2  and  C25_38 
REMARK       I    between atoms: N1_3  and  C3_5 
REMARK    3  A    between atoms: C3_5  and  C4_7 
REMARK    4  A    between atoms: C4_7  and  N2_9 
REMARK       I    between atoms: N2_9  and  C6_11 
REMARK    5  A    between atoms: C6_11  and  C7_13 
REMARK    6  A    between atoms: C7_13  and  C8_14 
REMARK    7  A    between atoms: C7_13  and  C18_27 
REMARK    8  A    between atoms: C8_14  and  C9_15 
REMARK    9  A    between atoms: C11_17  and  C12_18 
REMARK   10  A    between atoms: C18_27  and  P1_28 
REMARK   11  A    between atoms: P1_28  and  C19_31 
ROOT
HETATM    1  C7  UNL     1      -6.832  25.141  -3.800  1.00  0.00     0.094 C 
ENDROOT
BRANCH   1   2
HETATM    2  C6  UNL     1      -7.014  26.448  -4.499  1.00  0.00     0.223 C 
HETATM    3  N2  UNL     1      -5.974  27.414  -4.595  1.00  0.00    -0.348 N 
ATOM      4  H2  UNL     1      -5.064  27.221  -4.175  1.00  0.00     0.163 HD
HETATM    5  O2  UNL     1      -8.105  26.759  -5.041  1.00  0.00    -0.273 OA
BRANCH   3   6
HETATM    6  C4  UNL     1      -6.201  28.679  -5.289  1.00  0.00     0.172 C 
HETATM    7  C5  UNL     1      -5.356  29.784  -4.705  1.00  0.00     0.042 C 
BRANCH   6   8
HETATM    8  C3  UNL     1      -5.911  28.503  -6.730  1.00  0.00     0.240 C 
HETATM    9  N1  UNL     1      -6.662  29.123  -7.761  1.00  0.00    -0.347 N 
ATOM     10  H1  UNL     1      -7.449  29.728  -7.530  1.00  0.00     0.163 HD
HETATM   11  O1  UNL     1      -4.952  27.770  -7.067  1.00  0.00    -0.271 OA
BRANCH   9  12
HETATM   12  C2  UNL     1      -6.304  28.890  -9.138  1.00  0.00     0.169 C 
HETATM   13  C1  UNL     1      -7.535  28.874 -10.021  1.00  0.00     0.042 C 
BRANCH  12  14
HETATM   14  C25 UNL     1      -5.301  29.880  -9.627  1.00  0.00     0.253 C 
HETATM   15  N4  UNL     1      -4.225  29.367 -10.411  1.00  0.00    -0.060 NA
HETATM   16  O6  UNL     1      -5.404  31.105  -9.359  1.00  0.00    -0.275 OA
ENDBRANCH  12  14
ENDBRANCH   9  12
ENDBRANCH   6   8
ENDBRANCH   3   6
ENDBRANCH   1   2
BRANCH   1  17
HETATM   17  C8  UNL     1      -7.317  24.006  -4.635  1.00  0.00     0.081 C 
BRANCH  17  18
HETATM   18  C9  UNL     1      -6.310  23.402  -5.531  1.00  0.00     0.079 A 
HETATM   19  C10 UNL     1      -4.964  23.330  -5.283  1.00  0.00     0.067 A 
HETATM   20  C11 UNL     1      -4.385  22.688  -6.377  1.00  0.00     0.067 A 
HETATM   21  N3  UNL     1      -5.392  22.412  -7.207  1.00  0.00    -0.260 N 
HETATM   22  O3  UNL     1      -6.497  22.834  -6.699  1.00  0.00    -0.242 OA
ATOM     23  H3  UNL     1      -5.301  21.940  -8.107  1.00  0.00     0.195 HD
BRANCH  20  24
HETATM   24  C12 UNL     1      -2.965  22.412  -6.506  1.00  0.00    -0.007 A 
HETATM   25  C13 UNL     1      -2.484  21.399  -7.302  1.00  0.00     0.014 A 
HETATM   26  C14 UNL     1      -1.132  21.132  -7.428  1.00  0.00     0.001 A 
HETATM   27  C15 UNL     1      -0.214  21.895  -6.740  1.00  0.00     0.000 A 
HETATM   28  C16 UNL     1      -0.686  22.916  -5.938  1.00  0.00     0.001 A 
HETATM   29  C17 UNL     1      -2.053  23.180  -5.815  1.00  0.00     0.014 A 
ENDBRANCH  20  24
ENDBRANCH  17  18
ENDBRANCH   1  17
BRANCH   1  30
HETATM   30  C18 UNL     1      -7.453  25.167  -2.430  1.00  0.00     0.123 C 
BRANCH  30  31
HETATM   31  P1  UNL     1      -6.661  25.983  -1.137  1.00  0.00     0.141 P 
HETATM   32  O4  UNL     1      -6.368  25.159   0.330  1.00  0.00    -0.664 OA
HETATM   33  O5  UNL     1      -5.769  27.339  -1.469  1.00  0.00    -0.664 OA
BRANCH  31  34
HETATM   34  C19 UNL     1      -7.910  26.730  -0.380  1.00  0.00     0.030 A 
HETATM   35  C20 UNL     1      -9.207  26.203  -0.387  1.00  0.00     0.019 A 
HETATM   36  C21 UNL     1     -10.253  26.754   0.254  1.00  0.00     0.020 A 
HETATM   37  C22 UNL     1     -10.074  27.902   0.966  1.00  0.00     0.011 A 
HETATM   38 BR1  UNL     1     -11.553  28.710   1.904  1.00  0.00    -0.051 Br
HETATM   39  C23 UNL     1      -8.842  28.478   1.022  1.00  0.00     0.020 A 
HETATM   40  C24 UNL     1      -7.819  27.894   0.366  1.00  0.00     0.019 A 
ENDBRANCH  31  34
ENDBRANCH  30  31
ENDBRANCH   1  30
TORSDOF 11
ENDMDL
