MODEL 2
REMARK VINA RESULT: -9.930910805      1.720      2.067
REMARK  11 active torsions:
REMARK  status: ('A' for Active; 'I' for Inactive)
REMARK    1  A    between atoms: C2_2  and  N1_3 
REMARK    2  A    between atoms: C2_2  and  C25_38 
REMARK       I    between atoms: N1_3  and  C3_5 
REMARK    3  A    between atoms: C3_5  and  C4_7 
REMARK    4  A    between atoms: C4_7  and  N2_9 
REMARK       I    between atoms: N2_9  and  C6_11 
REMARK    5  A    between atoms: C6_11  and  C7_13 
REMARK    6  A    between atoms: C7_13  and  C8_14 
REMARK    7  A    between atoms: C7_13  and  C18_27 
REMARK    8  A    between atoms: C8_14  and  C9_15 
REMARK    9  A    between atoms: C11_17  and  C12_18 
REMARK   10  A    between atoms: C18_27  and  P1_28 
REMARK   11  A    between atoms: P1_28  and  C19_31 
ROOT
HETATM    1  C7  UNL     1      -6.027  25.351  -4.533  1.00  0.00     0.094 C 
ENDROOT
BRANCH   1   2
HETATM    2  C6  UNL     1      -6.647  26.383  -5.418  1.00  0.00     0.223 C 
HETATM    3  N2  UNL     1      -5.872  27.308  -6.170  1.00  0.00    -0.348 N 
ATOM      4  H2  UNL     1      -4.854  27.279  -6.114  1.00  0.00     0.163 HD
HETATM    5  O2  UNL     1      -7.895  26.482  -5.540  1.00  0.00    -0.273 OA
BRANCH   3   6
HETATM    6  C4  UNL     1      -6.525  28.300  -7.022  1.00  0.00     0.172 C 
HETATM    7  C5  UNL     1      -6.416  29.684  -6.433  1.00  0.00     0.042 C 
BRANCH   6   8
HETATM    8  C3  UNL     1      -5.921  28.255  -8.372  1.00  0.00     0.240 C 
HETATM    9  N1  UNL     1      -6.680  28.284  -9.570  1.00  0.00    -0.347 N 
ATOM     10  H1  UNL     1      -7.697  28.338  -9.533  1.00  0.00     0.163 HD
HETATM   11  O1  UNL     1      -4.674  28.190  -8.474  1.00  0.00    -0.271 OA
BRANCH   9  12
HETATM   12  C2  UNL     1      -6.002  28.235 -10.841  1.00  0.00     0.169 C 
HETATM   13  C1  UNL     1      -6.612  27.178 -11.740  1.00  0.00     0.042 C 
BRANCH  12  14
HETATM   14  C25 UNL     1      -5.980  29.567 -11.511  1.00  0.00     0.253 C 
HETATM   15  N4  UNL     1      -4.822  30.373 -11.297  1.00  0.00    -0.060 NA
HETATM   16  O6  UNL     1      -6.936  29.956 -12.230  1.00  0.00    -0.275 OA
ENDBRANCH  12  14
ENDBRANCH   9  12
ENDBRANCH   6   8
ENDBRANCH   3   6
ENDBRANCH   1   2
BRANCH   1  17
HETATM   17  C8  UNL     1      -5.636  24.138  -5.306  1.00  0.00     0.081 C 
BRANCH  17  18
HETATM   18  C9  UNL     1      -4.183  23.895  -5.413  1.00  0.00     0.079 A 
HETATM   19  C10 UNL     1      -3.585  22.996  -6.257  1.00  0.00     0.067 A 
HETATM   20  C11 UNL     1      -2.212  23.087  -6.038  1.00  0.00     0.067 A 
HETATM   21  N3  UNL     1      -2.058  24.017  -5.094  1.00  0.00    -0.260 N 
HETATM   22  O3  UNL     1      -3.210  24.472  -4.746  1.00  0.00    -0.242 OA
ATOM     23  H3  UNL     1      -1.164  24.321  -4.707  1.00  0.00     0.195 HD
BRANCH  20  24
HETATM   24  C12 UNL     1      -1.218  22.294  -6.740  1.00  0.00    -0.007 A 
HETATM   25  C13 UNL     1      -1.557  21.197  -7.498  1.00  0.00     0.014 A 
HETATM   26  C14 UNL     1      -0.614  20.438  -8.169  1.00  0.00     0.001 A 
HETATM   27  C15 UNL     1       0.720  20.772  -8.089  1.00  0.00     0.000 A 
HETATM   28  C16 UNL     1       1.072  21.872  -7.330  1.00  0.00     0.001 A 
HETATM   29  C17 UNL     1       0.114  22.634  -6.655  1.00  0.00     0.014 A 
ENDBRANCH  20  24
ENDBRANCH  17  18
ENDBRANCH   1  17
BRANCH   1  30
HETATM   30  C18 UNL     1      -6.916  25.037  -3.360  1.00  0.00     0.123 C 
BRANCH  30  31
HETATM   31  P1  UNL     1      -6.270  25.034  -1.765  1.00  0.00     0.141 P 
HETATM   32  O4  UNL     1      -6.767  23.836  -0.653  1.00  0.00    -0.664 OA
HETATM   33  O5  UNL     1      -4.856  25.843  -1.468  1.00  0.00    -0.664 OA
BRANCH  31  34
HETATM   34  C19 UNL     1      -7.275  26.068  -0.981  1.00  0.00     0.030 A 
HETATM   35  C20 UNL     1      -8.588  25.718  -0.643  1.00  0.00     0.019 A 
HETATM   36  C21 UNL     1      -9.435  26.512   0.034  1.00  0.00     0.020 A 
HETATM   37  C22 UNL     1      -9.020  27.748   0.433  1.00  0.00     0.011 A 
HETATM   38 BR1  UNL     1     -10.208  28.906   1.416  1.00  0.00    -0.051 Br
HETATM   39  C23 UNL     1      -7.758  28.164   0.143  1.00  0.00     0.020 A 
HETATM   40  C24 UNL     1      -6.939  27.338  -0.538  1.00  0.00     0.019 A 
ENDBRANCH  31  34
ENDBRANCH  30  31
ENDBRANCH   1  30
TORSDOF 11
ENDMDL
