MODEL 7
REMARK VINA RESULT: -9.656085051      2.073      2.618
REMARK  11 active torsions:
REMARK  status: ('A' for Active; 'I' for Inactive)
REMARK    1  A    between atoms: C2_2  and  N1_3 
REMARK    2  A    between atoms: C2_2  and  C25_38 
REMARK       I    between atoms: N1_3  and  C3_5 
REMARK    3  A    between atoms: C3_5  and  C4_7 
REMARK    4  A    between atoms: C4_7  and  N2_9 
REMARK       I    between atoms: N2_9  and  C6_11 
REMARK    5  A    between atoms: C6_11  and  C7_13 
REMARK    6  A    between atoms: C7_13  and  C8_14 
REMARK    7  A    between atoms: C7_13  and  C18_27 
REMARK    8  A    between atoms: C8_14  and  C9_15 
REMARK    9  A    between atoms: C11_17  and  C12_18 
REMARK   10  A    between atoms: C18_27  and  P1_28 
REMARK   11  A    between atoms: P1_28  and  C19_31 
ROOT
HETATM    1  C7  UNL     1      -6.786  25.937  -4.055  1.00  0.00     0.094 C 
ENDROOT
BRANCH   1   2
HETATM    2  C6  UNL     1      -6.918  27.377  -4.429  1.00  0.00     0.223 C 
HETATM    3  N2  UNL     1      -5.884  28.325  -4.192  1.00  0.00    -0.348 N 
ATOM      4  H2  UNL     1      -5.014  28.026  -3.751  1.00  0.00     0.163 HD
HETATM    5  O2  UNL     1      -7.959  27.822  -4.976  1.00  0.00    -0.273 OA
BRANCH   3   6
HETATM    6  C4  UNL     1      -6.060  29.724  -4.576  1.00  0.00     0.172 C 
HETATM    7  C5  UNL     1      -5.151  30.628  -3.783  1.00  0.00     0.042 C 
BRANCH   6   8
HETATM    8  C3  UNL     1      -5.806  29.866  -6.027  1.00  0.00     0.240 C 
HETATM    9  N1  UNL     1      -6.819  29.755  -7.013  1.00  0.00    -0.347 N 
ATOM     10  H1  UNL     1      -7.783  29.568  -6.741  1.00  0.00     0.163 HD
HETATM   11  O1  UNL     1      -4.638  30.099  -6.415  1.00  0.00    -0.271 OA
BRANCH   9  12
HETATM   12  C2  UNL     1      -6.474  29.908  -8.405  1.00  0.00     0.169 C 
HETATM   13  C1  UNL     1      -6.519  28.574  -9.124  1.00  0.00     0.042 C 
BRANCH  12  14
HETATM   14  C25 UNL     1      -7.338  30.917  -9.084  1.00  0.00     0.253 C 
HETATM   15  N4  UNL     1      -7.068  32.288  -8.797  1.00  0.00    -0.060 NA
HETATM   16  O6  UNL     1      -8.256  30.571  -9.871  1.00  0.00    -0.275 OA
ENDBRANCH  12  14
ENDBRANCH   9  12
ENDBRANCH   6   8
ENDBRANCH   3   6
ENDBRANCH   1   2
BRANCH   1  17
HETATM   17  C8  UNL     1      -7.110  25.045  -5.204  1.00  0.00     0.081 C 
BRANCH  17  18
HETATM   18  C9  UNL     1      -6.168  23.929  -5.427  1.00  0.00     0.079 A 
HETATM   19  C10 UNL     1      -4.884  24.050  -5.889  1.00  0.00     0.067 A 
HETATM   20  C11 UNL     1      -4.353  22.763  -5.951  1.00  0.00     0.067 A 
HETATM   21  N3  UNL     1      -5.326  21.952  -5.531  1.00  0.00    -0.260 N 
HETATM   22  O3  UNL     1      -6.367  22.646  -5.233  1.00  0.00    -0.242 OA
ATOM     23  H3  UNL     1      -5.255  20.936  -5.457  1.00  0.00     0.195 HD
BRANCH  20  24
HETATM   24  C12 UNL     1      -3.005  22.455  -6.394  1.00  0.00    -0.007 A 
HETATM   25  C13 UNL     1      -1.901  23.097  -5.883  1.00  0.00     0.014 A 
HETATM   26  C14 UNL     1      -0.614  22.809  -6.301  1.00  0.00     0.001 A 
HETATM   27  C15 UNL     1      -0.405  21.845  -7.264  1.00  0.00     0.000 A 
HETATM   28  C16 UNL     1      -1.507  21.194  -7.784  1.00  0.00     0.001 A 
HETATM   29  C17 UNL     1      -2.804  21.491  -7.357  1.00  0.00     0.014 A 
ENDBRANCH  20  24
ENDBRANCH  17  18
ENDBRANCH   1  17
BRANCH   1  30
HETATM   30  C18 UNL     1      -7.590  25.620  -2.823  1.00  0.00     0.123 C 
BRANCH  30  31
HETATM   31  P1  UNL     1      -6.806  25.450  -1.300  1.00  0.00     0.141 P 
HETATM   32  O4  UNL     1      -6.590  23.894  -0.629  1.00  0.00    -0.664 OA
HETATM   33  O5  UNL     1      -5.852  26.685  -0.745  1.00  0.00    -0.664 OA
BRANCH  31  34
HETATM   34  C19 UNL     1      -8.047  25.649  -0.246  1.00  0.00     0.030 A 
HETATM   35  C20 UNL     1      -8.119  24.943   0.962  1.00  0.00     0.019 A 
HETATM   36  C21 UNL     1      -9.091  25.101   1.877  1.00  0.00     0.020 A 
HETATM   37  C22 UNL     1     -10.089  26.000   1.645  1.00  0.00     0.011 A 
HETATM   38 BR1  UNL     1     -11.492  26.257   2.943  1.00  0.00    -0.051 Br
HETATM   39  C23 UNL     1     -10.092  26.725   0.494  1.00  0.00     0.020 A 
HETATM   40  C24 UNL     1      -9.099  26.538  -0.398  1.00  0.00     0.019 A 
ENDBRANCH  31  34
ENDBRANCH  30  31
ENDBRANCH   1  30
TORSDOF 11
ENDMDL
