MODEL 11
REMARK VINA RESULT: -9.544412225      4.102      8.323
REMARK  11 active torsions:
REMARK  status: ('A' for Active; 'I' for Inactive)
REMARK    1  A    between atoms: C2_2  and  N1_3 
REMARK    2  A    between atoms: C2_2  and  C25_38 
REMARK       I    between atoms: N1_3  and  C3_5 
REMARK    3  A    between atoms: C3_5  and  C4_7 
REMARK    4  A    between atoms: C4_7  and  N2_9 
REMARK       I    between atoms: N2_9  and  C6_11 
REMARK    5  A    between atoms: C6_11  and  C7_13 
REMARK    6  A    between atoms: C7_13  and  C8_14 
REMARK    7  A    between atoms: C7_13  and  C18_27 
REMARK    8  A    between atoms: C8_14  and  C9_15 
REMARK    9  A    between atoms: C11_17  and  C12_18 
REMARK   10  A    between atoms: C18_27  and  P1_28 
REMARK   11  A    between atoms: P1_28  and  C19_31 
ROOT
HETATM    1  C7  UNL     1      -6.402  29.602  -5.367  1.00  0.00     0.094 C 
ENDROOT
BRANCH   1   2
HETATM    2  C6  UNL     1      -5.785  29.705  -4.011  1.00  0.00     0.223 C 
HETATM    3  N2  UNL     1      -6.530  29.501  -2.817  1.00  0.00    -0.348 N 
ATOM      4  H2  UNL     1      -7.524  29.275  -2.872  1.00  0.00     0.163 HD
HETATM    5  O2  UNL     1      -4.568  29.979  -3.861  1.00  0.00    -0.273 OA
BRANCH   3   6
HETATM    6  C4  UNL     1      -5.882  29.613  -1.512  1.00  0.00     0.172 C 
HETATM    7  C5  UNL     1      -6.031  31.002  -0.943  1.00  0.00     0.042 C 
BRANCH   6   8
HETATM    8  C3  UNL     1      -6.458  28.606  -0.593  1.00  0.00     0.240 C 
HETATM    9  N1  UNL     1      -7.197  27.478  -1.033  1.00  0.00    -0.347 N 
ATOM     10  H1  UNL     1      -7.356  27.324  -2.028  1.00  0.00     0.163 HD
HETATM   11  O1  UNL     1      -6.290  28.748   0.640  1.00  0.00    -0.271 OA
BRANCH   9  12
HETATM   12  C2  UNL     1      -7.721  26.551  -0.061  1.00  0.00     0.169 C 
HETATM   13  C1  UNL     1      -9.139  26.145  -0.411  1.00  0.00     0.042 C 
BRANCH  12  14
HETATM   14  C25 UNL     1      -6.842  25.356   0.099  1.00  0.00     0.253 C 
HETATM   15  N4  UNL     1      -6.516  24.637  -1.089  1.00  0.00    -0.060 NA
HETATM   16  O6  UNL     1      -6.410  25.006   1.227  1.00  0.00    -0.275 OA
ENDBRANCH  12  14
ENDBRANCH   9  12
ENDBRANCH   6   8
ENDBRANCH   3   6
ENDBRANCH   1   2
BRANCH   1  17
HETATM   17  C8  UNL     1      -7.193  28.346  -5.511  1.00  0.00     0.081 C 
BRANCH  17  18
HETATM   18  C9  UNL     1      -6.503  27.110  -5.088  1.00  0.00     0.079 A 
HETATM   19  C10 UNL     1      -5.845  26.241  -5.918  1.00  0.00     0.067 A 
HETATM   20  C11 UNL     1      -5.343  25.217  -5.115  1.00  0.00     0.067 A 
HETATM   21  N3  UNL     1      -5.718  25.518  -3.871  1.00  0.00    -0.260 N 
HETATM   22  O3  UNL     1      -6.388  26.617  -3.877  1.00  0.00    -0.242 OA
ATOM     23  H3  UNL     1      -5.506  24.963  -3.042  1.00  0.00     0.195 HD
BRANCH  20  24
HETATM   24  C12 UNL     1      -4.577  24.090  -5.614  1.00  0.00    -0.007 A 
HETATM   25  C13 UNL     1      -5.153  23.076  -6.344  1.00  0.00     0.014 A 
HETATM   26  C14 UNL     1      -4.428  21.998  -6.821  1.00  0.00     0.001 A 
HETATM   27  C15 UNL     1      -3.076  21.915  -6.569  1.00  0.00     0.000 A 
HETATM   28  C16 UNL     1      -2.486  22.928  -5.837  1.00  0.00     0.001 A 
HETATM   29  C17 UNL     1      -3.225  24.013  -5.358  1.00  0.00     0.014 A 
ENDBRANCH  20  24
ENDBRANCH  17  18
ENDBRANCH   1  17
BRANCH   1  30
HETATM   30  C18 UNL     1      -5.369  29.769  -6.448  1.00  0.00     0.123 C 
BRANCH  30  31
HETATM   31  P1  UNL     1      -5.701  30.764  -7.813  1.00  0.00     0.141 P 
HETATM   32  O4  UNL     1      -7.276  31.381  -8.047  1.00  0.00    -0.664 OA
HETATM   33  O5  UNL     1      -4.442  31.507  -8.592  1.00  0.00    -0.664 OA
BRANCH  31  34
HETATM   34  C19 UNL     1      -6.046  29.657  -8.974  1.00  0.00     0.030 A 
HETATM   35  C20 UNL     1      -7.254  29.672  -9.683  1.00  0.00     0.019 A 
HETATM   36  C21 UNL     1      -7.565  28.815 -10.670  1.00  0.00     0.020 A 
HETATM   37  C22 UNL     1      -6.668  27.854 -11.031  1.00  0.00     0.011 A 
HETATM   38 BR1  UNL     1      -7.082  26.617 -12.451  1.00  0.00    -0.051 Br
HETATM   39  C23 UNL     1      -5.471  27.772 -10.390  1.00  0.00     0.020 A 
HETATM   40  C24 UNL     1      -5.196  28.650  -9.406  1.00  0.00     0.019 A 
ENDBRANCH  31  34
ENDBRANCH  30  31
ENDBRANCH   1  30
TORSDOF 11
ENDMDL
