MODEL 9
REMARK VINA RESULT: -9.577436777      3.457      6.579
REMARK  11 active torsions:
REMARK  status: ('A' for Active; 'I' for Inactive)
REMARK    1  A    between atoms: C2_2  and  N1_3 
REMARK    2  A    between atoms: C2_2  and  C25_38 
REMARK       I    between atoms: N1_3  and  C3_5 
REMARK    3  A    between atoms: C3_5  and  C4_7 
REMARK    4  A    between atoms: C4_7  and  N2_9 
REMARK       I    between atoms: N2_9  and  C6_11 
REMARK    5  A    between atoms: C6_11  and  C7_13 
REMARK    6  A    between atoms: C7_13  and  C8_14 
REMARK    7  A    between atoms: C7_13  and  C18_27 
REMARK    8  A    between atoms: C8_14  and  C9_15 
REMARK    9  A    between atoms: C11_17  and  C12_18 
REMARK   10  A    between atoms: C18_27  and  P1_28 
REMARK   11  A    between atoms: P1_28  and  C19_31 
ROOT
HETATM    1  C7  UNL     1      -6.348  24.642  -5.346  1.00  0.00     0.094 C 
ENDROOT
BRANCH   1   2
HETATM    2  C6  UNL     1      -7.128  24.916  -4.102  1.00  0.00     0.223 C 
HETATM    3  N2  UNL     1      -6.539  24.874  -2.808  1.00  0.00    -0.348 N 
ATOM      4  H2  UNL     1      -5.549  24.649  -2.709  1.00  0.00     0.163 HD
HETATM    5  O2  UNL     1      -8.352  25.200  -4.141  1.00  0.00    -0.273 OA
BRANCH   3   6
HETATM    6  C4  UNL     1      -7.344  25.150  -1.620  1.00  0.00     0.172 C 
HETATM    7  C5  UNL     1      -7.464  23.927  -0.744  1.00  0.00     0.042 C 
BRANCH   6   8
HETATM    8  C3  UNL     1      -6.737  26.273  -0.871  1.00  0.00     0.240 C 
HETATM    9  N1  UNL     1      -7.486  27.179  -0.077  1.00  0.00    -0.347 N 
ATOM     10  H1  UNL     1      -8.497  27.077   0.004  1.00  0.00     0.163 HD
HETATM   11  O1  UNL     1      -5.497  26.442  -0.935  1.00  0.00    -0.271 OA
BRANCH   9  12
HETATM   12  C2  UNL     1      -6.805  28.245   0.616  1.00  0.00     0.169 C 
HETATM   13  C1  UNL     1      -7.467  29.580   0.336  1.00  0.00     0.042 C 
BRANCH  12  14
HETATM   14  C25 UNL     1      -6.711  27.984   2.082  1.00  0.00     0.253 C 
HETATM   15  N4  UNL     1      -5.852  28.842   2.831  1.00  0.00    -0.060 NA
HETATM   16  O6  UNL     1      -7.361  27.055   2.626  1.00  0.00    -0.275 OA
ENDBRANCH  12  14
ENDBRANCH   9  12
ENDBRANCH   6   8
ENDBRANCH   3   6
ENDBRANCH   1   2
BRANCH   1  17
HETATM   17  C8  UNL     1      -5.641  23.332  -5.266  1.00  0.00     0.081 C 
BRANCH  17  18
HETATM   18  C9  UNL     1      -4.176  23.391  -5.442  1.00  0.00     0.079 A 
HETATM   19  C10 UNL     1      -3.439  22.582  -6.268  1.00  0.00     0.067 A 
HETATM   20  C11 UNL     1      -2.107  22.971  -6.133  1.00  0.00     0.067 A 
HETATM   21  N3  UNL     1      -2.113  23.972  -5.251  1.00  0.00    -0.260 N 
HETATM   22  O3  UNL     1      -3.318  24.199  -4.863  1.00  0.00    -0.242 OA
ATOM     23  H3  UNL     1      -1.287  24.479  -4.932  1.00  0.00     0.195 HD
BRANCH  20  24
HETATM   24  C12 UNL     1      -1.001  22.358  -6.845  1.00  0.00    -0.007 A 
HETATM   25  C13 UNL     1      -1.193  21.400  -7.814  1.00  0.00     0.014 A 
HETATM   26  C14 UNL     1      -0.142  20.812  -8.496  1.00  0.00     0.001 A 
HETATM   27  C15 UNL     1       1.154  21.184  -8.212  1.00  0.00     0.000 A 
HETATM   28  C16 UNL     1       1.359  22.145  -7.241  1.00  0.00     0.001 A 
HETATM   29  C17 UNL     1       0.293  22.734  -6.556  1.00  0.00     0.014 A 
ENDBRANCH  20  24
ENDBRANCH  17  18
ENDBRANCH   1  17
BRANCH   1  30
HETATM   30  C18 UNL     1      -5.427  25.786  -5.673  1.00  0.00     0.123 C 
BRANCH  30  31
HETATM   31  P1  UNL     1      -6.053  27.221  -6.388  1.00  0.00     0.141 P 
HETATM   32  O4  UNL     1      -5.061  28.157  -7.416  1.00  0.00    -0.664 OA
HETATM   33  O5  UNL     1      -7.694  27.421  -6.484  1.00  0.00    -0.664 OA
BRANCH  31  34
HETATM   34  C19 UNL     1      -5.770  28.341  -5.223  1.00  0.00     0.030 A 
HETATM   35  C20 UNL     1      -4.961  29.462  -5.448  1.00  0.00     0.019 A 
HETATM   36  C21 UNL     1      -4.733  30.428  -4.541  1.00  0.00     0.020 A 
HETATM   37  C22 UNL     1      -5.311  30.341  -3.310  1.00  0.00     0.011 A 
HETATM   38 BR1  UNL     1      -5.012  31.717  -1.993  1.00  0.00    -0.051 Br
HETATM   39  C23 UNL     1      -6.111  29.282  -3.012  1.00  0.00     0.020 A 
HETATM   40  C24 UNL     1      -6.315  28.335  -3.949  1.00  0.00     0.019 A 
ENDBRANCH  31  34
ENDBRANCH  30  31
ENDBRANCH   1  30
TORSDOF 11
ENDMDL
