MODEL 5
REMARK VINA RESULT: -9.738539492      2.280      2.903
REMARK  11 active torsions:
REMARK  status: ('A' for Active; 'I' for Inactive)
REMARK    1  A    between atoms: C2_2  and  N1_3 
REMARK    2  A    between atoms: C2_2  and  C25_38 
REMARK       I    between atoms: N1_3  and  C3_5 
REMARK    3  A    between atoms: C3_5  and  C4_7 
REMARK    4  A    between atoms: C4_7  and  N2_9 
REMARK       I    between atoms: N2_9  and  C6_11 
REMARK    5  A    between atoms: C6_11  and  C7_13 
REMARK    6  A    between atoms: C7_13  and  C8_14 
REMARK    7  A    between atoms: C7_13  and  C18_27 
REMARK    8  A    between atoms: C8_14  and  C9_15 
REMARK    9  A    between atoms: C11_17  and  C12_18 
REMARK   10  A    between atoms: C18_27  and  P1_28 
REMARK   11  A    between atoms: P1_28  and  C19_31 
ROOT
HETATM    1  C7  UNL     1      -6.584  25.978  -3.953  1.00  0.00     0.094 C 
ENDROOT
BRANCH   1   2
HETATM    2  C6  UNL     1      -6.778  27.413  -4.320  1.00  0.00     0.223 C 
HETATM    3  N2  UNL     1      -5.741  28.379  -4.197  1.00  0.00    -0.348 N 
ATOM      4  H2  UNL     1      -4.825  28.097  -3.847  1.00  0.00     0.163 HD
HETATM    5  O2  UNL     1      -7.877  27.838  -4.758  1.00  0.00    -0.273 OA
BRANCH   3   6
HETATM    6  C4  UNL     1      -5.979  29.772  -4.569  1.00  0.00     0.172 C 
HETATM    7  C5  UNL     1      -5.069  30.705  -3.809  1.00  0.00     0.042 C 
BRANCH   6   8
HETATM    8  C3  UNL     1      -5.788  29.926  -6.028  1.00  0.00     0.240 C 
HETATM    9  N1  UNL     1      -6.841  29.816  -6.971  1.00  0.00    -0.347 N 
ATOM     10  H1  UNL     1      -7.792  29.621  -6.659  1.00  0.00     0.163 HD
HETATM   11  O1  UNL     1      -4.638  30.168  -6.463  1.00  0.00    -0.271 OA
BRANCH   9  12
HETATM   12  C2  UNL     1      -6.556  29.981  -8.375  1.00  0.00     0.169 C 
HETATM   13  C1  UNL     1      -6.532  28.641  -9.083  1.00  0.00     0.042 C 
BRANCH  12  14
HETATM   14  C25 UNL     1      -7.512  30.921  -9.029  1.00  0.00     0.253 C 
HETATM   15  N4  UNL     1      -8.252  30.413 -10.138  1.00  0.00    -0.060 NA
HETATM   16  O6  UNL     1      -7.655  32.102  -8.619  1.00  0.00    -0.275 OA
ENDBRANCH  12  14
ENDBRANCH   9  12
ENDBRANCH   6   8
ENDBRANCH   3   6
ENDBRANCH   1   2
BRANCH   1  17
HETATM   17  C8  UNL     1      -7.020  25.073  -5.053  1.00  0.00     0.081 C 
BRANCH  17  18
HETATM   18  C9  UNL     1      -6.108  23.948  -5.348  1.00  0.00     0.079 A 
HETATM   19  C10 UNL     1      -4.818  24.065  -5.797  1.00  0.00     0.067 A 
HETATM   20  C11 UNL     1      -4.323  22.770  -5.944  1.00  0.00     0.067 A 
HETATM   21  N3  UNL     1      -5.320  21.960  -5.584  1.00  0.00    -0.260 N 
HETATM   22  O3  UNL     1      -6.343  22.661  -5.242  1.00  0.00    -0.242 OA
ATOM     23  H3  UNL     1      -5.278  20.940  -5.579  1.00  0.00     0.195 HD
BRANCH  20  24
HETATM   24  C12 UNL     1      -2.982  22.455  -6.402  1.00  0.00    -0.007 A 
HETATM   25  C13 UNL     1      -1.868  23.087  -5.900  1.00  0.00     0.014 A 
HETATM   26  C14 UNL     1      -0.587  22.792  -6.333  1.00  0.00     0.001 A 
HETATM   27  C15 UNL     1      -0.395  21.832  -7.303  1.00  0.00     0.000 A 
HETATM   28  C16 UNL     1      -1.507  21.191  -7.814  1.00  0.00     0.001 A 
HETATM   29  C17 UNL     1      -2.797  21.494  -7.372  1.00  0.00     0.014 A 
ENDBRANCH  20  24
ENDBRANCH  17  18
ENDBRANCH   1  17
BRANCH   1  30
HETATM   30  C18 UNL     1      -7.243  25.660  -2.638  1.00  0.00     0.123 C 
BRANCH  30  31
HETATM   31  P1  UNL     1      -6.541  26.209  -1.165  1.00  0.00     0.141 P 
HETATM   32  O4  UNL     1      -6.371  25.127   0.146  1.00  0.00    -0.664 OA
HETATM   33  O5  UNL     1      -5.609  27.579  -1.180  1.00  0.00    -0.664 OA
BRANCH  31  34
HETATM   34  C19 UNL     1      -7.834  26.840  -0.377  1.00  0.00     0.030 A 
HETATM   35  C20 UNL     1      -9.082  26.203  -0.363  1.00  0.00     0.019 A 
HETATM   36  C21 UNL     1     -10.158  26.657   0.302  1.00  0.00     0.020 A 
HETATM   37  C22 UNL     1     -10.064  27.812   1.020  1.00  0.00     0.011 A 
HETATM   38 BR1  UNL     1     -11.588  28.482   1.993  1.00  0.00    -0.051 Br
HETATM   39  C23 UNL     1      -8.886  28.491   1.057  1.00  0.00     0.020 A 
HETATM   40  C24 UNL     1      -7.830  28.003   0.377  1.00  0.00     0.019 A 
ENDBRANCH  31  34
ENDBRANCH  30  31
ENDBRANCH   1  30
TORSDOF 11
ENDMDL
