MODEL 8
REMARK VINA RESULT: -9.654085273      3.299      8.068
REMARK  11 active torsions:
REMARK  status: ('A' for Active; 'I' for Inactive)
REMARK    1  A    between atoms: C2_2  and  N1_3 
REMARK    2  A    between atoms: C2_2  and  C25_38 
REMARK       I    between atoms: N1_3  and  C3_5 
REMARK    3  A    between atoms: C3_5  and  C4_7 
REMARK    4  A    between atoms: C4_7  and  N2_9 
REMARK       I    between atoms: N2_9  and  C6_11 
REMARK    5  A    between atoms: C6_11  and  C7_13 
REMARK    6  A    between atoms: C7_13  and  C8_14 
REMARK    7  A    between atoms: C7_13  and  C18_27 
REMARK    8  A    between atoms: C8_14  and  C9_15 
REMARK    9  A    between atoms: C11_17  and  C12_18 
REMARK   10  A    between atoms: C18_27  and  P1_28 
REMARK   11  A    between atoms: P1_28  and  C19_31 
ROOT
HETATM    1  C7  UNL     1      -6.362  25.261  -4.396  1.00  0.00     0.094 C 
ENDROOT
BRANCH   1   2
HETATM    2  C6  UNL     1      -6.976  26.566  -4.785  1.00  0.00     0.223 C 
HETATM    3  N2  UNL     1      -6.218  27.764  -4.889  1.00  0.00    -0.348 N 
ATOM      4  H2  UNL     1      -5.217  27.749  -4.695  1.00  0.00     0.163 HD
HETATM    5  O2  UNL     1      -8.203  26.666  -5.041  1.00  0.00    -0.273 OA
BRANCH   3   6
HETATM    6  C4  UNL     1      -6.864  29.017  -5.274  1.00  0.00     0.172 C 
HETATM    7  C5  UNL     1      -6.563  30.115  -4.284  1.00  0.00     0.042 C 
BRANCH   6   8
HETATM    8  C3  UNL     1      -6.418  29.399  -6.632  1.00  0.00     0.240 C 
HETATM    9  N1  UNL     1      -6.853  28.743  -7.812  1.00  0.00    -0.347 N 
ATOM     10  H1  UNL     1      -7.509  27.965  -7.755  1.00  0.00     0.163 HD
HETATM   11  O1  UNL     1      -5.614  30.352  -6.758  1.00  0.00    -0.271 OA
BRANCH   9  12
HETATM   12  C2  UNL     1      -6.362  29.186  -9.093  1.00  0.00     0.169 C 
HETATM   13  C1  UNL     1      -5.206  28.323  -9.557  1.00  0.00     0.042 C 
BRANCH  12  14
HETATM   14  C25 UNL     1      -7.445  29.236 -10.117  1.00  0.00     0.253 C 
HETATM   15  N4  UNL     1      -8.299  30.379 -10.092  1.00  0.00    -0.060 NA
HETATM   16  O6  UNL     1      -7.593  28.314 -10.960  1.00  0.00    -0.275 OA
ENDBRANCH  12  14
ENDBRANCH   9  12
ENDBRANCH   6   8
ENDBRANCH   3   6
ENDBRANCH   1   2
BRANCH   1  17
HETATM   17  C8  UNL     1      -5.725  25.340  -3.051  1.00  0.00     0.081 C 
BRANCH  17  18
HETATM   18  C9  UNL     1      -6.606  25.014  -1.911  1.00  0.00     0.079 A 
HETATM   19  C10 UNL     1      -7.558  25.843  -1.377  1.00  0.00     0.067 A 
HETATM   20  C11 UNL     1      -8.154  25.149  -0.325  1.00  0.00     0.067 A 
HETATM   21  N3  UNL     1      -7.543  23.964  -0.283  1.00  0.00    -0.260 N 
HETATM   22  O3  UNL     1      -6.650  23.907  -1.208  1.00  0.00    -0.242 OA
ATOM     23  H3  UNL     1      -7.751  23.218   0.382  1.00  0.00     0.195 HD
BRANCH  20  24
HETATM   24  C12 UNL     1      -9.220  25.682   0.504  1.00  0.00    -0.007 A 
HETATM   25  C13 UNL     1      -9.305  25.413   1.851  1.00  0.00     0.014 A 
HETATM   26  C14 UNL     1     -10.318  25.917   2.647  1.00  0.00     0.001 A 
HETATM   27  C15 UNL     1     -11.290  26.722   2.093  1.00  0.00     0.000 A 
HETATM   28  C16 UNL     1     -11.214  26.999   0.741  1.00  0.00     0.001 A 
HETATM   29  C17 UNL     1     -10.188  26.486  -0.056  1.00  0.00     0.014 A 
ENDBRANCH  20  24
ENDBRANCH  17  18
ENDBRANCH   1  17
BRANCH   1  30
HETATM   30  C18 UNL     1      -5.422  24.764  -5.461  1.00  0.00     0.123 C 
BRANCH  30  31
HETATM   31  P1  UNL     1      -5.519  23.133  -6.005  1.00  0.00     0.141 P 
HETATM   32  O4  UNL     1      -5.585  21.864  -4.864  1.00  0.00    -0.664 OA
HETATM   33  O5  UNL     1      -6.035  22.830  -7.549  1.00  0.00    -0.664 OA
BRANCH  31  34
HETATM   34  C19 UNL     1      -3.940  22.747  -6.228  1.00  0.00     0.030 A 
HETATM   35  C20 UNL     1      -3.539  21.710  -7.080  1.00  0.00     0.019 A 
HETATM   36  C21 UNL     1      -2.259  21.383  -7.328  1.00  0.00     0.020 A 
HETATM   37  C22 UNL     1      -1.259  22.088  -6.728  1.00  0.00     0.011 A 
HETATM   38 BR1  UNL     1       0.587  21.651  -7.074  1.00  0.00    -0.051 Br
HETATM   39  C23 UNL     1      -1.565  23.112  -5.885  1.00  0.00     0.020 A 
HETATM   40  C24 UNL     1      -2.861  23.408  -5.662  1.00  0.00     0.019 A 
ENDBRANCH  31  34
ENDBRANCH  30  31
ENDBRANCH   1  30
TORSDOF 11
ENDMDL
