MODEL 1
REMARK VINA RESULT: -9.643686202      0.000      0.000
REMARK  6 active torsions:
REMARK  status: ('A' for Active; 'I' for Inactive)
REMARK    1  A    between atoms: N1_2  and  C2_3 
REMARK    2  A    between atoms: N1_2  and  S1_32 
REMARK    3  A    between atoms: C6_9  and  C7_10 
REMARK    4  A    between atoms: C7_10  and  N3_11 
REMARK    5  A    between atoms: N3_11  and  C8_13 
REMARK    6  A    between atoms: C13_23  and  C14_24 
ROOT
HETATM    1  C8  UNL     1      18.514  -6.183 -47.242  1.00  0.00     0.064 A 
HETATM    2  C9  UNL     1      18.280  -6.874 -48.402  1.00  0.00     0.087 A 
HETATM    3  C10 UNL     1      17.253  -6.526 -49.342  1.00  0.00     0.103 C 
HETATM    4  N4  UNL     1      16.434  -6.273 -50.113  1.00  0.00    -0.191 NA
HETATM    5  C11 UNL     1      19.086  -7.985 -48.676  1.00  0.00     0.114 A 
HETATM    6  N5  UNL     1      20.066  -8.409 -47.876  1.00  0.00    -0.350 N 
ATOM      7  H5  UNL     1      20.624  -9.225 -48.126  1.00  0.00     0.166 HD
HETATM    8  C12 UNL     1      20.305  -7.741 -46.736  1.00  0.00     0.118 A 
HETATM    9  N6  UNL     1      21.224  -7.933 -45.734  1.00  0.00    -0.341 N 
ATOM     10  H6  UNL     1      21.921  -8.677 -45.705  1.00  0.00     0.167 HD
HETATM   11  C13 UNL     1      21.057  -6.984 -44.797  1.00  0.00     0.045 A 
HETATM   12  C20 UNL     1      20.020  -6.193 -45.225  1.00  0.00     0.048 A 
HETATM   13  C21 UNL     1      19.546  -6.654 -46.429  1.00  0.00     0.038 A 
ENDROOT
BRANCH   1  14
HETATM   14  N3  UNL     1      17.773  -5.039 -46.856  1.00  0.00    -0.383 N 
ATOM     15  H3  UNL     1      17.900  -4.190 -47.406  1.00  0.00     0.160 HD
BRANCH  14  16
HETATM   16  C7  UNL     1      16.871  -4.981 -45.767  1.00  0.00     0.162 C 
BRANCH  16  17
HETATM   17  C6  UNL     1      15.746  -5.954 -45.800  1.00  0.00     0.004 A 
HETATM   18  C2  UNL     1      15.652  -6.958 -44.861  1.00  0.00     0.124 A 
HETATM   19  N2  UNL     1      14.611  -7.829 -44.864  1.00  0.00    -0.351 N 
HETATM   20  C3  UNL     1      13.621  -7.785 -45.754  1.00  0.00     0.090 A 
ATOM     21  H2  UNL     1      14.585  -8.555 -44.149  1.00  0.00     0.166 HD
HETATM   22  C4  UNL     1      13.659  -6.815 -46.708  1.00  0.00     0.018 A 
HETATM   23  C5  UNL     1      14.728  -5.902 -46.723  1.00  0.00     0.014 A 
BRANCH  18  24
HETATM   24  N1  UNL     1      16.603  -7.128 -43.830  1.00  0.00    -0.265 N 
HETATM   25  C1  UNL     1      17.577  -8.232 -43.936  1.00  0.00     0.171 C 
BRANCH  24  26
HETATM   26  S1  UNL     1      16.736  -6.148 -42.430  1.00  0.00     0.229 S 
HETATM   27  C22 UNL     1      17.010  -7.178 -40.975  1.00  0.00     0.186 C 
HETATM   28  O1  UNL     1      17.901  -5.246 -42.548  1.00  0.00    -0.206 OA
HETATM   29  O2  UNL     1      15.461  -5.401 -42.144  1.00  0.00    -0.206 OA
ENDBRANCH  24  26
ENDBRANCH  18  24
ENDBRANCH  16  17
ENDBRANCH  14  16
ENDBRANCH   1  14
BRANCH  11  30
HETATM   30  C14 UNL     1      21.849  -6.856 -43.573  1.00  0.00    -0.009 A 
HETATM   31  C15 UNL     1      21.810  -5.687 -42.855  1.00  0.00     0.013 A 
HETATM   32  C16 UNL     1      22.556  -5.539 -41.684  1.00  0.00     0.001 A 
HETATM   33  C17 UNL     1      23.353  -6.572 -41.221  1.00  0.00     0.000 A 
HETATM   34  C18 UNL     1      23.394  -7.746 -41.942  1.00  0.00     0.001 A 
HETATM   35  C19 UNL     1      22.642  -7.883 -43.112  1.00  0.00     0.013 A 
ENDBRANCH  11  30
TORSDOF 6
ENDMDL
