MODEL 3
REMARK VINA RESULT: -8.927298752      3.081      5.934
REMARK  6 active torsions:
REMARK  status: ('A' for Active; 'I' for Inactive)
REMARK    1  A    between atoms: N1_2  and  C2_3 
REMARK    2  A    between atoms: N1_2  and  S1_32 
REMARK    3  A    between atoms: C6_9  and  C7_10 
REMARK    4  A    between atoms: C7_10  and  N3_11 
REMARK    5  A    between atoms: N3_11  and  C8_13 
REMARK    6  A    between atoms: C13_23  and  C14_24 
ROOT
HETATM    1  C8  UNL     1      22.012  -5.742 -41.599  1.00  0.00     0.064 A 
HETATM    2  C9  UNL     1      22.205  -5.084 -40.412  1.00  0.00     0.087 A 
HETATM    3  C10 UNL     1      21.556  -3.851 -40.072  1.00  0.00     0.103 C 
HETATM    4  N4  UNL     1      21.053  -2.857 -39.772  1.00  0.00    -0.191 NA
HETATM    5  C11 UNL     1      23.092  -5.648 -39.488  1.00  0.00     0.114 A 
HETATM    6  N5  UNL     1      23.758  -6.786 -39.695  1.00  0.00    -0.350 N 
ATOM      7  H5  UNL     1      24.392  -7.153 -38.986  1.00  0.00     0.166 HD
HETATM    8  C12 UNL     1      23.578  -7.439 -40.854  1.00  0.00     0.118 A 
HETATM    9  N6  UNL     1      24.111  -8.606 -41.343  1.00  0.00    -0.341 N 
ATOM     10  H6  UNL     1      24.782  -9.200 -40.856  1.00  0.00     0.167 HD
HETATM   11  C13 UNL     1      23.607  -8.841 -42.568  1.00  0.00     0.045 A 
HETATM   12  C20 UNL     1      22.750  -7.803 -42.840  1.00  0.00     0.048 A 
HETATM   13  C21 UNL     1      22.724  -6.927 -41.782  1.00  0.00     0.038 A 
ENDROOT
BRANCH   1  14
HETATM   14  N3  UNL     1      21.135  -5.278 -42.611  1.00  0.00    -0.383 N 
ATOM     15  H3  UNL     1      20.738  -4.345 -42.496  1.00  0.00     0.160 HD
BRANCH  14  16
HETATM   16  C7  UNL     1      20.767  -6.005 -43.767  1.00  0.00     0.162 C 
BRANCH  16  17
HETATM   17  C6  UNL     1      19.649  -5.436 -44.567  1.00  0.00     0.004 A 
HETATM   18  C2  UNL     1      18.342  -5.778 -44.299  1.00  0.00     0.124 A 
HETATM   19  N2  UNL     1      17.314  -5.237 -45.002  1.00  0.00    -0.351 N 
HETATM   20  C3  UNL     1      17.484  -4.355 -45.985  1.00  0.00     0.090 A 
ATOM     21  H2  UNL     1      16.364  -5.522 -44.766  1.00  0.00     0.166 HD
HETATM   22  C4  UNL     1      18.753  -3.978 -46.297  1.00  0.00     0.018 A 
HETATM   23  C5  UNL     1      19.833  -4.525 -45.581  1.00  0.00     0.014 A 
BRANCH  18  24
HETATM   24  N1  UNL     1      17.986  -6.679 -43.270  1.00  0.00    -0.265 N 
HETATM   25  C1  UNL     1      18.022  -8.128 -43.550  1.00  0.00     0.171 C 
BRANCH  24  26
HETATM   26  S1  UNL     1      17.503  -6.237 -41.686  1.00  0.00     0.229 S 
HETATM   27  C22 UNL     1      15.890  -5.431 -41.730  1.00  0.00     0.186 C 
HETATM   28  O1  UNL     1      17.362  -7.442 -40.842  1.00  0.00    -0.206 OA
HETATM   29  O2  UNL     1      18.430  -5.220 -41.079  1.00  0.00    -0.206 OA
ENDBRANCH  24  26
ENDBRANCH  18  24
ENDBRANCH  16  17
ENDBRANCH  14  16
ENDBRANCH   1  14
BRANCH  11  30
HETATM   30  C14 UNL     1      23.937  -9.989 -43.412  1.00  0.00    -0.009 A 
HETATM   31  C15 UNL     1      25.242 -10.396 -43.531  1.00  0.00     0.013 A 
HETATM   32  C16 UNL     1      25.583 -11.489 -44.330  1.00  0.00     0.001 A 
HETATM   33  C17 UNL     1      24.608 -12.187 -45.022  1.00  0.00     0.000 A 
HETATM   34  C18 UNL     1      23.297 -11.779 -44.904  1.00  0.00     0.001 A 
HETATM   35  C19 UNL     1      22.968 -10.685 -44.100  1.00  0.00     0.013 A 
ENDBRANCH  11  30
TORSDOF 6
ENDMDL
