MODEL 2
REMARK VINA RESULT: -9.043048802      2.957      5.822
REMARK  6 active torsions:
REMARK  status: ('A' for Active; 'I' for Inactive)
REMARK    1  A    between atoms: N1_2  and  C2_3 
REMARK    2  A    between atoms: N1_2  and  S1_32 
REMARK    3  A    between atoms: C6_9  and  C7_10 
REMARK    4  A    between atoms: C7_10  and  N3_11 
REMARK    5  A    between atoms: N3_11  and  C8_13 
REMARK    6  A    between atoms: C13_23  and  C14_24 
ROOT
HETATM    1  C8  UNL     1      21.791  -5.810 -41.552  1.00  0.00     0.064 A 
HETATM    2  C9  UNL     1      22.063  -5.226 -40.342  1.00  0.00     0.087 A 
HETATM    3  C10 UNL     1      21.335  -4.107 -39.817  1.00  0.00     0.103 C 
HETATM    4  N4  UNL     1      20.771  -3.205 -39.371  1.00  0.00    -0.191 NA
HETATM    5  C11 UNL     1      23.117  -5.751 -39.585  1.00  0.00     0.114 A 
HETATM    6  N5  UNL     1      23.868  -6.784 -39.971  1.00  0.00    -0.350 N 
ATOM      7  H5  UNL     1      24.623  -7.127 -39.378  1.00  0.00     0.166 HD
HETATM    8  C12 UNL     1      23.612  -7.364 -41.155  1.00  0.00     0.118 A 
HETATM    9  N6  UNL     1      24.199  -8.419 -41.807  1.00  0.00    -0.341 N 
ATOM     10  H6  UNL     1      24.987  -8.965 -41.458  1.00  0.00     0.167 HD
HETATM   11  C13 UNL     1      23.571  -8.617 -42.979  1.00  0.00     0.045 A 
HETATM   12  C20 UNL     1      22.580  -7.670 -43.052  1.00  0.00     0.048 A 
HETATM   13  C21 UNL     1      22.596  -6.886 -41.924  1.00  0.00     0.038 A 
ENDROOT
BRANCH   1  14
HETATM   14  N3  UNL     1      20.747  -5.376 -42.406  1.00  0.00    -0.383 N 
ATOM     15  H3  UNL     1      20.437  -4.408 -42.315  1.00  0.00     0.160 HD
BRANCH  14  16
HETATM   16  C7  UNL     1      20.100  -6.179 -43.376  1.00  0.00     0.162 C 
BRANCH  16  17
HETATM   17  C6  UNL     1      19.317  -5.449 -44.408  1.00  0.00     0.004 A 
HETATM   18  C2  UNL     1      17.940  -5.502 -44.420  1.00  0.00     0.124 A 
HETATM   19  N2  UNL     1      17.216  -4.812 -45.338  1.00  0.00    -0.351 N 
HETATM   20  C3  UNL     1      17.766  -4.049 -46.280  1.00  0.00     0.090 A 
ATOM     21  H2  UNL     1      16.200  -4.883 -45.305  1.00  0.00     0.166 HD
HETATM   22  C4  UNL     1      19.123  -3.957 -46.321  1.00  0.00     0.018 A 
HETATM   23  C5  UNL     1      19.893  -4.663 -45.378  1.00  0.00     0.014 A 
BRANCH  18  24
HETATM   24  N1  UNL     1      17.199  -6.243 -43.472  1.00  0.00    -0.265 N 
HETATM   25  C1  UNL     1      16.642  -7.552 -43.870  1.00  0.00     0.171 C 
BRANCH  24  26
HETATM   26  S1  UNL     1      16.875  -5.754 -41.861  1.00  0.00     0.229 S 
HETATM   27  C22 UNL     1      17.075  -7.149 -40.736  1.00  0.00     0.186 C 
HETATM   28  O1  UNL     1      17.839  -4.716 -41.440  1.00  0.00    -0.206 OA
HETATM   29  O2  UNL     1      15.447  -5.313 -41.685  1.00  0.00    -0.206 OA
ENDBRANCH  24  26
ENDBRANCH  18  24
ENDBRANCH  16  17
ENDBRANCH  14  16
ENDBRANCH   1  14
BRANCH  11  30
HETATM   30  C14 UNL     1      23.911  -9.651 -43.956  1.00  0.00    -0.009 A 
HETATM   31  C15 UNL     1      25.104  -9.587 -44.630  1.00  0.00     0.013 A 
HETATM   32  C16 UNL     1      25.453 -10.561 -45.568  1.00  0.00     0.001 A 
HETATM   33  C17 UNL     1      24.597 -11.616 -45.839  1.00  0.00     0.000 A 
HETATM   34  C18 UNL     1      23.397 -11.681 -45.163  1.00  0.00     0.001 A 
HETATM   35  C19 UNL     1      23.061 -10.701 -44.226  1.00  0.00     0.013 A 
ENDBRANCH  11  30
TORSDOF 6
ENDMDL
