MODEL 5
REMARK VINA RESULT: -8.796494327      2.002      3.127
REMARK  6 active torsions:
REMARK  status: ('A' for Active; 'I' for Inactive)
REMARK    1  A    between atoms: N1_2  and  C2_3 
REMARK    2  A    between atoms: N1_2  and  S1_32 
REMARK    3  A    between atoms: C6_9  and  C7_10 
REMARK    4  A    between atoms: C7_10  and  N3_11 
REMARK    5  A    between atoms: N3_11  and  C8_13 
REMARK    6  A    between atoms: C13_23  and  C14_24 
ROOT
HETATM    1  C8  UNL     1      19.154  -5.862 -45.943  1.00  0.00     0.064 A 
HETATM    2  C9  UNL     1      19.205  -6.678 -47.044  1.00  0.00     0.087 A 
HETATM    3  C10 UNL     1      18.337  -6.540 -48.177  1.00  0.00     0.103 C 
HETATM    4  N4  UNL     1      17.650  -6.456 -49.100  1.00  0.00    -0.191 NA
HETATM    5  C11 UNL     1      20.156  -7.705 -47.053  1.00  0.00     0.114 A 
HETATM    6  N5  UNL     1      21.012  -7.935 -46.056  1.00  0.00    -0.350 N 
ATOM      7  H5  UNL     1      21.685  -8.699 -46.116  1.00  0.00     0.166 HD
HETATM    8  C12 UNL     1      20.971  -7.144 -44.972  1.00  0.00     0.118 A 
HETATM    9  N6  UNL     1      21.707  -7.134 -43.813  1.00  0.00    -0.341 N 
ATOM     10  H6  UNL     1      22.458  -7.785 -43.584  1.00  0.00     0.167 HD
HETATM   11  C13 UNL     1      21.278  -6.131 -43.027  1.00  0.00     0.045 A 
HETATM   12  C20 UNL     1      20.261  -5.511 -43.711  1.00  0.00     0.048 A 
HETATM   13  C21 UNL     1      20.063  -6.132 -44.920  1.00  0.00     0.038 A 
ENDROOT
BRANCH   1  14
HETATM   14  N3  UNL     1      18.243  -4.784 -45.818  1.00  0.00    -0.383 N 
ATOM     15  H3  UNL     1      18.596  -3.847 -46.009  1.00  0.00     0.160 HD
BRANCH  14  16
HETATM   16  C7  UNL     1      16.883  -4.905 -45.447  1.00  0.00     0.162 C 
BRANCH  16  17
HETATM   17  C6  UNL     1      16.621  -5.537 -44.126  1.00  0.00     0.004 A 
HETATM   18  C2  UNL     1      16.013  -6.771 -44.040  1.00  0.00     0.124 A 
HETATM   19  N2  UNL     1      15.802  -7.369 -42.840  1.00  0.00    -0.351 N 
HETATM   20  C3  UNL     1      16.155  -6.825 -41.678  1.00  0.00     0.090 A 
ATOM     21  H2  UNL     1      15.348  -8.283 -42.829  1.00  0.00     0.166 HD
HETATM   22  C4  UNL     1      16.759  -5.606 -41.697  1.00  0.00     0.018 A 
HETATM   23  C5  UNL     1      16.988  -4.967 -42.930  1.00  0.00     0.014 A 
BRANCH  18  24
HETATM   24  N1  UNL     1      15.603  -7.498 -45.180  1.00  0.00    -0.265 N 
HETATM   25  C1  UNL     1      16.483  -8.564 -45.699  1.00  0.00     0.171 C 
BRANCH  24  26
HETATM   26  S1  UNL     1      14.141  -7.252 -46.042  1.00  0.00     0.229 S 
HETATM   27  C22 UNL     1      14.491  -6.576 -47.677  1.00  0.00     0.186 C 
HETATM   28  O1  UNL     1      13.447  -8.541 -46.245  1.00  0.00    -0.206 OA
HETATM   29  O2  UNL     1      13.263  -6.228 -45.376  1.00  0.00    -0.206 OA
ENDBRANCH  24  26
ENDBRANCH  18  24
ENDBRANCH  16  17
ENDBRANCH  14  16
ENDBRANCH   1  14
BRANCH  11  30
HETATM   30  C14 UNL     1      21.817  -5.800 -41.708  1.00  0.00    -0.009 A 
HETATM   31  C15 UNL     1      21.209  -4.835 -40.946  1.00  0.00     0.013 A 
HETATM   32  C16 UNL     1      21.703  -4.500 -39.683  1.00  0.00     0.001 A 
HETATM   33  C17 UNL     1      22.821  -5.138 -39.173  1.00  0.00     0.000 A 
HETATM   34  C18 UNL     1      23.433  -6.107 -39.938  1.00  0.00     0.001 A 
HETATM   35  C19 UNL     1      22.929  -6.434 -41.199  1.00  0.00     0.013 A 
ENDBRANCH  11  30
TORSDOF 6
ENDMDL
