MODEL 4
REMARK VINA RESULT: -8.839533011      2.175      3.763
REMARK  6 active torsions:
REMARK  status: ('A' for Active; 'I' for Inactive)
REMARK    1  A    between atoms: N1_2  and  C2_3 
REMARK    2  A    between atoms: N1_2  and  S1_32 
REMARK    3  A    between atoms: C6_9  and  C7_10 
REMARK    4  A    between atoms: C7_10  and  N3_11 
REMARK    5  A    between atoms: N3_11  and  C8_13 
REMARK    6  A    between atoms: C13_23  and  C14_24 
ROOT
HETATM    1  C8  UNL     1      19.218  -6.920 -45.399  1.00  0.00     0.064 A 
HETATM    2  C9  UNL     1      19.055  -6.372 -46.644  1.00  0.00     0.087 A 
HETATM    3  C10 UNL     1      18.272  -6.977 -47.683  1.00  0.00     0.103 C 
HETATM    4  N4  UNL     1      17.653  -7.441 -48.539  1.00  0.00    -0.191 NA
HETATM    5  C11 UNL     1      19.697  -5.157 -46.914  1.00  0.00     0.114 A 
HETATM    6  N5  UNL     1      20.456  -4.505 -46.031  1.00  0.00    -0.350 N 
ATOM      7  H5  UNL     1      20.900  -3.622 -46.281  1.00  0.00     0.166 HD
HETATM    8  C12 UNL     1      20.623  -5.032 -44.808  1.00  0.00     0.118 A 
HETATM    9  N6  UNL     1      21.330  -4.603 -43.712  1.00  0.00    -0.341 N 
ATOM     10  H6  UNL     1      21.881  -3.746 -43.662  1.00  0.00     0.167 HD
HETATM   11  C13 UNL     1      21.181  -5.493 -42.716  1.00  0.00     0.045 A 
HETATM   12  C20 UNL     1      20.369  -6.488 -43.203  1.00  0.00     0.048 A 
HETATM   13  C21 UNL     1      20.017  -6.211 -44.501  1.00  0.00     0.038 A 
ENDROOT
BRANCH   1  14
HETATM   14  N3  UNL     1      18.614  -8.139 -45.001  1.00  0.00    -0.383 N 
ATOM     15  H3  UNL     1      19.204  -8.971 -44.983  1.00  0.00     0.160 HD
BRANCH  14  16
HETATM   16  C7  UNL     1      17.258  -8.293 -44.629  1.00  0.00     0.162 C 
BRANCH  16  17
HETATM   17  C6  UNL     1      16.786  -7.429 -43.514  1.00  0.00     0.004 A 
HETATM   18  C2  UNL     1      15.895  -6.403 -43.742  1.00  0.00     0.124 A 
HETATM   19  N2  UNL     1      15.434  -5.632 -42.725  1.00  0.00    -0.351 N 
HETATM   20  C3  UNL     1      15.798  -5.799 -41.455  1.00  0.00     0.090 A 
ATOM     21  H2  UNL     1      14.775  -4.885 -42.944  1.00  0.00     0.166 HD
HETATM   22  C4  UNL     1      16.677  -6.797 -41.166  1.00  0.00     0.018 A 
HETATM   23  C5  UNL     1      17.168  -7.609 -42.205  1.00  0.00     0.014 A 
BRANCH  18  24
HETATM   24  N1  UNL     1      15.386  -6.109 -45.027  1.00  0.00    -0.265 N 
HETATM   25  C1  UNL     1      16.038  -5.051 -45.825  1.00  0.00     0.171 C 
BRANCH  24  26
HETATM   26  S1  UNL     1      14.048  -6.883 -45.767  1.00  0.00     0.229 S 
HETATM   27  C22 UNL     1      14.199  -6.803 -47.562  1.00  0.00     0.186 C 
HETATM   28  O1  UNL     1      14.018  -8.314 -45.398  1.00  0.00    -0.206 OA
HETATM   29  O2  UNL     1      12.752  -6.186 -45.453  1.00  0.00    -0.206 OA
ENDBRANCH  24  26
ENDBRANCH  18  24
ENDBRANCH  16  17
ENDBRANCH  14  16
ENDBRANCH   1  14
BRANCH  11  30
HETATM   30  C14 UNL     1      21.784  -5.385 -41.387  1.00  0.00    -0.009 A 
HETATM   31  C15 UNL     1      22.862  -6.170 -41.062  1.00  0.00     0.013 A 
HETATM   32  C16 UNL     1      23.456  -6.086 -39.801  1.00  0.00     0.001 A 
HETATM   33  C17 UNL     1      22.968  -5.207 -38.849  1.00  0.00     0.000 A 
HETATM   34  C18 UNL     1      21.884  -4.419 -39.174  1.00  0.00     0.001 A 
HETATM   35  C19 UNL     1      21.299  -4.511 -40.440  1.00  0.00     0.013 A 
ENDBRANCH  11  30
TORSDOF 6
ENDMDL
