MODEL 4
REMARK VINA RESULT: -6.762192831      1.120      1.630
REMARK  2 active torsions:
REMARK  status: ('A' for Active; 'I' for Inactive)
REMARK    1  A    between atoms: C6_7  and  N1_8 
REMARK    2  A    between atoms: N1_8  and  C7_10 
ROOT
HETATM    1  C7  UNL     1      10.587  26.587 -39.065  1.00  0.00     0.122 A 
HETATM    2  N2  UNL     1      10.749  25.937 -37.911  1.00  0.00    -0.338 N 
ATOM      3  H2  UNL     1      11.613  26.059 -37.382  1.00  0.00     0.168 HD
HETATM    4  C8  UNL     1       9.804  25.134 -37.442  1.00  0.00     0.183 A 
HETATM    5  N3  UNL     1       8.627  24.924 -38.091  1.00  0.00    -0.337 N 
ATOM      6  H3  UNL     1       7.920  24.300 -37.701  1.00  0.00     0.168 HD
HETATM    7  C9  UNL     1       8.415  25.556 -39.258  1.00  0.00     0.136 A 
HETATM    8  N4  UNL     1       7.366  25.546 -40.118  1.00  0.00    -0.285 N 
ATOM      9  H4  UNL     1       6.504  25.014 -40.000  1.00  0.00     0.188 HD
HETATM   10  N5  UNL     1       7.648  26.343 -41.132  1.00  0.00    -0.309 N 
ATOM     11  H5  UNL     1       7.038  26.525 -41.929  1.00  0.00     0.186 HD
HETATM   12  C10 UNL     1       8.868  26.873 -40.947  1.00  0.00     0.126 A 
HETATM   13  C11 UNL     1       9.390  26.383 -39.744  1.00  0.00     0.070 A 
ENDROOT
BRANCH   1  14
HETATM   14  N1  UNL     1      11.532  27.455 -39.640  1.00  0.00    -0.339 N 
ATOM     15  H1  UNL     1      11.404  28.447 -39.441  1.00  0.00     0.167 HD
BRANCH  14  16
HETATM   16  C6  UNL     1      12.635  27.128 -40.457  1.00  0.00     0.072 A 
HETATM   17  C1  UNL     1      13.884  26.965 -39.844  1.00  0.00     0.143 A 
HETATM   18  F1  UNL     1      13.970  27.129 -38.506  1.00  0.00    -0.204 F 
HETATM   19  C2  UNL     1      14.965  26.648 -40.628  1.00  0.00     0.044 A 
HETATM   20  C3  UNL     1      14.842  26.488 -41.989  1.00  0.00     0.003 A 
HETATM   21  C4  UNL     1      13.625  26.643 -42.619  1.00  0.00     0.002 A 
HETATM   22  C5  UNL     1      12.520  26.967 -41.821  1.00  0.00     0.033 A 
ENDBRANCH  14  16
ENDBRANCH   1  14
TORSDOF 2
ENDMDL
