MODEL 5
REMARK VINA RESULT: -6.708050825      1.280      2.833
REMARK  2 active torsions:
REMARK  status: ('A' for Active; 'I' for Inactive)
REMARK    1  A    between atoms: C6_7  and  N1_8 
REMARK    2  A    between atoms: N1_8  and  C7_10 
ROOT
HETATM    1  C7  UNL     1       9.813  26.983 -40.647  1.00  0.00     0.122 A 
HETATM    2  N2  UNL     1       8.703  27.055 -41.383  1.00  0.00    -0.338 N 
ATOM      3  H2  UNL     1       8.694  27.629 -42.226  1.00  0.00     0.168 HD
HETATM    4  C8  UNL     1       7.609  26.390 -41.034  1.00  0.00     0.183 A 
HETATM    5  N3  UNL     1       7.547  25.605 -39.925  1.00  0.00    -0.337 N 
ATOM      6  H3  UNL     1       6.690  25.107 -39.687  1.00  0.00     0.168 HD
HETATM    7  C9  UNL     1       8.640  25.499 -39.150  1.00  0.00     0.136 A 
HETATM    8  N4  UNL     1       8.879  24.810 -38.008  1.00  0.00    -0.285 N 
ATOM      9  H4  UNL     1       8.210  24.214 -37.520  1.00  0.00     0.188 HD
HETATM   10  N5  UNL     1      10.124  25.039 -37.632  1.00  0.00    -0.309 N 
ATOM     11  H5  UNL     1      10.573  24.647 -36.804  1.00  0.00     0.186 HD
HETATM   12  C10 UNL     1      10.702  25.869 -38.514  1.00  0.00     0.126 A 
HETATM   13  C11 UNL     1       9.768  26.186 -39.508  1.00  0.00     0.070 A 
ENDROOT
BRANCH   1  14
HETATM   14  N1  UNL     1      11.016  27.653 -40.937  1.00  0.00    -0.339 N 
ATOM     15  H1  UNL     1      11.054  28.635 -40.668  1.00  0.00     0.167 HD
BRANCH  14  16
HETATM   16  C6  UNL     1      12.175  27.137 -41.553  1.00  0.00     0.072 A 
HETATM   17  C1  UNL     1      13.373  27.161 -40.828  1.00  0.00     0.143 A 
HETATM   18  F1  UNL     1      13.359  27.675 -39.578  1.00  0.00    -0.204 F 
HETATM   19  C2  UNL     1      14.509  26.663 -41.417  1.00  0.00     0.044 A 
HETATM   20  C3  UNL     1      14.488  26.147 -42.692  1.00  0.00     0.003 A 
HETATM   21  C4  UNL     1      13.324  26.110 -43.429  1.00  0.00     0.002 A 
HETATM   22  C5  UNL     1      12.163  26.619 -42.830  1.00  0.00     0.033 A 
ENDBRANCH  14  16
ENDBRANCH   1  14
TORSDOF 2
ENDMDL
