MODEL 1
REMARK VINA RESULT: -6.951130802      0.000      0.000
REMARK  2 active torsions:
REMARK  status: ('A' for Active; 'I' for Inactive)
REMARK    1  A    between atoms: C6_7  and  N1_8 
REMARK    2  A    between atoms: N1_8  and  C7_10 
ROOT
HETATM    1  C7  UNL     1      10.689  26.410 -39.100  1.00  0.00     0.122 A 
HETATM    2  N2  UNL     1      10.842  25.628 -38.030  1.00  0.00    -0.338 N 
ATOM      3  H2  UNL     1      11.716  25.659 -37.506  1.00  0.00     0.168 HD
HETATM    4  C8  UNL     1       9.874  24.811 -37.639  1.00  0.00     0.183 A 
HETATM    5  N3  UNL     1       8.681  24.717 -38.287  1.00  0.00    -0.337 N 
ATOM      6  H3  UNL     1       7.958  24.078 -37.958  1.00  0.00     0.168 HD
HETATM    7  C9  UNL     1       8.478  25.485 -39.372  1.00  0.00     0.136 A 
HETATM    8  N4  UNL     1       7.419  25.610 -40.209  1.00  0.00    -0.285 N 
ATOM      9  H4  UNL     1       6.539  25.099 -40.137  1.00  0.00     0.188 HD
HETATM   10  N5  UNL     1       7.717  26.507 -41.131  1.00  0.00    -0.309 N 
ATOM     11  H5  UNL     1       7.104  26.800 -41.891  1.00  0.00     0.186 HD
HETATM   12  C10 UNL     1       8.958  26.969 -40.908  1.00  0.00     0.126 A 
HETATM   13  C11 UNL     1       9.477  26.327 -39.778  1.00  0.00     0.070 A 
ENDROOT
BRANCH   1  14
HETATM   14  N1  UNL     1      11.659  27.304 -39.589  1.00  0.00    -0.339 N 
ATOM     15  H1  UNL     1      11.397  28.290 -39.585  1.00  0.00     0.167 HD
BRANCH  14  16
HETATM   16  C6  UNL     1      12.946  27.011 -40.084  1.00  0.00     0.072 A 
HETATM   17  C1  UNL     1      13.089  26.787 -41.459  1.00  0.00     0.143 A 
HETATM   18  F1  UNL     1      11.989  26.864 -42.241  1.00  0.00    -0.204 F 
HETATM   19  C2  UNL     1      14.337  26.500 -41.953  1.00  0.00     0.044 A 
HETATM   20  C3  UNL     1      15.436  26.429 -41.129  1.00  0.00     0.003 A 
HETATM   21  C4  UNL     1      15.326  26.644 -39.772  1.00  0.00     0.002 A 
HETATM   22  C5  UNL     1      14.052  26.937 -39.265  1.00  0.00     0.033 A 
ENDBRANCH  14  16
ENDBRANCH   1  14
TORSDOF 2
ENDMDL
