MODEL 1
REMARK VINA RESULT: -9.327647170      0.000      0.000
REMARK  10 active torsions:
REMARK  status: ('A' for Active; 'I' for Inactive)
REMARK    1  A    between atoms: C3_4  and  O2_5 
REMARK    2  A    between atoms: O2_5  and  C4_6 
REMARK    3  A    between atoms: C5_7  and  C6_8 
REMARK    4  A    between atoms: C9_11  and  O3_12 
REMARK    5  A    between atoms: C10_14  and  O4_15 
REMARK    6  A    between atoms: C14_21  and  O6_22 
REMARK    7  A    between atoms: C16_25  and  O7_26 
REMARK    8  A    between atoms: C19_31  and  O9_32 
REMARK    9  A    between atoms: C20_34  and  O10_35 
REMARK   10  A    between atoms: C21_37  and  O11_38 
ROOT
HETATM    1  C4  UNL     1      34.266   4.537   8.698  1.00  0.00     0.157 A 
HETATM    2  C5  UNL     1      33.571   4.505   9.863  1.00  0.00     0.124 A 
HETATM    3  O5  UNL     1      34.229   4.398  11.026  1.00  0.00    -0.306 OA
HETATM    4  C12 UNL     1      35.510   4.324  11.149  1.00  0.00     0.096 A 
HETATM    5  C13 UNL     1      36.127   4.216  12.382  1.00  0.00     0.075 A 
HETATM    6  C14 UNL     1      37.501   4.141  12.444  1.00  0.00     0.071 A 
HETATM    7  C15 UNL     1      38.274   4.172  11.289  1.00  0.00     0.074 A 
HETATM    8  C16 UNL     1      37.623   4.279  10.097  1.00  0.00     0.085 A 
HETATM    9  C17 UNL     1      36.259   4.357   9.982  1.00  0.00     0.084 A 
HETATM   10  C18 UNL     1      35.664   4.463   8.747  1.00  0.00     0.223 A 
HETATM   11  O8  UNL     1      36.364   4.491   7.704  1.00  0.00    -0.284 OA
ENDROOT
BRANCH   1  12
HETATM   12  O2  UNL     1      33.686   4.628   7.466  1.00  0.00    -0.311 OA
BRANCH  12  13
HETATM   13  C3  UNL     1      34.006   5.707   6.564  1.00  0.00     0.298 C 
HETATM   14  O1  UNL     1      34.092   6.822   7.427  1.00  0.00    -0.351 OA
HETATM   15  C2  UNL     1      32.815   7.369   7.564  1.00  0.00     0.152 C 
HETATM   16  C1  UNL     1      32.646   8.173   8.812  1.00  0.00     0.042 C 
HETATM   17  C21 UNL     1      32.610   8.219   6.306  1.00  0.00     0.178 C 
HETATM   18  C20 UNL     1      32.685   7.299   5.136  1.00  0.00     0.183 C 
HETATM   19  C19 UNL     1      33.015   5.871   5.504  1.00  0.00     0.205 C 
BRANCH  17  20
HETATM   20  O11 UNL     1      31.436   8.945   6.365  1.00  0.00    -0.390 OA
ATOM     21  H11 UNL     1      30.734   8.517   5.889  1.00  0.00     0.210 HD
ENDBRANCH  17  20
BRANCH  18  22
HETATM   22  O10 UNL     1      33.608   7.790   4.211  1.00  0.00    -0.390 OA
ATOM     23  H10 UNL     1      34.049   8.557   4.556  1.00  0.00     0.210 HD
ENDBRANCH  18  22
BRANCH  19  24
HETATM   24  O9  UNL     1      33.532   5.311   4.310  1.00  0.00    -0.388 OA
ATOM     25  H9  UNL     1      33.217   5.821   3.574  1.00  0.00     0.210 HD
ENDBRANCH  19  24
ENDBRANCH  12  13
ENDBRANCH   1  12
BRANCH   2  26
HETATM   26  C6  UNL     1      32.108   4.578   9.985  1.00  0.00     0.004 A 
HETATM   27  C7  UNL     1      31.232   4.242   8.999  1.00  0.00     0.017 A 
HETATM   28  C8  UNL     1      29.849   4.289   9.215  1.00  0.00     0.040 A 
HETATM   29  C9  UNL     1      29.350   4.680  10.443  1.00  0.00     0.098 A 
HETATM   30  C10 UNL     1      30.209   5.026  11.458  1.00  0.00     0.099 A 
HETATM   31  C11 UNL     1      31.554   4.963  11.195  1.00  0.00     0.053 A 
BRANCH  29  32
HETATM   32  O3  UNL     1      27.972   4.704  10.589  1.00  0.00    -0.358 OA
ATOM     33  H3  UNL     1      27.628   5.016  11.418  1.00  0.00     0.217 HD
ENDBRANCH  29  32
BRANCH  30  34
HETATM   34  O4  UNL     1      29.687   5.414  12.674  1.00  0.00    -0.358 OA
ATOM     35  H4  UNL     1      30.274   5.741  13.346  1.00  0.00     0.217 HD
ENDBRANCH  30  34
ENDBRANCH   2  26
BRANCH   8  36
HETATM   36  O7  UNL     1      38.378   4.312   8.931  1.00  0.00    -0.360 OA
ATOM     37  H7  UNL     1      39.229   3.888   8.930  1.00  0.00     0.217 HD
ENDBRANCH   8  36
BRANCH   6  38
HETATM   38  O6  UNL     1      38.130   4.032  13.678  1.00  0.00    -0.361 OA
ATOM     39  H6  UNL     1      38.855   4.607  13.890  1.00  0.00     0.217 HD
ENDBRANCH   6  38
TORSDOF 10
ENDMDL
