MODEL 2
REMARK VINA RESULT: -9.137682355      1.438      5.148
REMARK  10 active torsions:
REMARK  status: ('A' for Active; 'I' for Inactive)
REMARK    1  A    between atoms: C3_4  and  O2_5 
REMARK    2  A    between atoms: O2_5  and  C4_6 
REMARK    3  A    between atoms: C5_7  and  C6_8 
REMARK    4  A    between atoms: C9_11  and  O3_12 
REMARK    5  A    between atoms: C10_14  and  O4_15 
REMARK    6  A    between atoms: C14_21  and  O6_22 
REMARK    7  A    between atoms: C16_25  and  O7_26 
REMARK    8  A    between atoms: C19_31  and  O9_32 
REMARK    9  A    between atoms: C20_34  and  O10_35 
REMARK   10  A    between atoms: C21_37  and  O11_38 
ROOT
HETATM    1  C4  UNL     1      34.116   5.099   9.638  1.00  0.00     0.157 A 
HETATM    2  C5  UNL     1      34.685   5.271   8.418  1.00  0.00     0.124 A 
HETATM    3  O5  UNL     1      35.936   4.840   8.202  1.00  0.00    -0.306 OA
HETATM    4  C12 UNL     1      36.679   4.251   9.075  1.00  0.00     0.096 A 
HETATM    5  C13 UNL     1      37.964   3.829   8.787  1.00  0.00     0.075 A 
HETATM    6  C14 UNL     1      38.705   3.206   9.766  1.00  0.00     0.071 A 
HETATM    7  C15 UNL     1      38.182   2.994  11.036  1.00  0.00     0.074 A 
HETATM    8  C16 UNL     1      36.912   3.426  11.276  1.00  0.00     0.085 A 
HETATM    9  C17 UNL     1      36.134   4.052  10.336  1.00  0.00     0.084 A 
HETATM   10  C18 UNL     1      34.860   4.465  10.643  1.00  0.00     0.223 A 
HETATM   11  O8  UNL     1      34.388   4.274  11.791  1.00  0.00    -0.284 OA
ENDROOT
BRANCH   1  12
HETATM   12  O2  UNL     1      32.858   5.517   9.958  1.00  0.00    -0.311 OA
BRANCH  12  13
HETATM   13  C3  UNL     1      31.785   4.575  10.165  1.00  0.00     0.298 C 
HETATM   14  O1  UNL     1      31.333   4.320   8.852  1.00  0.00    -0.351 OA
HETATM   15  C2  UNL     1      30.372   5.280   8.526  1.00  0.00     0.152 C 
HETATM   16  C1  UNL     1      30.206   5.476   7.054  1.00  0.00     0.042 C 
HETATM   17  C21 UNL     1      29.080   4.788   9.186  1.00  0.00     0.178 C 
HETATM   18  C20 UNL     1      29.326   4.741  10.655  1.00  0.00     0.183 C 
HETATM   19  C19 UNL     1      30.741   5.091  11.047  1.00  0.00     0.205 C 
BRANCH  17  20
HETATM   20  O11 UNL     1      27.996   5.567   8.830  1.00  0.00    -0.390 OA
ATOM     21  H11 UNL     1      27.335   5.583   9.513  1.00  0.00     0.210 HD
ENDBRANCH  17  20
BRANCH  18  22
HETATM   22  O10 UNL     1      28.979   3.482  11.149  1.00  0.00    -0.390 OA
ATOM     23  H10 UNL     1      28.035   3.401  11.219  1.00  0.00     0.210 HD
ENDBRANCH  18  22
BRANCH  19  24
HETATM   24  O9  UNL     1      30.905   4.511  12.330  1.00  0.00    -0.388 OA
ATOM     25  H9  UNL     1      31.548   5.017  12.812  1.00  0.00     0.210 HD
ENDBRANCH  19  24
ENDBRANCH  12  13
ENDBRANCH   1  12
BRANCH   2  26
HETATM   26  C6  UNL     1      34.043   5.910   7.260  1.00  0.00     0.004 A 
HETATM   27  C7  UNL     1      33.825   7.246   7.137  1.00  0.00     0.017 A 
HETATM   28  C8  UNL     1      33.254   7.781   5.976  1.00  0.00     0.040 A 
HETATM   29  C9  UNL     1      32.900   6.951   4.929  1.00  0.00     0.098 A 
HETATM   30  C10 UNL     1      33.108   5.596   5.024  1.00  0.00     0.099 A 
HETATM   31  C11 UNL     1      33.670   5.123   6.183  1.00  0.00     0.053 A 
BRANCH  29  32
HETATM   32  O3  UNL     1      32.341   7.545   3.809  1.00  0.00    -0.358 OA
ATOM     33  H3  UNL     1      32.829   7.487   2.996  1.00  0.00     0.217 HD
ENDBRANCH  29  32
BRANCH  30  34
HETATM   34  O4  UNL     1      32.745   4.788   3.966  1.00  0.00    -0.358 OA
ATOM     35  H4  UNL     1      32.815   3.845   4.061  1.00  0.00     0.217 HD
ENDBRANCH  30  34
ENDBRANCH   2  26
BRANCH   8  36
HETATM   36  O7  UNL     1      36.371   3.224  12.539  1.00  0.00    -0.360 OA
ATOM     37  H7  UNL     1      36.899   3.444  13.299  1.00  0.00     0.217 HD
ENDBRANCH   8  36
BRANCH   6  38
HETATM   38  O6  UNL     1      39.997   2.779   9.486  1.00  0.00    -0.361 OA
ATOM     39  H6  UNL     1      40.694   2.944  10.110  1.00  0.00     0.217 HD
ENDBRANCH   6  38
TORSDOF 10
ENDMDL
