MODEL 5
REMARK VINA RESULT: -8.701137212      1.426      4.990
REMARK  10 active torsions:
REMARK  status: ('A' for Active; 'I' for Inactive)
REMARK    1  A    between atoms: C3_4  and  O2_5 
REMARK    2  A    between atoms: O2_5  and  C4_6 
REMARK    3  A    between atoms: C5_7  and  C6_8 
REMARK    4  A    between atoms: C9_11  and  O3_12 
REMARK    5  A    between atoms: C10_14  and  O4_15 
REMARK    6  A    between atoms: C14_21  and  O6_22 
REMARK    7  A    between atoms: C16_25  and  O7_26 
REMARK    8  A    between atoms: C19_31  and  O9_32 
REMARK    9  A    between atoms: C20_34  and  O10_35 
REMARK   10  A    between atoms: C21_37  and  O11_38 
ROOT
HETATM    1  C4  UNL     1      34.241   5.024   9.756  1.00  0.00     0.157 A 
HETATM    2  C5  UNL     1      34.794   5.230   8.534  1.00  0.00     0.124 A 
HETATM    3  O5  UNL     1      36.039   4.798   8.288  1.00  0.00    -0.306 OA
HETATM    4  C12 UNL     1      36.789   4.178   9.133  1.00  0.00     0.096 A 
HETATM    5  C13 UNL     1      38.068   3.758   8.814  1.00  0.00     0.075 A 
HETATM    6  C14 UNL     1      38.818   3.100   9.763  1.00  0.00     0.071 A 
HETATM    7  C15 UNL     1      38.311   2.853  11.033  1.00  0.00     0.074 A 
HETATM    8  C16 UNL     1      37.047   3.285  11.304  1.00  0.00     0.085 A 
HETATM    9  C17 UNL     1      36.261   3.944  10.394  1.00  0.00     0.084 A 
HETATM   10  C18 UNL     1      34.993   4.356  10.731  1.00  0.00     0.223 A 
HETATM   11  O8  UNL     1      34.536   4.133  11.879  1.00  0.00    -0.284 OA
ENDROOT
BRANCH   1  12
HETATM   12  O2  UNL     1      32.989   5.441  10.106  1.00  0.00    -0.311 OA
BRANCH  12  13
HETATM   13  C3  UNL     1      31.935   4.496  10.381  1.00  0.00     0.298 C 
HETATM   14  O1  UNL     1      31.565   4.055   9.091  1.00  0.00    -0.351 OA
HETATM   15  C2  UNL     1      30.596   4.928   8.592  1.00  0.00     0.152 C 
HETATM   16  C1  UNL     1      30.508   4.923   7.100  1.00  0.00     0.042 C 
HETATM   17  C21 UNL     1      29.283   4.480   9.243  1.00  0.00     0.178 C 
HETATM   18  C20 UNL     1      29.448   4.635  10.716  1.00  0.00     0.183 C 
HETATM   19  C19 UNL     1      30.828   5.085  11.131  1.00  0.00     0.205 C 
BRANCH  17  20
HETATM   20  O11 UNL     1      28.199   5.165   8.731  1.00  0.00    -0.390 OA
ATOM     21  H11 UNL     1      27.479   5.197   9.350  1.00  0.00     0.210 HD
ENDBRANCH  17  20
BRANCH  18  22
HETATM   22  O10 UNL     1      29.111   3.440  11.354  1.00  0.00    -0.390 OA
ATOM     23  H10 UNL     1      28.427   2.987  10.873  1.00  0.00     0.210 HD
ENDBRANCH  18  22
BRANCH  19  24
HETATM   24  O9  UNL     1      30.936   4.684  12.486  1.00  0.00    -0.388 OA
ATOM     25  H9  UNL     1      30.818   5.448  13.038  1.00  0.00     0.210 HD
ENDBRANCH  19  24
ENDBRANCH  12  13
ENDBRANCH   1  12
BRANCH   2  26
HETATM   26  C6  UNL     1      34.140   5.908   7.406  1.00  0.00     0.004 A 
HETATM   27  C7  UNL     1      33.964   5.361   6.173  1.00  0.00     0.017 A 
HETATM   28  C8  UNL     1      33.282   6.056   5.166  1.00  0.00     0.040 A 
HETATM   29  C9  UNL     1      32.774   7.318   5.413  1.00  0.00     0.098 A 
HETATM   30  C10 UNL     1      32.936   7.896   6.648  1.00  0.00     0.099 A 
HETATM   31  C11 UNL     1      33.612   7.174   7.599  1.00  0.00     0.053 A 
BRANCH  29  32
HETATM   32  O3  UNL     1      32.110   7.948   4.373  1.00  0.00    -0.358 OA
ATOM     33  H3  UNL     1      32.370   8.839   4.167  1.00  0.00     0.217 HD
ENDBRANCH  29  32
BRANCH  30  34
HETATM   34  O4  UNL     1      32.422   9.157   6.870  1.00  0.00    -0.358 OA
ATOM     35  H4  UNL     1      31.582   9.242   7.306  1.00  0.00     0.217 HD
ENDBRANCH  30  34
ENDBRANCH   2  26
BRANCH   8  36
HETATM   36  O7  UNL     1      36.522   3.048  12.568  1.00  0.00    -0.360 OA
ATOM     37  H7  UNL     1      35.642   3.352  12.758  1.00  0.00     0.217 HD
ENDBRANCH   8  36
BRANCH   6  38
HETATM   38  O6  UNL     1      40.103   2.674   9.452  1.00  0.00    -0.361 OA
ATOM     39  H6  UNL     1      40.809   3.308   9.394  1.00  0.00     0.217 HD
ENDBRANCH   6  38
TORSDOF 10
ENDMDL
