MODEL 3
REMARK VINA RESULT: -8.933881233      0.591      1.238
REMARK  10 active torsions:
REMARK  status: ('A' for Active; 'I' for Inactive)
REMARK    1  A    between atoms: C3_4  and  O2_5 
REMARK    2  A    between atoms: O2_5  and  C4_6 
REMARK    3  A    between atoms: C5_7  and  C6_8 
REMARK    4  A    between atoms: C9_11  and  O3_12 
REMARK    5  A    between atoms: C10_14  and  O4_15 
REMARK    6  A    between atoms: C14_21  and  O6_22 
REMARK    7  A    between atoms: C16_25  and  O7_26 
REMARK    8  A    between atoms: C19_31  and  O9_32 
REMARK    9  A    between atoms: C20_34  and  O10_35 
REMARK   10  A    between atoms: C21_37  and  O11_38 
ROOT
HETATM    1  C4  UNL     1      34.159   4.532   8.798  1.00  0.00     0.157 A 
HETATM    2  C5  UNL     1      33.466   4.473   9.964  1.00  0.00     0.124 A 
HETATM    3  O5  UNL     1      34.128   4.370  11.125  1.00  0.00    -0.306 OA
HETATM    4  C12 UNL     1      35.410   4.323  11.247  1.00  0.00     0.096 A 
HETATM    5  C13 UNL     1      36.031   4.217  12.478  1.00  0.00     0.075 A 
HETATM    6  C14 UNL     1      37.406   4.172  12.538  1.00  0.00     0.071 A 
HETATM    7  C15 UNL     1      38.177   4.232  11.383  1.00  0.00     0.074 A 
HETATM    8  C16 UNL     1      37.523   4.337  10.192  1.00  0.00     0.085 A 
HETATM    9  C17 UNL     1      36.157   4.384  10.079  1.00  0.00     0.084 A 
HETATM   10  C18 UNL     1      35.559   4.489   8.846  1.00  0.00     0.223 A 
HETATM   11  O8  UNL     1      36.256   4.543   7.803  1.00  0.00    -0.284 OA
ENDROOT
BRANCH   1  12
HETATM   12  O2  UNL     1      33.576   4.621   7.568  1.00  0.00    -0.311 OA
BRANCH  12  13
HETATM   13  C3  UNL     1      33.920   5.680   6.651  1.00  0.00     0.298 C 
HETATM   14  O1  UNL     1      34.007   6.810   7.494  1.00  0.00    -0.351 OA
HETATM   15  C2  UNL     1      32.735   7.374   7.603  1.00  0.00     0.152 C 
HETATM   16  C1  UNL     1      32.558   8.203   8.833  1.00  0.00     0.042 C 
HETATM   17  C21 UNL     1      32.556   8.202   6.326  1.00  0.00     0.178 C 
HETATM   18  C20 UNL     1      32.637   7.259   5.175  1.00  0.00     0.183 C 
HETATM   19  C19 UNL     1      32.945   5.835   5.574  1.00  0.00     0.205 C 
BRANCH  17  20
HETATM   20  O11 UNL     1      31.390   8.942   6.355  1.00  0.00    -0.390 OA
ATOM     21  H11 UNL     1      31.566   9.876   6.336  1.00  0.00     0.210 HD
ENDBRANCH  17  20
BRANCH  18  22
HETATM   22  O10 UNL     1      33.577   7.722   4.253  1.00  0.00    -0.390 OA
ATOM     23  H10 UNL     1      33.244   8.484   3.793  1.00  0.00     0.210 HD
ENDBRANCH  18  22
BRANCH  19  24
HETATM   24  O9  UNL     1      33.472   5.246   4.398  1.00  0.00    -0.388 OA
ATOM     25  H9  UNL     1      32.848   4.608   4.073  1.00  0.00     0.210 HD
ENDBRANCH  19  24
ENDBRANCH  12  13
ENDBRANCH   1  12
BRANCH   2  26
HETATM   26  C6  UNL     1      32.002   4.511  10.088  1.00  0.00     0.004 A 
HETATM   27  C7  UNL     1      31.330   4.816  11.230  1.00  0.00     0.017 A 
HETATM   28  C8  UNL     1      29.931   4.882  11.250  1.00  0.00     0.040 A 
HETATM   29  C9  UNL     1      29.207   4.636  10.099  1.00  0.00     0.098 A 
HETATM   30  C10 UNL     1      29.857   4.325   8.929  1.00  0.00     0.099 A 
HETATM   31  C11 UNL     1      31.228   4.273   8.964  1.00  0.00     0.053 A 
BRANCH  29  32
HETATM   32  O3  UNL     1      27.827   4.719  10.188  1.00  0.00    -0.358 OA
ATOM     33  H3  UNL     1      27.320   4.088   9.689  1.00  0.00     0.217 HD
ENDBRANCH  29  32
BRANCH  30  34
HETATM   34  O4  UNL     1      29.112   4.083   7.793  1.00  0.00    -0.358 OA
ATOM     35  H4  UNL     1      29.290   3.301   7.283  1.00  0.00     0.217 HD
ENDBRANCH  30  34
ENDBRANCH   2  26
BRANCH   8  36
HETATM   36  O7  UNL     1      38.276   4.398   9.027  1.00  0.00    -0.360 OA
ATOM     37  H7  UNL     1      39.187   4.661   9.089  1.00  0.00     0.217 HD
ENDBRANCH   8  36
BRANCH   6  38
HETATM   38  O6  UNL     1      38.038   4.065  13.770  1.00  0.00    -0.361 OA
ATOM     39  H6  UNL     1      38.541   4.798  14.107  1.00  0.00     0.217 HD
ENDBRANCH   6  38
TORSDOF 10
ENDMDL
