MODEL 6
REMARK VINA RESULT: -8.283120899      1.567      5.163
REMARK  10 active torsions:
REMARK  status: ('A' for Active; 'I' for Inactive)
REMARK    1  A    between atoms: C3_4  and  O2_5 
REMARK    2  A    between atoms: O2_5  and  C4_6 
REMARK    3  A    between atoms: C5_7  and  C6_8 
REMARK    4  A    between atoms: C9_11  and  O3_12 
REMARK    5  A    between atoms: C10_14  and  O4_15 
REMARK    6  A    between atoms: C14_21  and  O6_22 
REMARK    7  A    between atoms: C16_25  and  O7_26 
REMARK    8  A    between atoms: C19_31  and  O9_32 
REMARK    9  A    between atoms: C20_34  and  O10_35 
REMARK   10  A    between atoms: C21_37  and  O11_38 
ROOT
HETATM    1  C4  UNL     1      33.206   5.298   9.006  1.00  0.00     0.157 A 
HETATM    2  C5  UNL     1      33.792   5.391   7.785  1.00  0.00     0.124 A 
HETATM    3  O5  UNL     1      35.078   5.040   7.638  1.00  0.00    -0.306 OA
HETATM    4  C12 UNL     1      35.840   4.601   8.579  1.00  0.00     0.096 A 
HETATM    5  C13 UNL     1      37.161   4.255   8.359  1.00  0.00     0.075 A 
HETATM    6  C14 UNL     1      37.921   3.793   9.410  1.00  0.00     0.071 A 
HETATM    7  C15 UNL     1      37.382   3.668  10.685  1.00  0.00     0.074 A 
HETATM    8  C16 UNL     1      36.077   4.021  10.857  1.00  0.00     0.085 A 
HETATM    9  C17 UNL     1      35.279   4.487   9.843  1.00  0.00     0.084 A 
HETATM   10  C18 UNL     1      33.969   4.828  10.083  1.00  0.00     0.223 A 
HETATM   11  O8  UNL     1      33.483   4.716  11.236  1.00  0.00    -0.284 OA
ENDROOT
BRANCH   1  12
HETATM   12  O2  UNL     1      31.912   5.646   9.258  1.00  0.00    -0.311 OA
BRANCH  12  13
HETATM   13  C3  UNL     1      30.897   4.646   9.486  1.00  0.00     0.298 C 
HETATM   14  O1  UNL     1      30.362   4.442   8.194  1.00  0.00    -0.351 OA
HETATM   15  C2  UNL     1      29.341   5.373   7.992  1.00  0.00     0.152 C 
HETATM   16  C1  UNL     1      29.061   5.640   6.549  1.00  0.00     0.042 C 
HETATM   17  C21 UNL     1      28.121   4.787   8.711  1.00  0.00     0.178 C 
HETATM   18  C20 UNL     1      28.475   4.672  10.154  1.00  0.00     0.183 C 
HETATM   19  C19 UNL     1      29.899   5.065  10.467  1.00  0.00     0.205 C 
BRANCH  17  20
HETATM   20  O11 UNL     1      26.983   5.533   8.477  1.00  0.00    -0.390 OA
ATOM     21  H11 UNL     1      26.650   5.926   9.276  1.00  0.00     0.210 HD
ENDBRANCH  17  20
BRANCH  18  22
HETATM   22  O10 UNL     1      28.218   3.373  10.598  1.00  0.00    -0.390 OA
ATOM     23  H10 UNL     1      28.911   2.784  10.321  1.00  0.00     0.210 HD
ENDBRANCH  18  22
BRANCH  19  24
HETATM   24  O9  UNL     1      30.179   4.425  11.699  1.00  0.00    -0.388 OA
ATOM     25  H9  UNL     1      29.956   5.018  12.407  1.00  0.00     0.210 HD
ENDBRANCH  19  24
ENDBRANCH  12  13
ENDBRANCH   1  12
BRANCH   2  26
HETATM   26  C6  UNL     1      33.134   5.859   6.557  1.00  0.00     0.004 A 
HETATM   27  C7  UNL     1      32.832   5.068   5.493  1.00  0.00     0.017 A 
HETATM   28  C8  UNL     1      32.155   5.583   4.380  1.00  0.00     0.040 A 
HETATM   29  C9  UNL     1      31.780   6.913   4.348  1.00  0.00     0.098 A 
HETATM   30  C10 UNL     1      32.071   7.737   5.408  1.00  0.00     0.099 A 
HETATM   31  C11 UNL     1      32.737   7.184   6.473  1.00  0.00     0.053 A 
BRANCH  29  32
HETATM   32  O3  UNL     1      31.113   7.357   3.217  1.00  0.00    -0.358 OA
ATOM     33  H3  UNL     1      30.339   7.892   3.351  1.00  0.00     0.217 HD
ENDBRANCH  29  32
BRANCH  30  34
HETATM   34  O4  UNL     1      31.689   9.061   5.351  1.00  0.00    -0.358 OA
ATOM     35  H4  UNL     1      31.122   9.407   6.031  1.00  0.00     0.217 HD
ENDBRANCH  30  34
ENDBRANCH   2  26
BRANCH   8  36
HETATM   36  O7  UNL     1      35.521   3.904  12.123  1.00  0.00    -0.360 OA
ATOM     37  H7  UNL     1      35.282   4.698  12.589  1.00  0.00     0.217 HD
ENDBRANCH   8  36
BRANCH   6  38
HETATM   38  O6  UNL     1      39.249   3.442   9.198  1.00  0.00    -0.361 OA
ATOM     39  H6  UNL     1      39.942   4.022   9.492  1.00  0.00     0.217 HD
ENDBRANCH   6  38
TORSDOF 10
ENDMDL
