MODEL 4
REMARK VINA RESULT: -10.118646040      2.190      2.885
REMARK  5 active torsions:
REMARK  status: ('A' for Active; 'I' for Inactive)
REMARK    1  A    between atoms: C2_2  and  N1_3 
REMARK    2  A    between atoms: C2_2  and  C14_22 
REMARK       I    between atoms: N1_3  and  C3_5 
REMARK    3  A    between atoms: C3_5  and  C4_7 
REMARK    4  A    between atoms: C4_7  and  C5_8 
REMARK    5  A    between atoms: C5_8  and  C6_9 
ROOT
HETATM    1  C5  UNL     1      19.937  -5.550  13.519  1.00  0.00     0.086 C 
ENDROOT
BRANCH   1   2
HETATM    2  C4  UNL     1      20.727  -4.630  12.648  1.00  0.00     0.110 C 
BRANCH   2   3
HETATM    3  C3  UNL     1      20.520  -3.199  12.995  1.00  0.00     0.218 C 
HETATM    4  N1  UNL     1      21.264  -2.527  13.982  1.00  0.00    -0.353 N 
ATOM      5  H1  UNL     1      21.983  -3.046  14.487  1.00  0.00     0.163 HD
HETATM    6  O1  UNL     1      19.637  -2.568  12.372  1.00  0.00    -0.274 OA
BRANCH   4   7
HETATM    7  C2  UNL     1      21.054  -1.114  14.320  1.00  0.00     0.113 C 
HETATM    8  C1  UNL     1      20.948  -0.945  15.793  1.00  0.00     0.037 C 
BRANCH   7   9
HETATM    9  C14 UNL     1      22.138  -0.356  13.691  1.00  0.00    -0.036 A 
HETATM   10  C15 UNL     1      23.318  -0.201  14.393  1.00  0.00     0.009 A 
HETATM   11  C16 UNL     1      24.393   0.504  13.870  1.00  0.00     0.001 A 
HETATM   12  C17 UNL     1      24.309   1.072  12.623  1.00  0.00     0.000 A 
HETATM   13  C18 UNL     1      23.151   0.931  11.911  1.00  0.00     0.001 A 
HETATM   14  C19 UNL     1      22.086   0.226  12.443  1.00  0.00     0.009 A 
ENDBRANCH   7   9
ENDBRANCH   4   7
ENDBRANCH   2   3
ENDBRANCH   1   2
BRANCH   1  15
HETATM   15  C6  UNL     1      18.833  -6.115  12.677  1.00  0.00     0.084 A 
HETATM   16  N2  UNL     1      18.801  -7.408  12.333  1.00  0.00    -0.345 N 
HETATM   17  C7  UNL     1      17.794  -7.912  11.568  1.00  0.00     0.049 A 
ATOM     18  H2  UNL     1      19.546  -8.028  12.651  1.00  0.00     0.167 HD
HETATM   19  C8  UNL     1      17.762  -9.240  11.215  1.00  0.00     0.030 A 
HETATM   20  C12 UNL     1      16.780  -7.096  11.128  1.00  0.00     0.059 A 
HETATM   21  C9  UNL     1      16.748  -9.757  10.442  1.00  0.00     0.002 A 
HETATM   22  C10 UNL     1      15.736  -8.925  10.008  1.00  0.00     0.001 A 
HETATM   23  C11 UNL     1      15.756  -7.592  10.355  1.00  0.00     0.019 A 
HETATM   24  C13 UNL     1      16.826  -5.757  11.493  1.00  0.00     0.259 A 
HETATM   25  O2  UNL     1      15.890  -5.030  11.080  1.00  0.00    -0.267 OA
HETATM   26  N3  UNL     1      17.839  -5.320  12.245  1.00  0.00    -0.312 N 
ATOM     27  H3  UNL     1      17.860  -4.334  12.505  1.00  0.00     0.170 HD
ENDBRANCH   1  15
TORSDOF 5
ENDMDL
