MODEL 3
REMARK VINA RESULT: -10.126708925      2.188      2.540
REMARK  5 active torsions:
REMARK  status: ('A' for Active; 'I' for Inactive)
REMARK    1  A    between atoms: C2_2  and  N1_3 
REMARK    2  A    between atoms: C2_2  and  C14_22 
REMARK       I    between atoms: N1_3  and  C3_5 
REMARK    3  A    between atoms: C3_5  and  C4_7 
REMARK    4  A    between atoms: C4_7  and  C5_8 
REMARK    5  A    between atoms: C5_8  and  C6_9 
ROOT
HETATM    1  C5  UNL     1      19.298  -4.926  13.088  1.00  0.00     0.086 C 
ENDROOT
BRANCH   1   2
HETATM    2  C4  UNL     1      20.236  -4.432  12.036  1.00  0.00     0.110 C 
BRANCH   2   3
HETATM    3  C3  UNL     1      21.629  -4.288  12.536  1.00  0.00     0.218 C 
HETATM    4  N1  UNL     1      22.595  -3.476  11.912  1.00  0.00    -0.353 N 
ATOM      5  H1  UNL     1      22.329  -2.960  11.074  1.00  0.00     0.163 HD
HETATM    6  O1  UNL     1      21.950  -4.924  13.565  1.00  0.00    -0.274 OA
BRANCH   4   7
HETATM    7  C2  UNL     1      23.968  -3.339  12.411  1.00  0.00     0.113 C 
HETATM    8  C1  UNL     1      24.943  -3.680  11.342  1.00  0.00     0.037 C 
BRANCH   7   9
HETATM    9  C14 UNL     1      24.097  -1.983  12.950  1.00  0.00    -0.036 A 
HETATM   10  C15 UNL     1      24.771  -1.043  12.194  1.00  0.00     0.009 A 
HETATM   11  C16 UNL     1      24.938   0.263  12.632  1.00  0.00     0.001 A 
HETATM   12  C17 UNL     1      24.430   0.659  13.844  1.00  0.00     0.000 A 
HETATM   13  C18 UNL     1      23.759  -0.255  14.607  1.00  0.00     0.001 A 
HETATM   14  C19 UNL     1      23.599  -1.554  14.161  1.00  0.00     0.009 A 
ENDBRANCH   7   9
ENDBRANCH   4   7
ENDBRANCH   2   3
ENDBRANCH   1   2
BRANCH   1  15
HETATM   15  C6  UNL     1      18.281  -5.788  12.402  1.00  0.00     0.084 A 
HETATM   16  N2  UNL     1      18.518  -7.077  12.134  1.00  0.00    -0.345 N 
HETATM   17  C7  UNL     1      17.588  -7.853  11.511  1.00  0.00     0.049 A 
ATOM     18  H2  UNL     1      19.412  -7.487  12.401  1.00  0.00     0.167 HD
HETATM   19  C8  UNL     1      17.831  -9.176  11.236  1.00  0.00     0.030 A 
HETATM   20  C12 UNL     1      16.375  -7.321  11.141  1.00  0.00     0.059 A 
HETATM   21  C9  UNL     1      16.896  -9.967  10.606  1.00  0.00     0.002 A 
HETATM   22  C10 UNL     1      15.683  -9.419  10.240  1.00  0.00     0.001 A 
HETATM   23  C11 UNL     1      15.427  -8.093  10.511  1.00  0.00     0.019 A 
HETATM   24  C13 UNL     1      16.144  -5.982  11.426  1.00  0.00     0.259 A 
HETATM   25  O2  UNL     1      15.031  -5.518  11.079  1.00  0.00    -0.267 OA
HETATM   26  N3  UNL     1      17.094  -5.272  12.039  1.00  0.00    -0.312 N 
ATOM     27  H3  UNL     1      16.911  -4.290  12.242  1.00  0.00     0.170 HD
ENDBRANCH   1  15
TORSDOF 5
ENDMDL
