MODEL 2
REMARK VINA RESULT: -10.148476826      2.208      2.765
REMARK  5 active torsions:
REMARK  status: ('A' for Active; 'I' for Inactive)
REMARK    1  A    between atoms: C2_2  and  N1_3 
REMARK    2  A    between atoms: C2_2  and  C14_22 
REMARK       I    between atoms: N1_3  and  C3_5 
REMARK    3  A    between atoms: C3_5  and  C4_7 
REMARK    4  A    between atoms: C4_7  and  C5_8 
REMARK    5  A    between atoms: C5_8  and  C6_9 
ROOT
HETATM    1  C5  UNL     1      19.509  -4.910  12.811  1.00  0.00     0.086 C 
ENDROOT
BRANCH   1   2
HETATM    2  C4  UNL     1      19.168  -4.649  14.242  1.00  0.00     0.110 C 
BRANCH   2   3
HETATM    3  C3  UNL     1      19.951  -3.523  14.818  1.00  0.00     0.218 C 
HETATM    4  N1  UNL     1      21.243  -3.176  14.380  1.00  0.00    -0.353 N 
ATOM      5  H1  UNL     1      21.666  -3.723  13.631  1.00  0.00     0.163 HD
HETATM    6  O1  UNL     1      19.426  -2.857  15.738  1.00  0.00    -0.274 OA
BRANCH   4   7
HETATM    7  C2  UNL     1      22.010  -2.065  14.954  1.00  0.00     0.113 C 
HETATM    8  C1  UNL     1      23.358  -2.529  15.375  1.00  0.00     0.037 C 
BRANCH   7   9
HETATM    9  C14 UNL     1      22.015  -0.988  13.961  1.00  0.00    -0.036 A 
HETATM   10  C15 UNL     1      23.087  -0.116  13.950  1.00  0.00     0.009 A 
HETATM   11  C16 UNL     1      23.168   0.931  13.042  1.00  0.00     0.001 A 
HETATM   12  C17 UNL     1      22.171   1.129  12.120  1.00  0.00     0.000 A 
HETATM   13  C18 UNL     1      21.101   0.278  12.114  1.00  0.00     0.001 A 
HETATM   14  C19 UNL     1      21.030  -0.762  13.023  1.00  0.00     0.009 A 
ENDBRANCH   7   9
ENDBRANCH   4   7
ENDBRANCH   2   3
ENDBRANCH   1   2
BRANCH   1  15
HETATM   15  C6  UNL     1      18.419  -5.770  12.247  1.00  0.00     0.084 A 
HETATM   16  N2  UNL     1      18.607  -7.070  11.997  1.00  0.00    -0.345 N 
HETATM   17  C7  UNL     1      17.611  -7.844  11.484  1.00  0.00     0.049 A 
ATOM     18  H2  UNL     1      19.514  -7.491  12.195  1.00  0.00     0.167 HD
HETATM   19  C8  UNL     1      17.804  -9.180  11.228  1.00  0.00     0.030 A 
HETATM   20  C12 UNL     1      16.379  -7.299  11.210  1.00  0.00     0.059 A 
HETATM   21  C9  UNL     1      16.801  -9.968  10.709  1.00  0.00     0.002 A 
HETATM   22  C10 UNL     1      15.571  -9.407  10.438  1.00  0.00     0.001 A 
HETATM   23  C11 UNL     1      15.363  -8.068  10.691  1.00  0.00     0.019 A 
HETATM   24  C13 UNL     1      16.199  -5.947  11.474  1.00  0.00     0.259 A 
HETATM   25  O2  UNL     1      15.067  -5.470  11.216  1.00  0.00    -0.267 OA
HETATM   26  N3  UNL     1      17.213  -5.240  11.977  1.00  0.00    -0.312 N 
ATOM     27  H3  UNL     1      17.066  -4.249  12.167  1.00  0.00     0.170 HD
ENDBRANCH   1  15
TORSDOF 5
ENDMDL
