MODEL 9
REMARK VINA RESULT: -9.776808595      2.462      5.027
REMARK  5 active torsions:
REMARK  status: ('A' for Active; 'I' for Inactive)
REMARK    1  A    between atoms: C2_2  and  N1_3 
REMARK    2  A    between atoms: C2_2  and  C14_22 
REMARK       I    between atoms: N1_3  and  C3_5 
REMARK    3  A    between atoms: C3_5  and  C4_7 
REMARK    4  A    between atoms: C4_7  and  C5_8 
REMARK    5  A    between atoms: C5_8  and  C6_9 
ROOT
HETATM    1  C5  UNL     1      19.013  -4.787  13.119  1.00  0.00     0.086 C 
ENDROOT
BRANCH   1   2
HETATM    2  C4  UNL     1      19.934  -4.193  12.104  1.00  0.00     0.110 C 
BRANCH   2   3
HETATM    3  C3  UNL     1      21.090  -5.077  11.798  1.00  0.00     0.218 C 
HETATM    4  N1  UNL     1      21.673  -5.942  12.743  1.00  0.00    -0.353 N 
ATOM      5  H1  UNL     1      21.285  -5.966  13.685  1.00  0.00     0.163 HD
HETATM    6  O1  UNL     1      21.562  -5.043  10.639  1.00  0.00    -0.274 OA
BRANCH   4   7
HETATM    7  C2  UNL     1      22.814  -6.811  12.434  1.00  0.00     0.113 C 
HETATM    8  C1  UNL     1      24.043  -6.307  13.101  1.00  0.00     0.037 C 
BRANCH   7   9
HETATM    9  C14 UNL     1      22.430  -8.175  12.805  1.00  0.00    -0.036 A 
HETATM   10  C15 UNL     1      21.549  -8.851  11.983  1.00  0.00     0.009 A 
HETATM   11  C16 UNL     1      21.134 -10.145  12.263  1.00  0.00     0.001 A 
HETATM   12  C17 UNL     1      21.595 -10.795  13.380  1.00  0.00     0.000 A 
HETATM   13  C18 UNL     1      22.467 -10.145  14.208  1.00  0.00     0.001 A 
HETATM   14  C19 UNL     1      22.874  -8.855  13.919  1.00  0.00     0.009 A 
ENDBRANCH   7   9
ENDBRANCH   4   7
ENDBRANCH   2   3
ENDBRANCH   1   2
BRANCH   1  15
HETATM   15  C6  UNL     1      18.074  -5.697  12.386  1.00  0.00     0.084 A 
HETATM   16  N2  UNL     1      18.365  -6.985  12.174  1.00  0.00    -0.345 N 
HETATM   17  C7  UNL     1      17.507  -7.805  11.506  1.00  0.00     0.049 A 
ATOM     18  H2  UNL     1      19.248  -7.361  12.519  1.00  0.00     0.167 HD
HETATM   19  C8  UNL     1      17.806  -9.127  11.289  1.00  0.00     0.030 A 
HETATM   20  C12 UNL     1      16.312  -7.320  11.031  1.00  0.00     0.059 A 
HETATM   21  C9  UNL     1      16.943  -9.962  10.615  1.00  0.00     0.002 A 
HETATM   22  C10 UNL     1      15.747  -9.461  10.144  1.00  0.00     0.001 A 
HETATM   23  C11 UNL     1      15.435  -8.135  10.355  1.00  0.00     0.019 A 
HETATM   24  C13 UNL     1      16.023  -5.980  11.259  1.00  0.00     0.259 A 
HETATM   25  O2  UNL     1      14.927  -5.559  10.816  1.00  0.00    -0.267 OA
HETATM   26  N3  UNL     1      16.905  -5.226  11.920  1.00  0.00    -0.312 N 
ATOM     27  H3  UNL     1      16.679  -4.244  12.080  1.00  0.00     0.170 HD
ENDBRANCH   1  15
TORSDOF 5
ENDMDL
