MODEL 5
REMARK VINA RESULT: -10.000949223      2.690      3.124
REMARK  5 active torsions:
REMARK  status: ('A' for Active; 'I' for Inactive)
REMARK    1  A    between atoms: C2_2  and  N1_3 
REMARK    2  A    between atoms: C2_2  and  C14_22 
REMARK       I    between atoms: N1_3  and  C3_5 
REMARK    3  A    between atoms: C3_5  and  C4_7 
REMARK    4  A    between atoms: C4_7  and  C5_8 
REMARK    5  A    between atoms: C5_8  and  C6_9 
ROOT
HETATM    1  C5  UNL     1      19.843  -5.321  13.221  1.00  0.00     0.086 C 
ENDROOT
BRANCH   1   2
HETATM    2  C4  UNL     1      19.639  -3.847  13.088  1.00  0.00     0.110 C 
BRANCH   2   3
HETATM    3  C3  UNL     1      20.510  -3.066  14.007  1.00  0.00     0.218 C 
HETATM    4  N1  UNL     1      21.888  -3.310  14.161  1.00  0.00    -0.353 N 
ATOM      5  H1  UNL     1      22.312  -4.060  13.615  1.00  0.00     0.163 HD
HETATM    6  O1  UNL     1      19.982  -2.148  14.674  1.00  0.00    -0.274 OA
BRANCH   4   7
HETATM    7  C2  UNL     1      22.741  -2.536  15.069  1.00  0.00     0.113 C 
HETATM    8  C1  UNL     1      23.574  -3.447  15.898  1.00  0.00     0.037 C 
BRANCH   7   9
HETATM    9  C14 UNL     1      23.498  -1.590  14.247  1.00  0.00    -0.036 A 
HETATM   10  C15 UNL     1      23.542  -0.268  14.647  1.00  0.00     0.009 A 
HETATM   11  C16 UNL     1      24.237   0.692  13.925  1.00  0.00     0.001 A 
HETATM   12  C17 UNL     1      24.907   0.347  12.778  1.00  0.00     0.000 A 
HETATM   13  C18 UNL     1      24.876  -0.956  12.364  1.00  0.00     0.001 A 
HETATM   14  C19 UNL     1      24.181  -1.904  13.092  1.00  0.00     0.009 A 
ENDBRANCH   7   9
ENDBRANCH   4   7
ENDBRANCH   2   3
ENDBRANCH   1   2
BRANCH   1  15
HETATM   15  C6  UNL     1      18.731  -5.990  12.470  1.00  0.00     0.084 A 
HETATM   16  N2  UNL     1      18.752  -7.300  12.204  1.00  0.00    -0.345 N 
HETATM   17  C7  UNL     1      17.737  -7.900  11.521  1.00  0.00     0.049 A 
ATOM     18  H2  UNL     1      19.542  -7.862  12.518  1.00  0.00     0.167 HD
HETATM   19  C8  UNL     1      17.758  -9.246  11.248  1.00  0.00     0.030 A 
HETATM   20  C12 UNL     1      16.661  -7.163  11.087  1.00  0.00     0.059 A 
HETATM   21  C9  UNL     1      16.737  -9.859  10.558  1.00  0.00     0.002 A 
HETATM   22  C10 UNL     1      15.663  -9.106  10.129  1.00  0.00     0.001 A 
HETATM   23  C11 UNL     1      15.630  -7.755  10.396  1.00  0.00     0.019 A 
HETATM   24  C13 UNL     1      16.654  -5.803  11.371  1.00  0.00     0.259 A 
HETATM   25  O2  UNL     1      15.663  -5.150  10.965  1.00  0.00    -0.267 OA
HETATM   26  N3  UNL     1      17.677  -5.272  12.044  1.00  0.00    -0.312 N 
ATOM     27  H3  UNL     1      17.659  -4.272  12.246  1.00  0.00     0.170 HD
ENDBRANCH   1  15
TORSDOF 5
ENDMDL
