MODEL 19
REMARK VINA RESULT: -9.310663218      3.234      5.560
REMARK  5 active torsions:
REMARK  status: ('A' for Active; 'I' for Inactive)
REMARK    1  A    between atoms: C2_2  and  N1_3 
REMARK    2  A    between atoms: C2_2  and  C14_22 
REMARK       I    between atoms: N1_3  and  C3_5 
REMARK    3  A    between atoms: C3_5  and  C4_7 
REMARK    4  A    between atoms: C4_7  and  C5_8 
REMARK    5  A    between atoms: C5_8  and  C6_9 
ROOT
HETATM    1  C5  UNL     1      19.139  -4.901  13.157  1.00  0.00     0.086 C 
ENDROOT
BRANCH   1   2
HETATM    2  C4  UNL     1      20.492  -5.500  12.957  1.00  0.00     0.110 C 
BRANCH   2   3
HETATM    3  C3  UNL     1      21.121  -5.926  14.236  1.00  0.00     0.218 C 
HETATM    4  N1  UNL     1      21.344  -5.052  15.316  1.00  0.00    -0.353 N 
ATOM      5  H1  UNL     1      21.061  -4.077  15.219  1.00  0.00     0.163 HD
HETATM    6  O1  UNL     1      21.465  -7.124  14.348  1.00  0.00    -0.274 OA
BRANCH   4   7
HETATM    7  C2  UNL     1      21.965  -5.478  16.575  1.00  0.00     0.113 C 
HETATM    8  C1  UNL     1      22.871  -4.418  17.090  1.00  0.00     0.037 C 
BRANCH   7   9
HETATM    9  C14 UNL     1      20.880  -5.853  17.485  1.00  0.00    -0.036 A 
HETATM   10  C15 UNL     1      19.962  -4.884  17.839  1.00  0.00     0.009 A 
HETATM   11  C16 UNL     1      18.905  -5.156  18.696  1.00  0.00     0.001 A 
HETATM   12  C17 UNL     1      18.744  -6.414  19.221  1.00  0.00     0.000 A 
HETATM   13  C18 UNL     1      19.641  -7.389  18.883  1.00  0.00     0.001 A 
HETATM   14  C19 UNL     1      20.691  -7.106  18.028  1.00  0.00     0.009 A 
ENDBRANCH   7   9
ENDBRANCH   4   7
ENDBRANCH   2   3
ENDBRANCH   1   2
BRANCH   1  15
HETATM   15  C6  UNL     1      18.158  -5.772  12.431  1.00  0.00     0.084 A 
HETATM   16  N2  UNL     1      18.419  -7.057  12.168  1.00  0.00    -0.345 N 
HETATM   17  C7  UNL     1      17.523  -7.841  11.507  1.00  0.00     0.049 A 
ATOM     18  H2  UNL     1      19.308  -7.458  12.467  1.00  0.00     0.167 HD
HETATM   19  C8  UNL     1      17.792  -9.161  11.238  1.00  0.00     0.030 A 
HETATM   20  C12 UNL     1      16.319  -7.323  11.095  1.00  0.00     0.059 A 
HETATM   21  C9  UNL     1      16.890  -9.960  10.571  1.00  0.00     0.002 A 
HETATM   22  C10 UNL     1      15.686  -9.425  10.162  1.00  0.00     0.001 A 
HETATM   23  C11 UNL     1      15.403  -8.103  10.427  1.00  0.00     0.019 A 
HETATM   24  C13 UNL     1      16.061  -5.987  11.375  1.00  0.00     0.259 A 
HETATM   25  O2  UNL     1      14.957  -5.535  10.988  1.00  0.00    -0.267 OA
HETATM   26  N3  UNL     1      16.979  -5.268  12.026  1.00  0.00    -0.312 N 
ATOM     27  H3  UNL     1      16.777  -4.289  12.225  1.00  0.00     0.170 HD
ENDBRANCH   1  15
TORSDOF 5
ENDMDL
