MODEL 7
REMARK VINA RESULT: -9.836444438      1.699      2.200
REMARK  5 active torsions:
REMARK  status: ('A' for Active; 'I' for Inactive)
REMARK    1  A    between atoms: C2_2  and  N1_3 
REMARK    2  A    between atoms: C2_2  and  C14_22 
REMARK       I    between atoms: N1_3  and  C3_5 
REMARK    3  A    between atoms: C3_5  and  C4_7 
REMARK    4  A    between atoms: C4_7  and  C5_8 
REMARK    5  A    between atoms: C5_8  and  C6_9 
ROOT
HETATM    1  C5  UNL     1      19.266  -4.829  13.153  1.00  0.00     0.086 C 
ENDROOT
BRANCH   1   2
HETATM    2  C4  UNL     1      20.590  -5.018  12.488  1.00  0.00     0.110 C 
BRANCH   2   3
HETATM    3  C3  UNL     1      20.972  -3.857  11.641  1.00  0.00     0.218 C 
HETATM    4  N1  UNL     1      21.135  -2.553  12.144  1.00  0.00    -0.353 N 
ATOM      5  H1  UNL     1      20.983  -2.393  13.140  1.00  0.00     0.163 HD
HETATM    6  O1  UNL     1      21.157  -4.060  10.420  1.00  0.00    -0.274 OA
BRANCH   4   7
HETATM    7  C2  UNL     1      21.513  -1.412  11.303  1.00  0.00     0.113 C 
HETATM    8  C1  UNL     1      20.785  -0.189  11.733  1.00  0.00     0.037 C 
BRANCH   7   9
HETATM    9  C14 UNL     1      22.972  -1.306  11.350  1.00  0.00    -0.036 A 
HETATM   10  C15 UNL     1      23.540  -0.575  12.377  1.00  0.00     0.009 A 
HETATM   11  C16 UNL     1      24.915  -0.425  12.494  1.00  0.00     0.001 A 
HETATM   12  C17 UNL     1      25.757  -1.008  11.580  1.00  0.00     0.000 A 
HETATM   13  C18 UNL     1      25.216  -1.736  10.557  1.00  0.00     0.001 A 
HETATM   14  C19 UNL     1      23.845  -1.878  10.450  1.00  0.00     0.009 A 
ENDBRANCH   7   9
ENDBRANCH   4   7
ENDBRANCH   2   3
ENDBRANCH   1   2
BRANCH   1  15
HETATM   15  C6  UNL     1      18.286  -5.714  12.444  1.00  0.00     0.084 A 
HETATM   16  N2  UNL     1      18.552  -7.000  12.194  1.00  0.00    -0.345 N 
HETATM   17  C7  UNL     1      17.655  -7.797  11.548  1.00  0.00     0.049 A 
ATOM     18  H2  UNL     1      19.444  -7.393  12.492  1.00  0.00     0.167 HD
HETATM   19  C8  UNL     1      17.929  -9.118  11.292  1.00  0.00     0.030 A 
HETATM   20  C12 UNL     1      16.446  -7.289  11.137  1.00  0.00     0.059 A 
HETATM   21  C9  UNL     1      17.027  -9.929  10.640  1.00  0.00     0.002 A 
HETATM   22  C10 UNL     1      15.818  -9.406  10.233  1.00  0.00     0.001 A 
HETATM   23  C11 UNL     1      15.530  -8.081  10.484  1.00  0.00     0.019 A 
HETATM   24  C13 UNL     1      16.184  -5.952  11.404  1.00  0.00     0.259 A 
HETATM   25  O2  UNL     1      15.074  -5.510  11.019  1.00  0.00    -0.267 OA
HETATM   26  N3  UNL     1      17.102  -5.221  12.040  1.00  0.00    -0.312 N 
ATOM     27  H3  UNL     1      16.895  -4.240  12.229  1.00  0.00     0.170 HD
ENDBRANCH   1  15
TORSDOF 5
ENDMDL
