MODEL 12
REMARK VINA RESULT: -9.408910439      2.422      8.561
REMARK  5 active torsions:
REMARK  status: ('A' for Active; 'I' for Inactive)
REMARK    1  A    between atoms: C2_2  and  N1_3 
REMARK    2  A    between atoms: C2_2  and  C14_22 
REMARK       I    between atoms: N1_3  and  C3_5 
REMARK    3  A    between atoms: C3_5  and  C4_7 
REMARK    4  A    between atoms: C4_7  and  C5_8 
REMARK    5  A    between atoms: C5_8  and  C6_9 
ROOT
HETATM    1  C5  UNL     1      22.414  -5.384  11.125  1.00  0.00     0.086 C 
ENDROOT
BRANCH   1   2
HETATM    2  C4  UNL     1      21.101  -5.060  10.492  1.00  0.00     0.110 C 
BRANCH   2   3
HETATM    3  C3  UNL     1      19.946  -5.425  11.355  1.00  0.00     0.218 C 
HETATM    4  N1  UNL     1      18.737  -5.942  10.852  1.00  0.00    -0.353 N 
ATOM      5  H1  UNL     1      18.646  -6.072   9.845  1.00  0.00     0.163 HD
HETATM    6  O1  UNL     1      20.065  -5.263  12.591  1.00  0.00    -0.274 OA
BRANCH   4   7
HETATM    7  C2  UNL     1      17.602  -6.301  11.709  1.00  0.00     0.113 C 
HETATM    8  C1  UNL     1      16.586  -5.216  11.703  1.00  0.00     0.037 C 
BRANCH   7   9
HETATM    9  C14 UNL     1      17.112  -7.603  11.252  1.00  0.00    -0.036 A 
HETATM   10  C15 UNL     1      15.841  -7.669  10.713  1.00  0.00     0.009 A 
HETATM   11  C16 UNL     1      15.302  -8.863  10.257  1.00  0.00     0.001 A 
HETATM   12  C17 UNL     1      16.028 -10.026  10.332  1.00  0.00     0.000 A 
HETATM   13  C18 UNL     1      17.288  -9.983  10.861  1.00  0.00     0.001 A 
HETATM   14  C19 UNL     1      17.815  -8.787  11.313  1.00  0.00     0.009 A 
ENDBRANCH   7   9
ENDBRANCH   4   7
ENDBRANCH   2   3
ENDBRANCH   1   2
BRANCH   1  15
HETATM   15  C6  UNL     1      23.068  -4.082  11.478  1.00  0.00     0.084 A 
HETATM   16  N2  UNL     1      22.667  -3.355  12.526  1.00  0.00    -0.345 N 
HETATM   17  C7  UNL     1      23.266  -2.173  12.839  1.00  0.00     0.049 A 
ATOM     18  H2  UNL     1      21.896  -3.692  13.102  1.00  0.00     0.167 HD
HETATM   19  C8  UNL     1      22.854  -1.426  13.916  1.00  0.00     0.030 A 
HETATM   20  C12 UNL     1      24.307  -1.699  12.077  1.00  0.00     0.059 A 
HETATM   21  C9  UNL     1      23.455  -0.231  14.238  1.00  0.00     0.002 A 
HETATM   22  C10 UNL     1      24.498   0.233  13.464  1.00  0.00     0.001 A 
HETATM   23  C11 UNL     1      24.922  -0.507  12.381  1.00  0.00     0.019 A 
HETATM   24  C13 UNL     1      24.713  -2.465  10.992  1.00  0.00     0.259 A 
HETATM   25  O2  UNL     1      25.664  -2.013  10.309  1.00  0.00    -0.267 OA
HETATM   26  N3  UNL     1      24.086  -3.615  10.734  1.00  0.00    -0.312 N 
ATOM     27  H3  UNL     1      24.395  -4.168   9.934  1.00  0.00     0.170 HD
ENDBRANCH   1  15
TORSDOF 5
ENDMDL
