MODEL 15
REMARK VINA RESULT: -6.974017438      3.753      6.398
REMARK  9 active torsions:
REMARK  status: ('A' for Active; 'I' for Inactive)
REMARK    1  A    between atoms: N1_5  and  C4_6 
REMARK    2  A    between atoms: C6_8  and  O2_9 
REMARK    3  A    between atoms: C7_11  and  C8_12 
REMARK    4  A    between atoms: C8_12  and  O3_13 
REMARK    5  A    between atoms: O3_13  and  P1_14 
REMARK    6  A    between atoms: P1_14  and  N2_17 
REMARK    7  A    between atoms: N2_17  and  P2_19 
REMARK    8  A    between atoms: P2_19  and  O8_22 
REMARK    9  A    between atoms: O8_22  and  P3_23 
ROOT
HETATM    1  C4  UNL     1      33.106  60.131   7.537  1.00  0.00     0.235 C 
HETATM    2  C5  UNL     1      34.118  61.130   8.087  1.00  0.00     0.088 C 
HETATM    3  C6  UNL     1      34.876  60.260   9.087  1.00  0.00     0.153 C 
HETATM    4  C7  UNL     1      34.418  58.880   8.660  1.00  0.00     0.177 C 
HETATM    5  O12 UNL     1      33.050  59.098   8.499  1.00  0.00    -0.356 OA
ENDROOT
BRANCH   4   6
HETATM    6  C8  UNL     1      34.724  57.824   9.680  1.00  0.00     0.215 C 
BRANCH   6   7
HETATM    7  O3  UNL     1      34.895  58.433  10.907  1.00  0.00    -0.293 OA
BRANCH   7   8
HETATM    8  P1  UNL     1      33.605  58.010  11.943  1.00  0.00     0.368 P 
HETATM    9  O4  UNL     1      33.144  56.593  11.675  1.00  0.00    -0.629 OA
HETATM   10  O5  UNL     1      34.115  58.117  13.557  1.00  0.00    -0.629 OA
BRANCH   8  11
HETATM   11  N2  UNL     1      32.266  59.078  11.636  1.00  0.00    -0.225 N 
ATOM     12  H2  UNL     1      31.435  58.813  11.106  1.00  0.00     0.178 HD
BRANCH  11  13
HETATM   13  P2  UNL     1      32.513  60.659  12.340  1.00  0.00     0.378 P 
HETATM   14  O6  UNL     1      34.002  60.856  12.563  1.00  0.00    -0.629 OA
HETATM   15  O7  UNL     1      31.912  61.838  11.288  1.00  0.00    -0.629 OA
BRANCH  13  16
HETATM   16  O8  UNL     1      31.755  60.688  13.837  1.00  0.00    -0.178 OA
BRANCH  16  17
HETATM   17  P3  UNL     1      30.335  59.776  13.862  1.00  0.00     0.431 P 
HETATM   18  O9  UNL     1      29.483  60.192  15.018  1.00  0.00    -0.616 OA
HETATM   19  O10 UNL     1      29.541  60.030  12.380  1.00  0.00    -0.616 OA
HETATM   20  O11 UNL     1      30.666  58.128  13.976  1.00  0.00    -0.616 OA
ENDBRANCH  16  17
ENDBRANCH  13  16
ENDBRANCH  11  13
ENDBRANCH   8  11
ENDBRANCH   7   8
ENDBRANCH   6   7
ENDBRANCH   4   6
BRANCH   3  21
HETATM   21  O2  UNL     1      36.250  60.424   8.966  1.00  0.00    -0.393 OA
ATOM     22  H2  UNL     1      36.703  59.589   8.970  1.00  0.00     0.210 HD
ENDBRANCH   3  21
BRANCH   1  23
HETATM   23  N1  UNL     1      31.829  60.711   7.284  1.00  0.00    -0.282 N 
HETATM   24  C3  UNL     1      31.497  61.895   7.815  1.00  0.00     0.104 A 
HETATM   25  C2  UNL     1      30.259  62.486   7.586  1.00  0.00     0.092 A 
HETATM   26  C1  UNL     1      29.344  61.839   6.791  1.00  0.00     0.250 A 
HETATM   27  O1  UNL     1      28.197  62.327   6.546  1.00  0.00    -0.268 OA
HETATM   28  N3  UNL     1      29.697  60.643   6.263  1.00  0.00    -0.275 N 
HETATM   29  C9  UNL     1      30.912  60.103   6.511  1.00  0.00     0.331 A 
ATOM     30  H3  UNL     1      29.036  60.142   5.669  1.00  0.00     0.173 HD
HETATM   31  O13 UNL     1      31.199  58.990   6.001  1.00  0.00    -0.246 OA
ENDBRANCH   1  23
TORSDOF 9
ENDMDL
