MODEL 11
REMARK VINA RESULT: -7.086584396      3.719      7.392
REMARK  9 active torsions:
REMARK  status: ('A' for Active; 'I' for Inactive)
REMARK    1  A    between atoms: N1_5  and  C4_6 
REMARK    2  A    between atoms: C6_8  and  O2_9 
REMARK    3  A    between atoms: C7_11  and  C8_12 
REMARK    4  A    between atoms: C8_12  and  O3_13 
REMARK    5  A    between atoms: O3_13  and  P1_14 
REMARK    6  A    between atoms: P1_14  and  N2_17 
REMARK    7  A    between atoms: N2_17  and  P2_19 
REMARK    8  A    between atoms: P2_19  and  O8_22 
REMARK    9  A    between atoms: O8_22  and  P3_23 
ROOT
HETATM    1  C4  UNL     1      30.344  61.868   7.495  1.00  0.00     0.235 C 
HETATM    2  C5  UNL     1      30.685  63.294   7.078  1.00  0.00     0.088 C 
HETATM    3  C6  UNL     1      32.199  63.194   6.903  1.00  0.00     0.153 C 
HETATM    4  C7  UNL     1      32.380  61.690   6.885  1.00  0.00     0.177 C 
HETATM    5  O12 UNL     1      31.563  61.318   7.952  1.00  0.00    -0.356 OA
ENDROOT
BRANCH   4   6
HETATM    6  C8  UNL     1      33.809  61.274   7.073  1.00  0.00     0.215 C 
BRANCH   6   7
HETATM    7  O3  UNL     1      34.012  60.984   8.406  1.00  0.00    -0.293 OA
BRANCH   7   8
HETATM    8  P1  UNL     1      35.388  59.986   8.574  1.00  0.00     0.368 P 
HETATM    9  O4  UNL     1      36.434  60.336   7.538  1.00  0.00    -0.629 OA
HETATM   10  O5  UNL     1      36.060  60.202  10.116  1.00  0.00    -0.629 OA
BRANCH   8  11
HETATM   11  N2  UNL     1      34.913  58.331   8.322  1.00  0.00    -0.225 N 
ATOM     12  H2  UNL     1      35.142  57.794   7.485  1.00  0.00     0.178 HD
BRANCH  11  13
HETATM   13  P2  UNL     1      33.998  57.698   9.670  1.00  0.00     0.378 P 
HETATM   14  O6  UNL     1      34.975  57.259  10.747  1.00  0.00    -0.629 OA
HETATM   15  O7  UNL     1      32.969  58.902  10.261  1.00  0.00    -0.629 OA
BRANCH  13  16
HETATM   16  O8  UNL     1      33.163  56.341   9.142  1.00  0.00    -0.178 OA
BRANCH  16  17
HETATM   17  P3  UNL     1      33.013  56.285   7.462  1.00  0.00     0.431 P 
HETATM   18  O9  UNL     1      34.298  55.823   6.852  1.00  0.00    -0.616 OA
HETATM   19  O10 UNL     1      31.735  55.225   7.100  1.00  0.00    -0.616 OA
HETATM   20  O11 UNL     1      32.605  57.794   6.832  1.00  0.00    -0.616 OA
ENDBRANCH  16  17
ENDBRANCH  13  16
ENDBRANCH  11  13
ENDBRANCH   8  11
ENDBRANCH   7   8
ENDBRANCH   6   7
ENDBRANCH   4   6
BRANCH   3  21
HETATM   21  O2  UNL     1      32.616  63.793   5.720  1.00  0.00    -0.393 OA
ATOM     22  H2  UNL     1      33.164  63.210   5.209  1.00  0.00     0.210 HD
ENDBRANCH   3  21
BRANCH   1  23
HETATM   23  N1  UNL     1      29.314  61.804   8.477  1.00  0.00    -0.282 N 
HETATM   24  C3  UNL     1      29.349  62.592   9.560  1.00  0.00     0.104 A 
HETATM   25  C2  UNL     1      28.359  62.553  10.535  1.00  0.00     0.092 A 
HETATM   26  C1  UNL     1      27.308  61.679  10.388  1.00  0.00     0.250 A 
HETATM   27  O1  UNL     1      26.374  61.596  11.245  1.00  0.00    -0.268 OA
HETATM   28  N3  UNL     1      27.289  60.890   9.289  1.00  0.00    -0.275 N 
HETATM   29  C9  UNL     1      28.274  60.960   8.363  1.00  0.00     0.331 A 
ATOM     30  H3  UNL     1      26.521  60.233   9.155  1.00  0.00     0.173 HD
HETATM   31  O13 UNL     1      28.217  60.209   7.357  1.00  0.00    -0.246 OA
ENDBRANCH   1  23
TORSDOF 9
ENDMDL
