MODEL 5
REMARK VINA RESULT: -7.299257029      2.245      3.394
REMARK  9 active torsions:
REMARK  status: ('A' for Active; 'I' for Inactive)
REMARK    1  A    between atoms: N1_5  and  C4_6 
REMARK    2  A    between atoms: C6_8  and  O2_9 
REMARK    3  A    between atoms: C7_11  and  C8_12 
REMARK    4  A    between atoms: C8_12  and  O3_13 
REMARK    5  A    between atoms: O3_13  and  P1_14 
REMARK    6  A    between atoms: P1_14  and  N2_17 
REMARK    7  A    between atoms: N2_17  and  P2_19 
REMARK    8  A    between atoms: P2_19  and  O8_22 
REMARK    9  A    between atoms: O8_22  and  P3_23 
ROOT
HETATM    1  C4  UNL     1      33.256  60.681   8.656  1.00  0.00     0.235 C 
HETATM    2  C5  UNL     1      33.990  60.937   7.345  1.00  0.00     0.088 C 
HETATM    3  C6  UNL     1      32.979  61.814   6.609  1.00  0.00     0.153 C 
HETATM    4  C7  UNL     1      32.054  62.190   7.749  1.00  0.00     0.177 C 
HETATM    5  O12 UNL     1      31.899  60.955   8.377  1.00  0.00    -0.356 OA
ENDROOT
BRANCH   4   6
HETATM    6  C8  UNL     1      30.754  62.771   7.277  1.00  0.00     0.215 C 
BRANCH   6   7
HETATM    7  O3  UNL     1      30.158  61.873   6.416  1.00  0.00    -0.293 OA
BRANCH   7   8
HETATM    8  P1  UNL     1      28.579  61.515   6.962  1.00  0.00     0.368 P 
HETATM    9  O4  UNL     1      27.544  62.219   6.112  1.00  0.00    -0.629 OA
HETATM   10  O5  UNL     1      28.311  59.843   6.867  1.00  0.00    -0.629 OA
BRANCH   8  11
HETATM   11  N2  UNL     1      28.411  62.085   8.598  1.00  0.00    -0.225 N 
ATOM     12  H2  UNL     1      29.070  62.718   9.051  1.00  0.00     0.178 HD
BRANCH  11  13
HETATM   13  P2  UNL     1      26.980  61.446   9.372  1.00  0.00     0.378 P 
HETATM   14  O6  UNL     1      25.942  61.162   8.300  1.00  0.00    -0.629 OA
HETATM   15  O7  UNL     1      27.380  60.026  10.198  1.00  0.00    -0.629 OA
BRANCH  13  16
HETATM   16  O8  UNL     1      26.364  62.629  10.391  1.00  0.00    -0.178 OA
BRANCH  16  17
HETATM   17  P3  UNL     1      27.243  64.068  10.317  1.00  0.00     0.431 P 
HETATM   18  O9  UNL     1      27.224  64.606   8.922  1.00  0.00    -0.616 OA
HETATM   19  O10 UNL     1      26.532  65.156  11.413  1.00  0.00    -0.616 OA
HETATM   20  O11 UNL     1      28.839  63.838  10.806  1.00  0.00    -0.616 OA
ENDBRANCH  16  17
ENDBRANCH  13  16
ENDBRANCH  11  13
ENDBRANCH   8  11
ENDBRANCH   7   8
ENDBRANCH   6   7
ENDBRANCH   4   6
BRANCH   3  21
HETATM   21  O2  UNL     1      33.588  62.921   6.032  1.00  0.00    -0.393 OA
ATOM     22  H2  UNL     1      33.780  63.590   6.678  1.00  0.00     0.210 HD
ENDBRANCH   3  21
BRANCH   1  23
HETATM   23  N1  UNL     1      33.455  59.362   9.158  1.00  0.00    -0.282 N 
HETATM   24  C3  UNL     1      33.629  58.329   8.323  1.00  0.00     0.104 A 
HETATM   25  C2  UNL     1      33.824  57.032   8.783  1.00  0.00     0.092 A 
HETATM   26  C1  UNL     1      33.842  56.796  10.137  1.00  0.00     0.250 A 
HETATM   27  O1  UNL     1      34.016  55.634  10.618  1.00  0.00    -0.268 OA
HETATM   28  N3  UNL     1      33.665  57.851  10.966  1.00  0.00    -0.275 N 
HETATM   29  C9  UNL     1      33.477  59.099  10.477  1.00  0.00     0.331 A 
ATOM     30  H3  UNL     1      33.673  57.704  11.975  1.00  0.00     0.173 HD
HETATM   31  O13 UNL     1      33.316  60.050  11.282  1.00  0.00    -0.246 OA
ENDBRANCH   1  23
TORSDOF 9
ENDMDL
