MODEL 1
REMARK VINA RESULT: -6.301411596      0.000      0.000
REMARK  7 active torsions:
REMARK  status: ('A' for Active; 'I' for Inactive)
REMARK    1  A    between atoms: C2_2  and  C3_3 
REMARK    2  A    between atoms: C3_3  and  C4_4 
REMARK    3  A    between atoms: C3_3  and  O1_6 
REMARK    4  A    between atoms: O1_6  and  C6_7 
REMARK    5  A    between atoms: C8_9  and  C9_10 
REMARK    6  A    between atoms: C11_14  and  N1_15 
REMARK    7  A    between atoms: C12_19  and  N2_20 
REMARK       I    between atoms: N2_20  and  C13_22 
ROOT
HETATM    1  C6  UNL     1      25.588 -10.617  13.974  1.00  0.00     0.170 C 
HETATM    2  C7  UNL     1      25.605 -11.101  15.374  1.00  0.00     0.021 C 
HETATM    3  C8  UNL     1      26.643 -10.750  16.087  1.00  0.00     0.019 C 
HETATM    4  C10 UNL     1      27.660  -9.925  15.390  1.00  0.00     0.080 C 
HETATM    5  C11 UNL     1      27.093  -8.791  14.580  1.00  0.00     0.213 C 
HETATM    6  C12 UNL     1      25.749  -9.117  14.065  1.00  0.00     0.147 C 
ENDROOT
BRANCH   1   7
HETATM    7  O1  UNL     1      24.485 -11.034  13.292  1.00  0.00    -0.375 OA
BRANCH   7   8
HETATM    8  C3  UNL     1      23.538 -11.505  14.193  1.00  0.00     0.121 C 
BRANCH   8   9
HETATM    9  C2  UNL     1      22.282 -10.636  14.174  1.00  0.00     0.027 C 
HETATM   10  C1  UNL     1      22.006 -10.050  15.539  1.00  0.00     0.007 C 
ENDBRANCH   8   9
BRANCH   8  11
HETATM   11  C4  UNL     1      23.153 -12.933  13.908  1.00  0.00     0.027 C 
HETATM   12  C5  UNL     1      22.678 -13.625  15.166  1.00  0.00     0.007 C 
ENDBRANCH   8  11
ENDBRANCH   7   8
ENDBRANCH   1   7
BRANCH   6  13
HETATM   13  N2  UNL     1      25.325  -8.422  12.903  1.00  0.00    -0.352 N 
HETATM   14  C13 UNL     1      24.224  -7.531  12.900  1.00  0.00     0.214 C 
HETATM   15  C14 UNL     1      23.821  -6.825  11.649  1.00  0.00     0.117 C 
HETATM   16  O4  UNL     1      23.631  -7.381  13.995  1.00  0.00    -0.274 OA
ATOM     17  H2  UNL     1      25.836  -8.571  12.033  1.00  0.00     0.163 HD
ENDBRANCH   6  13
BRANCH   3  18
HETATM   18  C9  UNL     1      26.780 -11.157  17.466  1.00  0.00     0.205 C 
HETATM   19  O2  UNL     1      27.639 -11.995  17.816  1.00  0.00    -0.644 OA
HETATM   20  O3  UNL     1      25.929 -10.599  18.426  1.00  0.00    -0.644 OA
ENDBRANCH   3  18
BRANCH   5  21
HETATM   21  N1  UNL     1      27.075  -7.634  15.496  1.00  0.00    -0.073 N 
ATOM     22  H13 UNL     1      27.884  -7.586  16.115  1.00  0.00     0.274 HD
ATOM     23  H12 UNL     1      27.228  -6.739  15.033  1.00  0.00     0.274 HD
ATOM     24  H11 UNL     1      26.183  -7.697  15.987  1.00  0.00     0.274 HD
ENDBRANCH   5  21
TORSDOF 7
ENDMDL
