MODEL 18
REMARK VINA RESULT: -5.658453822      2.066      4.829
REMARK  7 active torsions:
REMARK  status: ('A' for Active; 'I' for Inactive)
REMARK    1  A    between atoms: C2_2  and  C3_3 
REMARK    2  A    between atoms: C3_3  and  C4_4 
REMARK    3  A    between atoms: C3_3  and  O1_6 
REMARK    4  A    between atoms: O1_6  and  C6_7 
REMARK    5  A    between atoms: C8_9  and  C9_10 
REMARK    6  A    between atoms: C11_14  and  N1_15 
REMARK    7  A    between atoms: C12_19  and  N2_20 
REMARK       I    between atoms: N2_20  and  C13_22 
ROOT
HETATM    1  C6  UNL     1      24.481  -9.745  14.333  1.00  0.00     0.170 C 
HETATM    2  C7  UNL     1      24.548  -9.248  12.939  1.00  0.00     0.021 C 
HETATM    3  C8  UNL     1      25.331  -8.221  12.735  1.00  0.00     0.019 C 
HETATM    4  C10 UNL     1      26.035  -7.695  13.931  1.00  0.00     0.080 C 
HETATM    5  C11 UNL     1      26.663  -8.751  14.800  1.00  0.00     0.213 C 
HETATM    6  C12 UNL     1      25.912 -10.020  14.732  1.00  0.00     0.147 C 
ENDROOT
BRANCH   1   7
HETATM    7  O1  UNL     1      23.636 -10.804  14.469  1.00  0.00    -0.375 OA
BRANCH   7   8
HETATM    8  C3  UNL     1      22.478 -10.388  15.115  1.00  0.00     0.121 C 
BRANCH   8   9
HETATM    9  C2  UNL     1      21.799 -11.555  15.830  1.00  0.00     0.027 C 
HETATM   10  C1  UNL     1      22.185 -12.875  15.203  1.00  0.00     0.007 C 
ENDBRANCH   8   9
BRANCH   8  11
HETATM   11  C4  UNL     1      22.754  -9.294  16.113  1.00  0.00     0.027 C 
HETATM   12  C5  UNL     1      22.727  -9.832  17.526  1.00  0.00     0.007 C 
ENDBRANCH   8  11
ENDBRANCH   7   8
ENDBRANCH   1   7
BRANCH   6  13
HETATM   13  N2  UNL     1      26.042 -10.897  15.838  1.00  0.00    -0.352 N 
HETATM   14  C13 UNL     1      26.936 -11.997  15.846  1.00  0.00     0.214 C 
HETATM   15  C14 UNL     1      27.033 -12.889  17.037  1.00  0.00     0.117 C 
HETATM   16  O4  UNL     1      27.620 -12.160  14.807  1.00  0.00    -0.274 OA
ATOM     17  H2  UNL     1      25.468 -10.729  16.664  1.00  0.00     0.163 HD
ENDBRANCH   6  13
BRANCH   3  18
HETATM   18  C9  UNL     1      25.485  -7.642  11.422  1.00  0.00     0.205 C 
HETATM   19  O2  UNL     1      26.218  -6.647  11.230  1.00  0.00    -0.644 OA
HETATM   20  O3  UNL     1      24.796  -8.209  10.345  1.00  0.00    -0.644 OA
ENDBRANCH   3  18
BRANCH   5  21
HETATM   21  N1  UNL     1      28.044  -8.890  14.298  1.00  0.00    -0.073 N 
ATOM     22  H13 UNL     1      28.249  -8.305  13.488  1.00  0.00     0.274 HD
ATOM     23  H12 UNL     1      28.749  -8.489  14.915  1.00  0.00     0.274 HD
ATOM     24  H11 UNL     1      28.165  -9.888  14.126  1.00  0.00     0.274 HD
ENDBRANCH   5  21
TORSDOF 7
ENDMDL
