MODEL 7
REMARK VINA RESULT: -5.884512551      2.651      4.863
REMARK  7 active torsions:
REMARK  status: ('A' for Active; 'I' for Inactive)
REMARK    1  A    between atoms: C2_2  and  C3_3 
REMARK    2  A    between atoms: C3_3  and  C4_4 
REMARK    3  A    between atoms: C3_3  and  O1_6 
REMARK    4  A    between atoms: O1_6  and  C6_7 
REMARK    5  A    between atoms: C8_9  and  C9_10 
REMARK    6  A    between atoms: C11_14  and  N1_15 
REMARK    7  A    between atoms: C12_19  and  N2_20 
REMARK       I    between atoms: N2_20  and  C13_22 
ROOT
HETATM    1  C6  UNL     1      25.020 -10.481  14.045  1.00  0.00     0.170 C 
HETATM    2  C7  UNL     1      24.316 -10.394  15.346  1.00  0.00     0.021 C 
HETATM    3  C8  UNL     1      23.295  -9.577  15.388  1.00  0.00     0.019 C 
HETATM    4  C10 UNL     1      22.994  -8.849  14.131  1.00  0.00     0.080 C 
HETATM    5  C11 UNL     1      23.009  -9.707  12.895  1.00  0.00     0.213 C 
HETATM    6  C12 UNL     1      23.955 -10.832  13.033  1.00  0.00     0.147 C 
ENDROOT
BRANCH   1   7
HETATM    7  O1  UNL     1      26.078 -11.338  14.083  1.00  0.00    -0.375 OA
BRANCH   7   8
HETATM    8  C3  UNL     1      26.856 -11.059  15.199  1.00  0.00     0.121 C 
BRANCH   8   9
HETATM    9  C2  UNL     1      27.617 -12.300  15.663  1.00  0.00     0.027 C 
HETATM   10  C1  UNL     1      27.326 -12.605  17.114  1.00  0.00     0.007 C 
ENDBRANCH   8   9
BRANCH   8  11
HETATM   11  C4  UNL     1      27.840  -9.949  14.936  1.00  0.00     0.027 C 
HETATM   12  C5  UNL     1      27.822  -8.934  16.057  1.00  0.00     0.007 C 
ENDBRANCH   8  11
ENDBRANCH   7   8
ENDBRANCH   1   7
BRANCH   6  13
HETATM   13  N2  UNL     1      24.465 -11.387  11.831  1.00  0.00    -0.352 N 
HETATM   14  C13 UNL     1      23.857 -12.485  11.174  1.00  0.00     0.214 C 
HETATM   15  C14 UNL     1      24.435 -13.030   9.912  1.00  0.00     0.117 C 
HETATM   16  O4  UNL     1      22.826 -12.952  11.716  1.00  0.00    -0.274 OA
ATOM     17  H2  UNL     1      25.305 -10.977  11.423  1.00  0.00     0.163 HD
ENDBRANCH   6  13
BRANCH   3  18
HETATM   18  C9  UNL     1      22.524  -9.402  16.596  1.00  0.00     0.205 C 
HETATM   19  O2  UNL     1      22.529 -10.261  17.504  1.00  0.00    -0.644 OA
HETATM   20  O3  UNL     1      21.754  -8.243  16.747  1.00  0.00    -0.644 OA
ENDBRANCH   3  18
BRANCH   5  21
HETATM   21  N1  UNL     1      21.617 -10.165  12.727  1.00  0.00    -0.073 N 
ATOM     22  H13 UNL     1      21.071  -9.596  12.081  1.00  0.00     0.274 HD
ATOM     23  H12 UNL     1      21.530 -11.042  12.213  1.00  0.00     0.274 HD
ATOM     24  H11 UNL     1      21.232 -10.201  13.670  1.00  0.00     0.274 HD
ENDBRANCH   5  21
TORSDOF 7
ENDMDL
