MODEL 4
REMARK VINA RESULT: -6.086522183      2.522      4.650
REMARK  7 active torsions:
REMARK  status: ('A' for Active; 'I' for Inactive)
REMARK    1  A    between atoms: C2_2  and  C3_3 
REMARK    2  A    between atoms: C3_3  and  C4_4 
REMARK    3  A    between atoms: C3_3  and  O1_6 
REMARK    4  A    between atoms: O1_6  and  C6_7 
REMARK    5  A    between atoms: C8_9  and  C9_10 
REMARK    6  A    between atoms: C11_14  and  N1_15 
REMARK    7  A    between atoms: C12_19  and  N2_20 
REMARK       I    between atoms: N2_20  and  C13_22 
ROOT
HETATM    1  C6  UNL     1      13.840  24.485  14.736  1.00  0.00     0.147 C 
HETATM    2  C7  UNL     1      12.697  23.743  15.465  1.00  0.00     0.049 C 
HETATM    3  C8  UNL     1      11.579  24.673  15.837  1.00  0.00     0.091 C 
HETATM    4  C10 UNL     1      12.140  26.078  15.858  1.00  0.00     0.050 C 
HETATM    5  C11 UNL     1      12.343  26.466  14.407  1.00  0.00     0.209 C 
HETATM    6  C12 UNL     1      13.309  25.476  13.766  1.00  0.00     0.143 C 
ENDROOT
BRANCH   1   7
HETATM    7  O1  UNL     1      14.519  23.477  14.083  1.00  0.00    -0.379 OA
BRANCH   7   8
HETATM    8  C3  UNL     1      15.701  23.078  14.720  1.00  0.00     0.121 C 
BRANCH   8   9
HETATM    9  C2  UNL     1      16.849  23.514  13.895  1.00  0.00     0.027 C 
HETATM   10  C1  UNL     1      17.480  24.817  14.244  1.00  0.00     0.007 C 
ENDBRANCH   8   9
BRANCH   8  11
HETATM   11  C4  UNL     1      15.656  21.615  15.073  1.00  0.00     0.027 C 
HETATM   12  C5  UNL     1      14.716  20.779  14.294  1.00  0.00     0.007 C 
ENDBRANCH   8  11
ENDBRANCH   7   8
ENDBRANCH   1   7
BRANCH   6  13
HETATM   13  N2  UNL     1      14.388  26.265  13.234  1.00  0.00    -0.352 N 
HETATM   14  C13 UNL     1      14.869  26.008  11.906  1.00  0.00     0.214 C 
HETATM   15  C14 UNL     1      15.971  26.774  11.289  1.00  0.00     0.117 C 
HETATM   16  O4  UNL     1      14.329  25.082  11.226  1.00  0.00    -0.274 OA
ATOM     17  H2  UNL     1      14.809  27.004  13.798  1.00  0.00     0.163 HD
ENDBRANCH   6  13
BRANCH   3  18
HETATM   18  C9  UNL     1      10.996  24.293  17.143  1.00  0.00     0.177 C 
HETATM   19  O2  UNL     1      11.365  23.214  17.667  1.00  0.00    -0.648 OA
HETATM   20  O3  UNL     1      10.069  25.059  17.816  1.00  0.00    -0.648 OA
ENDBRANCH   3  18
BRANCH   5  21
HETATM   21  N1  UNL     1      11.064  26.420  13.735  1.00  0.00    -0.073 N 
ATOM     22  H13 UNL     1      11.146  26.570  12.730  1.00  0.00     0.274 HD
ATOM     23  H12 UNL     1      10.672  25.479  13.706  1.00  0.00     0.274 HD
ATOM     24  H11 UNL     1      10.439  27.090  14.182  1.00  0.00     0.274 HD
ENDBRANCH   5  21
TORSDOF 7
ENDMDL
