MODEL 5
REMARK VINA RESULT: -6.043458342      2.130      4.532
REMARK  7 active torsions:
REMARK  status: ('A' for Active; 'I' for Inactive)
REMARK    1  A    between atoms: C2_2  and  C3_3 
REMARK    2  A    between atoms: C3_3  and  C4_4 
REMARK    3  A    between atoms: C3_3  and  O1_6 
REMARK    4  A    between atoms: O1_6  and  C6_7 
REMARK    5  A    between atoms: C8_9  and  C9_10 
REMARK    6  A    between atoms: C11_14  and  N1_15 
REMARK    7  A    between atoms: C12_19  and  N2_20 
REMARK       I    between atoms: N2_20  and  C13_22 
ROOT
HETATM    1  C6  UNL     1      13.137  24.464  14.534  1.00  0.00     0.147 C 
HETATM    2  C7  UNL     1      11.855  24.092  15.312  1.00  0.00     0.049 C 
HETATM    3  C8  UNL     1      11.336  25.250  16.114  1.00  0.00     0.091 C 
HETATM    4  C10 UNL     1      12.484  26.214  16.322  1.00  0.00     0.050 C 
HETATM    5  C11 UNL     1      12.705  26.890  14.984  1.00  0.00     0.209 C 
HETATM    6  C12 UNL     1      13.038  25.824  13.946  1.00  0.00     0.143 C 
ENDROOT
BRANCH   1   7
HETATM    7  O1  UNL     1      13.207  23.507  13.543  1.00  0.00    -0.379 OA
BRANCH   7   8
HETATM    8  C3  UNL     1      14.433  22.831  13.487  1.00  0.00     0.121 C 
BRANCH   8   9
HETATM    9  C2  UNL     1      14.672  22.409  12.089  1.00  0.00     0.027 C 
HETATM   10  C1  UNL     1      14.631  23.469  11.044  1.00  0.00     0.007 C 
ENDBRANCH   8   9
BRANCH   8  11
HETATM   11  C4  UNL     1      14.497  21.744  14.528  1.00  0.00     0.027 C 
HETATM   12  C5  UNL     1      15.771  21.617  15.269  1.00  0.00     0.007 C 
ENDBRANCH   8  11
ENDBRANCH   7   8
ENDBRANCH   1   7
BRANCH   6  13
HETATM   13  N2  UNL     1      14.304  26.205  13.381  1.00  0.00    -0.352 N 
HETATM   14  C13 UNL     1      14.341  27.122  12.276  1.00  0.00     0.214 C 
HETATM   15  C14 UNL     1      15.601  27.562  11.641  1.00  0.00     0.117 C 
HETATM   16  O4  UNL     1      13.249  27.578  11.820  1.00  0.00    -0.274 OA
ATOM     17  H2  UNL     1      15.171  25.826  13.762  1.00  0.00     0.163 HD
ENDBRANCH   6  13
BRANCH   3  18
HETATM   18  C9  UNL     1      10.768  24.783  17.399  1.00  0.00     0.177 C 
HETATM   19  O2  UNL     1      11.349  23.846  17.999  1.00  0.00    -0.648 OA
HETATM   20  O3  UNL     1       9.637  25.320  17.973  1.00  0.00    -0.648 OA
ENDBRANCH   3  18
BRANCH   5  21
HETATM   21  N1  UNL     1      11.495  27.586  14.614  1.00  0.00    -0.073 N 
ATOM     22  H13 UNL     1      11.515  27.918  13.650  1.00  0.00     0.274 HD
ATOM     23  H12 UNL     1      10.694  26.960  14.530  1.00  0.00     0.274 HD
ATOM     24  H11 UNL     1      11.334  28.338  15.284  1.00  0.00     0.274 HD
ENDBRANCH   5  21
TORSDOF 7
ENDMDL
