MODEL 3
REMARK VINA RESULT: -6.158899486      1.177      1.315
REMARK  7 active torsions:
REMARK  status: ('A' for Active; 'I' for Inactive)
REMARK    1  A    between atoms: C2_2  and  C3_3 
REMARK    2  A    between atoms: C3_3  and  C4_4 
REMARK    3  A    between atoms: C3_3  and  O1_6 
REMARK    4  A    between atoms: O1_6  and  C6_7 
REMARK    5  A    between atoms: C8_9  and  C9_10 
REMARK    6  A    between atoms: C11_14  and  N1_15 
REMARK    7  A    between atoms: C12_19  and  N2_20 
REMARK       I    between atoms: N2_20  and  C13_22 
ROOT
HETATM    1  C6  UNL     1      13.588  24.428  13.645  1.00  0.00     0.147 C 
HETATM    2  C7  UNL     1      15.032  24.857  13.302  1.00  0.00     0.049 C 
HETATM    3  C8  UNL     1      15.278  26.300  13.634  1.00  0.00     0.091 C 
HETATM    4  C10 UNL     1      13.932  26.990  13.698  1.00  0.00     0.050 C 
HETATM    5  C11 UNL     1      13.286  26.521  14.987  1.00  0.00     0.209 C 
HETATM    6  C12 UNL     1      13.146  25.004  14.940  1.00  0.00     0.143 C 
ENDROOT
BRANCH   1   7
HETATM    7  O1  UNL     1      13.665  23.052  13.723  1.00  0.00    -0.379 OA
BRANCH   7   8
HETATM    8  C3  UNL     1      14.647  22.488  12.898  1.00  0.00     0.121 C 
BRANCH   8   9
HETATM    9  C2  UNL     1      14.019  22.106  11.615  1.00  0.00     0.027 C 
HETATM   10  C1  UNL     1      14.708  22.538  10.367  1.00  0.00     0.007 C 
ENDBRANCH   8   9
BRANCH   8  11
HETATM   11  C4  UNL     1      15.395  21.398  13.620  1.00  0.00     0.027 C 
HETATM   12  C5  UNL     1      15.685  21.635  15.051  1.00  0.00     0.007 C 
ENDBRANCH   8  11
ENDBRANCH   7   8
ENDBRANCH   1   7
BRANCH   6  13
HETATM   13  N2  UNL     1      11.749  24.730  15.146  1.00  0.00    -0.352 N 
HETATM   14  C13 UNL     1      11.347  23.848  16.205  1.00  0.00     0.214 C 
HETATM   15  C14 UNL     1       9.933  23.518  16.480  1.00  0.00     0.117 C 
HETATM   16  O4  UNL     1      12.238  23.325  16.941  1.00  0.00    -0.274 OA
ATOM     17  H2  UNL     1      11.048  25.161  14.543  1.00  0.00     0.163 HD
ENDBRANCH   6  13
BRANCH   3  18
HETATM   18  C9  UNL     1      16.170  26.923  12.632  1.00  0.00     0.177 C 
HETATM   19  O2  UNL     1      16.974  27.806  13.019  1.00  0.00    -0.648 OA
HETATM   20  O3  UNL     1      16.167  26.589  11.296  1.00  0.00    -0.648 OA
ENDBRANCH   3  18
BRANCH   5  21
HETATM   21  N1  UNL     1      14.130  26.911  16.093  1.00  0.00    -0.073 N 
ATOM     22  H13 UNL     1      14.833  27.599  15.824  1.00  0.00     0.274 HD
ATOM     23  H12 UNL     1      13.635  27.477  16.781  1.00  0.00     0.274 HD
ATOM     24  H11 UNL     1      14.540  26.070  16.500  1.00  0.00     0.274 HD
ENDBRANCH   5  21
TORSDOF 7
ENDMDL
