MODEL 11
REMARK VINA RESULT: -5.923607204      2.445      3.670
REMARK  7 active torsions:
REMARK  status: ('A' for Active; 'I' for Inactive)
REMARK    1  A    between atoms: C2_2  and  C3_3 
REMARK    2  A    between atoms: C3_3  and  C4_4 
REMARK    3  A    between atoms: C3_3  and  O1_6 
REMARK    4  A    between atoms: O1_6  and  C6_7 
REMARK    5  A    between atoms: C8_9  and  C9_10 
REMARK    6  A    between atoms: C11_14  and  N1_15 
REMARK    7  A    between atoms: C12_19  and  N2_20 
REMARK       I    between atoms: N2_20  and  C13_22 
ROOT
HETATM    1  C6  UNL     1      13.181  25.785  14.391  1.00  0.00     0.147 C 
HETATM    2  C7  UNL     1      14.694  26.050  14.563  1.00  0.00     0.049 C 
HETATM    3  C8  UNL     1      15.170  27.158  13.669  1.00  0.00     0.091 C 
HETATM    4  C10 UNL     1      14.170  27.297  12.541  1.00  0.00     0.050 C 
HETATM    5  C11 UNL     1      12.945  27.948  13.151  1.00  0.00     0.209 C 
HETATM    6  C12 UNL     1      12.421  27.054  14.269  1.00  0.00     0.143 C 
ENDROOT
BRANCH   1   7
HETATM    7  O1  UNL     1      12.834  25.116  15.547  1.00  0.00    -0.379 OA
BRANCH   7   8
HETATM    8  C3  UNL     1      12.228  23.872  15.327  1.00  0.00     0.121 C 
BRANCH   8   9
HETATM    9  C2  UNL     1      11.373  23.554  16.492  1.00  0.00     0.027 C 
HETATM   10  C1  UNL     1      10.741  24.700  17.203  1.00  0.00     0.007 C 
ENDBRANCH   8   9
BRANCH   8  11
HETATM   11  C4  UNL     1      13.251  22.833  14.952  1.00  0.00     0.027 C 
HETATM   12  C5  UNL     1      12.763  21.684  14.159  1.00  0.00     0.007 C 
ENDBRANCH   8  11
ENDBRANCH   7   8
ENDBRANCH   1   7
BRANCH   6  13
HETATM   13  N2  UNL     1      11.050  26.772  13.939  1.00  0.00    -0.352 N 
HETATM   14  C13 UNL     1       9.996  27.389  14.695  1.00  0.00     0.214 C 
HETATM   15  C14 UNL     1       8.564  27.150  14.417  1.00  0.00     0.117 C 
HETATM   16  O4  UNL     1      10.299  28.174  15.644  1.00  0.00    -0.274 OA
ATOM     17  H2  UNL     1      10.827  26.137  13.173  1.00  0.00     0.163 HD
ENDBRANCH   6  13
BRANCH   3  18
HETATM   18  C9  UNL     1      16.532  26.876  13.166  1.00  0.00     0.177 C 
HETATM   19  O2  UNL     1      17.001  27.620  12.271  1.00  0.00    -0.648 OA
HETATM   20  O3  UNL     1      17.316  25.841  13.626  1.00  0.00    -0.648 OA
ENDBRANCH   3  18
BRANCH   5  21
HETATM   21  N1  UNL     1      13.324  29.238  13.680  1.00  0.00    -0.073 N 
ATOM     22  H13 UNL     1      14.300  29.267  13.975  1.00  0.00     0.274 HD
ATOM     23  H12 UNL     1      13.373  29.956  12.958  1.00  0.00     0.274 HD
ATOM     24  H11 UNL     1      12.679  29.482  14.432  1.00  0.00     0.274 HD
ENDBRANCH   5  21
TORSDOF 7
ENDMDL
