MODEL 8
REMARK VINA RESULT: -5.996918397      1.641      2.181
REMARK  7 active torsions:
REMARK  status: ('A' for Active; 'I' for Inactive)
REMARK    1  A    between atoms: C2_2  and  C3_3 
REMARK    2  A    between atoms: C3_3  and  C4_4 
REMARK    3  A    between atoms: C3_3  and  O1_6 
REMARK    4  A    between atoms: O1_6  and  C6_7 
REMARK    5  A    between atoms: C8_9  and  C9_10 
REMARK    6  A    between atoms: C11_14  and  N1_15 
REMARK    7  A    between atoms: C12_19  and  N2_20 
REMARK       I    between atoms: N2_20  and  C13_22 
ROOT
HETATM    1  C6  UNL     1      13.374  23.936  14.242  1.00  0.00     0.147 C 
HETATM    2  C7  UNL     1      14.826  24.340  13.900  1.00  0.00     0.049 C 
HETATM    3  C8  UNL     1      15.000  25.831  13.886  1.00  0.00     0.091 C 
HETATM    4  C10 UNL     1      13.632  26.449  13.690  1.00  0.00     0.050 C 
HETATM    5  C11 UNL     1      12.905  26.274  15.008  1.00  0.00     0.209 C 
HETATM    6  C12 UNL     1      12.817  24.785  15.324  1.00  0.00     0.143 C 
ENDROOT
BRANCH   1   7
HETATM    7  O1  UNL     1      13.490  22.626  14.658  1.00  0.00    -0.379 OA
BRANCH   7   8
HETATM    8  C3  UNL     1      13.743  21.717  13.622  1.00  0.00     0.121 C 
BRANCH   8   9
HETATM    9  C2  UNL     1      12.456  21.135  13.184  1.00  0.00     0.027 C 
HETATM   10  C1  UNL     1      11.503  20.715  14.248  1.00  0.00     0.007 C 
ENDBRANCH   8   9
BRANCH   8  11
HETATM   11  C4  UNL     1      14.814  20.735  14.018  1.00  0.00     0.027 C 
HETATM   12  C5  UNL     1      15.620  21.084  15.208  1.00  0.00     0.007 C 
ENDBRANCH   8  11
ENDBRANCH   7   8
ENDBRANCH   1   7
BRANCH   6  13
HETATM   13  N2  UNL     1      11.418  24.500  15.497  1.00  0.00    -0.352 N 
HETATM   14  C13 UNL     1      10.974  23.809  16.675  1.00  0.00     0.214 C 
HETATM   15  C14 UNL     1       9.556  23.480  16.926  1.00  0.00     0.117 C 
HETATM   16  O4  UNL     1      11.833  23.460  17.543  1.00  0.00    -0.274 OA
ATOM     17  H2  UNL     1      10.745  24.788  14.788  1.00  0.00     0.163 HD
ENDBRANCH   6  13
BRANCH   3  18
HETATM   18  C9  UNL     1      15.946  26.237  12.823  1.00  0.00     0.177 C 
HETATM   19  O2  UNL     1      15.770  25.783  11.666  1.00  0.00    -0.648 OA
HETATM   20  O3  UNL     1      17.009  27.087  13.032  1.00  0.00    -0.648 OA
ENDBRANCH   3  18
BRANCH   5  21
HETATM   21  N1  UNL     1      13.649  26.960  16.039  1.00  0.00    -0.073 N 
ATOM     22  H13 UNL     1      14.489  26.452  16.318  1.00  0.00     0.274 HD
ATOM     23  H12 UNL     1      14.104  27.805  15.695  1.00  0.00     0.274 HD
ATOM     24  H11 UNL     1      13.024  27.144  16.823  1.00  0.00     0.274 HD
ENDBRANCH   5  21
TORSDOF 7
ENDMDL
