MODEL 7
REMARK VINA RESULT: -6.001094036      2.371      4.678
REMARK  7 active torsions:
REMARK  status: ('A' for Active; 'I' for Inactive)
REMARK    1  A    between atoms: C2_2  and  C3_3 
REMARK    2  A    between atoms: C3_3  and  C4_4 
REMARK    3  A    between atoms: C3_3  and  O1_6 
REMARK    4  A    between atoms: O1_6  and  C6_7 
REMARK    5  A    between atoms: C8_9  and  C9_10 
REMARK    6  A    between atoms: C11_14  and  N1_15 
REMARK    7  A    between atoms: C12_19  and  N2_20 
REMARK       I    between atoms: N2_20  and  C13_22 
ROOT
HETATM    1  C6  UNL     1      13.512  24.456  14.708  1.00  0.00     0.147 C 
HETATM    2  C7  UNL     1      12.102  24.173  15.275  1.00  0.00     0.049 C 
HETATM    3  C8  UNL     1      11.438  25.427  15.765  1.00  0.00     0.091 C 
HETATM    4  C10 UNL     1      12.525  26.446  16.031  1.00  0.00     0.050 C 
HETATM    5  C11 UNL     1      13.003  26.908  14.670  1.00  0.00     0.209 C 
HETATM    6  C12 UNL     1      13.530  25.701  13.901  1.00  0.00     0.143 C 
ENDROOT
BRANCH   1   7
HETATM    7  O1  UNL     1      13.772  23.356  13.917  1.00  0.00    -0.379 OA
BRANCH   7   8
HETATM    8  C3  UNL     1      13.894  22.155  14.629  1.00  0.00     0.121 C 
BRANCH   8   9
HETATM    9  C2  UNL     1      15.275  22.057  15.151  1.00  0.00     0.027 C 
HETATM   10  C1  UNL     1      16.376  22.474  14.239  1.00  0.00     0.007 C 
ENDBRANCH   8   9
BRANCH   8  11
HETATM   11  C4  UNL     1      13.412  20.990  13.805  1.00  0.00     0.027 C 
HETATM   12  C5  UNL     1      11.986  20.627  13.949  1.00  0.00     0.007 C 
ENDBRANCH   8  11
ENDBRANCH   7   8
ENDBRANCH   1   7
BRANCH   6  13
HETATM   13  N2  UNL     1      14.883  26.026  13.535  1.00  0.00    -0.352 N 
HETATM   14  C13 UNL     1      15.137  26.736  12.313  1.00  0.00     0.214 C 
HETATM   15  C14 UNL     1      16.497  27.107  11.869  1.00  0.00     0.117 C 
HETATM   16  O4  UNL     1      14.156  27.063  11.577  1.00  0.00    -0.274 OA
ATOM     17  H2  UNL     1      15.657  25.754  14.141  1.00  0.00     0.163 HD
ENDBRANCH   6  13
BRANCH   3  18
HETATM   18  C9  UNL     1      10.631  25.153  16.974  1.00  0.00     0.177 C 
HETATM   19  O2  UNL     1       9.440  25.550  16.997  1.00  0.00    -0.648 OA
HETATM   20  O3  UNL     1      11.114  24.486  18.079  1.00  0.00    -0.648 OA
ENDBRANCH   3  18
BRANCH   5  21
HETATM   21  N1  UNL     1      11.889  27.499  13.966  1.00  0.00    -0.073 N 
ATOM     22  H13 UNL     1      11.006  27.029  14.168  1.00  0.00     0.274 HD
ATOM     23  H12 UNL     1      11.643  28.420  14.328  1.00  0.00     0.274 HD
ATOM     24  H11 UNL     1      12.106  27.516  12.969  1.00  0.00     0.274 HD
ENDBRANCH   5  21
TORSDOF 7
ENDMDL
