MODEL 10
REMARK VINA RESULT: -5.966558585      2.346      4.912
REMARK  7 active torsions:
REMARK  status: ('A' for Active; 'I' for Inactive)
REMARK    1  A    between atoms: C2_2  and  C3_3 
REMARK    2  A    between atoms: C3_3  and  C4_4 
REMARK    3  A    between atoms: C3_3  and  O1_6 
REMARK    4  A    between atoms: O1_6  and  C6_7 
REMARK    5  A    between atoms: C8_9  and  C9_10 
REMARK    6  A    between atoms: C11_14  and  N1_15 
REMARK    7  A    between atoms: C12_19  and  N2_20 
REMARK       I    between atoms: N2_20  and  C13_22 
ROOT
HETATM    1  C6  UNL     1      13.121  24.818  14.790  1.00  0.00     0.147 C 
HETATM    2  C7  UNL     1      12.070  23.810  15.306  1.00  0.00     0.049 C 
HETATM    3  C8  UNL     1      10.968  24.493  16.062  1.00  0.00     0.091 C 
HETATM    4  C10 UNL     1      11.493  25.836  16.522  1.00  0.00     0.050 C 
HETATM    5  C11 UNL     1      11.550  26.706  15.282  1.00  0.00     0.209 C 
HETATM    6  C12 UNL     1      12.478  26.049  14.266  1.00  0.00     0.143 C 
ENDROOT
BRANCH   1   7
HETATM    7  O1  UNL     1      13.763  24.133  13.779  1.00  0.00    -0.379 OA
BRANCH   7   8
HETATM    8  C3  UNL     1      15.114  23.868  14.035  1.00  0.00     0.121 C 
BRANCH   8   9
HETATM    9  C2  UNL     1      15.936  24.778  13.207  1.00  0.00     0.027 C 
HETATM   10  C1  UNL     1      16.880  25.680  13.923  1.00  0.00     0.007 C 
ENDBRANCH   8   9
BRANCH   8  11
HETATM   11  C4  UNL     1      15.410  22.398  13.898  1.00  0.00     0.027 C 
HETATM   12  C5  UNL     1      15.709  21.667  15.149  1.00  0.00     0.007 C 
ENDBRANCH   8  11
ENDBRANCH   7   8
ENDBRANCH   1   7
BRANCH   6  13
HETATM   13  N2  UNL     1      13.482  27.031  13.956  1.00  0.00    -0.352 N 
HETATM   14  C13 UNL     1      13.419  27.743  12.711  1.00  0.00     0.214 C 
HETATM   15  C14 UNL     1      14.411  28.765  12.320  1.00  0.00     0.117 C 
HETATM   16  O4  UNL     1      12.473  27.487  11.904  1.00  0.00    -0.274 OA
ATOM     17  H2  UNL     1      14.234  27.222  14.618  1.00  0.00     0.163 HD
ENDBRANCH   6  13
BRANCH   3  18
HETATM   18  C9  UNL     1      10.519  23.659  17.199  1.00  0.00     0.177 C 
HETATM   19  O2  UNL     1      11.330  22.836  17.689  1.00  0.00    -0.648 OA
HETATM   20  O3  UNL     1       9.258  23.734  17.749  1.00  0.00    -0.648 OA
ENDBRANCH   3  18
BRANCH   5  21
HETATM   21  N1  UNL     1      10.217  26.820  14.739  1.00  0.00    -0.073 N 
ATOM     22  H13 UNL     1      10.215  27.150  13.774  1.00  0.00     0.274 HD
ATOM     23  H12 UNL     1       9.781  25.913  14.578  1.00  0.00     0.274 HD
ATOM     24  H11 UNL     1       9.664  27.414  15.357  1.00  0.00     0.274 HD
ENDBRANCH   5  21
TORSDOF 7
ENDMDL
