MODEL 2
REMARK VINA RESULT: -7.746101568      3.219      6.561
REMARK  16 active torsions:
REMARK  status: ('A' for Active; 'I' for Inactive)
REMARK       I    between atoms: C2_2  and  N1_4 
REMARK    1  A    between atoms: N1_4  and  C3_6 
REMARK    2  A    between atoms: C4_7  and  O2_8 
REMARK    3  A    between atoms: C6_11  and  O3_12 
REMARK    4  A    between atoms: C6_11  and  C13_28 
REMARK    5  A    between atoms: O3_12  and  C7_13 
REMARK    6  A    between atoms: C7_13  and  C8_14 
REMARK    7  A    between atoms: C9_16  and  O5_17 
REMARK    8  A    between atoms: C10_19  and  O6_20 
REMARK    9  A    between atoms: C11_22  and  O7_23 
REMARK   10  A    between atoms: C12_25  and  O8_26 
REMARK   11  A    between atoms: C14_32  and  C15_33 
REMARK   12  A    between atoms: C15_33  and  O12_34 
REMARK   13  A    between atoms: C15_33  and  C16_36 
REMARK   14  A    between atoms: C16_36  and  O13_37 
REMARK   15  A    between atoms: C16_36  and  C17_39 
REMARK   16  A    between atoms: C17_39  and  O14_40 
ROOT
HETATM    1  C3  UNL     1       9.747  85.362  33.123  1.00  0.00     0.145 C 
HETATM    2  C4  UNL     1       8.482  85.092  33.961  1.00  0.00     0.149 C 
HETATM    3  C5  UNL     1       8.501  85.774  35.294  1.00  0.00     0.114 C 
HETATM    4  C6  UNL     1       9.812  85.904  35.934  1.00  0.00     0.258 C 
HETATM    5  O11 UNL     1      10.868  86.014  35.001  1.00  0.00    -0.336 OA
HETATM    6  C14 UNL     1      10.390  86.549  33.767  1.00  0.00     0.182 C 
ENDROOT
BRANCH   4   7
HETATM    7  O3  UNL     1      10.146  84.876  36.771  1.00  0.00    -0.344 OA
BRANCH   7   8
HETATM    8  C7  UNL     1      11.315  84.245  36.476  1.00  0.00     0.207 C 
BRANCH   8   9
HETATM    9  C8  UNL     1      11.059  82.771  36.086  1.00  0.00     0.180 C 
HETATM   10  O4  UNL     1      10.679  82.673  34.759  1.00  0.00    -0.349 OA
HETATM   11  C9  UNL     1      10.935  81.399  34.278  1.00  0.00     0.288 C 
HETATM   12  C10 UNL     1      12.416  81.299  33.980  1.00  0.00     0.204 C 
HETATM   13  C11 UNL     1      13.170  81.739  35.203  1.00  0.00     0.183 C 
HETATM   14  C12 UNL     1      12.286  81.977  36.386  1.00  0.00     0.180 C 
BRANCH  11  15
HETATM   15  O5  UNL     1      10.175  81.194  33.114  1.00  0.00    -0.369 OA
ATOM     16  H5  UNL     1      10.657  80.618  32.532  1.00  0.00     0.212 HD
ENDBRANCH  11  15
BRANCH  12  17
HETATM   17  O6  UNL     1      12.707  79.953  33.702  1.00  0.00    -0.388 OA
ATOM     18  H6  UNL     1      13.651  79.867  33.646  1.00  0.00     0.210 HD
ENDBRANCH  12  17
BRANCH  13  19
HETATM   19  O7  UNL     1      13.909  82.868  34.889  1.00  0.00    -0.390 OA
ATOM     20  H7  UNL     1      14.070  83.359  35.687  1.00  0.00     0.210 HD
ENDBRANCH  13  19
BRANCH  14  21
HETATM   21  O8  UNL     1      13.003  82.648  37.376  1.00  0.00    -0.390 OA
ATOM     22  H8  UNL     1      13.772  82.130  37.584  1.00  0.00     0.210 HD
ENDBRANCH  14  21
ENDBRANCH   8   9
ENDBRANCH   7   8
ENDBRANCH   4   7
BRANCH   4  23
HETATM   23  C13 UNL     1       9.934  87.176  36.721  1.00  0.00     0.239 C 
HETATM   24  O9  UNL     1       8.951  87.873  37.050  1.00  0.00    -0.644 OA
HETATM   25  O10 UNL     1      11.184  87.614  37.110  1.00  0.00    -0.644 OA
ENDBRANCH   4  23
BRANCH   2  26
HETATM   26  O2  UNL     1       8.246  83.720  34.052  1.00  0.00    -0.393 OA
ATOM     27  H2  UNL     1       7.958  83.492  34.927  1.00  0.00     0.210 HD
ENDBRANCH   2  26
BRANCH   6  28
HETATM   28  C15 UNL     1      11.554  87.147  33.029  1.00  0.00     0.180 C 
BRANCH  28  29
HETATM   29  O12 UNL     1      12.194  86.121  32.277  1.00  0.00    -0.390 OA
ATOM     30  H12 UNL     1      12.966  85.833  32.749  1.00  0.00     0.210 HD
ENDBRANCH  28  29
BRANCH  28  31
HETATM   31  C16 UNL     1      12.615  87.772  33.863  1.00  0.00     0.173 C 
BRANCH  31  32
HETATM   32  O13 UNL     1      12.882  89.070  33.333  1.00  0.00    -0.391 OA
ATOM     33  H13 UNL     1      13.291  89.587  34.016  1.00  0.00     0.210 HD
ENDBRANCH  31  32
BRANCH  31  34
HETATM   34  C17 UNL     1      13.922  87.044  33.847  1.00  0.00     0.198 C 
BRANCH  34  35
HETATM   35  O14 UNL     1      13.782  85.877  34.603  1.00  0.00    -0.398 OA
ATOM     36  H14 UNL     1      14.466  85.271  34.344  1.00  0.00     0.209 HD
ENDBRANCH  34  35
ENDBRANCH  31  34
ENDBRANCH  28  31
ENDBRANCH   6  28
BRANCH   1  37
HETATM   37  N1  UNL     1       9.378  85.501  31.748  1.00  0.00    -0.352 N 
HETATM   38  C2  UNL     1       9.840  84.526  30.789  1.00  0.00     0.214 C 
HETATM   39  C1  UNL     1       9.456  84.673  29.360  1.00  0.00     0.117 C 
HETATM   40  O1  UNL     1      10.561  83.558  31.155  1.00  0.00    -0.274 OA
ATOM     41  H1  UNL     1       8.795  86.282  31.448  1.00  0.00     0.163 HD
ENDBRANCH   1  37
TORSDOF 16
ENDMDL
