MODEL 4
REMARK VINA RESULT: -7.680905101      3.049      4.685
REMARK  16 active torsions:
REMARK  status: ('A' for Active; 'I' for Inactive)
REMARK       I    between atoms: C2_2  and  N1_4 
REMARK    1  A    between atoms: N1_4  and  C3_6 
REMARK    2  A    between atoms: C4_7  and  O2_8 
REMARK    3  A    between atoms: C6_11  and  O3_12 
REMARK    4  A    between atoms: C6_11  and  C13_28 
REMARK    5  A    between atoms: O3_12  and  C7_13 
REMARK    6  A    between atoms: C7_13  and  C8_14 
REMARK    7  A    between atoms: C9_16  and  O5_17 
REMARK    8  A    between atoms: C10_19  and  O6_20 
REMARK    9  A    between atoms: C11_22  and  O7_23 
REMARK   10  A    between atoms: C12_25  and  O8_26 
REMARK   11  A    between atoms: C14_32  and  C15_33 
REMARK   12  A    between atoms: C15_33  and  O12_34 
REMARK   13  A    between atoms: C15_33  and  C16_36 
REMARK   14  A    between atoms: C16_36  and  O13_37 
REMARK   15  A    between atoms: C16_36  and  C17_39 
REMARK   16  A    between atoms: C17_39  and  O14_40 
ROOT
HETATM    1  C3  UNL     1      12.006  84.972  34.950  1.00  0.00     0.145 C 
HETATM    2  C4  UNL     1      12.921  85.211  33.733  1.00  0.00     0.149 C 
HETATM    3  C5  UNL     1      12.845  86.608  33.203  1.00  0.00     0.114 C 
HETATM    4  C6  UNL     1      11.540  87.266  33.301  1.00  0.00     0.258 C 
HETATM    5  O11 UNL     1      10.787  86.825  34.413  1.00  0.00    -0.336 OA
HETATM    6  C14 UNL     1      11.651  86.340  35.440  1.00  0.00     0.182 C 
ENDROOT
BRANCH   4   7
HETATM    7  O3  UNL     1      10.735  87.108  32.207  1.00  0.00    -0.344 OA
BRANCH   7   8
HETATM    8  C7  UNL     1       9.466  86.698  32.475  1.00  0.00     0.207 C 
BRANCH   8   9
HETATM    9  C8  UNL     1       9.104  85.450  31.636  1.00  0.00     0.180 C 
HETATM   10  O4  UNL     1      10.230  84.687  31.380  1.00  0.00    -0.349 OA
HETATM   11  C9  UNL     1       9.871  83.380  31.095  1.00  0.00     0.288 C 
HETATM   12  C10 UNL     1       9.556  82.684  32.402  1.00  0.00     0.204 C 
HETATM   13  C11 UNL     1       8.562  83.524  33.152  1.00  0.00     0.183 C 
HETATM   14  C12 UNL     1       8.048  84.681  32.354  1.00  0.00     0.180 C 
BRANCH  11  15
HETATM   15  O5  UNL     1      10.940  82.750  30.437  1.00  0.00    -0.369 OA
ATOM     16  H5  UNL     1      11.017  81.860  30.760  1.00  0.00     0.212 HD
ENDBRANCH  11  15
BRANCH  12  17
HETATM   17  O6  UNL     1       8.988  81.436  32.097  1.00  0.00    -0.388 OA
ATOM     18  H6  UNL     1       8.105  81.427  32.446  1.00  0.00     0.210 HD
ENDBRANCH  12  17
BRANCH  13  19
HETATM   19  O7  UNL     1       9.140  83.947  34.338  1.00  0.00    -0.390 OA
ATOM     20  H7  UNL     1       8.644  84.684  34.676  1.00  0.00     0.210 HD
ENDBRANCH  13  19
BRANCH  14  21
HETATM   21  O8  UNL     1       7.369  85.562  33.196  1.00  0.00    -0.390 OA
ATOM     22  H8  UNL     1       6.578  85.130  33.497  1.00  0.00     0.210 HD
ENDBRANCH  14  21
ENDBRANCH   8   9
ENDBRANCH   7   8
ENDBRANCH   4   7
BRANCH   4  23
HETATM   23  C13 UNL     1      11.666  88.740  33.552  1.00  0.00     0.239 C 
HETATM   24  O9  UNL     1      10.744  89.433  34.030  1.00  0.00    -0.644 OA
HETATM   25  O10 UNL     1      12.851  89.380  33.244  1.00  0.00    -0.644 OA
ENDBRANCH   4  23
BRANCH   2  26
HETATM   26  O2  UNL     1      12.689  84.241  32.757  1.00  0.00    -0.393 OA
ATOM     27  H2  UNL     1      13.280  83.507  32.875  1.00  0.00     0.210 HD
ENDBRANCH   2  26
BRANCH   6  28
HETATM   28  C15 UNL     1      10.912  86.399  36.746  1.00  0.00     0.180 C 
BRANCH  28  29
HETATM   29  O12 UNL     1      10.208  85.174  36.929  1.00  0.00    -0.390 OA
ATOM     30  H12 UNL     1      10.321  84.889  37.828  1.00  0.00     0.210 HD
ENDBRANCH  28  29
BRANCH  28  31
HETATM   31  C16 UNL     1       9.903  87.481  36.887  1.00  0.00     0.173 C 
BRANCH  31  32
HETATM   32  O13 UNL     1      10.231  88.240  38.051  1.00  0.00    -0.391 OA
ATOM     33  H13 UNL     1       9.506  88.169  38.660  1.00  0.00     0.210 HD
ENDBRANCH  31  32
BRANCH  31  34
HETATM   34  C17 UNL     1       8.502  86.998  37.092  1.00  0.00     0.198 C 
BRANCH  34  35
HETATM   35  O14 UNL     1       8.052  86.440  35.893  1.00  0.00    -0.398 OA
ATOM     36  H14 UNL     1       8.647  85.742  35.648  1.00  0.00     0.209 HD
ENDBRANCH  34  35
ENDBRANCH  31  34
ENDBRANCH  28  31
ENDBRANCH   6  28
BRANCH   1  37
HETATM   37  N1  UNL     1      12.673  84.113  35.878  1.00  0.00    -0.352 N 
HETATM   38  C2  UNL     1      12.408  82.693  35.847  1.00  0.00     0.214 C 
HETATM   39  C1  UNL     1      13.102  81.802  36.813  1.00  0.00     0.117 C 
HETATM   40  O1  UNL     1      11.597  82.211  35.010  1.00  0.00    -0.274 OA
ATOM     41  H1  UNL     1      13.329  84.498  36.557  1.00  0.00     0.163 HD
ENDBRANCH   1  37
TORSDOF 16
ENDMDL
