MODEL 3
REMARK VINA RESULT: -7.702571954      2.186      6.529
REMARK  16 active torsions:
REMARK  status: ('A' for Active; 'I' for Inactive)
REMARK       I    between atoms: C2_2  and  N1_4 
REMARK    1  A    between atoms: N1_4  and  C3_6 
REMARK    2  A    between atoms: C4_7  and  O2_8 
REMARK    3  A    between atoms: C6_11  and  O3_12 
REMARK    4  A    between atoms: C6_11  and  C13_28 
REMARK    5  A    between atoms: O3_12  and  C7_13 
REMARK    6  A    between atoms: C7_13  and  C8_14 
REMARK    7  A    between atoms: C9_16  and  O5_17 
REMARK    8  A    between atoms: C10_19  and  O6_20 
REMARK    9  A    between atoms: C11_22  and  O7_23 
REMARK   10  A    between atoms: C12_25  and  O8_26 
REMARK   11  A    between atoms: C14_32  and  C15_33 
REMARK   12  A    between atoms: C15_33  and  O12_34 
REMARK   13  A    between atoms: C15_33  and  C16_36 
REMARK   14  A    between atoms: C16_36  and  O13_37 
REMARK   15  A    between atoms: C16_36  and  C17_39 
REMARK   16  A    between atoms: C17_39  and  O14_40 
ROOT
HETATM    1  C3  UNL     1       7.434  83.902  32.736  1.00  0.00     0.145 C 
HETATM    2  C4  UNL     1       8.529  84.882  33.199  1.00  0.00     0.149 C 
HETATM    3  C5  UNL     1       9.435  85.320  32.091  1.00  0.00     0.114 C 
HETATM    4  C6  UNL     1       9.708  84.328  31.048  1.00  0.00     0.258 C 
HETATM    5  O11 UNL     1       8.632  83.431  30.852  1.00  0.00    -0.336 OA
HETATM    6  C14 UNL     1       7.401  84.035  31.246  1.00  0.00     0.182 C 
ENDROOT
BRANCH   4   7
HETATM    7  O3  UNL     1      10.814  83.555  31.268  1.00  0.00    -0.344 OA
BRANCH   7   8
HETATM    8  C7  UNL     1      10.600  82.432  32.005  1.00  0.00     0.207 C 
BRANCH   8   9
HETATM    9  C8  UNL     1      11.791  82.163  32.954  1.00  0.00     0.180 C 
HETATM   10  O4  UNL     1      12.112  83.301  33.674  1.00  0.00    -0.349 OA
HETATM   11  C9  UNL     1      12.791  82.961  34.833  1.00  0.00     0.288 C 
HETATM   12  C10 UNL     1      11.778  82.469  35.843  1.00  0.00     0.204 C 
HETATM   13  C11 UNL     1      10.949  81.398  35.192  1.00  0.00     0.183 C 
HETATM   14  C12 UNL     1      11.448  81.010  33.836  1.00  0.00     0.180 C 
BRANCH  11  15
HETATM   15  O5  UNL     1      13.464  84.098  35.311  1.00  0.00    -0.369 OA
ATOM     16  H5  UNL     1      14.172  83.817  35.878  1.00  0.00     0.212 HD
ENDBRANCH  11  15
BRANCH  12  17
HETATM   17  O6  UNL     1      12.484  81.926  36.929  1.00  0.00    -0.388 OA
ATOM     18  H6  UNL     1      12.282  82.448  37.696  1.00  0.00     0.210 HD
ENDBRANCH  12  17
BRANCH  13  19
HETATM   19  O7  UNL     1       9.631  81.823  35.141  1.00  0.00    -0.390 OA
ATOM     20  H7  UNL     1       9.406  82.223  35.973  1.00  0.00     0.210 HD
ENDBRANCH  13  19
BRANCH  14  21
HETATM   21  O8  UNL     1      10.484  80.241  33.186  1.00  0.00    -0.390 OA
ATOM     22  H8  UNL     1       9.632  80.619  33.372  1.00  0.00     0.210 HD
ENDBRANCH  14  21
ENDBRANCH   8   9
ENDBRANCH   7   8
ENDBRANCH   4   7
BRANCH   4  23
HETATM   23  C13 UNL     1       9.865  84.956  29.695  1.00  0.00     0.239 C 
HETATM   24  O9  UNL     1       9.547  84.381  28.633  1.00  0.00    -0.644 OA
HETATM   25  O10 UNL     1      10.387  86.232  29.597  1.00  0.00    -0.644 OA
ENDBRANCH   4  23
BRANCH   2  26
HETATM   26  O2  UNL     1       9.217  84.356  34.293  1.00  0.00    -0.393 OA
ATOM     27  H2  UNL     1       9.827  83.686  34.008  1.00  0.00     0.210 HD
ENDBRANCH   2  26
BRANCH   6  28
HETATM   28  C15 UNL     1       6.279  83.322  30.547  1.00  0.00     0.180 C 
BRANCH  28  29
HETATM   29  O12 UNL     1       6.670  81.971  30.317  1.00  0.00    -0.390 OA
ATOM     30  H12 UNL     1       6.350  81.436  31.034  1.00  0.00     0.210 HD
ENDBRANCH  28  29
BRANCH  28  31
HETATM   31  C16 UNL     1       5.873  83.865  29.224  1.00  0.00     0.173 C 
BRANCH  31  32
HETATM   32  O13 UNL     1       6.777  83.356  28.243  1.00  0.00    -0.391 OA
ATOM     33  H13 UNL     1       6.317  82.697  27.736  1.00  0.00     0.210 HD
ENDBRANCH  31  32
BRANCH  31  34
HETATM   34  C17 UNL     1       5.949  85.356  29.119  1.00  0.00     0.198 C 
BRANCH  34  35
HETATM   35  O14 UNL     1       6.856  85.677  28.106  1.00  0.00    -0.398 OA
ATOM     36  H14 UNL     1       6.498  86.399  27.604  1.00  0.00     0.209 HD
ENDBRANCH  34  35
ENDBRANCH  31  34
ENDBRANCH  28  31
ENDBRANCH   6  28
BRANCH   1  37
HETATM   37  N1  UNL     1       6.219  84.192  33.431  1.00  0.00    -0.352 N 
HETATM   38  C2  UNL     1       5.880  83.436  34.614  1.00  0.00     0.214 C 
HETATM   39  C1  UNL     1       4.616  83.739  35.335  1.00  0.00     0.117 C 
HETATM   40  O1  UNL     1       6.646  82.526  35.034  1.00  0.00    -0.274 OA
ATOM     41  H1  UNL     1       5.596  84.927  33.095  1.00  0.00     0.163 HD
ENDBRANCH   1  37
TORSDOF 16
ENDMDL
