MODEL 2
REMARK VINA RESULT: -9.793126987      3.140      5.984
REMARK  4 active torsions:
REMARK  status: ('A' for Active; 'I' for Inactive)
REMARK    1  A    between atoms: O1_2  and  C2_3 
REMARK    2  A    between atoms: C6_7  and  N1_8 
REMARK    3  A    between atoms: C12_19  and  C13_20 
REMARK    4  A    between atoms: C15_22  and  C16_23 
ROOT
HETATM    1  C16 UNL     1      20.910  10.925  20.426  1.00  0.00    -0.024 A 
HETATM    2  C17 UNL     1      19.885  11.358  21.205  1.00  0.00     0.012 A 
HETATM    3  C18 UNL     1      18.622  10.785  21.085  1.00  0.00     0.002 A 
HETATM    4  C19 UNL     1      18.430   9.776  20.164  1.00  0.00     0.023 A 
HETATM    5  C20 UNL     1      19.461   9.308  19.347  1.00  0.00     0.045 A 
HETATM    6  C21 UNL     1      19.225   8.254  18.398  1.00  0.00     0.099 C 
HETATM    7  N5  UNL     1      19.037   7.408  17.629  1.00  0.00    -0.191 NA
HETATM    8  C22 UNL     1      20.681   9.915  19.516  1.00  0.00     0.034 A 
ENDROOT
BRANCH   1   9
HETATM    9  C15 UNL     1      22.279  11.532  20.544  1.00  0.00    -0.018 A 
HETATM   10  C14 UNL     1      22.748  12.087  21.681  1.00  0.00     0.030 A 
HETATM   11  C13 UNL     1      24.013  12.606  21.646  1.00  0.00     0.014 A 
HETATM   12  S1  UNL     1      24.514  12.311  20.047  1.00  0.00    -0.103 SA
HETATM   13  C23 UNL     1      23.114  11.540  19.459  1.00  0.00     0.062 A 
BRANCH  11  14
HETATM   14  C12 UNL     1      24.754  13.275  22.787  1.00  0.00     0.096 C 
HETATM   15  C8  UNL     1      24.872  14.730  22.504  1.00  0.00     0.131 C 
HETATM   16  C7  UNL     1      23.597  15.311  23.021  1.00  0.00     0.141 C 
HETATM   17  C9  UNL     1      25.989  15.278  23.326  1.00  0.00     0.234 C 
HETATM   18  N1  UNL     1      22.945  14.266  23.787  1.00  0.00    -0.364 N 
HETATM   19  C24 UNL     1      23.883  13.182  23.993  1.00  0.00     0.162 C 
HETATM   20  O2  UNL     1      25.925  16.451  23.816  1.00  0.00    -0.272 OA
HETATM   21  N2  UNL     1      27.170  14.540  23.608  1.00  0.00    -0.296 N 
HETATM   22  C10 UNL     1      28.369  15.225  24.110  1.00  0.00     0.162 C 
HETATM   23  C11 UNL     1      27.203  13.254  23.425  1.00  0.00     0.193 C 
HETATM   24  N3  UNL     1      28.403  12.551  23.719  1.00  0.00    -0.063 NA
HETATM   25  N4  UNL     1      26.035  12.646  22.945  1.00  0.00    -0.348 N 
ATOM     26  H4  UNL     1      26.101  11.662  22.683  1.00  0.00     0.163 HD
BRANCH  18  27
HETATM   27  C6  UNL     1      21.601  14.312  24.254  1.00  0.00     0.105 A 
HETATM   28  C5  UNL     1      21.025  15.525  24.579  1.00  0.00     0.048 A 
HETATM   29  C4  UNL     1      19.716  15.586  25.036  1.00  0.00     0.008 A 
HETATM   30  C3  UNL     1      19.031  14.409  25.148  1.00  0.00     0.056 A 
HETATM   31  C2  UNL     1      19.618  13.225  24.822  1.00  0.00     0.143 A 
HETATM   32  N6  UNL     1      20.870  13.190  24.388  1.00  0.00    -0.323 N 
ATOM     33  H6  UNL     1      21.290  12.291  24.150  1.00  0.00     0.169 HD
BRANCH  31  34
HETATM   34  O1  UNL     1      18.937  12.011  24.930  1.00  0.00    -0.341 OA
HETATM   35  C1  UNL     1      18.632  11.420  26.158  1.00  0.00     0.211 C 
ENDBRANCH  31  34
ENDBRANCH  18  27
ENDBRANCH  11  14
ENDBRANCH   1   9
TORSDOF 4
ENDMDL
