MODEL 4
REMARK VINA RESULT: -9.738389992      2.764      6.244
REMARK  4 active torsions:
REMARK  status: ('A' for Active; 'I' for Inactive)
REMARK    1  A    between atoms: O1_2  and  C2_3 
REMARK    2  A    between atoms: C6_7  and  N1_8 
REMARK    3  A    between atoms: C12_19  and  C13_20 
REMARK    4  A    between atoms: C15_22  and  C16_23 
ROOT
HETATM    1  C16 UNL     1      20.811  11.269  20.661  1.00  0.00    -0.024 A 
HETATM    2  C17 UNL     1      20.475  10.560  19.552  1.00  0.00     0.012 A 
HETATM    3  C18 UNL     1      19.165  10.126  19.367  1.00  0.00     0.002 A 
HETATM    4  C19 UNL     1      18.218  10.427  20.325  1.00  0.00     0.023 A 
HETATM    5  C20 UNL     1      18.530  11.153  21.476  1.00  0.00     0.045 A 
HETATM    6  C21 UNL     1      17.519  11.449  22.454  1.00  0.00     0.099 C 
HETATM    7  N5  UNL     1      16.706  11.684  23.245  1.00  0.00    -0.191 NA
HETATM    8  C22 UNL     1      19.839  11.550  21.597  1.00  0.00     0.034 A 
ENDROOT
BRANCH   1   9
HETATM    9  C15 UNL     1      22.219  11.745  20.876  1.00  0.00    -0.018 A 
HETATM   10  C14 UNL     1      22.658  12.258  22.045  1.00  0.00     0.030 A 
HETATM   11  C13 UNL     1      23.966  12.656  22.099  1.00  0.00     0.014 A 
HETATM   12  S1  UNL     1      24.546  12.310  20.538  1.00  0.00    -0.103 SA
HETATM   13  C23 UNL     1      23.125  11.671  19.851  1.00  0.00     0.062 A 
BRANCH  11  14
HETATM   14  C12 UNL     1      24.685  13.255  23.291  1.00  0.00     0.096 C 
HETATM   15  C8  UNL     1      24.620  14.739  23.203  1.00  0.00     0.131 C 
HETATM   16  C7  UNL     1      23.316  15.089  23.841  1.00  0.00     0.141 C 
HETATM   17  C9  UNL     1      25.708  15.306  24.049  1.00  0.00     0.234 C 
HETATM   18  N1  UNL     1      22.830  13.883  24.483  1.00  0.00    -0.364 N 
HETATM   19  C24 UNL     1      23.896  12.902  24.505  1.00  0.00     0.162 C 
HETATM   20  O2  UNL     1      25.536  16.390  24.694  1.00  0.00    -0.272 OA
HETATM   21  N2  UNL     1      26.980  14.686  24.184  1.00  0.00    -0.296 N 
HETATM   22  C10 UNL     1      28.118  15.441  24.728  1.00  0.00     0.162 C 
HETATM   23  C11 UNL     1      27.151  13.449  23.828  1.00  0.00     0.193 C 
HETATM   24  N3  UNL     1      28.438  12.864  23.979  1.00  0.00    -0.063 NA
HETATM   25  N4  UNL     1      26.036  12.771  23.314  1.00  0.00    -0.348 N 
ATOM     26  H4  UNL     1      26.201  11.845  22.920  1.00  0.00     0.163 HD
BRANCH  18  27
HETATM   27  C6  UNL     1      21.517  13.705  25.003  1.00  0.00     0.105 A 
HETATM   28  C5  UNL     1      20.423  14.141  24.279  1.00  0.00     0.048 A 
HETATM   29  C4  UNL     1      19.137  13.975  24.773  1.00  0.00     0.008 A 
HETATM   30  C3  UNL     1      19.002  13.369  25.991  1.00  0.00     0.056 A 
HETATM   31  C2  UNL     1      20.093  12.947  26.686  1.00  0.00     0.143 A 
HETATM   32  N6  UNL     1      21.313  13.116  26.196  1.00  0.00    -0.323 N 
ATOM     33  H6  UNL     1      22.116  12.793  26.735  1.00  0.00     0.169 HD
BRANCH  31  34
HETATM   34  O1  UNL     1      19.977  12.326  27.931  1.00  0.00    -0.341 OA
HETATM   35  C1  UNL     1      21.064  12.134  28.786  1.00  0.00     0.211 C 
ENDBRANCH  31  34
ENDBRANCH  18  27
ENDBRANCH  11  14
ENDBRANCH   1   9
TORSDOF 4
ENDMDL
