MODEL 3
REMARK VINA RESULT: -9.770548276      2.872      6.153
REMARK  4 active torsions:
REMARK  status: ('A' for Active; 'I' for Inactive)
REMARK    1  A    between atoms: O1_2  and  C2_3 
REMARK    2  A    between atoms: C6_7  and  N1_8 
REMARK    3  A    between atoms: C12_19  and  C13_20 
REMARK    4  A    between atoms: C15_22  and  C16_23 
ROOT
HETATM    1  C16 UNL     1      20.797  10.990  20.423  1.00  0.00    -0.024 A 
HETATM    2  C17 UNL     1      20.508  10.072  19.464  1.00  0.00     0.012 A 
HETATM    3  C18 UNL     1      19.217   9.568  19.341  1.00  0.00     0.002 A 
HETATM    4  C19 UNL     1      18.239  10.014  20.206  1.00  0.00     0.023 A 
HETATM    5  C20 UNL     1      18.502  10.956  21.203  1.00  0.00     0.045 A 
HETATM    6  C21 UNL     1      17.459  11.399  22.088  1.00  0.00     0.099 C 
HETATM    7  N5  UNL     1      16.621  11.755  22.805  1.00  0.00    -0.191 NA
HETATM    8  C22 UNL     1      19.795  11.412  21.270  1.00  0.00     0.034 A 
ENDROOT
BRANCH   1   9
HETATM    9  C15 UNL     1      22.186  11.543  20.568  1.00  0.00    -0.018 A 
HETATM   10  C14 UNL     1      22.639  12.120  21.702  1.00  0.00     0.030 A 
HETATM   11  C13 UNL     1      23.925  12.584  21.694  1.00  0.00     0.014 A 
HETATM   12  S1  UNL     1      24.467  12.211  20.125  1.00  0.00    -0.103 SA
HETATM   13  C23 UNL     1      23.057  11.478  19.514  1.00  0.00     0.062 A 
BRANCH  11  14
HETATM   14  C12 UNL     1      24.654  13.263  22.836  1.00  0.00     0.096 C 
HETATM   15  C8  UNL     1      24.743  14.722  22.559  1.00  0.00     0.131 C 
HETATM   16  C7  UNL     1      23.457  15.275  23.080  1.00  0.00     0.141 C 
HETATM   17  C9  UNL     1      25.849  15.288  23.382  1.00  0.00     0.234 C 
HETATM   18  N1  UNL     1      22.826  14.214  23.842  1.00  0.00    -0.364 N 
HETATM   19  C24 UNL     1      23.786  13.148  24.043  1.00  0.00     0.162 C 
HETATM   20  O2  UNL     1      25.763  16.458  23.877  1.00  0.00    -0.272 OA
HETATM   21  N2  UNL     1      27.046  14.573  23.660  1.00  0.00    -0.296 N 
HETATM   22  C10 UNL     1      28.232  15.280  24.163  1.00  0.00     0.162 C 
HETATM   23  C11 UNL     1      27.104  13.289  23.472  1.00  0.00     0.193 C 
HETATM   24  N3  UNL     1      28.318  12.608  23.762  1.00  0.00    -0.063 NA
HETATM   25  N4  UNL     1      25.947  12.659  22.991  1.00  0.00    -0.348 N 
ATOM     26  H4  UNL     1      26.033  11.678  22.725  1.00  0.00     0.163 HD
BRANCH  18  27
HETATM   27  C6  UNL     1      21.483  14.233  24.311  1.00  0.00     0.105 A 
HETATM   28  C5  UNL     1      20.825  15.436  24.475  1.00  0.00     0.048 A 
HETATM   29  C4  UNL     1      19.515  15.470  24.932  1.00  0.00     0.008 A 
HETATM   30  C3  UNL     1      18.912  14.275  25.207  1.00  0.00     0.056 A 
HETATM   31  C2  UNL     1      19.579  13.100  25.038  1.00  0.00     0.143 A 
HETATM   32  N6  UNL     1      20.830  13.091  24.601  1.00  0.00    -0.323 N 
ATOM     33  H6  UNL     1      21.310  12.199  24.482  1.00  0.00     0.169 HD
BRANCH  31  34
HETATM   34  O1  UNL     1      18.981  11.869  25.313  1.00  0.00    -0.341 OA
HETATM   35  C1  UNL     1      18.925  11.325  26.598  1.00  0.00     0.211 C 
ENDBRANCH  31  34
ENDBRANCH  18  27
ENDBRANCH  11  14
ENDBRANCH   1   9
TORSDOF 4
ENDMDL
