MODEL 3
REMARK VINA RESULT: -10.352809479      3.606      5.351
REMARK  3 active torsions:
REMARK  status: ('A' for Active; 'I' for Inactive)
REMARK    1  A    between atoms: C3_7  and  C4_8 
REMARK    2  A    between atoms: C6_10  and  C7_11 
REMARK    3  A    between atoms: N5_22  and  C16_23 
ROOT
HETATM    1  C7  UNL     1      19.682  11.060  20.626  1.00  0.00    -0.024 A 
HETATM    2  C8  UNL     1      19.141  11.838  21.619  1.00  0.00     0.012 A 
HETATM    3  C9  UNL     1      17.860  11.684  22.060  1.00  0.00     0.002 A 
HETATM    4  C10 UNL     1      17.061  10.710  21.501  1.00  0.00     0.023 A 
HETATM    5  C11 UNL     1      17.566   9.907  20.503  1.00  0.00     0.045 A 
HETATM    6  C12 UNL     1      16.730   8.906  19.941  1.00  0.00     0.099 C 
HETATM    7  N4  UNL     1      16.041   8.071  19.509  1.00  0.00    -0.191 NA
HETATM    8  C13 UNL     1      18.895  10.097  20.069  1.00  0.00     0.034 A 
ENDROOT
BRANCH   1   9
HETATM    9  C6  UNL     1      21.091  11.202  20.160  1.00  0.00    -0.018 A 
HETATM   10  C5  UNL     1      22.022  11.858  20.877  1.00  0.00     0.030 A 
HETATM   11  C4  UNL     1      23.268  11.965  20.302  1.00  0.00     0.014 A 
HETATM   12  S1  UNL     1      23.094  11.155  18.825  1.00  0.00    -0.103 SA
HETATM   13  C14 UNL     1      21.452  10.696  18.950  1.00  0.00     0.062 A 
BRANCH  11  14
HETATM   14  C3  UNL     1      24.513  12.624  20.804  1.00  0.00     0.096 C 
HETATM   15  N3  UNL     1      25.646  11.883  20.263  1.00  0.00    -0.348 N 
HETATM   16  C2  UNL     1      26.134  12.136  18.943  1.00  0.00     0.193 C 
ATOM     17  H3  UNL     1      26.099  11.172  20.837  1.00  0.00     0.163 HD
HETATM   18  N1  UNL     1      25.875  13.201  18.293  1.00  0.00    -0.296 N 
HETATM   19  N2  UNL     1      26.949  11.131  18.346  1.00  0.00    -0.063 NA
HETATM   20  C1  UNL     1      26.371  13.444  16.961  1.00  0.00     0.162 C 
HETATM   21  C24 UNL     1      25.052  14.160  18.936  1.00  0.00     0.234 C 
HETATM   22  C23 UNL     1      24.620  14.059  20.332  1.00  0.00     0.131 C 
HETATM   23  O1  UNL     1      24.648  15.182  18.281  1.00  0.00    -0.272 OA
HETATM   24  C22 UNL     1      25.688  14.567  21.308  1.00  0.00     0.141 C 
HETATM   25  N5  UNL     1      25.155  14.062  22.570  1.00  0.00    -0.362 N 
HETATM   26  C15 UNL     1      24.539  12.776  22.283  1.00  0.00     0.162 C 
BRANCH  25  27
HETATM   27  C16 UNL     1      25.257  14.725  23.807  1.00  0.00     0.124 A 
HETATM   28  N6  UNL     1      24.139  15.463  24.210  1.00  0.00    -0.351 N 
HETATM   29  C17 UNL     1      24.212  16.117  25.378  1.00  0.00     0.090 A 
ATOM     30  H6  UNL     1      23.297  15.502  23.635  1.00  0.00     0.166 HD
HETATM   31  C18 UNL     1      25.295  16.093  26.171  1.00  0.00     0.019 A 
HETATM   32  C19 UNL     1      26.454  15.371  25.828  1.00  0.00     0.028 A 
HETATM   33  C20 UNL     1      26.333  14.703  24.600  1.00  0.00     0.088 A 
HETATM   34  C21 UNL     1      27.496  13.922  24.168  1.00  0.00     0.103 C 
HETATM   35  N7  UNL     1      28.438  13.303  23.855  1.00  0.00    -0.191 NA
ENDBRANCH  25  27
ENDBRANCH  11  14
ENDBRANCH   1   9
TORSDOF 3
ENDMDL
