MODEL 1
REMARK VINA RESULT: -10.422514280      0.000      0.000
REMARK  3 active torsions:
REMARK  status: ('A' for Active; 'I' for Inactive)
REMARK    1  A    between atoms: C3_7  and  C4_8 
REMARK    2  A    between atoms: C6_10  and  C7_11 
REMARK    3  A    between atoms: N5_22  and  C16_23 
ROOT
HETATM    1  C7  UNL     1      20.610  11.217  20.494  1.00  0.00    -0.024 A 
HETATM    2  C8  UNL     1      20.730  10.765  19.203  1.00  0.00     0.012 A 
HETATM    3  C9  UNL     1      19.658  10.362  18.462  1.00  0.00     0.002 A 
HETATM    4  C10 UNL     1      18.396  10.406  19.012  1.00  0.00     0.023 A 
HETATM    5  C11 UNL     1      18.232  10.854  20.304  1.00  0.00     0.045 A 
HETATM    6  C12 UNL     1      16.923  10.897  20.854  1.00  0.00     0.099 C 
HETATM    7  N4  UNL     1      15.841  10.952  21.281  1.00  0.00    -0.191 NA
HETATM    8  C13 UNL     1      19.363  11.260  21.043  1.00  0.00     0.034 A 
ENDROOT
BRANCH   1   9
HETATM    9  C6  UNL     1      21.772  11.689  21.300  1.00  0.00    -0.018 A 
HETATM   10  C5  UNL     1      21.643  12.098  22.576  1.00  0.00     0.030 A 
HETATM   11  C4  UNL     1      22.786  12.563  23.183  1.00  0.00     0.014 A 
HETATM   12  S1  UNL     1      23.968  12.404  21.981  1.00  0.00    -0.103 SA
HETATM   13  C14 UNL     1      23.004  11.757  20.726  1.00  0.00     0.062 A 
BRANCH  11  14
HETATM   14  C3  UNL     1      23.001  13.097  24.564  1.00  0.00     0.096 C 
HETATM   15  N3  UNL     1      24.433  13.042  24.834  1.00  0.00    -0.348 N 
HETATM   16  C2  UNL     1      25.312  14.073  24.380  1.00  0.00     0.193 C 
ATOM     17  H3  UNL     1      24.813  12.253  25.357  1.00  0.00     0.163 HD
HETATM   18  N1  UNL     1      24.912  15.232  24.032  1.00  0.00    -0.296 N 
HETATM   19  N2  UNL     1      26.702  13.765  24.320  1.00  0.00    -0.063 NA
HETATM   20  C1  UNL     1      25.809  16.263  23.574  1.00  0.00     0.162 C 
HETATM   21  C24 UNL     1      23.518  15.477  24.104  1.00  0.00     0.234 C 
HETATM   22  C23 UNL     1      22.554  14.539  24.687  1.00  0.00     0.131 C 
HETATM   23  O1  UNL     1      23.046  16.571  23.641  1.00  0.00    -0.272 OA
HETATM   24  C22 UNL     1      22.484  14.652  26.214  1.00  0.00     0.141 C 
HETATM   25  N5  UNL     1      21.739  13.439  26.536  1.00  0.00    -0.362 N 
HETATM   26  C15 UNL     1      22.164  12.419  25.590  1.00  0.00     0.162 C 
BRANCH  25  27
HETATM   27  C16 UNL     1      20.807  13.323  27.584  1.00  0.00     0.124 A 
HETATM   28  N6  UNL     1      21.329  13.333  28.883  1.00  0.00    -0.351 N 
HETATM   29  C17 UNL     1      20.466  13.210  29.901  1.00  0.00     0.090 A 
ATOM     30  H6  UNL     1      22.331  13.430  29.048  1.00  0.00     0.166 HD
HETATM   31  C18 UNL     1      19.140  13.084  29.734  1.00  0.00     0.019 A 
HETATM   32  C19 UNL     1      18.548  13.068  28.458  1.00  0.00     0.028 A 
HETATM   33  C20 UNL     1      19.486  13.199  27.423  1.00  0.00     0.088 A 
HETATM   34  C21 UNL     1      18.953  13.195  26.057  1.00  0.00     0.103 C 
HETATM   35  N7  UNL     1      18.495  13.194  24.981  1.00  0.00    -0.191 NA
ENDBRANCH  25  27
ENDBRANCH  11  14
ENDBRANCH   1   9
TORSDOF 3
ENDMDL
