MODEL 2
REMARK VINA RESULT: -10.410757986      2.059      4.969
REMARK  3 active torsions:
REMARK  status: ('A' for Active; 'I' for Inactive)
REMARK    1  A    between atoms: C3_7  and  C4_8 
REMARK    2  A    between atoms: C6_10  and  C7_11 
REMARK    3  A    between atoms: N5_22  and  C16_23 
ROOT
HETATM    1  C7  UNL     1      20.669  11.366  20.458  1.00  0.00    -0.024 A 
HETATM    2  C8  UNL     1      20.761  10.761  19.229  1.00  0.00     0.012 A 
HETATM    3  C9  UNL     1      19.680  10.238  18.583  1.00  0.00     0.002 A 
HETATM    4  C10 UNL     1      18.436  10.313  19.169  1.00  0.00     0.023 A 
HETATM    5  C11 UNL     1      18.300  10.912  20.401  1.00  0.00     0.045 A 
HETATM    6  C12 UNL     1      17.009  10.984  20.989  1.00  0.00     0.099 C 
HETATM    7  N4  UNL     1      15.940  11.060  21.446  1.00  0.00    -0.191 NA
HETATM    8  C13 UNL     1      19.440  11.439  21.043  1.00  0.00     0.034 A 
ENDROOT
BRANCH   1   9
HETATM    9  C6  UNL     1      21.840  11.967  21.156  1.00  0.00    -0.018 A 
HETATM   10  C5  UNL     1      21.701  12.842  22.170  1.00  0.00     0.030 A 
HETATM   11  C4  UNL     1      22.864  13.364  22.686  1.00  0.00     0.014 A 
HETATM   12  S1  UNL     1      24.076  12.623  21.764  1.00  0.00    -0.103 SA
HETATM   13  C14 UNL     1      23.099  11.667  20.737  1.00  0.00     0.062 A 
BRANCH  11  14
HETATM   14  C3  UNL     1      23.077  14.353  23.789  1.00  0.00     0.096 C 
HETATM   15  N3  UNL     1      21.940  15.267  23.779  1.00  0.00    -0.348 N 
HETATM   16  C2  UNL     1      20.711  14.925  24.424  1.00  0.00     0.193 C 
ATOM     17  H3  UNL     1      22.024  16.165  23.305  1.00  0.00     0.163 HD
HETATM   18  N1  UNL     1      20.614  14.013  25.309  1.00  0.00    -0.296 N 
HETATM   19  N2  UNL     1      19.549  15.656  24.041  1.00  0.00    -0.063 NA
HETATM   20  C1  UNL     1      19.367  13.677  25.951  1.00  0.00     0.162 C 
HETATM   21  C24 UNL     1      21.801  13.315  25.643  1.00  0.00     0.234 C 
HETATM   22  C23 UNL     1      23.130  13.681  25.145  1.00  0.00     0.131 C 
HETATM   23  O1  UNL     1      21.738  12.302  26.420  1.00  0.00    -0.272 OA
HETATM   24  C22 UNL     1      23.764  14.813  25.962  1.00  0.00     0.141 C 
HETATM   25  N5  UNL     1      24.872  15.183  25.087  1.00  0.00    -0.362 N 
HETATM   26  C15 UNL     1      24.399  15.030  23.720  1.00  0.00     0.162 C 
BRANCH  25  27
HETATM   27  C16 UNL     1      26.136  15.616  25.530  1.00  0.00     0.124 A 
HETATM   28  N6  UNL     1      27.168  14.672  25.478  1.00  0.00    -0.351 N 
HETATM   29  C17 UNL     1      28.381  15.052  25.907  1.00  0.00     0.090 A 
ATOM     30  H6  UNL     1      27.004  13.729  25.125  1.00  0.00     0.166 HD
HETATM   31  C18 UNL     1      28.646  16.281  26.376  1.00  0.00     0.019 A 
HETATM   32  C19 UNL     1      27.656  17.278  26.455  1.00  0.00     0.028 A 
HETATM   33  C20 UNL     1      26.405  16.839  25.996  1.00  0.00     0.088 A 
HETATM   34  C21 UNL     1      25.315  17.818  26.042  1.00  0.00     0.103 C 
HETATM   35  N7  UNL     1      24.469  18.625  26.085  1.00  0.00    -0.191 NA
ENDBRANCH  25  27
ENDBRANCH  11  14
ENDBRANCH   1   9
TORSDOF 3
ENDMDL
