MODEL 4
REMARK VINA RESULT: -9.340604159      2.569      3.589
REMARK  3 active torsions:
REMARK  status: ('A' for Active; 'I' for Inactive)
REMARK    1  A    between atoms: C3_7  and  C4_8 
REMARK    2  A    between atoms: C7_11  and  C8_12 
REMARK    3  A    between atoms: N5_23  and  C16_24 
ROOT
HETATM    1  C8  UNL     1      22.244  10.877  20.858  1.00  0.00    -0.017 A 
HETATM    2  C9  UNL     1      22.982   9.988  21.624  1.00  0.00     0.016 A 
HETATM    3  C10 UNL     1      24.297   9.762  21.242  1.00  0.00     0.045 A 
HETATM    4  C11 UNL     1      24.881  10.383  20.154  1.00  0.00     0.137 A 
HETATM    5  F1  UNL     1      26.206  10.155  19.831  1.00  0.00    -0.204 F 
HETATM    6  C12 UNL     1      24.122  11.258  19.413  1.00  0.00     0.084 A 
HETATM    7  C13 UNL     1      24.691  11.937  18.282  1.00  0.00     0.102 C 
HETATM    8  N4  UNL     1      25.123  12.475  17.348  1.00  0.00    -0.191 NA
HETATM    9  C14 UNL     1      22.808  11.491  19.784  1.00  0.00     0.038 A 
ENDROOT
BRANCH   1  10
HETATM   10  C7  UNL     1      20.834  11.137  21.175  1.00  0.00     0.015 A 
HETATM   11  C6  UNL     1      19.868  11.703  20.411  1.00  0.00     0.021 A 
HETATM   12  C5  UNL     1      18.625  11.773  20.935  1.00  0.00     0.018 A 
HETATM   13  C4  UNL     1      18.426  11.270  22.182  1.00  0.00     0.014 A 
HETATM   14  S1  UNL     1      20.010  10.708  22.608  1.00  0.00    -0.091 SA
BRANCH  13  15
HETATM   15  C3  UNL     1      17.156  11.112  22.989  1.00  0.00     0.096 C 
HETATM   16  N3  UNL     1      16.119  10.948  21.975  1.00  0.00    -0.348 N 
HETATM   17  C2  UNL     1      15.758   9.645  21.531  1.00  0.00     0.193 C 
ATOM     18  H3  UNL     1      15.653  11.767  21.585  1.00  0.00     0.163 HD
HETATM   19  N1  UNL     1      15.600   8.746  22.446  1.00  0.00    -0.296 N 
HETATM   20  N2  UNL     1      15.549   9.337  20.179  1.00  0.00    -0.063 NA
HETATM   21  C1  UNL     1      15.197   7.425  22.091  1.00  0.00     0.162 C 
HETATM   22  C24 UNL     1      15.906   9.153  23.798  1.00  0.00     0.234 C 
HETATM   23  C23 UNL     1      17.122  10.045  23.990  1.00  0.00     0.131 C 
HETATM   24  O1  UNL     1      15.232   8.807  24.725  1.00  0.00    -0.272 OA
HETATM   25  C22 UNL     1      16.879  10.750  25.318  1.00  0.00     0.140 C 
HETATM   26  N5  UNL     1      17.437  12.065  25.094  1.00  0.00    -0.377 N 
HETATM   27  C15 UNL     1      16.933  12.432  23.756  1.00  0.00     0.160 C 
BRANCH  26  28
HETATM   28  C16 UNL     1      18.243  12.796  25.991  1.00  0.00     0.030 A 
HETATM   29  C17 UNL     1      19.619  12.555  26.051  1.00  0.00     0.029 A 
HETATM   30  C18 UNL     1      20.451  13.189  26.904  1.00  0.00     0.002 A 
HETATM   31  C19 UNL     1      19.925  14.141  27.786  1.00  0.00     0.000 A 
HETATM   32  C20 UNL     1      18.594  14.404  27.752  1.00  0.00     0.002 A 
HETATM   33  C21 UNL     1      17.754  13.738  26.863  1.00  0.00     0.029 A 
ENDBRANCH  26  28
ENDBRANCH  13  15
ENDBRANCH   1  10
TORSDOF 3
ENDMDL
