MODEL 1
REMARK VINA RESULT: -9.913292299      0.000      0.000
REMARK  3 active torsions:
REMARK  status: ('A' for Active; 'I' for Inactive)
REMARK    1  A    between atoms: C3_7  and  C4_8 
REMARK    2  A    between atoms: C7_11  and  C8_12 
REMARK    3  A    between atoms: N5_23  and  C16_24 
ROOT
HETATM    1  C8  UNL     1      25.221  10.389  20.342  1.00  0.00    -0.017 A 
HETATM    2  C9  UNL     1      25.258  10.518  18.963  1.00  0.00     0.016 A 
HETATM    3  C10 UNL     1      26.509  10.552  18.362  1.00  0.00     0.045 A 
HETATM    4  C11 UNL     1      27.688  10.459  19.077  1.00  0.00     0.137 A 
HETATM    5  F1  UNL     1      28.912  10.462  18.434  1.00  0.00    -0.204 F 
HETATM    6  C12 UNL     1      27.618  10.334  20.445  1.00  0.00     0.084 A 
HETATM    7  C13 UNL     1      28.817  10.221  21.228  1.00  0.00     0.102 C 
HETATM    8  N4  UNL     1      29.774  10.155  21.881  1.00  0.00    -0.191 NA
HETATM    9  C14 UNL     1      26.374  10.300  21.055  1.00  0.00     0.038 A 
ENDROOT
BRANCH   1  10
HETATM   10  C7  UNL     1      23.935  10.385  21.053  1.00  0.00     0.015 A 
HETATM   11  C6  UNL     1      23.603   9.805  22.232  1.00  0.00     0.021 A 
HETATM   12  C5  UNL     1      22.349  10.007  22.690  1.00  0.00     0.018 A 
HETATM   13  C4  UNL     1      21.511  10.777  21.946  1.00  0.00     0.014 A 
HETATM   14  S1  UNL     1      22.509  11.204  20.593  1.00  0.00    -0.091 SA
BRANCH  13  15
HETATM   15  C3  UNL     1      20.106  11.261  22.230  1.00  0.00     0.096 C 
HETATM   16  N3  UNL     1      19.653  11.786  20.946  1.00  0.00    -0.348 N 
HETATM   17  C2  UNL     1      18.960  10.939  20.036  1.00  0.00     0.193 C 
ATOM     18  H3  UNL     1      19.833  12.759  20.700  1.00  0.00     0.163 HD
HETATM   19  N1  UNL     1      18.033  10.190  20.536  1.00  0.00    -0.296 N 
HETATM   20  N2  UNL     1      19.229  10.925  18.659  1.00  0.00    -0.063 NA
HETATM   21  C1  UNL     1      17.261   9.342  19.689  1.00  0.00     0.162 C 
HETATM   22  C24 UNL     1      17.885  10.234  21.973  1.00  0.00     0.234 C 
HETATM   23  C23 UNL     1      19.162  10.296  22.795  1.00  0.00     0.131 C 
HETATM   24  O1  UNL     1      16.807  10.225  22.493  1.00  0.00    -0.272 OA
HETATM   25  C22 UNL     1      18.734  10.890  24.131  1.00  0.00     0.140 C 
HETATM   26  N5  UNL     1      19.871  11.703  24.503  1.00  0.00    -0.377 N 
HETATM   27  C15 UNL     1      20.216  12.409  23.254  1.00  0.00     0.160 C 
BRANCH  26  28
HETATM   28  C16 UNL     1      20.455  11.787  25.784  1.00  0.00     0.030 A 
HETATM   29  C17 UNL     1      19.961  11.003  26.831  1.00  0.00     0.029 A 
HETATM   30  C18 UNL     1      20.444  11.050  28.090  1.00  0.00     0.002 A 
HETATM   31  C19 UNL     1      21.495  11.927  28.384  1.00  0.00     0.000 A 
HETATM   32  C20 UNL     1      22.003  12.700  27.390  1.00  0.00     0.002 A 
HETATM   33  C21 UNL     1      21.489  12.635  26.098  1.00  0.00     0.029 A 
ENDBRANCH  26  28
ENDBRANCH  13  15
ENDBRANCH   1  10
TORSDOF 3
ENDMDL
