MODEL 3
REMARK VINA RESULT: -9.559118343      1.438      1.816
REMARK  3 active torsions:
REMARK  status: ('A' for Active; 'I' for Inactive)
REMARK    1  A    between atoms: C3_7  and  C4_8 
REMARK    2  A    between atoms: C7_11  and  C8_12 
REMARK    3  A    between atoms: N5_23  and  C16_24 
ROOT
HETATM    1  C8  UNL     1      23.601  10.765  20.420  1.00  0.00    -0.017 A 
HETATM    2  C9  UNL     1      23.571  11.407  19.193  1.00  0.00     0.016 A 
HETATM    3  C10 UNL     1      24.779  11.552  18.523  1.00  0.00     0.045 A 
HETATM    4  C11 UNL     1      25.977  11.082  19.026  1.00  0.00     0.137 A 
HETATM    5  F1  UNL     1      27.151  11.217  18.308  1.00  0.00    -0.204 F 
HETATM    6  C12 UNL     1      25.974  10.451  20.247  1.00  0.00     0.084 A 
HETATM    7  C13 UNL     1      27.193   9.935  20.803  1.00  0.00     0.102 C 
HETATM    8  N4  UNL     1      28.172   9.535  21.283  1.00  0.00    -0.191 NA
HETATM    9  C14 UNL     1      24.774  10.303  20.926  1.00  0.00     0.038 A 
ENDROOT
BRANCH   1  10
HETATM   10  C7  UNL     1      22.370  10.610  21.207  1.00  0.00     0.015 A 
HETATM   11  C6  UNL     1      22.211  10.193  22.487  1.00  0.00     0.021 A 
HETATM   12  C5  UNL     1      20.957  10.197  22.988  1.00  0.00     0.018 A 
HETATM   13  C4  UNL     1      19.946  10.620  22.183  1.00  0.00     0.014 A 
HETATM   14  S1  UNL     1      20.783  11.003  20.713  1.00  0.00    -0.091 SA
BRANCH  13  15
HETATM   15  C3  UNL     1      18.477  10.830  22.476  1.00  0.00     0.096 C 
HETATM   16  N3  UNL     1      17.901  11.127  21.168  1.00  0.00    -0.348 N 
HETATM   17  C2  UNL     1      17.382  10.073  20.364  1.00  0.00     0.193 C 
ATOM     18  H3  UNL     1      17.870  12.088  20.830  1.00  0.00     0.163 HD
HETATM   19  N1  UNL     1      16.640   9.200  20.964  1.00  0.00    -0.296 N 
HETATM   20  N2  UNL     1      17.622   9.984  18.985  1.00  0.00    -0.063 NA
HETATM   21  C1  UNL     1      16.045   8.136  20.225  1.00  0.00     0.162 C 
HETATM   22  C24 UNL     1      16.513   9.349  22.396  1.00  0.00     0.234 C 
HETATM   23  C23 UNL     1      17.764   9.750  23.160  1.00  0.00     0.131 C 
HETATM   24  O1  UNL     1      15.470   9.169  22.955  1.00  0.00    -0.272 OA
HETATM   25  C22 UNL     1      17.247  10.368  24.453  1.00  0.00     0.140 C 
HETATM   26  N5  UNL     1      18.197  11.428  24.708  1.00  0.00    -0.377 N 
HETATM   27  C15 UNL     1      18.364  12.068  23.390  1.00  0.00     0.160 C 
BRANCH  26  28
HETATM   28  C16 UNL     1      18.774  11.751  25.954  1.00  0.00     0.030 A 
HETATM   29  C17 UNL     1      19.907  11.064  26.399  1.00  0.00     0.029 A 
HETATM   30  C18 UNL     1      20.498  11.293  27.591  1.00  0.00     0.002 A 
HETATM   31  C19 UNL     1      19.959  12.266  28.442  1.00  0.00     0.000 A 
HETATM   32  C20 UNL     1      18.862  12.956  28.040  1.00  0.00     0.002 A 
HETATM   33  C21 UNL     1      18.269  12.704  26.805  1.00  0.00     0.029 A 
ENDBRANCH  26  28
ENDBRANCH  13  15
ENDBRANCH   1  10
TORSDOF 3
ENDMDL
