MODEL 1
REMARK VINA RESULT: -6.968707608      0.000      0.000
REMARK  3 active torsions:
REMARK  status: ('A' for Active; 'I' for Inactive)
REMARK    1  A    between atoms: C5_8  and  C6_9 
REMARK       I    between atoms: C6_9  and  N3_11 
REMARK    2  A    between atoms: N3_11  and  C7_13 
REMARK    3  A    between atoms: C7_13  and  C8_14 
ROOT
HETATM    1  N1  UNL     1     -32.174 -20.209  10.720  1.00  0.00    -0.074 NA
HETATM    2  C1  UNL     1     -31.023 -19.360  10.805  1.00  0.00     0.159 A 
HETATM    3  N2  UNL     1     -30.311 -19.073  11.879  1.00  0.00    -0.338 N 
ATOM      4  H2  UNL     1     -30.566 -19.476  12.781  1.00  0.00     0.167 HD
HETATM    5  C2  UNL     1     -29.282 -18.276  11.789  1.00  0.00     0.051 A 
HETATM    6  C3  UNL     1     -28.444 -17.893  12.858  1.00  0.00     0.032 A 
HETATM    7  C4  UNL     1     -27.399 -17.046  12.606  1.00  0.00     0.019 A 
HETATM    8  C5  UNL     1     -27.073 -16.512  11.374  1.00  0.00     0.033 A 
HETATM    9  C9  UNL     1     -27.906 -16.898  10.335  1.00  0.00     0.038 A 
HETATM   10  C10 UNL     1     -28.987 -17.765  10.554  1.00  0.00     0.035 A 
HETATM   11  S1  UNL     1     -30.215 -18.466   9.592  1.00  0.00    -0.055 SA
ENDROOT
BRANCH   8  12
HETATM   12  C6  UNL     1     -25.955 -15.620  11.169  1.00  0.00     0.252 C 
HETATM   13  O1  UNL     1     -25.461 -15.054  12.180  1.00  0.00    -0.268 OA
HETATM   14  N3  UNL     1     -25.405 -15.363   9.912  1.00  0.00    -0.347 N 
ATOM     15  H3  UNL     1     -25.823 -15.834   9.109  1.00  0.00     0.163 HD
BRANCH  14  16
HETATM   16  C7  UNL     1     -24.289 -14.480   9.663  1.00  0.00     0.236 C 
BRANCH  16  17
HETATM   17  C8  UNL     1     -23.814 -14.498   8.292  1.00  0.00     0.191 C 
HETATM   18  O2  UNL     1     -23.596 -13.428   7.689  1.00  0.00    -0.647 OA
HETATM   19  O3  UNL     1     -23.599 -15.691   7.638  1.00  0.00    -0.647 OA
ENDBRANCH  16  17
ENDBRANCH  14  16
ENDBRANCH   8  12
TORSDOF 3
ENDMDL
