MODEL 3
REMARK VINA RESULT: -6.450836751      1.310      1.595
REMARK  3 active torsions:
REMARK  status: ('A' for Active; 'I' for Inactive)
REMARK    1  A    between atoms: C5_8  and  C6_9 
REMARK       I    between atoms: C6_9  and  N3_11 
REMARK    2  A    between atoms: N3_11  and  C7_13 
REMARK    3  A    between atoms: C7_13  and  C8_14 
ROOT
HETATM    1  N1  UNL     1     -32.271 -20.018  11.038  1.00  0.00    -0.074 NA
HETATM    2  C1  UNL     1     -31.071 -19.242  10.943  1.00  0.00     0.159 A 
HETATM    3  N2  UNL     1     -30.338 -18.766  11.932  1.00  0.00    -0.338 N 
ATOM      4  H2  UNL     1     -30.614 -18.941  12.899  1.00  0.00     0.167 HD
HETATM    5  C2  UNL     1     -29.263 -18.073  11.676  1.00  0.00     0.051 A 
HETATM    6  C3  UNL     1     -28.399 -17.511  12.640  1.00  0.00     0.032 A 
HETATM    7  C4  UNL     1     -27.305 -16.806  12.215  1.00  0.00     0.019 A 
HETATM    8  C5  UNL     1     -26.953 -16.582  10.898  1.00  0.00     0.033 A 
HETATM    9  C9  UNL     1     -27.812 -17.140   9.964  1.00  0.00     0.038 A 
HETATM   10  C10 UNL     1     -28.943 -17.869  10.361  1.00  0.00     0.035 A 
HETATM   11  S1  UNL     1     -30.215 -18.693   9.568  1.00  0.00    -0.055 SA
ENDROOT
BRANCH   8  12
HETATM   12  C6  UNL     1     -25.783 -15.827  10.510  1.00  0.00     0.252 C 
HETATM   13  O1  UNL     1     -25.316 -16.019   9.356  1.00  0.00    -0.268 OA
HETATM   14  N3  UNL     1     -25.158 -14.904  11.350  1.00  0.00    -0.347 N 
ATOM     15  H3  UNL     1     -25.556 -14.767  12.280  1.00  0.00     0.163 HD
BRANCH  14  16
HETATM   16  C7  UNL     1     -23.989 -14.130  11.002  1.00  0.00     0.236 C 
BRANCH  16  17
HETATM   17  C8  UNL     1     -24.270 -12.980  10.163  1.00  0.00     0.191 C 
HETATM   18  O2  UNL     1     -25.133 -12.146  10.508  1.00  0.00    -0.647 OA
HETATM   19  O3  UNL     1     -23.595 -12.791   8.977  1.00  0.00    -0.647 OA
ENDBRANCH  16  17
ENDBRANCH  14  16
ENDBRANCH   8  12
TORSDOF 3
ENDMDL
