MODEL 7
REMARK VINA RESULT: -6.183811106      3.683      6.867
REMARK  3 active torsions:
REMARK  status: ('A' for Active; 'I' for Inactive)
REMARK    1  A    between atoms: C5_8  and  C6_9 
REMARK       I    between atoms: C6_9  and  N3_11 
REMARK    2  A    between atoms: N3_11  and  C7_13 
REMARK    3  A    between atoms: C7_13  and  C8_14 
ROOT
HETATM    1  N1  UNL     1     -21.997 -12.888   9.053  1.00  0.00    -0.074 NA
HETATM    2  C1  UNL     1     -23.203 -13.534   9.479  1.00  0.00     0.159 A 
HETATM    3  N2  UNL     1     -24.149 -13.041  10.256  1.00  0.00    -0.338 N 
ATOM      4  H2  UNL     1     -24.063 -12.094  10.625  1.00  0.00     0.167 HD
HETATM    5  C2  UNL     1     -25.195 -13.763  10.552  1.00  0.00     0.051 A 
HETATM    6  C3  UNL     1     -26.271 -13.354  11.368  1.00  0.00     0.032 A 
HETATM    7  C4  UNL     1     -27.302 -14.228  11.588  1.00  0.00     0.019 A 
HETATM    8  C5  UNL     1     -27.396 -15.508  11.077  1.00  0.00     0.033 A 
HETATM    9  C9  UNL     1     -26.331 -15.895  10.278  1.00  0.00     0.038 A 
HETATM   10  C10 UNL     1     -25.257 -15.026  10.029  1.00  0.00     0.035 A 
HETATM   11  S1  UNL     1     -23.800 -15.099   9.137  1.00  0.00    -0.055 SA
ENDROOT
BRANCH   8  12
HETATM   12  C6  UNL     1     -28.512 -16.387  11.346  1.00  0.00     0.252 C 
HETATM   13  O1  UNL     1     -29.612 -15.861  11.657  1.00  0.00    -0.268 OA
HETATM   14  N3  UNL     1     -28.419 -17.778  11.275  1.00  0.00    -0.347 N 
ATOM     15  H3  UNL     1     -27.516 -18.179  11.020  1.00  0.00     0.163 HD
BRANCH  14  16
HETATM   16  C7  UNL     1     -29.508 -18.692  11.535  1.00  0.00     0.236 C 
BRANCH  16  17
HETATM   17  C8  UNL     1     -30.185 -19.161  10.340  1.00  0.00     0.191 C 
HETATM   18  O2  UNL     1     -29.572 -19.221   9.255  1.00  0.00    -0.647 OA
HETATM   19  O3  UNL     1     -31.506 -19.546  10.385  1.00  0.00    -0.647 OA
ENDBRANCH  16  17
ENDBRANCH  14  16
ENDBRANCH   8  12
TORSDOF 3
ENDMDL
