MODEL 2
REMARK VINA RESULT: -6.808919003      1.124      1.360
REMARK  3 active torsions:
REMARK  status: ('A' for Active; 'I' for Inactive)
REMARK    1  A    between atoms: C5_8  and  C6_9 
REMARK       I    between atoms: C6_9  and  N3_11 
REMARK    2  A    between atoms: N3_11  and  C7_13 
REMARK    3  A    between atoms: C7_13  and  C8_14 
ROOT
HETATM    1  N1  UNL     1     -32.117 -20.189  10.848  1.00  0.00    -0.074 NA
HETATM    2  C1  UNL     1     -30.977 -19.321  10.820  1.00  0.00     0.159 A 
HETATM    3  N2  UNL     1     -30.187 -18.997  11.826  1.00  0.00    -0.338 N 
ATOM      4  H2  UNL     1     -30.362 -19.380  12.755  1.00  0.00     0.167 HD
HETATM    5  C2  UNL     1     -29.182 -18.187  11.634  1.00  0.00     0.051 A 
HETATM    6  C3  UNL     1     -28.267 -17.764  12.622  1.00  0.00     0.032 A 
HETATM    7  C4  UNL     1     -27.260 -16.908  12.266  1.00  0.00     0.019 A 
HETATM    8  C5  UNL     1     -27.043 -16.402  10.999  1.00  0.00     0.033 A 
HETATM    9  C9  UNL     1     -27.950 -16.826  10.040  1.00  0.00     0.038 A 
HETATM   10  C10 UNL     1     -28.995 -17.703  10.367  1.00  0.00     0.035 A 
HETATM   11  S1  UNL     1     -30.284 -18.447   9.525  1.00  0.00    -0.055 SA
ENDROOT
BRANCH   8  12
HETATM   12  C6  UNL     1     -25.960 -15.498  10.683  1.00  0.00     0.252 C 
HETATM   13  O1  UNL     1     -25.733 -14.551  11.481  1.00  0.00    -0.268 OA
HETATM   14  N3  UNL     1     -25.164 -15.633   9.544  1.00  0.00    -0.347 N 
ATOM     15  H3  UNL     1     -25.368 -16.409   8.914  1.00  0.00     0.163 HD
BRANCH  14  16
HETATM   16  C7  UNL     1     -24.073 -14.753   9.192  1.00  0.00     0.236 C 
BRANCH  16  17
HETATM   17  C8  UNL     1     -22.807 -15.105   9.808  1.00  0.00     0.191 C 
HETATM   18  O2  UNL     1     -22.093 -15.999   9.309  1.00  0.00    -0.647 OA
HETATM   19  O3  UNL     1     -22.376 -14.463  10.947  1.00  0.00    -0.647 OA
ENDBRANCH  16  17
ENDBRANCH  14  16
ENDBRANCH   8  12
TORSDOF 3
ENDMDL
