MODEL 8
REMARK VINA RESULT: -6.147132519      1.338      1.503
REMARK  3 active torsions:
REMARK  status: ('A' for Active; 'I' for Inactive)
REMARK    1  A    between atoms: C5_8  and  C6_9 
REMARK       I    between atoms: C6_9  and  N3_11 
REMARK    2  A    between atoms: N3_11  and  C7_13 
REMARK    3  A    between atoms: C7_13  and  C8_14 
ROOT
HETATM    1  N1  UNL     1     -31.717 -20.113  10.628  1.00  0.00    -0.074 NA
HETATM    2  C1  UNL     1     -30.782 -19.028  10.645  1.00  0.00     0.159 A 
HETATM    3  N2  UNL     1     -30.293 -18.402  11.699  1.00  0.00    -0.338 N 
ATOM      4  H2  UNL     1     -30.581 -18.683  12.637  1.00  0.00     0.167 HD
HETATM    5  C2  UNL     1     -29.442 -17.426  11.545  1.00  0.00     0.051 A 
HETATM    6  C3  UNL     1     -28.849 -16.680  12.587  1.00  0.00     0.032 A 
HETATM    7  C4  UNL     1     -27.970 -15.681  12.265  1.00  0.00     0.019 A 
HETATM    8  C5  UNL     1     -27.595 -15.318  10.987  1.00  0.00     0.033 A 
HETATM    9  C9  UNL     1     -28.187 -16.059   9.975  1.00  0.00     0.038 A 
HETATM   10  C10 UNL     1     -29.092 -17.092  10.265  1.00  0.00     0.035 A 
HETATM   11  S1  UNL     1     -30.013 -18.209   9.356  1.00  0.00    -0.055 SA
ENDROOT
BRANCH   8  12
HETATM   12  C6  UNL     1     -26.661 -14.250  10.709  1.00  0.00     0.252 C 
HETATM   13  O1  UNL     1     -27.130 -13.108  10.465  1.00  0.00    -0.268 OA
HETATM   14  N3  UNL     1     -25.277 -14.432  10.702  1.00  0.00    -0.347 N 
ATOM     15  H3  UNL     1     -24.922 -15.368  10.903  1.00  0.00     0.163 HD
BRANCH  14  16
HETATM   16  C7  UNL     1     -24.309 -13.394  10.430  1.00  0.00     0.236 C 
BRANCH  16  17
HETATM   17  C8  UNL     1     -23.660 -13.514   9.138  1.00  0.00     0.191 C 
HETATM   18  O2  UNL     1     -24.166 -14.225   8.245  1.00  0.00    -0.647 OA
HETATM   19  O3  UNL     1     -22.482 -12.852   8.877  1.00  0.00    -0.647 OA
ENDBRANCH  16  17
ENDBRANCH  14  16
ENDBRANCH   8  12
TORSDOF 3
ENDMDL
