MODEL 9
REMARK VINA RESULT: -6.129929604      4.591      6.838
REMARK  3 active torsions:
REMARK  status: ('A' for Active; 'I' for Inactive)
REMARK    1  A    between atoms: C5_8  and  C6_9 
REMARK       I    between atoms: C6_9  and  N3_11 
REMARK    2  A    between atoms: N3_11  and  C7_13 
REMARK    3  A    between atoms: C7_13  and  C8_14 
ROOT
HETATM    1  N1  UNL     1     -28.524  -9.573  13.604  1.00  0.00    -0.074 NA
HETATM    2  C1  UNL     1     -28.529 -10.895  13.051  1.00  0.00     0.159 A 
HETATM    3  N2  UNL     1     -27.635 -11.433  12.243  1.00  0.00    -0.338 N 
ATOM      4  H2  UNL     1     -26.825 -10.889  11.944  1.00  0.00     0.167 HD
HETATM    5  C2  UNL     1     -27.785 -12.660  11.825  1.00  0.00     0.051 A 
HETATM    6  C3  UNL     1     -26.904 -13.348  10.963  1.00  0.00     0.032 A 
HETATM    7  C4  UNL     1     -27.198 -14.638  10.612  1.00  0.00     0.019 A 
HETATM    8  C5  UNL     1     -28.303 -15.355  11.029  1.00  0.00     0.033 A 
HETATM    9  C9  UNL     1     -29.158 -14.665  11.875  1.00  0.00     0.038 A 
HETATM   10  C10 UNL     1     -28.890 -13.342  12.257  1.00  0.00     0.035 A 
HETATM   11  S1  UNL     1     -29.650 -12.170  13.244  1.00  0.00    -0.055 SA
ENDROOT
BRANCH   8  12
HETATM   12  C6  UNL     1     -28.561 -16.718  10.623  1.00  0.00     0.252 C 
HETATM   13  O1  UNL     1     -27.902 -17.177   9.653  1.00  0.00    -0.268 OA
HETATM   14  N3  UNL     1     -29.498 -17.537  11.255  1.00  0.00    -0.347 N 
ATOM     15  H3  UNL     1     -30.018 -17.141  12.039  1.00  0.00     0.163 HD
BRANCH  14  16
HETATM   16  C7  UNL     1     -29.786 -18.903  10.882  1.00  0.00     0.236 C 
BRANCH  16  17
HETATM   17  C8  UNL     1     -30.944 -19.048  10.019  1.00  0.00     0.191 C 
HETATM   18  O2  UNL     1     -31.936 -19.699  10.405  1.00  0.00    -0.647 OA
HETATM   19  O3  UNL     1     -30.965 -18.474   8.767  1.00  0.00    -0.647 OA
ENDBRANCH  16  17
ENDBRANCH  14  16
ENDBRANCH   8  12
TORSDOF 3
ENDMDL
