MODEL 6
REMARK VINA RESULT: -6.284667767      1.515      1.945
REMARK  3 active torsions:
REMARK  status: ('A' for Active; 'I' for Inactive)
REMARK    1  A    between atoms: C5_8  and  C6_9 
REMARK       I    between atoms: C6_9  and  N3_11 
REMARK    2  A    between atoms: N3_11  and  C7_13 
REMARK    3  A    between atoms: C7_13  and  C8_14 
ROOT
HETATM    1  N1  UNL     1     -32.180 -20.029  11.102  1.00  0.00    -0.074 NA
HETATM    2  C1  UNL     1     -31.003 -19.223  10.974  1.00  0.00     0.159 A 
HETATM    3  N2  UNL     1     -30.258 -18.726  11.943  1.00  0.00    -0.338 N 
ATOM      4  H2  UNL     1     -30.504 -18.904  12.917  1.00  0.00     0.167 HD
HETATM    5  C2  UNL     1     -29.208 -18.006  11.657  1.00  0.00     0.051 A 
HETATM    6  C3  UNL     1     -28.334 -17.419  12.598  1.00  0.00     0.032 A 
HETATM    7  C4  UNL     1     -27.269 -16.688  12.142  1.00  0.00     0.019 A 
HETATM    8  C5  UNL     1     -26.957 -16.459  10.817  1.00  0.00     0.033 A 
HETATM    9  C9  UNL     1     -27.826 -17.041   9.906  1.00  0.00     0.038 A 
HETATM   10  C10 UNL     1     -28.927 -17.798  10.334  1.00  0.00     0.035 A 
HETATM   11  S1  UNL     1     -30.197 -18.656   9.577  1.00  0.00    -0.055 SA
ENDROOT
BRANCH   8  12
HETATM   12  C6  UNL     1     -25.818 -15.675  10.396  1.00  0.00     0.252 C 
HETATM   13  O1  UNL     1     -25.204 -16.040   9.359  1.00  0.00    -0.268 OA
HETATM   14  N3  UNL     1     -25.376 -14.544  11.084  1.00  0.00    -0.347 N 
ATOM     15  H3  UNL     1     -25.890 -14.269  11.922  1.00  0.00     0.163 HD
BRANCH  14  16
HETATM   16  C7  UNL     1     -24.243 -13.734  10.699  1.00  0.00     0.236 C 
BRANCH  16  17
HETATM   17  C8  UNL     1     -22.977 -14.192  11.241  1.00  0.00     0.191 C 
HETATM   18  O2  UNL     1     -22.144 -14.755  10.501  1.00  0.00    -0.647 OA
HETATM   19  O3  UNL     1     -22.676 -14.014  12.573  1.00  0.00    -0.647 OA
ENDBRANCH  16  17
ENDBRANCH  14  16
ENDBRANCH   8  12
TORSDOF 3
ENDMDL
