MODEL 10
REMARK VINA RESULT: -6.059149899      4.434      6.521
REMARK  3 active torsions:
REMARK  status: ('A' for Active; 'I' for Inactive)
REMARK    1  A    between atoms: C5_8  and  C6_9 
REMARK       I    between atoms: C6_9  and  N3_11 
REMARK    2  A    between atoms: N3_11  and  C7_13 
REMARK    3  A    between atoms: C7_13  and  C8_14 
ROOT
HETATM    1  N1  UNL     1     -29.182 -19.091   8.468  1.00  0.00    -0.074 NA
HETATM    2  C1  UNL     1     -29.158 -18.152   9.550  1.00  0.00     0.159 A 
HETATM    3  N2  UNL     1     -28.977 -16.846   9.479  1.00  0.00    -0.338 N 
ATOM      4  H2  UNL     1     -28.832 -16.400   8.573  1.00  0.00     0.167 HD
HETATM    5  C2  UNL     1     -28.984 -16.125  10.566  1.00  0.00     0.051 A 
HETATM    6  C3  UNL     1     -28.802 -14.726  10.625  1.00  0.00     0.032 A 
HETATM    7  C4  UNL     1     -28.835 -14.108  11.846  1.00  0.00     0.019 A 
HETATM    8  C5  UNL     1     -29.033 -14.733  13.062  1.00  0.00     0.033 A 
HETATM    9  C9  UNL     1     -29.209 -16.107  12.986  1.00  0.00     0.038 A 
HETATM   10  C10 UNL     1     -29.183 -16.776  11.753  1.00  0.00     0.035 A 
HETATM   11  S1  UNL     1     -29.349 -18.396  11.231  1.00  0.00    -0.055 SA
ENDROOT
BRANCH   8  12
HETATM   12  C6  UNL     1     -29.057 -14.025  14.321  1.00  0.00     0.252 C 
HETATM   13  O1  UNL     1     -28.135 -13.198  14.548  1.00  0.00    -0.268 OA
HETATM   14  N3  UNL     1     -30.048 -14.218  15.285  1.00  0.00    -0.347 N 
ATOM     15  H3  UNL     1     -30.785 -14.893  15.077  1.00  0.00     0.163 HD
BRANCH  14  16
HETATM   16  C7  UNL     1     -30.109 -13.531  16.555  1.00  0.00     0.236 C 
BRANCH  16  17
HETATM   17  C8  UNL     1     -30.637 -14.340  17.639  1.00  0.00     0.191 C 
HETATM   18  O2  UNL     1     -31.058 -13.796  18.680  1.00  0.00    -0.647 OA
HETATM   19  O3  UNL     1     -30.680 -15.712  17.537  1.00  0.00    -0.647 OA
ENDBRANCH  16  17
ENDBRANCH  14  16
ENDBRANCH   8  12
TORSDOF 3
ENDMDL
