MODEL 1
REMARK VINA RESULT: -7.314767019      0.000      0.000
REMARK  7 active torsions:
REMARK  status: ('A' for Active; 'I' for Inactive)
REMARK    1  A    between atoms: C2_2  and  C5_14 
REMARK    2  A    between atoms: C3_3  and  C4_4 
REMARK    3  A    between atoms: C4_4  and  O1_5 
REMARK    4  A    between atoms: O1_5  and  P1_6 
REMARK    5  A    between atoms: P1_6  and  O4_9 
REMARK    6  A    between atoms: O4_9  and  P2_10 
REMARK    7  A    between atoms: C5_14  and  N1_15 
ROOT
HETATM    1  C4  UNL     1     -27.470  -1.882 -14.273  1.00  0.00     0.209 C 
ENDROOT
BRANCH   1   2
HETATM    2  C3  UNL     1     -28.277  -0.652 -14.231  1.00  0.00     0.004 C 
HETATM    3  C2  UNL     1     -29.557  -0.620 -14.563  1.00  0.00    -0.060 C 
HETATM    4  C1  UNL     1     -30.210  -1.881 -14.999  1.00  0.00     0.045 C 
BRANCH   3   5
HETATM    5  C5  UNL     1     -30.312   0.660 -14.498  1.00  0.00     0.263 C 
BRANCH   5   6
HETATM    6  N1  UNL     1     -29.634   1.667 -13.740  1.00  0.00    -0.076 N 
ATOM      7  H13 UNL     1     -29.558   1.397 -12.759  1.00  0.00     0.274 HD
ATOM      8  H12 UNL     1     -28.643   1.699 -13.979  1.00  0.00     0.274 HD
ATOM      9  H11 UNL     1     -30.062   2.588 -13.832  1.00  0.00     0.274 HD
ENDBRANCH   5   6
ENDBRANCH   3   5
ENDBRANCH   1   2
BRANCH   1  10
HETATM   10  O1  UNL     1     -26.231  -1.684 -14.926  1.00  0.00    -0.286 OA
BRANCH  10  11
HETATM   11  P1  UNL     1     -26.538  -1.914 -16.577  1.00  0.00     0.418 P 
HETATM   12  O2  UNL     1     -27.445  -3.127 -16.706  1.00  0.00    -0.624 OA
HETATM   13  O3  UNL     1     -25.062  -2.194 -17.335  1.00  0.00    -0.624 OA
BRANCH  11  14
HETATM   14  O4  UNL     1     -27.242  -0.552 -17.277  1.00  0.00    -0.173 OA
BRANCH  14  15
HETATM   15  P2  UNL     1     -26.099   0.693 -17.221  1.00  0.00     0.431 P 
HETATM   16  O5  UNL     1     -24.823   0.243 -16.551  1.00  0.00    -0.616 OA
HETATM   17  O6  UNL     1     -26.810   2.000 -16.432  1.00  0.00    -0.616 OA
HETATM   18  O7  UNL     1     -25.759   1.153 -18.801  1.00  0.00    -0.616 OA
ENDBRANCH  14  15
ENDBRANCH  11  14
ENDBRANCH  10  11
ENDBRANCH   1  10
TORSDOF 7
ENDMDL
