MODEL 3
REMARK VINA RESULT: -6.960768017      0.415      1.257
REMARK  7 active torsions:
REMARK  status: ('A' for Active; 'I' for Inactive)
REMARK    1  A    between atoms: C2_2  and  C5_14 
REMARK    2  A    between atoms: C3_3  and  C4_4 
REMARK    3  A    between atoms: C4_4  and  O1_5 
REMARK    4  A    between atoms: O1_5  and  P1_6 
REMARK    5  A    between atoms: P1_6  and  O4_9 
REMARK    6  A    between atoms: O4_9  and  P2_10 
REMARK    7  A    between atoms: C5_14  and  N1_15 
ROOT
HETATM    1  C4  UNL     1     -27.485  -1.895 -14.287  1.00  0.00     0.209 C 
ENDROOT
BRANCH   1   2
HETATM    2  C3  UNL     1     -28.276  -0.654 -14.255  1.00  0.00     0.004 C 
HETATM    3  C2  UNL     1     -29.560  -0.612 -14.571  1.00  0.00    -0.060 C 
HETATM    4  C1  UNL     1     -30.234  -1.871 -14.978  1.00  0.00     0.045 C 
BRANCH   3   5
HETATM    5  C5  UNL     1     -30.298   0.678 -14.517  1.00  0.00     0.263 C 
BRANCH   5   6
HETATM    6  N1  UNL     1     -29.698   1.697 -15.324  1.00  0.00    -0.076 N 
ATOM      7  H13 UNL     1     -28.733   1.868 -15.039  1.00  0.00     0.274 HD
ATOM      8  H12 UNL     1     -29.533   1.361 -16.273  1.00  0.00     0.274 HD
ATOM      9  H11 UNL     1     -30.235   2.564 -15.332  1.00  0.00     0.274 HD
ENDBRANCH   5   6
ENDBRANCH   3   5
ENDBRANCH   1   2
BRANCH   1  10
HETATM   10  O1  UNL     1     -26.239  -1.715 -14.933  1.00  0.00    -0.286 OA
BRANCH  10  11
HETATM   11  P1  UNL     1     -26.549  -1.897 -16.590  1.00  0.00     0.418 P 
HETATM   12  O2  UNL     1     -27.417  -3.132 -16.757  1.00  0.00    -0.624 OA
HETATM   13  O3  UNL     1     -25.068  -2.102 -17.364  1.00  0.00    -0.624 OA
BRANCH  11  14
HETATM   14  O4  UNL     1     -27.298  -0.533 -17.238  1.00  0.00    -0.173 OA
BRANCH  14  15
HETATM   15  P2  UNL     1     -26.150   0.708 -17.272  1.00  0.00     0.431 P 
HETATM   16  O5  UNL     1     -25.827   1.123 -18.688  1.00  0.00    -0.616 OA
HETATM   17  O6  UNL     1     -24.792   0.168 -16.438  1.00  0.00    -0.616 OA
HETATM   18  O7  UNL     1     -26.789   2.023 -16.445  1.00  0.00    -0.616 OA
ENDBRANCH  14  15
ENDBRANCH  11  14
ENDBRANCH  10  11
ENDBRANCH   1  10
TORSDOF 7
ENDMDL
