MODEL 2
REMARK VINA RESULT: -7.137917023      0.214      1.185
REMARK  7 active torsions:
REMARK  status: ('A' for Active; 'I' for Inactive)
REMARK    1  A    between atoms: C2_2  and  C5_14 
REMARK    2  A    between atoms: C3_3  and  C4_4 
REMARK    3  A    between atoms: C4_4  and  O1_5 
REMARK    4  A    between atoms: O1_5  and  P1_6 
REMARK    5  A    between atoms: P1_6  and  O4_9 
REMARK    6  A    between atoms: O4_9  and  P2_10 
REMARK    7  A    between atoms: C5_14  and  N1_15 
ROOT
HETATM    1  C4  UNL     1     -27.517  -1.685 -14.341  1.00  0.00     0.209 C 
ENDROOT
BRANCH   1   2
HETATM    2  C3  UNL     1     -28.401  -0.511 -14.264  1.00  0.00     0.004 C 
HETATM    3  C2  UNL     1     -29.687  -0.558 -14.568  1.00  0.00    -0.060 C 
HETATM    4  C1  UNL     1     -30.267  -1.853 -15.006  1.00  0.00     0.045 C 
BRANCH   3   5
HETATM    5  C5  UNL     1     -30.522   0.669 -14.469  1.00  0.00     0.263 C 
BRANCH   5   6
HETATM    6  N1  UNL     1     -29.929   1.679 -13.646  1.00  0.00    -0.076 N 
ATOM      7  H13 UNL     1     -29.332   2.296 -14.197  1.00  0.00     0.274 HD
ATOM      8  H12 UNL     1     -30.628   2.355 -13.338  1.00  0.00     0.274 HD
ATOM      9  H11 UNL     1     -29.420   1.293 -12.851  1.00  0.00     0.274 HD
ENDBRANCH   5   6
ENDBRANCH   3   5
ENDBRANCH   1   2
BRANCH   1  10
HETATM   10  O1  UNL     1     -26.297  -1.392 -14.993  1.00  0.00    -0.286 OA
BRANCH  10  11
HETATM   11  P1  UNL     1     -26.496  -1.909 -16.596  1.00  0.00     0.418 P 
HETATM   12  O2  UNL     1     -27.416  -3.117 -16.572  1.00  0.00    -0.624 OA
HETATM   13  O3  UNL     1     -24.977  -2.329 -17.187  1.00  0.00    -0.624 OA
BRANCH  11  14
HETATM   14  O4  UNL     1     -27.123  -0.686 -17.572  1.00  0.00    -0.173 OA
BRANCH  14  15
HETATM   15  P2  UNL     1     -26.182   0.696 -17.319  1.00  0.00     0.431 P 
HETATM   16  O5  UNL     1     -26.895   1.697 -16.441  1.00  0.00    -0.616 OA
HETATM   17  O6  UNL     1     -25.795   1.332 -18.829  1.00  0.00    -0.616 OA
HETATM   18  O7  UNL     1     -24.757   0.219 -16.568  1.00  0.00    -0.616 OA
ENDBRANCH  14  15
ENDBRANCH  11  14
ENDBRANCH  10  11
ENDBRANCH   1  10
TORSDOF 7
ENDMDL
