MODEL 4
REMARK VINA RESULT: -6.015567397      0.896      1.190
REMARK  7 active torsions:
REMARK  status: ('A' for Active; 'I' for Inactive)
REMARK    1  A    between atoms: C2_2  and  C5_14 
REMARK    2  A    between atoms: C3_3  and  C4_4 
REMARK    3  A    between atoms: C4_4  and  O1_5 
REMARK    4  A    between atoms: O1_5  and  P1_6 
REMARK    5  A    between atoms: P1_6  and  O4_9 
REMARK    6  A    between atoms: O4_9  and  P2_10 
REMARK    7  A    between atoms: C5_14  and  N1_15 
ROOT
HETATM    1  C4  UNL     1     -26.943  -1.090 -14.323  1.00  0.00     0.209 C 
ENDROOT
BRANCH   1   2
HETATM    2  C3  UNL     1     -28.396  -1.288 -14.448  1.00  0.00     0.004 C 
HETATM    3  C2  UNL     1     -29.265  -0.292 -14.388  1.00  0.00    -0.060 C 
HETATM    4  C1  UNL     1     -28.753   1.088 -14.186  1.00  0.00     0.045 C 
BRANCH   3   5
HETATM    5  C5  UNL     1     -30.721  -0.564 -14.521  1.00  0.00     0.263 C 
BRANCH   5   6
HETATM    6  N1  UNL     1     -31.516   0.212 -13.619  1.00  0.00    -0.076 N 
ATOM      7  H13 UNL     1     -31.072   1.109 -13.419  1.00  0.00     0.274 HD
ATOM      8  H12 UNL     1     -32.365   0.546 -14.075  1.00  0.00     0.274 HD
ATOM      9  H11 UNL     1     -31.737  -0.285 -12.756  1.00  0.00     0.274 HD
ENDBRANCH   5   6
ENDBRANCH   3   5
ENDBRANCH   1   2
BRANCH   1  10
HETATM   10  O1  UNL     1     -26.209  -2.103 -14.983  1.00  0.00    -0.286 OA
BRANCH  10  11
HETATM   11  P1  UNL     1     -26.524  -1.897 -16.636  1.00  0.00     0.418 P 
HETATM   12  O2  UNL     1     -27.410  -3.050 -17.078  1.00  0.00    -0.624 OA
HETATM   13  O3  UNL     1     -25.048  -1.938 -17.444  1.00  0.00    -0.624 OA
BRANCH  11  14
HETATM   14  O4  UNL     1     -27.256  -0.412 -16.951  1.00  0.00    -0.173 OA
BRANCH  14  15
HETATM   15  P2  UNL     1     -26.023   0.724 -17.171  1.00  0.00     0.431 P 
HETATM   16  O5  UNL     1     -24.712   0.233 -16.607  1.00  0.00    -0.616 OA
HETATM   17  O6  UNL     1     -26.526   2.165 -16.460  1.00  0.00    -0.616 OA
HETATM   18  O7  UNL     1     -25.850   0.984 -18.822  1.00  0.00    -0.616 OA
ENDBRANCH  14  15
ENDBRANCH  11  14
ENDBRANCH  10  11
ENDBRANCH   1  10
TORSDOF 7
ENDMDL
