MODEL 5
REMARK VINA RESULT: -5.704935034      0.643      1.486
REMARK  7 active torsions:
REMARK  status: ('A' for Active; 'I' for Inactive)
REMARK    1  A    between atoms: C2_2  and  C5_14 
REMARK    2  A    between atoms: C3_3  and  C4_4 
REMARK    3  A    between atoms: C4_4  and  O1_5 
REMARK    4  A    between atoms: O1_5  and  P1_6 
REMARK    5  A    between atoms: P1_6  and  O4_9 
REMARK    6  A    between atoms: O4_9  and  P2_10 
REMARK    7  A    between atoms: C5_14  and  N1_15 
ROOT
HETATM    1  C4  UNL     1     -28.267  -2.793 -15.042  1.00  0.00     0.209 C 
ENDROOT
BRANCH   1   2
HETATM    2  C3  UNL     1     -29.489  -1.974 -15.004  1.00  0.00     0.004 C 
HETATM    3  C2  UNL     1     -29.508  -0.734 -14.544  1.00  0.00    -0.060 C 
HETATM    4  C1  UNL     1     -28.242  -0.141 -14.043  1.00  0.00     0.045 C 
BRANCH   3   5
HETATM    5  C5  UNL     1     -30.780   0.037 -14.534  1.00  0.00     0.263 C 
BRANCH   5   6
HETATM    6  N1  UNL     1     -30.573   1.452 -14.604  1.00  0.00    -0.076 N 
ATOM      7  H13 UNL     1     -29.605   1.690 -14.390  1.00  0.00     0.274 HD
ATOM      8  H12 UNL     1     -30.615   1.780 -15.569  1.00  0.00     0.274 HD
ATOM      9  H11 UNL     1     -31.217   1.976 -14.012  1.00  0.00     0.274 HD
ENDBRANCH   5   6
ENDBRANCH   3   5
ENDBRANCH   1   2
BRANCH   1  10
HETATM   10  O1  UNL     1     -27.826  -3.030 -16.366  1.00  0.00    -0.286 OA
BRANCH  10  11
HETATM   11  P1  UNL     1     -26.614  -1.882 -16.660  1.00  0.00     0.418 P 
HETATM   12  O2  UNL     1     -25.568  -2.542 -17.543  1.00  0.00    -0.624 OA
HETATM   13  O3  UNL     1     -25.950  -1.452 -15.174  1.00  0.00    -0.624 OA
BRANCH  11  14
HETATM   14  O4  UNL     1     -27.233  -0.492 -17.384  1.00  0.00    -0.173 OA
BRANCH  14  15
HETATM   15  P2  UNL     1     -26.032   0.695 -17.310  1.00  0.00     0.431 P 
HETATM   16  O5  UNL     1     -24.746   0.146 -16.740  1.00  0.00    -0.616 OA
HETATM   17  O6  UNL     1     -26.639   1.977 -16.404  1.00  0.00    -0.616 OA
HETATM   18  O7  UNL     1     -25.751   1.243 -18.874  1.00  0.00    -0.616 OA
ENDBRANCH  14  15
ENDBRANCH  11  14
ENDBRANCH  10  11
ENDBRANCH   1  10
TORSDOF 7
ENDMDL
