MODEL 15
REMARK VINA RESULT: -4.882861750      2.639      4.010
REMARK  3 active torsions:
REMARK  status: ('A' for Active; 'I' for Inactive)
REMARK    1  A    between atoms: C2_2  and  C4_4 
REMARK    2  A    between atoms: C4_4  and  C5_5 
REMARK    3  A    between atoms: C5_5  and  C6_7 
ROOT
HETATM    1  C5  UNL     1      -9.963 -31.859  18.769  1.00  0.00     0.225 C 
HETATM    2  O1  UNL     1     -10.169 -30.676  19.140  1.00  0.00    -0.286 OA
ENDROOT
BRANCH   1   3
HETATM    3  C4  UNL     1     -10.269 -32.256  17.371  1.00  0.00     0.094 C 
BRANCH   3   4
HETATM    4  C2  UNL     1      -9.042 -32.120  16.498  1.00  0.00    -0.015 C 
HETATM    5  C1  UNL     1      -9.457 -31.261  15.303  1.00  0.00     0.010 C 
HETATM    6  C3  UNL     1      -8.601 -33.487  16.050  1.00  0.00     0.010 C 
ENDBRANCH   3   4
ENDBRANCH   1   3
BRANCH   1   7
HETATM    7  C6  UNL     1      -9.427 -32.861  19.673  1.00  0.00     0.246 C 
HETATM    8  O2  UNL     1      -8.269 -33.333  19.588  1.00  0.00    -0.642 OA
HETATM    9  O3  UNL     1     -10.245 -33.325  20.690  1.00  0.00    -0.642 OA
ENDBRANCH   1   7
TORSDOF 3
ENDMDL
