MODEL 14
REMARK VINA RESULT: -5.122078797      1.555      2.082
REMARK  3 active torsions:
REMARK  status: ('A' for Active; 'I' for Inactive)
REMARK    1  A    between atoms: C2_2  and  C4_4 
REMARK    2  A    between atoms: C4_4  and  C5_5 
REMARK    3  A    between atoms: C5_5  and  C6_7 
ROOT
HETATM    1  C5  UNL     1      -8.231 -32.617  15.722  1.00  0.00     0.225 C 
HETATM    2  O1  UNL     1      -8.000 -33.796  15.355  1.00  0.00    -0.286 OA
ENDROOT
BRANCH   1   3
HETATM    3  C4  UNL     1      -8.647 -32.348  17.122  1.00  0.00     0.094 C 
BRANCH   3   4
HETATM    4  C2  UNL     1      -9.960 -31.599  17.153  1.00  0.00    -0.015 C 
HETATM    5  C1  UNL     1     -10.187 -31.188  18.608  1.00  0.00     0.010 C 
HETATM    6  C3  UNL     1     -11.059 -32.510  16.675  1.00  0.00     0.010 C 
ENDBRANCH   3   4
ENDBRANCH   1   3
BRANCH   1   7
HETATM    7  C6  UNL     1      -8.103 -31.494  14.809  1.00  0.00     0.246 C 
HETATM    8  O2  UNL     1      -7.166 -30.663  14.849  1.00  0.00    -0.642 OA
HETATM    9  O3  UNL     1      -9.075 -31.331  13.836  1.00  0.00    -0.642 OA
ENDBRANCH   1   7
TORSDOF 3
ENDMDL
