MODEL 2
REMARK VINA RESULT: -5.469709475      1.863      2.484
REMARK  3 active torsions:
REMARK  status: ('A' for Active; 'I' for Inactive)
REMARK    1  A    between atoms: C2_2  and  C4_4 
REMARK    2  A    between atoms: C4_4  and  C5_5 
REMARK    3  A    between atoms: C5_5  and  C6_7 
ROOT
HETATM    1  C5  UNL     1      -8.271 -32.059  14.994  1.00  0.00     0.225 C 
HETATM    2  O1  UNL     1      -7.566 -33.098  15.040  1.00  0.00    -0.286 OA
ENDROOT
BRANCH   1   3
HETATM    3  C4  UNL     1      -9.085 -31.669  16.173  1.00  0.00     0.094 C 
BRANCH   3   4
HETATM    4  C2  UNL     1      -9.781 -32.876  16.762  1.00  0.00    -0.015 C 
HETATM    5  C1  UNL     1     -11.270 -32.532  16.813  1.00  0.00     0.010 C 
HETATM    6  C3  UNL     1      -9.241 -33.132  18.143  1.00  0.00     0.010 C 
ENDBRANCH   3   4
ENDBRANCH   1   3
BRANCH   1   7
HETATM    7  C6  UNL     1      -8.314 -31.217  13.812  1.00  0.00     0.246 C 
HETATM    8  O2  UNL     1      -8.413 -31.657  12.643  1.00  0.00    -0.642 OA
HETATM    9  O3  UNL     1      -8.241 -29.845  13.986  1.00  0.00    -0.642 OA
ENDBRANCH   1   7
TORSDOF 3
ENDMDL
