MODEL 13
REMARK VINA RESULT: -5.204800114      1.781      2.330
REMARK  3 active torsions:
REMARK  status: ('A' for Active; 'I' for Inactive)
REMARK    1  A    between atoms: C2_2  and  C4_4 
REMARK    2  A    between atoms: C4_4  and  C5_5 
REMARK    3  A    between atoms: C5_5  and  C6_7 
ROOT
HETATM    1  C5  UNL     1      -9.082 -31.123  15.037  1.00  0.00     0.225 C 
HETATM    2  O1  UNL     1      -9.054 -29.868  15.100  1.00  0.00    -0.286 OA
ENDROOT
BRANCH   1   3
HETATM    3  C4  UNL     1      -9.997 -31.885  15.924  1.00  0.00     0.094 C 
BRANCH   3   4
HETATM    4  C2  UNL     1      -9.458 -31.923  17.337  1.00  0.00    -0.015 C 
HETATM    5  C1  UNL     1      -8.974 -33.353  17.575  1.00  0.00     0.010 C 
HETATM    6  C3  UNL     1     -10.561 -31.563  18.295  1.00  0.00     0.010 C 
ENDBRANCH   3   4
ENDBRANCH   1   3
BRANCH   1   7
HETATM    7  C6  UNL     1      -8.238 -31.860  14.112  1.00  0.00     0.246 C 
HETATM    8  O2  UNL     1      -7.400 -32.722  14.466  1.00  0.00    -0.642 OA
HETATM    9  O3  UNL     1      -8.367 -31.594  12.759  1.00  0.00    -0.642 OA
ENDBRANCH   1   7
TORSDOF 3
ENDMDL
