MODEL 3
REMARK VINA RESULT: -5.461367117      1.873      2.566
REMARK  3 active torsions:
REMARK  status: ('A' for Active; 'I' for Inactive)
REMARK    1  A    between atoms: C2_2  and  C4_4 
REMARK    2  A    between atoms: C4_4  and  C5_5 
REMARK    3  A    between atoms: C5_5  and  C6_7 
ROOT
HETATM    1  C5  UNL     1      -8.286 -32.008  15.008  1.00  0.00     0.225 C 
HETATM    2  O1  UNL     1      -7.596 -33.058  15.009  1.00  0.00    -0.286 OA
ENDROOT
BRANCH   1   3
HETATM    3  C4  UNL     1      -9.101 -31.661  16.200  1.00  0.00     0.094 C 
BRANCH   3   4
HETATM    4  C2  UNL     1      -9.777 -32.894  16.759  1.00  0.00    -0.015 C 
HETATM    5  C1  UNL     1     -11.270 -32.573  16.824  1.00  0.00     0.010 C 
HETATM    6  C3  UNL     1      -9.228 -33.178  18.131  1.00  0.00     0.010 C 
ENDBRANCH   3   4
ENDBRANCH   1   3
BRANCH   1   7
HETATM    7  C6  UNL     1      -8.312 -31.111  13.866  1.00  0.00     0.246 C 
HETATM    8  O2  UNL     1      -8.240 -29.864  13.954  1.00  0.00    -0.642 OA
HETATM    9  O3  UNL     1      -8.425 -31.668  12.603  1.00  0.00    -0.642 OA
ENDBRANCH   1   7
TORSDOF 3
ENDMDL
