MODEL 15
REMARK VINA RESULT: -6.100920002      3.326      5.080
REMARK  3 active torsions:
REMARK  status: ('A' for Active; 'I' for Inactive)
REMARK    1  A    between atoms: C1_2  and  C2_4 
REMARK    2  A    between atoms: C2_4  and  C3_6 
REMARK    3  A    between atoms: C3_6  and  C4_7 
ROOT
HETATM    1  C4  UNL     1      -8.874 -32.358  16.157  1.00  0.00    -0.056 A 
HETATM    2  C5  UNL     1      -9.339 -31.072  16.003  1.00  0.00     0.007 A 
HETATM    3  C6  UNL     1      -8.952 -30.255  14.962  1.00  0.00     0.001 A 
HETATM    4  C7  UNL     1      -8.064 -30.740  14.037  1.00  0.00     0.000 A 
HETATM    5  C8  UNL     1      -7.576 -32.004  14.146  1.00  0.00     0.001 A 
HETATM    6  C9  UNL     1      -7.985 -32.815  15.212  1.00  0.00     0.007 A 
ENDROOT
BRANCH   1   7
HETATM    7  C3  UNL     1      -9.323 -33.167  17.277  1.00  0.00     0.069 C 
BRANCH   7   8
HETATM    8  C2  UNL     1      -8.438 -33.101  18.495  1.00  0.00     0.187 C 
HETATM    9 CL1  UNL     1      -6.991 -32.121  18.238  1.00  0.00    -0.113 Cl
BRANCH   8  10
HETATM   10  C1  UNL     1      -9.227 -32.452  19.576  1.00  0.00     0.192 C 
HETATM   11  O1  UNL     1      -9.514 -31.228  19.603  1.00  0.00    -0.647 OA
HETATM   12  O2  UNL     1      -9.688 -33.225  20.633  1.00  0.00    -0.647 OA
ENDBRANCH   8  10
ENDBRANCH   7   8
ENDBRANCH   1   7
TORSDOF 3
ENDMDL
