MODEL 3
REMARK VINA RESULT: -7.084704838      1.555      2.200
REMARK  3 active torsions:
REMARK  status: ('A' for Active; 'I' for Inactive)
REMARK    1  A    between atoms: C1_2  and  C2_4 
REMARK    2  A    between atoms: C2_4  and  C3_6 
REMARK    3  A    between atoms: C3_6  and  C4_7 
ROOT
HETATM    1  C4  UNL     1      -9.599 -32.028  17.735  1.00  0.00    -0.056 A 
HETATM    2  C5  UNL     1     -10.356 -31.353  18.665  1.00  0.00     0.007 A 
HETATM    3  C6  UNL     1     -10.360 -31.676  20.006  1.00  0.00     0.001 A 
HETATM    4  C7  UNL     1      -9.577 -32.716  20.436  1.00  0.00     0.000 A 
HETATM    5  C8  UNL     1      -8.811 -33.413  19.556  1.00  0.00     0.001 A 
HETATM    6  C9  UNL     1      -8.824 -33.066  18.200  1.00  0.00     0.007 A 
ENDROOT
BRANCH   1   7
HETATM    7  C3  UNL     1      -9.641 -31.636  16.337  1.00  0.00     0.069 C 
BRANCH   7   8
HETATM    8  C2  UNL     1      -8.292 -31.527  15.674  1.00  0.00     0.187 C 
HETATM    9 CL1  UNL     1      -7.681 -33.084  15.106  1.00  0.00    -0.113 Cl
BRANCH   8  10
HETATM   10  C1  UNL     1      -8.459 -30.655  14.481  1.00  0.00     0.192 C 
HETATM   11  O1  UNL     1      -8.380 -29.400  14.507  1.00  0.00    -0.647 OA
HETATM   12  O2  UNL     1      -8.719 -31.238  13.248  1.00  0.00    -0.647 OA
ENDBRANCH   8  10
ENDBRANCH   7   8
ENDBRANCH   1   7
TORSDOF 3
ENDMDL
