MODEL 13
REMARK VINA RESULT: -6.322507669      3.334      5.155
REMARK  3 active torsions:
REMARK  status: ('A' for Active; 'I' for Inactive)
REMARK    1  A    between atoms: C1_2  and  C2_4 
REMARK    2  A    between atoms: C2_4  and  C3_6 
REMARK    3  A    between atoms: C3_6  and  C4_7 
ROOT
HETATM    1  C4  UNL     1      -9.331 -32.004  16.258  1.00  0.00    -0.056 A 
HETATM    2  C5  UNL     1      -9.535 -30.895  15.469  1.00  0.00     0.007 A 
HETATM    3  C6  UNL     1      -8.832 -30.664  14.305  1.00  0.00     0.001 A 
HETATM    4  C7  UNL     1      -7.887 -31.576  13.912  1.00  0.00     0.000 A 
HETATM    5  C8  UNL     1      -7.649 -32.688  14.657  1.00  0.00     0.001 A 
HETATM    6  C9  UNL     1      -8.376 -32.901  15.835  1.00  0.00     0.007 A 
ENDROOT
BRANCH   1   7
HETATM    7  C3  UNL     1     -10.106 -32.188  17.472  1.00  0.00     0.069 C 
BRANCH   7   8
HETATM    8  C2  UNL     1      -9.424 -31.718  18.731  1.00  0.00     0.187 C 
HETATM    9 CL1  UNL     1     -10.349 -30.483  19.591  1.00  0.00    -0.113 Cl
BRANCH   8  10
HETATM   10  C1  UNL     1      -9.311 -32.895  19.634  1.00  0.00     0.192 C 
HETATM   11  O1  UNL     1      -9.811 -32.952  20.786  1.00  0.00    -0.647 OA
HETATM   12  O2  UNL     1      -8.614 -34.015  19.200  1.00  0.00    -0.647 OA
ENDBRANCH   8  10
ENDBRANCH   7   8
ENDBRANCH   1   7
TORSDOF 3
ENDMDL
