MODEL 5
REMARK VINA RESULT: -7.005372492      1.629      1.810
REMARK  3 active torsions:
REMARK  status: ('A' for Active; 'I' for Inactive)
REMARK    1  A    between atoms: C1_2  and  C2_4 
REMARK    2  A    between atoms: C2_4  and  C3_6 
REMARK    3  A    between atoms: C3_6  and  C4_7 
ROOT
HETATM    1  C4  UNL     1      -8.815 -32.197  18.033  1.00  0.00    -0.056 A 
HETATM    2  C5  UNL     1      -8.569 -33.323  18.787  1.00  0.00     0.007 A 
HETATM    3  C6  UNL     1      -9.127 -33.528  20.031  1.00  0.00     0.001 A 
HETATM    4  C7  UNL     1      -9.965 -32.573  20.545  1.00  0.00     0.000 A 
HETATM    5  C8  UNL     1     -10.239 -31.443  19.839  1.00  0.00     0.001 A 
HETATM    6  C9  UNL     1      -9.660 -31.258  18.577  1.00  0.00     0.007 A 
ENDROOT
BRANCH   1   7
HETATM    7  C3  UNL     1      -8.195 -32.043  16.729  1.00  0.00     0.069 C 
BRANCH   7   8
HETATM    8  C2  UNL     1      -9.144 -32.159  15.564  1.00  0.00     0.187 C 
HETATM    9 CL1  UNL     1     -10.837 -31.992  16.041  1.00  0.00    -0.113 Cl
BRANCH   8  10
HETATM   10  C1  UNL     1      -8.833 -31.041  14.633  1.00  0.00     0.192 C 
HETATM   11  O1  UNL     1      -8.659 -29.849  14.994  1.00  0.00    -0.647 OA
HETATM   12  O2  UNL     1      -8.723 -31.304  13.274  1.00  0.00    -0.647 OA
ENDBRANCH   8  10
ENDBRANCH   7   8
ENDBRANCH   1   7
TORSDOF 3
ENDMDL
