MODEL 4
REMARK VINA RESULT: -7.071948937      1.557      1.885
REMARK  3 active torsions:
REMARK  status: ('A' for Active; 'I' for Inactive)
REMARK    1  A    between atoms: C1_2  and  C2_4 
REMARK    2  A    between atoms: C2_4  and  C3_6 
REMARK    3  A    between atoms: C3_6  and  C4_7 
ROOT
HETATM    1  C4  UNL     1      -9.660 -32.007  17.740  1.00  0.00    -0.056 A 
HETATM    2  C5  UNL     1      -8.864 -33.037  18.186  1.00  0.00     0.007 A 
HETATM    3  C6  UNL     1      -8.798 -33.413  19.511  1.00  0.00     0.001 A 
HETATM    4  C7  UNL     1      -9.556 -32.733  20.429  1.00  0.00     0.000 A 
HETATM    5  C8  UNL     1     -10.359 -31.708  20.037  1.00  0.00     0.001 A 
HETATM    6  C9  UNL     1     -10.410 -31.346  18.685  1.00  0.00     0.007 A 
ENDROOT
BRANCH   1   7
HETATM    7  C3  UNL     1      -9.683 -31.663  16.329  1.00  0.00     0.069 C 
BRANCH   7   8
HETATM    8  C2  UNL     1      -8.324 -31.540  15.688  1.00  0.00     0.187 C 
HETATM    9 CL1  UNL     1      -7.692 -33.091  15.124  1.00  0.00    -0.113 Cl
BRANCH   8  10
HETATM   10  C1  UNL     1      -8.479 -30.664  14.496  1.00  0.00     0.192 C 
HETATM   11  O1  UNL     1      -8.401 -29.409  14.527  1.00  0.00    -0.647 OA
HETATM   12  O2  UNL     1      -8.724 -31.244  13.259  1.00  0.00    -0.647 OA
ENDBRANCH   8  10
ENDBRANCH   7   8
ENDBRANCH   1   7
TORSDOF 3
ENDMDL
