MODEL 1
REMARK VINA RESULT: -7.349259430      0.000      0.000
REMARK  3 active torsions:
REMARK  status: ('A' for Active; 'I' for Inactive)
REMARK    1  A    between atoms: C1_2  and  C2_4 
REMARK    2  A    between atoms: C2_4  and  C3_6 
REMARK    3  A    between atoms: C3_6  and  C4_7 
ROOT
HETATM    1  C4  UNL     1      -8.611 -32.026  17.250  1.00  0.00    -0.056 A 
HETATM    2  C5  UNL     1      -8.004 -32.464  18.405  1.00  0.00     0.007 A 
HETATM    3  C6  UNL     1      -8.638 -32.468  19.629  1.00  0.00     0.001 A 
HETATM    4  C7  UNL     1      -9.930 -32.017  19.705  1.00  0.00     0.000 A 
HETATM    5  C8  UNL     1     -10.573 -31.574  18.592  1.00  0.00     0.001 A 
HETATM    6  C9  UNL     1      -9.909 -31.581  17.360  1.00  0.00     0.007 A 
ENDROOT
BRANCH   1   7
HETATM    7  C3  UNL     1      -7.887 -32.049  15.991  1.00  0.00     0.069 C 
BRANCH   7   8
HETATM    8  C2  UNL     1      -8.591 -31.367  14.847  1.00  0.00     0.187 C 
HETATM    9 CL1  UNL     1      -8.349 -29.617  14.839  1.00  0.00    -0.113 Cl
BRANCH   8  10
HETATM   10  C1  UNL     1      -8.004 -31.901  13.589  1.00  0.00     0.192 C 
HETATM   11  O1  UNL     1      -7.008 -32.668  13.545  1.00  0.00    -0.647 OA
HETATM   12  O2  UNL     1      -8.573 -31.547  12.374  1.00  0.00    -0.647 OA
ENDBRANCH   8  10
ENDBRANCH   7   8
ENDBRANCH   1   7
TORSDOF 3
ENDMDL
