MODEL 2
REMARK VINA RESULT: -7.312995820      0.070      1.362
REMARK  3 active torsions:
REMARK  status: ('A' for Active; 'I' for Inactive)
REMARK    1  A    between atoms: C1_2  and  C2_4 
REMARK    2  A    between atoms: C2_4  and  C3_6 
REMARK    3  A    between atoms: C3_6  and  C4_7 
ROOT
HETATM    1  C4  UNL     1      -8.560 -32.032  17.243  1.00  0.00    -0.056 A 
HETATM    2  C5  UNL     1      -9.870 -31.609  17.292  1.00  0.00     0.007 A 
HETATM    3  C6  UNL     1     -10.607 -31.589  18.457  1.00  0.00     0.001 A 
HETATM    4  C7  UNL     1     -10.016 -32.008  19.620  1.00  0.00     0.000 A 
HETATM    5  C8  UNL     1      -8.724 -32.434  19.623  1.00  0.00     0.001 A 
HETATM    6  C9  UNL     1      -7.996 -32.444  18.427  1.00  0.00     0.007 A 
ENDROOT
BRANCH   1   7
HETATM    7  C3  UNL     1      -7.839 -32.027  15.981  1.00  0.00     0.069 C 
BRANCH   7   8
HETATM    8  C2  UNL     1      -8.572 -31.369  14.841  1.00  0.00     0.187 C 
HETATM    9 CL1  UNL     1      -8.364 -29.615  14.814  1.00  0.00    -0.113 Cl
BRANCH   8  10
HETATM   10  C1  UNL     1      -7.991 -31.904  13.580  1.00  0.00     0.192 C 
HETATM   11  O1  UNL     1      -6.990 -32.663  13.530  1.00  0.00    -0.647 OA
HETATM   12  O2  UNL     1      -8.573 -31.558  12.368  1.00  0.00    -0.647 OA
ENDBRANCH   8  10
ENDBRANCH   7   8
ENDBRANCH   1   7
TORSDOF 3
ENDMDL
