MODEL 14
REMARK VINA RESULT: -6.311087983      3.344      5.014
REMARK  3 active torsions:
REMARK  status: ('A' for Active; 'I' for Inactive)
REMARK    1  A    between atoms: C1_2  and  C2_4 
REMARK    2  A    between atoms: C2_4  and  C3_6 
REMARK    3  A    between atoms: C3_6  and  C4_7 
ROOT
HETATM    1  C4  UNL     1      -9.351 -31.979  16.263  1.00  0.00    -0.056 A 
HETATM    2  C5  UNL     1      -8.394 -32.886  15.867  1.00  0.00     0.007 A 
HETATM    3  C6  UNL     1      -7.645 -32.731  14.720  1.00  0.00     0.001 A 
HETATM    4  C7  UNL     1      -7.859 -31.628  13.935  1.00  0.00     0.000 A 
HETATM    5  C8  UNL     1      -8.792 -30.703  14.285  1.00  0.00     0.001 A 
HETATM    6  C9  UNL     1      -9.540 -30.882  15.455  1.00  0.00     0.007 A 
ENDROOT
BRANCH   1   7
HETATM    7  C3  UNL     1     -10.105 -32.202  17.485  1.00  0.00     0.069 C 
BRANCH   7   8
HETATM    8  C2  UNL     1      -9.423 -31.725  18.741  1.00  0.00     0.187 C 
HETATM    9 CL1  UNL     1     -10.342 -30.478  19.589  1.00  0.00    -0.113 Cl
BRANCH   8  10
HETATM   10  C1  UNL     1      -9.317 -32.896  19.653  1.00  0.00     0.192 C 
HETATM   11  O1  UNL     1      -9.836 -32.948  20.798  1.00  0.00    -0.647 OA
HETATM   12  O2  UNL     1      -8.607 -34.014  19.238  1.00  0.00    -0.647 OA
ENDBRANCH   8  10
ENDBRANCH   7   8
ENDBRANCH   1   7
TORSDOF 3
ENDMDL
