MODEL 16
REMARK VINA RESULT: -5.006151072      2.929      4.061
REMARK  3 active torsions:
REMARK  status: ('A' for Active; 'I' for Inactive)
REMARK    1  A    between atoms: C2_2  and  C4_4 
REMARK    2  A    between atoms: C4_4  and  C5_5 
REMARK    3  A    between atoms: C5_5  and  C6_7 
ROOT
HETATM    1  C5  UNL     1      -8.994 -31.595  19.119  1.00  0.00     0.183 C 
HETATM    2 CL1  UNL     1     -10.247 -30.374  19.438  1.00  0.00    -0.114 Cl
ENDROOT
BRANCH   1   3
HETATM    3  C4  UNL     1      -8.733 -31.796  17.662  1.00  0.00     0.035 C 
BRANCH   3   4
HETATM    4  C2  UNL     1      -9.825 -31.350  16.748  1.00  0.00    -0.021 C 
HETATM    5  C1  UNL     1     -10.991 -32.276  16.636  1.00  0.00     0.009 C 
HETATM    6  C3  UNL     1      -9.252 -31.186  15.335  1.00  0.00     0.009 C 
ENDBRANCH   3   4
ENDBRANCH   1   3
BRANCH   1   7
HETATM    7  C6  UNL     1      -9.245 -32.843  19.867  1.00  0.00     0.192 C 
HETATM    8  O1  UNL     1      -8.803 -33.930  19.390  1.00  0.00    -0.647 OA
HETATM    9  O2  UNL     1      -9.929 -32.914  21.052  1.00  0.00    -0.647 OA
ENDBRANCH   1   7
TORSDOF 3
ENDMDL
