MODEL 10
REMARK VINA RESULT: -5.283619487      2.099      2.439
REMARK  3 active torsions:
REMARK  status: ('A' for Active; 'I' for Inactive)
REMARK    1  A    between atoms: C2_2  and  C4_4 
REMARK    2  A    between atoms: C4_4  and  C5_5 
REMARK    3  A    between atoms: C5_5  and  C6_7 
ROOT
HETATM    1  C5  UNL     1      -8.874 -31.192  15.542  1.00  0.00     0.183 C 
HETATM    2 CL1  UNL     1      -8.604 -29.573  14.858  1.00  0.00    -0.114 Cl
ENDROOT
BRANCH   1   3
HETATM    3  C4  UNL     1      -8.899 -31.197  17.036  1.00  0.00     0.035 C 
BRANCH   3   4
HETATM    4  C2  UNL     1     -10.087 -31.854  17.654  1.00  0.00    -0.021 C 
HETATM    5  C1  UNL     1     -11.288 -31.976  16.773  1.00  0.00     0.009 C 
HETATM    6  C3  UNL     1     -10.519 -31.044  18.882  1.00  0.00     0.009 C 
ENDBRANCH   3   4
ENDBRANCH   1   3
BRANCH   1   7
HETATM    7  C6  UNL     1      -7.965 -32.192  14.948  1.00  0.00     0.192 C 
HETATM    8  O1  UNL     1      -7.697 -33.234  15.617  1.00  0.00    -0.647 OA
HETATM    9  O2  UNL     1      -7.383 -32.077  13.714  1.00  0.00    -0.647 OA
ENDBRANCH   1   7
TORSDOF 3
ENDMDL
