MODEL 20
REMARK VINA RESULT: -4.748274765      2.755      3.954
REMARK  3 active torsions:
REMARK  status: ('A' for Active; 'I' for Inactive)
REMARK    1  A    between atoms: C2_2  and  C4_4 
REMARK    2  A    between atoms: C4_4  and  C5_5 
REMARK    3  A    between atoms: C5_5  and  C6_7 
ROOT
HETATM    1  C5  UNL     1      -9.709 -32.360  18.400  1.00  0.00     0.183 C 
HETATM    2 CL1  UNL     1      -8.193 -32.274  19.326  1.00  0.00    -0.114 Cl
ENDROOT
BRANCH   1   3
HETATM    3  C4  UNL     1      -9.495 -32.690  16.959  1.00  0.00     0.035 C 
BRANCH   3   4
HETATM    4  C2  UNL     1      -8.793 -31.643  16.160  1.00  0.00    -0.021 C 
HETATM    5  C1  UNL     1      -9.651 -30.869  15.214  1.00  0.00     0.009 C 
HETATM    6  C3  UNL     1      -7.699 -32.312  15.320  1.00  0.00     0.009 C 
ENDBRANCH   3   4
ENDBRANCH   1   3
BRANCH   1   7
HETATM    7  C6  UNL     1     -10.557 -31.174  18.631  1.00  0.00     0.192 C 
HETATM    8  O1  UNL     1     -11.731 -31.171  18.153  1.00  0.00    -0.647 OA
HETATM    9  O2  UNL     1     -10.165 -30.063  19.330  1.00  0.00    -0.647 OA
ENDBRANCH   1   7
TORSDOF 3
ENDMDL
