MODEL 14
REMARK VINA RESULT: -5.121180438      2.926      4.093
REMARK  3 active torsions:
REMARK  status: ('A' for Active; 'I' for Inactive)
REMARK    1  A    between atoms: C2_2  and  C4_4 
REMARK    2  A    between atoms: C4_4  and  C5_5 
REMARK    3  A    between atoms: C5_5  and  C6_7 
ROOT
HETATM    1  C5  UNL     1      -9.643 -31.629  18.705  1.00  0.00     0.183 C 
HETATM    2 CL1  UNL     1     -10.207 -30.044  19.282  1.00  0.00    -0.114 Cl
ENDROOT
BRANCH   1   3
HETATM    3  C4  UNL     1     -10.531 -32.218  17.658  1.00  0.00     0.035 C 
BRANCH   3   4
HETATM    4  C2  UNL     1      -9.904 -32.402  16.316  1.00  0.00    -0.021 C 
HETATM    5  C1  UNL     1      -8.618 -33.161  16.304  1.00  0.00     0.009 C 
HETATM    6  C3  UNL     1      -9.611 -31.023  15.714  1.00  0.00     0.009 C 
ENDBRANCH   3   4
ENDBRANCH   1   3
BRANCH   1   7
HETATM    7  C6  UNL     1      -9.341 -32.541  19.826  1.00  0.00     0.192 C 
HETATM    8  O1  UNL     1      -8.234 -33.158  19.819  1.00  0.00    -0.647 OA
HETATM    9  O2  UNL     1     -10.178 -32.774  20.885  1.00  0.00    -0.647 OA
ENDBRANCH   1   7
TORSDOF 3
ENDMDL
