MODEL 7
REMARK VINA RESULT: -5.372787116      1.923      2.554
REMARK  3 active torsions:
REMARK  status: ('A' for Active; 'I' for Inactive)
REMARK    1  A    between atoms: C2_2  and  C4_4 
REMARK    2  A    between atoms: C4_4  and  C5_5 
REMARK    3  A    between atoms: C5_5  and  C6_7 
ROOT
HETATM    1  C5  UNL     1      -8.200 -31.782  15.772  1.00  0.00     0.183 C 
HETATM    2 CL1  UNL     1      -8.323 -33.499  16.216  1.00  0.00    -0.114 Cl
ENDROOT
BRANCH   1   3
HETATM    3  C4  UNL     1      -9.238 -30.932  16.430  1.00  0.00     0.035 C 
BRANCH   3   4
HETATM    4  C2  UNL     1     -10.037 -31.608  17.494  1.00  0.00    -0.021 C 
HETATM    5  C1  UNL     1     -11.447 -31.939  17.129  1.00  0.00     0.009 C 
HETATM    6  C3  UNL     1     -10.100 -30.693  18.723  1.00  0.00     0.009 C 
ENDBRANCH   3   4
ENDBRANCH   1   3
BRANCH   1   7
HETATM    7  C6  UNL     1      -8.108 -31.602  14.309  1.00  0.00     0.192 C 
HETATM    8  O1  UNL     1      -8.915 -30.801  13.750  1.00  0.00    -0.647 OA
HETATM    9  O2  UNL     1      -7.208 -32.245  13.503  1.00  0.00    -0.647 OA
ENDBRANCH   1   7
TORSDOF 3
ENDMDL
