MODEL 3
REMARK VINA RESULT: -5.508702588      2.459      3.001
REMARK  3 active torsions:
REMARK  status: ('A' for Active; 'I' for Inactive)
REMARK    1  A    between atoms: C2_2  and  C4_4 
REMARK    2  A    between atoms: C4_4  and  C5_5 
REMARK    3  A    between atoms: C5_5  and  C6_7 
ROOT
HETATM    1  C5  UNL     1      -8.668 -30.873  14.597  1.00  0.00     0.183 C 
HETATM    2 CL1  UNL     1      -8.222 -29.153  14.521  1.00  0.00    -0.114 Cl
ENDROOT
BRANCH   1   3
HETATM    3  C4  UNL     1      -8.417 -31.483  15.938  1.00  0.00     0.035 C 
BRANCH   3   4
HETATM    4  C2  UNL     1      -9.446 -32.461  16.399  1.00  0.00    -0.021 C 
HETATM    5  C1  UNL     1     -10.829 -31.918  16.552  1.00  0.00     0.009 C 
HETATM    6  C3  UNL     1      -9.030 -33.007  17.770  1.00  0.00     0.009 C 
ENDBRANCH   3   4
ENDBRANCH   1   3
BRANCH   1   7
HETATM    7  C6  UNL     1      -8.096 -31.635  13.469  1.00  0.00     0.192 C 
HETATM    8  O1  UNL     1      -7.094 -32.377  13.691  1.00  0.00    -0.647 OA
HETATM    9  O2  UNL     1      -8.572 -31.597  12.185  1.00  0.00    -0.647 OA
ENDBRANCH   1   7
TORSDOF 3
ENDMDL
