MODEL 3
REMARK VINA RESULT: -7.849871970      1.069      1.114
REMARK  2 active torsions:
REMARK  status: ('A' for Active; 'I' for Inactive)
REMARK    1  A    between atoms: C3_7  and  C5_9 
REMARK    2  A    between atoms: C7_11  and  C8_12 
ROOT
HETATM    1  C8  UNL     1      22.339  11.105  20.128  1.00  0.00    -0.024 A 
HETATM    2  C9  UNL     1      22.883   9.930  19.682  1.00  0.00     0.012 A 
HETATM    3  C10 UNL     1      23.812   9.922  18.628  1.00  0.00     0.002 A 
HETATM    4  C11 UNL     1      24.211  11.079  18.011  1.00  0.00     0.023 A 
HETATM    5  C12 UNL     1      23.657  12.255  18.467  1.00  0.00     0.045 A 
HETATM    6  C13 UNL     1      24.074  13.478  17.854  1.00  0.00     0.099 C 
HETATM    7  N4  UNL     1      24.411  14.472  17.359  1.00  0.00    -0.191 NA
HETATM    8  C14 UNL     1      22.738  12.266  19.506  1.00  0.00     0.034 A 
ENDROOT
BRANCH   1   9
HETATM    9  C7  UNL     1      21.395  11.126  21.285  1.00  0.00    -0.018 A 
HETATM   10  C6  UNL     1      21.267  12.173  22.121  1.00  0.00     0.029 A 
HETATM   11  C5  UNL     1      20.360  12.065  23.136  1.00  0.00     0.011 A 
HETATM   12  S1  UNL     1      19.710  10.498  22.897  1.00  0.00    -0.103 SA
HETATM   13  C15 UNL     1      20.602  10.037  21.530  1.00  0.00     0.062 A 
BRANCH  11  14
HETATM   14  C3  UNL     1      19.930  13.008  24.187  1.00  0.00     0.071 C 
HETATM   15  N3  UNL     1      19.498  12.267  25.375  1.00  0.00    -0.350 N 
HETATM   16  C2  UNL     1      18.928  13.040  26.442  1.00  0.00     0.193 C 
ATOM     17  H3  UNL     1      19.597  11.253  25.441  1.00  0.00     0.163 HD
HETATM   18  N1  UNL     1      19.295  14.256  26.602  1.00  0.00    -0.296 N 
HETATM   19  N2  UNL     1      17.964  12.462  27.299  1.00  0.00    -0.063 NA
HETATM   20  C1  UNL     1      18.731  15.082  27.669  1.00  0.00     0.162 C 
HETATM   21  C17 UNL     1      20.277  14.801  25.738  1.00  0.00     0.228 C 
HETATM   22  C16 UNL     1      20.921  14.019  24.623  1.00  0.00     0.139 C 
HETATM   23  O1  UNL     1      20.647  16.021  25.902  1.00  0.00    -0.273 OA
HETATM   24  C4  UNL     1      18.697  13.753  23.644  1.00  0.00     0.045 C 
ENDBRANCH  11  14
ENDBRANCH   1   9
TORSDOF 2
ENDMDL
