MODEL 2
REMARK VINA RESULT: -7.907676453      1.434      1.911
REMARK  2 active torsions:
REMARK  status: ('A' for Active; 'I' for Inactive)
REMARK    1  A    between atoms: C3_7  and  C5_9 
REMARK    2  A    between atoms: C7_11  and  C8_12 
ROOT
HETATM    1  C8  UNL     1      22.483  11.059  19.818  1.00  0.00    -0.024 A 
HETATM    2  C9  UNL     1      23.158   9.989  19.293  1.00  0.00     0.012 A 
HETATM    3  C10 UNL     1      24.142  10.174  18.308  1.00  0.00     0.002 A 
HETATM    4  C11 UNL     1      24.467  11.420  17.840  1.00  0.00     0.023 A 
HETATM    5  C12 UNL     1      23.782  12.488  18.373  1.00  0.00     0.045 A 
HETATM    6  C13 UNL     1      24.119  13.801  17.917  1.00  0.00     0.099 C 
HETATM    7  N4  UNL     1      24.390  14.868  17.548  1.00  0.00    -0.191 NA
HETATM    8  C14 UNL     1      22.807  12.309  19.344  1.00  0.00     0.034 A 
ENDROOT
BRANCH   1   9
HETATM    9  C7  UNL     1      21.475  10.875  20.906  1.00  0.00    -0.018 A 
HETATM   10  C6  UNL     1      21.245  11.789  21.867  1.00  0.00     0.029 A 
HETATM   11  C5  UNL     1      20.290  11.499  22.799  1.00  0.00     0.011 A 
HETATM   12  S1  UNL     1      19.738   9.953  22.307  1.00  0.00    -0.103 SA
HETATM   13  C15 UNL     1      20.730   9.728  20.949  1.00  0.00     0.062 A 
BRANCH  11  14
HETATM   14  C3  UNL     1      19.751  12.265  23.940  1.00  0.00     0.071 C 
HETATM   15  N3  UNL     1      19.077  13.473  23.455  1.00  0.00    -0.350 N 
HETATM   16  C2  UNL     1      18.610  14.392  24.454  1.00  0.00     0.193 C 
ATOM     17  H3  UNL     1      18.947  13.652  22.459  1.00  0.00     0.163 HD
HETATM   18  N1  UNL     1      18.277  13.949  25.609  1.00  0.00    -0.296 N 
HETATM   19  N2  UNL     1      18.529  15.773  24.164  1.00  0.00    -0.063 NA
HETATM   20  C1  UNL     1      17.806  14.852  26.658  1.00  0.00     0.162 C 
HETATM   21  C17 UNL     1      18.351  12.557  25.863  1.00  0.00     0.228 C 
HETATM   22  C16 UNL     1      18.810  11.555  24.836  1.00  0.00     0.139 C 
HETATM   23  O1  UNL     1      18.014  12.114  27.020  1.00  0.00    -0.273 OA
HETATM   24  C4  UNL     1      20.956  12.724  24.781  1.00  0.00     0.045 C 
ENDBRANCH  11  14
ENDBRANCH   1   9
TORSDOF 2
ENDMDL
