MODEL 1
REMARK VINA RESULT: -8.040417480      0.000      0.000
REMARK  2 active torsions:
REMARK  status: ('A' for Active; 'I' for Inactive)
REMARK    1  A    between atoms: C3_7  and  C5_9 
REMARK    2  A    between atoms: C7_11  and  C8_12 
ROOT
HETATM    1  C8  UNL     1      22.558  11.109  19.851  1.00  0.00    -0.024 A 
HETATM    2  C9  UNL     1      23.134   9.969  19.358  1.00  0.00     0.012 A 
HETATM    3  C10 UNL     1      24.108  10.035  18.348  1.00  0.00     0.002 A 
HETATM    4  C11 UNL     1      24.521  11.231  17.823  1.00  0.00     0.023 A 
HETATM    5  C12 UNL     1      23.935  12.371  18.325  1.00  0.00     0.045 A 
HETATM    6  C13 UNL     1      24.366  13.634  17.810  1.00  0.00     0.099 C 
HETATM    7  N4  UNL     1      24.712  14.660  17.393  1.00  0.00    -0.191 NA
HETATM    8  C14 UNL     1      22.971  12.309  19.321  1.00  0.00     0.034 A 
ENDROOT
BRANCH   1   9
HETATM    9  C7  UNL     1      21.563  11.050  20.964  1.00  0.00    -0.018 A 
HETATM   10  C6  UNL     1      21.290  12.091  21.773  1.00  0.00     0.029 A 
HETATM   11  C5  UNL     1      20.353  11.905  22.748  1.00  0.00     0.011 A 
HETATM   12  S1  UNL     1      19.878  10.275  22.511  1.00  0.00    -0.103 SA
HETATM   13  C15 UNL     1      20.876   9.889  21.194  1.00  0.00     0.062 A 
BRANCH  11  14
HETATM   14  C3  UNL     1      19.779  12.813  23.760  1.00  0.00     0.071 C 
HETATM   15  N3  UNL     1      20.583  12.766  24.985  1.00  0.00    -0.350 N 
HETATM   16  C2  UNL     1      20.080  13.501  26.110  1.00  0.00     0.193 C 
ATOM     17  H3  UNL     1      21.454  12.238  25.035  1.00  0.00     0.163 HD
HETATM   18  N1  UNL     1      19.361  14.543  25.912  1.00  0.00    -0.296 N 
HETATM   19  N2  UNL     1      20.369  13.069  27.425  1.00  0.00    -0.063 NA
HETATM   20  C1  UNL     1      18.820  15.313  27.031  1.00  0.00     0.162 C 
HETATM   21  C17 UNL     1      19.104  14.961  24.582  1.00  0.00     0.228 C 
HETATM   22  C16 UNL     1      19.633  14.236  23.372  1.00  0.00     0.139 C 
HETATM   23  O1  UNL     1      18.386  16.007  24.384  1.00  0.00    -0.273 OA
HETATM   24  C4  UNL     1      18.382  12.270  24.112  1.00  0.00     0.045 C 
ENDBRANCH  11  14
ENDBRANCH   1   9
TORSDOF 2
ENDMDL
