MODEL 2
REMARK VINA RESULT: -7.546187987      1.078      1.471
REMARK  8 active torsions:
REMARK  status: ('A' for Active; 'I' for Inactive)
REMARK    1  A    between atoms: C2_2  and  C3_3 
REMARK    2  A    between atoms: C3_3  and  C4_4 
REMARK    3  A    between atoms: C3_3  and  N1_7 
REMARK    4  A    between atoms: C4_4  and  O1_5 
REMARK    5  A    between atoms: C6_10  and  C7_11 
REMARK    6  A    between atoms: C7_11  and  C8_12 
REMARK    7  A    between atoms: C10_16  and  C11_17 
REMARK    8  A    between atoms: C17_24  and  C18_25 
ROOT
HETATM    1  N1  UNL     1      19.218  14.418  15.422  1.00  0.00    -0.336 N 
HETATM    2  C5  UNL     1      18.275  15.405  15.816  1.00  0.00     0.225 C 
HETATM    3  O2  UNL     1      18.569  16.615  15.758  1.00  0.00    -0.273 OA
HETATM    4  C6  UNL     1      16.965  14.993  16.287  1.00  0.00     0.088 C 
HETATM    5  C9  UNL     1      16.438  13.734  15.688  1.00  0.00     0.026 C 
HETATM    6  C10 UNL     1      17.442  12.704  15.324  1.00  0.00     0.047 C 
HETATM    7  C17 UNL     1      18.798  13.148  14.923  1.00  0.00     0.129 C 
ENDROOT
BRANCH   6   8
HETATM    8  C11 UNL     1      17.571  11.670  16.390  1.00  0.00    -0.050 A 
HETATM    9  C12 UNL     1      18.336  10.530  16.259  1.00  0.00     0.007 A 
HETATM   10  C13 UNL     1      18.467   9.572  17.230  1.00  0.00     0.002 A 
HETATM   11  C14 UNL     1      17.808   9.732  18.411  1.00  0.00     0.024 A 
HETATM   12  C15 UNL     1      17.026  10.855  18.603  1.00  0.00     0.034 A 
HETATM   13 CL1  UNL     1      16.206  11.011  20.131  1.00  0.00    -0.084 Cl
HETATM   14  C16 UNL     1      16.906  11.818  17.602  1.00  0.00     0.031 A 
ENDBRANCH   6   8
BRANCH   7  15
HETATM   15  C18 UNL     1      18.946  13.193  13.446  1.00  0.00    -0.035 A 
HETATM   16  C19 UNL     1      19.717  12.224  12.844  1.00  0.00     0.011 A 
HETATM   17  C20 UNL     1      19.896  12.210  11.452  1.00  0.00     0.024 A 
HETATM   18  C21 UNL     1      19.296  13.174  10.679  1.00  0.00     0.034 A 
HETATM   19 CL2  UNL     1      19.501  13.183   8.931  1.00  0.00    -0.084 Cl
HETATM   20  C22 UNL     1      18.531  14.136  11.267  1.00  0.00     0.024 A 
HETATM   21  C23 UNL     1      18.365  14.137  12.634  1.00  0.00     0.011 A 
ENDBRANCH   7  15
BRANCH   4  22
HETATM   22  C7  UNL     1      15.997  16.136  16.124  1.00  0.00     0.127 C 
BRANCH  22  23
HETATM   23  C8  UNL     1      15.609  16.814  17.351  1.00  0.00     0.173 C 
HETATM   24  O3  UNL     1      14.410  16.729  17.721  1.00  0.00    -0.648 OA
HETATM   25  O4  UNL     1      16.472  17.547  18.145  1.00  0.00    -0.648 OA
ENDBRANCH  22  23
ENDBRANCH   4  22
BRANCH   1  26
HETATM   26  C3  UNL     1      20.640  14.653  15.506  1.00  0.00     0.111 C 
BRANCH  26  27
HETATM   27  C2  UNL     1      21.436  13.462  15.943  1.00  0.00     0.023 C 
HETATM   28  C1  UNL     1      22.712  13.454  15.090  1.00  0.00     0.007 C 
ENDBRANCH  26  27
BRANCH  26  29
HETATM   29  C4  UNL     1      21.081  15.179  14.155  1.00  0.00     0.189 C 
BRANCH  29  30
HETATM   30  O1  UNL     1      20.812  16.506  13.946  1.00  0.00    -0.399 OA
ATOM     31  H1  UNL     1      19.896  16.703  13.792  1.00  0.00     0.209 HD
ENDBRANCH  29  30
ENDBRANCH  26  29
ENDBRANCH   1  26
TORSDOF 8
ENDMDL
