MODEL 3
REMARK VINA RESULT: -7.482175464      3.251      5.576
REMARK  8 active torsions:
REMARK  status: ('A' for Active; 'I' for Inactive)
REMARK    1  A    between atoms: C2_2  and  C3_3 
REMARK    2  A    between atoms: C3_3  and  C4_4 
REMARK    3  A    between atoms: C3_3  and  N1_7 
REMARK    4  A    between atoms: C4_4  and  O1_5 
REMARK    5  A    between atoms: C6_10  and  C7_11 
REMARK    6  A    between atoms: C7_11  and  C8_12 
REMARK    7  A    between atoms: C10_16  and  C11_17 
REMARK    8  A    between atoms: C17_24  and  C18_25 
ROOT
HETATM    1  N1  UNL     1      18.509  12.711  15.696  1.00  0.00    -0.336 N 
HETATM    2  C5  UNL     1      18.014  11.742  16.609  1.00  0.00     0.225 C 
HETATM    3  O2  UNL     1      17.866  10.557  16.252  1.00  0.00    -0.273 OA
HETATM    4  C6  UNL     1      17.682  12.143  17.965  1.00  0.00     0.088 C 
HETATM    5  C9  UNL     1      18.498  13.262  18.517  1.00  0.00     0.026 C 
HETATM    6  C10 UNL     1      18.967  14.281  17.546  1.00  0.00     0.047 C 
HETATM    7  C17 UNL     1      19.223  13.861  16.148  1.00  0.00     0.129 C 
ENDROOT
BRANCH   6   8
HETATM    8  C11 UNL     1      18.072  15.473  17.533  1.00  0.00    -0.050 A 
HETATM    9  C12 UNL     1      18.528  16.769  17.408  1.00  0.00     0.007 A 
HETATM   10  C13 UNL     1      17.718  17.874  17.392  1.00  0.00     0.002 A 
HETATM   11  C14 UNL     1      16.371  17.709  17.505  1.00  0.00     0.024 A 
HETATM   12  C15 UNL     1      15.853  16.434  17.632  1.00  0.00     0.034 A 
HETATM   13 CL1  UNL     1      14.124  16.281  17.773  1.00  0.00    -0.084 Cl
HETATM   14  C16 UNL     1      16.695  15.323  17.646  1.00  0.00     0.031 A 
ENDBRANCH   6   8
BRANCH   7  15
HETATM   15  C18 UNL     1      20.665  13.598  15.909  1.00  0.00    -0.035 A 
HETATM   16  C19 UNL     1      21.322  14.384  14.990  1.00  0.00     0.011 A 
HETATM   17  C20 UNL     1      22.685  14.187  14.719  1.00  0.00     0.024 A 
HETATM   18  C21 UNL     1      23.373  13.198  15.378  1.00  0.00     0.034 A 
HETATM   19 CL2  UNL     1      25.083  12.926  15.060  1.00  0.00    -0.084 Cl
HETATM   20  C22 UNL     1      22.731  12.415  16.289  1.00  0.00     0.024 A 
HETATM   21  C23 UNL     1      21.393  12.621  16.544  1.00  0.00     0.011 A 
ENDBRANCH   7  15
BRANCH   4  22
HETATM   22  C7  UNL     1      17.714  10.934  18.862  1.00  0.00     0.127 C 
BRANCH  22  23
HETATM   23  C8  UNL     1      16.496  10.677  19.615  1.00  0.00     0.173 C 
HETATM   24  O3  UNL     1      16.314  11.314  20.683  1.00  0.00    -0.648 OA
HETATM   25  O4  UNL     1      15.518   9.775  19.234  1.00  0.00    -0.648 OA
ENDBRANCH  22  23
ENDBRANCH   4  22
BRANCH   1  26
HETATM   26  C3  UNL     1      18.316  12.575  14.271  1.00  0.00     0.111 C 
BRANCH  26  27
HETATM   27  C2  UNL     1      18.816  11.284  13.702  1.00  0.00     0.023 C 
HETATM   28  C1  UNL     1      20.040  11.630  12.843  1.00  0.00     0.007 C 
ENDBRANCH  26  27
BRANCH  26  29
HETATM   29  C4  UNL     1      16.841  12.794  14.002  1.00  0.00     0.189 C 
BRANCH  29  30
HETATM   30  O1  UNL     1      16.437  12.451  12.738  1.00  0.00    -0.399 OA
ATOM     31  H1  UNL     1      16.089  13.172  12.227  1.00  0.00     0.209 HD
ENDBRANCH  29  30
ENDBRANCH  26  29
ENDBRANCH   1  26
TORSDOF 8
ENDMDL
