MODEL 1
REMARK VINA RESULT: -7.625434286      0.000      0.000
REMARK  8 active torsions:
REMARK  status: ('A' for Active; 'I' for Inactive)
REMARK    1  A    between atoms: C2_2  and  C3_3 
REMARK    2  A    between atoms: C3_3  and  C4_4 
REMARK    3  A    between atoms: C3_3  and  N1_7 
REMARK    4  A    between atoms: C4_4  and  O1_5 
REMARK    5  A    between atoms: C6_10  and  C7_11 
REMARK    6  A    between atoms: C7_11  and  C8_12 
REMARK    7  A    between atoms: C10_16  and  C11_17 
REMARK    8  A    between atoms: C17_24  and  C18_25 
ROOT
HETATM    1  N1  UNL     1      19.151  13.994  15.011  1.00  0.00    -0.336 N 
HETATM    2  C5  UNL     1      18.359  15.096  15.429  1.00  0.00     0.225 C 
HETATM    3  O2  UNL     1      18.732  16.263  15.198  1.00  0.00    -0.273 OA
HETATM    4  C6  UNL     1      17.111  14.853  16.129  1.00  0.00     0.088 C 
HETATM    5  C9  UNL     1      16.403  13.596  15.753  1.00  0.00     0.026 C 
HETATM    6  C10 UNL     1      17.257  12.448  15.360  1.00  0.00     0.047 C 
HETATM    7  C17 UNL     1      18.564  12.726  14.718  1.00  0.00     0.129 C 
ENDROOT
BRANCH   6   8
HETATM    8  C11 UNL     1      17.471  11.513  16.500  1.00  0.00    -0.050 A 
HETATM    9  C12 UNL     1      18.236  10.368  16.416  1.00  0.00     0.007 A 
HETATM   10  C13 UNL     1      18.445   9.500  17.456  1.00  0.00     0.002 A 
HETATM   11  C14 UNL     1      17.870   9.763  18.663  1.00  0.00     0.024 A 
HETATM   12  C15 UNL     1      17.093  10.895  18.810  1.00  0.00     0.034 A 
HETATM   13 CL1  UNL     1      16.381  11.183  20.373  1.00  0.00    -0.084 Cl
HETATM   14  C16 UNL     1      16.893  11.766  17.739  1.00  0.00     0.031 A 
ENDBRANCH   6   8
BRANCH   7  15
HETATM   15  C18 UNL     1      18.484  12.616  13.240  1.00  0.00    -0.035 A 
HETATM   16  C19 UNL     1      18.951  11.462  12.651  1.00  0.00     0.011 A 
HETATM   17  C20 UNL     1      18.903  11.296  11.258  1.00  0.00     0.024 A 
HETATM   18  C21 UNL     1      18.384  12.295  10.471  1.00  0.00     0.034 A 
HETATM   19 CL2  UNL     1      18.310  12.116   8.722  1.00  0.00    -0.084 Cl
HETATM   20  C22 UNL     1      17.920  13.440  11.045  1.00  0.00     0.024 A 
HETATM   21  C23 UNL     1      17.974  13.589  12.413  1.00  0.00     0.011 A 
ENDBRANCH   7  15
BRANCH   4  22
HETATM   22  C7  UNL     1      16.219  16.058  15.987  1.00  0.00     0.127 C 
BRANCH  22  23
HETATM   23  C8  UNL     1      15.858  16.725  17.228  1.00  0.00     0.173 C 
HETATM   24  O3  UNL     1      16.775  17.263  17.900  1.00  0.00    -0.648 OA
HETATM   25  O4  UNL     1      14.569  16.811  17.723  1.00  0.00    -0.648 OA
ENDBRANCH  22  23
ENDBRANCH   4  22
BRANCH   1  26
HETATM   26  C3  UNL     1      20.583  14.104  14.859  1.00  0.00     0.111 C 
BRANCH  26  27
HETATM   27  C2  UNL     1      21.024  15.255  14.008  1.00  0.00     0.023 C 
HETATM   28  C1  UNL     1      21.522  14.653  12.686  1.00  0.00     0.007 C 
ENDBRANCH  26  27
BRANCH  26  29
HETATM   29  C4  UNL     1      21.173  14.157  16.253  1.00  0.00     0.189 C 
BRANCH  29  30
HETATM   30  O1  UNL     1      20.832  13.100  17.055  1.00  0.00    -0.399 OA
ATOM     31  H1  UNL     1      20.074  13.251  17.606  1.00  0.00     0.209 HD
ENDBRANCH  29  30
ENDBRANCH  26  29
ENDBRANCH   1  26
TORSDOF 8
ENDMDL
