MODEL 1
REMARK VINA RESULT: -10.680850036      0.000      0.000
REMARK  14 active torsions:
REMARK  status: ('A' for Active; 'I' for Inactive)
REMARK    1  A    between atoms: O1_2  and  C2_3 
REMARK    2  A    between atoms: C5_6  and  S1_7 
REMARK    3  A    between atoms: S1_7  and  N1_10 
REMARK    4  A    between atoms: N1_10  and  C6_11 
REMARK    5  A    between atoms: N1_10  and  C10_15 
REMARK    6  A    between atoms: C6_11  and  C7_12 
REMARK    7  A    between atoms: C10_15  and  C11_16 
REMARK    8  A    between atoms: C11_16  and  O4_17 
REMARK    9  A    between atoms: C11_16  and  C12_19 
REMARK   10  A    between atoms: C12_19  and  C13_20 
REMARK   11  A    between atoms: C12_19  and  N2_27 
REMARK   12  A    between atoms: C13_20  and  C14_21 
REMARK       I    between atoms: N2_27  and  C20_29 
REMARK   13  A    between atoms: C20_29  and  O6_31 
REMARK   14  A    between atoms: O6_31  and  C21_32 
ROOT
HETATM    1  C12 UNL     1      16.567  24.350  16.693  1.00  0.00     0.026 C 
ENDROOT
BRANCH   1   2
HETATM    2  C11 UNL     1      16.101  23.873  18.018  1.00  0.00     0.178 C 
BRANCH   2   3
HETATM    3  C10 UNL     1      17.012  24.171  19.176  1.00  0.00     0.145 C 
BRANCH   3   4
HETATM    4  N1  UNL     1      18.270  23.485  19.137  1.00  0.00    -0.203 NA
BRANCH   4   5
HETATM    5  S1  UNL     1      18.183  21.796  18.941  1.00  0.00     0.243 S 
HETATM    6  O2  UNL     1      18.538  21.388  17.519  1.00  0.00    -0.206 OA
HETATM    7  O3  UNL     1      19.275  21.148  19.791  1.00  0.00    -0.206 OA
BRANCH   5   8
HETATM    8  C5  UNL     1      16.679  21.063  19.346  1.00  0.00     0.074 A 
HETATM    9  C4  UNL     1      15.988  20.390  18.327  1.00  0.00     0.027 A 
HETATM   10  C3  UNL     1      14.789  19.782  18.587  1.00  0.00     0.038 A 
HETATM   11  C2  UNL     1      14.271  19.837  19.853  1.00  0.00     0.068 A 
HETATM   12  C30 UNL     1      14.956  20.501  20.854  1.00  0.00     0.038 A 
HETATM   13  C29 UNL     1      16.149  21.114  20.626  1.00  0.00     0.027 A 
BRANCH  11  14
HETATM   14  O1  UNL     1      13.072  19.231  20.124  1.00  0.00    -0.356 OA
HETATM   15  C1  UNL     1      12.956  17.941  20.645  1.00  0.00     0.210 C 
ENDBRANCH  11  14
ENDBRANCH   5   8
ENDBRANCH   4   5
BRANCH   4  16
HETATM   16  C6  UNL     1      19.192  23.836  20.171  1.00  0.00     0.111 C 
BRANCH  16  17
HETATM   17  C7  UNL     1      20.349  24.679  19.770  1.00  0.00    -0.009 C 
HETATM   18  C8  UNL     1      20.900  25.336  21.030  1.00  0.00     0.011 C 
HETATM   19  C9  UNL     1      21.365  23.950  18.974  1.00  0.00     0.011 C 
ENDBRANCH  16  17
ENDBRANCH   4  16
ENDBRANCH   3   4
ENDBRANCH   2   3
BRANCH   2  20
HETATM   20  O4  UNL     1      14.882  24.549  18.277  1.00  0.00    -0.389 OA
ATOM     21  H4  UNL     1      14.342  23.954  18.783  1.00  0.00     0.210 HD
ENDBRANCH   2  20
ENDBRANCH   1   2
BRANCH   1  22
HETATM   22  C13 UNL     1      16.670  23.387  15.586  1.00  0.00     0.094 C 
BRANCH  22  23
HETATM   23  C14 UNL     1      15.469  22.826  15.000  1.00  0.00    -0.053 A 
HETATM   24  C15 UNL     1      14.185  23.161  15.303  1.00  0.00     0.007 A 
HETATM   25  C16 UNL     1      13.110  22.544  14.702  1.00  0.00     0.001 A 
HETATM   26  C17 UNL     1      13.295  21.541  13.747  1.00  0.00     0.000 A 
HETATM   27  C18 UNL     1      14.589  21.189  13.426  1.00  0.00     0.001 A 
HETATM   28  C19 UNL     1      15.644  21.817  14.039  1.00  0.00     0.007 A 
ENDBRANCH  22  23
ENDBRANCH   1  22
BRANCH   1  29
HETATM   29  N2  UNL     1      17.662  25.300  16.801  1.00  0.00    -0.307 N 
HETATM   30  C20 UNL     1      18.964  25.102  16.334  1.00  0.00     0.365 C 
HETATM   31  O5  UNL     1      19.224  23.995  15.767  1.00  0.00    -0.238 OA
ATOM     32  H2  UNL     1      17.463  26.189  17.257  1.00  0.00     0.170 HD
BRANCH  30  33
HETATM   33  O6  UNL     1      19.989  26.043  16.454  1.00  0.00    -0.296 OA
BRANCH  33  34
HETATM   34  C21 UNL     1      20.533  26.574  15.286  1.00  0.00     0.167 C 
HETATM   35  C22 UNL     1      19.876  27.847  14.817  1.00  0.00     0.204 C 
HETATM   36  O7  UNL     1      20.798  28.572  14.119  1.00  0.00    -0.358 OA
HETATM   37  C23 UNL     1      22.046  27.990  14.217  1.00  0.00     0.270 C 
HETATM   38  O8  UNL     1      22.958  28.950  14.553  1.00  0.00    -0.331 OA
HETATM   39  C28 UNL     1      21.971  27.003  15.392  1.00  0.00     0.082 C 
HETATM   40  C24 UNL     1      23.269  28.870  15.887  1.00  0.00     0.267 C 
HETATM   41  O9  UNL     1      24.418  28.065  15.989  1.00  0.00    -0.361 OA
HETATM   42  C27 UNL     1      22.224  27.963  16.537  1.00  0.00     0.054 C 
HETATM   43  C25 UNL     1      24.416  27.512  17.247  1.00  0.00     0.171 C 
HETATM   44  C26 UNL     1      22.973  27.331  17.663  1.00  0.00     0.036 C 
ENDBRANCH  33  34
ENDBRANCH  30  33
ENDBRANCH   1  29
TORSDOF 14
ENDMDL
