MODEL 3
REMARK VINA RESULT: -10.435017184      3.398      8.361
REMARK  14 active torsions:
REMARK  status: ('A' for Active; 'I' for Inactive)
REMARK    1  A    between atoms: O1_2  and  C2_3 
REMARK    2  A    between atoms: C5_6  and  S1_7 
REMARK    3  A    between atoms: S1_7  and  N1_10 
REMARK    4  A    between atoms: N1_10  and  C6_11 
REMARK    5  A    between atoms: N1_10  and  C10_15 
REMARK    6  A    between atoms: C6_11  and  C7_12 
REMARK    7  A    between atoms: C10_15  and  C11_16 
REMARK    8  A    between atoms: C11_16  and  O4_17 
REMARK    9  A    between atoms: C11_16  and  C12_19 
REMARK   10  A    between atoms: C12_19  and  C13_20 
REMARK   11  A    between atoms: C12_19  and  N2_27 
REMARK   12  A    between atoms: C13_20  and  C14_21 
REMARK       I    between atoms: N2_27  and  C20_29 
REMARK   13  A    between atoms: C20_29  and  O6_31 
REMARK   14  A    between atoms: O6_31  and  C21_32 
ROOT
HETATM    1  C12 UNL     1      16.671  22.506  15.805  1.00  0.00     0.026 C 
ENDROOT
BRANCH   1   2
HETATM    2  C11 UNL     1      17.506  21.706  16.734  1.00  0.00     0.178 C 
BRANCH   2   3
HETATM    3  C10 UNL     1      16.782  20.640  17.508  1.00  0.00     0.145 C 
BRANCH   3   4
HETATM    4  N1  UNL     1      16.738  20.857  18.923  1.00  0.00    -0.203 NA
BRANCH   4   5
HETATM    5  S1  UNL     1      15.182  20.963  19.605  1.00  0.00     0.243 S 
HETATM    6  O2  UNL     1      15.253  21.126  21.116  1.00  0.00    -0.206 OA
HETATM    7  O3  UNL     1      14.526  22.257  19.127  1.00  0.00    -0.206 OA
BRANCH   5   8
HETATM    8  C5  UNL     1      14.113  19.657  19.260  1.00  0.00     0.074 A 
HETATM    9  C4  UNL     1      13.981  18.651  20.228  1.00  0.00     0.027 A 
HETATM   10  C3  UNL     1      13.143  17.590  20.015  1.00  0.00     0.038 A 
HETATM   11  C2  UNL     1      12.433  17.521  18.846  1.00  0.00     0.068 A 
HETATM   12  C30 UNL     1      12.567  18.516  17.895  1.00  0.00     0.038 A 
HETATM   13  C29 UNL     1      13.391  19.582  18.078  1.00  0.00     0.027 A 
BRANCH  11  14
HETATM   14  O1  UNL     1      11.591  16.463  18.623  1.00  0.00    -0.356 OA
HETATM   15  C1  UNL     1      11.245  16.003  17.350  1.00  0.00     0.210 C 
ENDBRANCH  11  14
ENDBRANCH   5   8
ENDBRANCH   4   5
BRANCH   4  16
HETATM   16  C6  UNL     1      17.585  21.900  19.411  1.00  0.00     0.111 C 
BRANCH  16  17
HETATM   17  C7  UNL     1      18.937  21.493  19.878  1.00  0.00    -0.009 C 
HETATM   18  C8  UNL     1      19.921  22.571  19.439  1.00  0.00     0.011 C 
HETATM   19  C9  UNL     1      18.993  21.175  21.324  1.00  0.00     0.011 C 
ENDBRANCH  16  17
ENDBRANCH   4  16
ENDBRANCH   3   4
ENDBRANCH   2   3
BRANCH   2  20
HETATM   20  O4  UNL     1      18.468  21.042  15.930  1.00  0.00    -0.389 OA
ATOM     21  H4  UNL     1      19.248  21.583  15.937  1.00  0.00     0.210 HD
ENDBRANCH   2  20
ENDBRANCH   1   2
BRANCH   1  22
HETATM   22  C13 UNL     1      16.495  23.943  16.064  1.00  0.00     0.094 C 
BRANCH  22  23
HETATM   23  C14 UNL     1      17.641  24.830  16.035  1.00  0.00    -0.053 A 
HETATM   24  C15 UNL     1      18.497  25.085  17.062  1.00  0.00     0.007 A 
HETATM   25  C16 UNL     1      19.545  25.969  16.933  1.00  0.00     0.001 A 
HETATM   26  C17 UNL     1      19.776  26.647  15.733  1.00  0.00     0.000 A 
HETATM   27  C18 UNL     1      18.918  26.401  14.681  1.00  0.00     0.001 A 
HETATM   28  C19 UNL     1      17.880  25.515  14.833  1.00  0.00     0.007 A 
ENDBRANCH  22  23
ENDBRANCH   1  22
BRANCH   1  29
HETATM   29  N2  UNL     1      15.474  21.795  15.385  1.00  0.00    -0.307 N 
HETATM   30  C20 UNL     1      15.162  21.423  14.075  1.00  0.00     0.365 C 
HETATM   31  O5  UNL     1      15.990  21.733  13.162  1.00  0.00    -0.238 OA
ATOM     32  H2  UNL     1      14.803  21.546  16.111  1.00  0.00     0.170 HD
BRANCH  30  33
HETATM   33  O6  UNL     1      14.001  20.737  13.713  1.00  0.00    -0.296 OA
BRANCH  33  34
HETATM   34  C21 UNL     1      12.907  20.797  14.575  1.00  0.00     0.167 C 
HETATM   35  C22 UNL     1      11.887  21.846  14.212  1.00  0.00     0.204 C 
HETATM   36  O7  UNL     1      10.669  21.435  14.671  1.00  0.00    -0.358 OA
HETATM   37  C23 UNL     1      10.745  20.143  15.153  1.00  0.00     0.270 C 
HETATM   38  O8  UNL     1       9.723  19.410  14.619  1.00  0.00    -0.331 OA
HETATM   39  C28 UNL     1      12.057  19.556  14.611  1.00  0.00     0.082 C 
HETATM   40  C24 UNL     1      10.184  18.617  13.598  1.00  0.00     0.267 C 
HETATM   41  O9  UNL     1      10.487  17.364  14.161  1.00  0.00    -0.361 OA
HETATM   42  C27 UNL     1      11.583  19.117  13.241  1.00  0.00     0.054 C 
HETATM   43  C25 UNL     1      11.436  16.777  13.359  1.00  0.00     0.171 C 
HETATM   44  C26 UNL     1      12.275  17.884  12.760  1.00  0.00     0.036 C 
ENDBRANCH  33  34
ENDBRANCH  30  33
ENDBRANCH   1  29
TORSDOF 14
ENDMDL
