MODEL 2
REMARK VINA RESULT: -10.456166303      2.078      9.573
REMARK  14 active torsions:
REMARK  status: ('A' for Active; 'I' for Inactive)
REMARK    1  A    between atoms: O1_2  and  C2_3 
REMARK    2  A    between atoms: C5_6  and  S1_7 
REMARK    3  A    between atoms: S1_7  and  N1_10 
REMARK    4  A    between atoms: N1_10  and  C6_11 
REMARK    5  A    between atoms: N1_10  and  C10_15 
REMARK    6  A    between atoms: C6_11  and  C7_12 
REMARK    7  A    between atoms: C10_15  and  C11_16 
REMARK    8  A    between atoms: C11_16  and  O4_17 
REMARK    9  A    between atoms: C11_16  and  C12_19 
REMARK   10  A    between atoms: C12_19  and  C13_20 
REMARK   11  A    between atoms: C12_19  and  N2_27 
REMARK   12  A    between atoms: C13_20  and  C14_21 
REMARK       I    between atoms: N2_27  and  C20_29 
REMARK   13  A    between atoms: C20_29  and  O6_31 
REMARK   14  A    between atoms: O6_31  and  C21_32 
ROOT
HETATM    1  C12 UNL     1      15.895  23.177  17.257  1.00  0.00     0.026 C 
ENDROOT
BRANCH   1   2
HETATM    2  C11 UNL     1      16.413  24.294  18.084  1.00  0.00     0.178 C 
BRANCH   2   3
HETATM    3  C10 UNL     1      17.115  25.391  17.333  1.00  0.00     0.145 C 
BRANCH   3   4
HETATM    4  N1  UNL     1      18.545  25.307  17.354  1.00  0.00    -0.203 NA
BRANCH   4   5
HETATM    5  S1  UNL     1      19.314  25.438  15.842  1.00  0.00     0.243 S 
HETATM    6  O2  UNL     1      19.863  24.095  15.384  1.00  0.00    -0.206 OA
HETATM    7  O3  UNL     1      18.264  25.784  14.787  1.00  0.00    -0.206 OA
BRANCH   5   8
HETATM    8  C5  UNL     1      20.585  26.596  15.736  1.00  0.00     0.074 A 
HETATM    9  C4  UNL     1      20.882  27.121  14.470  1.00  0.00     0.027 A 
HETATM   10  C3  UNL     1      21.878  28.049  14.322  1.00  0.00     0.038 A 
HETATM   11  C2  UNL     1      22.581  28.460  15.422  1.00  0.00     0.068 A 
HETATM   12  C30 UNL     1      22.283  27.939  16.668  1.00  0.00     0.038 A 
HETATM   13  C29 UNL     1      21.300  27.017  16.847  1.00  0.00     0.027 A 
BRANCH  11  14
HETATM   14  O1  UNL     1      23.579  29.389  15.285  1.00  0.00    -0.356 OA
HETATM   15  C1  UNL     1      24.749  29.388  16.047  1.00  0.00     0.210 C 
ENDBRANCH  11  14
ENDBRANCH   5   8
ENDBRANCH   4   5
BRANCH   4  16
HETATM   16  C6  UNL     1      19.085  24.222  18.113  1.00  0.00     0.111 C 
BRANCH  16  17
HETATM   17  C7  UNL     1      20.016  24.582  19.215  1.00  0.00    -0.009 C 
HETATM   18  C8  UNL     1      19.313  24.274  20.532  1.00  0.00     0.011 C 
HETATM   19  C9  UNL     1      21.356  23.962  19.084  1.00  0.00     0.011 C 
ENDBRANCH  16  17
ENDBRANCH   4  16
ENDBRANCH   3   4
ENDBRANCH   2   3
BRANCH   2  20
HETATM   20  O4  UNL     1      15.282  24.886  18.703  1.00  0.00    -0.389 OA
ATOM     21  H4  UNL     1      14.526  24.629  18.189  1.00  0.00     0.210 HD
ENDBRANCH   2  20
ENDBRANCH   1   2
BRANCH   1  22
HETATM   22  C13 UNL     1      15.792  23.358  15.801  1.00  0.00     0.094 C 
BRANCH  22  23
HETATM   23  C14 UNL     1      14.769  22.652  15.055  1.00  0.00    -0.053 A 
HETATM   24  C15 UNL     1      13.467  23.021  14.913  1.00  0.00     0.007 A 
HETATM   25  C16 UNL     1      12.567  22.259  14.200  1.00  0.00     0.001 A 
HETATM   26  C17 UNL     1      12.958  21.065  13.587  1.00  0.00     0.000 A 
HETATM   27  C18 UNL     1      14.274  20.675  13.721  1.00  0.00     0.001 A 
HETATM   28  C19 UNL     1      15.152  21.451  14.436  1.00  0.00     0.007 A 
ENDBRANCH  22  23
ENDBRANCH   1  22
BRANCH   1  29
HETATM   29  N2  UNL     1      14.774  22.497  17.885  1.00  0.00    -0.307 N 
HETATM   30  C20 UNL     1      14.822  21.250  18.513  1.00  0.00     0.365 C 
HETATM   31  O5  UNL     1      15.939  20.647  18.540  1.00  0.00    -0.238 OA
ATOM     32  H2  UNL     1      13.872  22.973  17.864  1.00  0.00     0.170 HD
BRANCH  30  33
HETATM   33  O6  UNL     1      13.719  20.632  19.108  1.00  0.00    -0.296 OA
BRANCH  33  34
HETATM   34  C21 UNL     1      13.728  19.243  19.221  1.00  0.00     0.167 C 
HETATM   35  C22 UNL     1      13.052  18.716  20.461  1.00  0.00     0.204 C 
HETATM   36  O7  UNL     1      12.576  17.466  20.190  1.00  0.00    -0.358 OA
HETATM   37  C23 UNL     1      12.719  17.174  18.848  1.00  0.00     0.270 C 
HETATM   38  O8  UNL     1      11.535  16.686  18.372  1.00  0.00    -0.331 OA
HETATM   39  C28 UNL     1      12.977  18.512  18.140  1.00  0.00     0.082 C 
HETATM   40  C24 UNL     1      10.866  17.656  17.668  1.00  0.00     0.267 C 
HETATM   41  O9  UNL     1      11.217  17.492  16.315  1.00  0.00    -0.361 OA
HETATM   42  C27 UNL     1      11.548  18.987  17.981  1.00  0.00     0.054 C 
HETATM   43  C25 UNL     1      11.055  18.711  15.702  1.00  0.00     0.171 C 
HETATM   44  C26 UNL     1      11.340  19.780  16.734  1.00  0.00     0.036 C 
ENDBRANCH  33  34
ENDBRANCH  30  33
ENDBRANCH   1  29
TORSDOF 14
ENDMDL
