MODEL 4
REMARK VINA RESULT: -10.282160439      1.700      2.717
REMARK  14 active torsions:
REMARK  status: ('A' for Active; 'I' for Inactive)
REMARK    1  A    between atoms: O1_2  and  C2_3 
REMARK    2  A    between atoms: C5_6  and  S1_7 
REMARK    3  A    between atoms: S1_7  and  N1_10 
REMARK    4  A    between atoms: N1_10  and  C6_11 
REMARK    5  A    between atoms: N1_10  and  C10_15 
REMARK    6  A    between atoms: C6_11  and  C7_12 
REMARK    7  A    between atoms: C10_15  and  C11_16 
REMARK    8  A    between atoms: C11_16  and  O4_17 
REMARK    9  A    between atoms: C11_16  and  C12_19 
REMARK   10  A    between atoms: C12_19  and  C13_20 
REMARK   11  A    between atoms: C12_19  and  N2_27 
REMARK   12  A    between atoms: C13_20  and  C14_21 
REMARK       I    between atoms: N2_27  and  C20_29 
REMARK   13  A    between atoms: C20_29  and  O6_31 
REMARK   14  A    between atoms: O6_31  and  C21_32 
ROOT
HETATM    1  C12 UNL     1      17.112  22.870  16.066  1.00  0.00     0.026 C 
ENDROOT
BRANCH   1   2
HETATM    2  C11 UNL     1      17.770  21.793  16.844  1.00  0.00     0.178 C 
BRANCH   2   3
HETATM    3  C10 UNL     1      16.847  20.802  17.496  1.00  0.00     0.145 C 
BRANCH   3   4
HETATM    4  N1  UNL     1      16.751  20.924  18.920  1.00  0.00    -0.203 NA
BRANCH   4   5
HETATM    5  S1  UNL     1      15.172  21.030  19.546  1.00  0.00     0.243 S 
HETATM    6  O2  UNL     1      15.186  21.128  21.065  1.00  0.00    -0.206 OA
HETATM    7  O3  UNL     1      14.556  22.356  19.100  1.00  0.00    -0.206 OA
BRANCH   5   8
HETATM    8  C5  UNL     1      14.095  19.761  19.105  1.00  0.00     0.074 A 
HETATM    9  C4  UNL     1      14.055  18.626  19.928  1.00  0.00     0.027 A 
HETATM   10  C3  UNL     1      13.216  17.585  19.634  1.00  0.00     0.038 A 
HETATM   11  C2  UNL     1      12.415  17.663  18.526  1.00  0.00     0.068 A 
HETATM   12  C30 UNL     1      12.458  18.785  17.718  1.00  0.00     0.038 A 
HETATM   13  C29 UNL     1      13.280  19.834  17.985  1.00  0.00     0.027 A 
BRANCH  11  14
HETATM   14  O1  UNL     1      11.571  16.627  18.223  1.00  0.00    -0.356 OA
HETATM   15  C1  UNL     1      10.744  16.605  17.097  1.00  0.00     0.210 C 
ENDBRANCH  11  14
ENDBRANCH   5   8
ENDBRANCH   4   5
BRANCH   4  16
HETATM   16  C6  UNL     1      17.605  21.906  19.511  1.00  0.00     0.111 C 
BRANCH  16  17
HETATM   17  C7  UNL     1      18.917  21.426  20.018  1.00  0.00    -0.009 C 
HETATM   18  C8  UNL     1      19.976  22.433  19.586  1.00  0.00     0.011 C 
HETATM   19  C9  UNL     1      18.920  21.131  21.471  1.00  0.00     0.011 C 
ENDBRANCH  16  17
ENDBRANCH   4  16
ENDBRANCH   3   4
ENDBRANCH   2   3
BRANCH   2  20
HETATM   20  O4  UNL     1      18.562  21.064  15.920  1.00  0.00    -0.389 OA
ATOM     21  H4  UNL     1      18.295  21.344  15.053  1.00  0.00     0.210 HD
ENDBRANCH   2  20
ENDBRANCH   1   2
BRANCH   1  22
HETATM   22  C13 UNL     1      16.685  22.592  14.685  1.00  0.00     0.094 C 
BRANCH  22  23
HETATM   23  C14 UNL     1      15.341  22.118  14.425  1.00  0.00    -0.053 A 
HETATM   24  C15 UNL     1      14.963  21.235  13.460  1.00  0.00     0.007 A 
HETATM   25  C16 UNL     1      13.648  20.870  13.281  1.00  0.00     0.001 A 
HETATM   26  C17 UNL     1      12.636  21.395  14.089  1.00  0.00     0.000 A 
HETATM   27  C18 UNL     1      13.000  22.292  15.073  1.00  0.00     0.001 A 
HETATM   28  C19 UNL     1      14.318  22.640  15.232  1.00  0.00     0.007 A 
ENDBRANCH  22  23
ENDBRANCH   1  22
BRANCH   1  29
HETATM   29  N2  UNL     1      17.734  24.167  16.279  1.00  0.00    -0.307 N 
HETATM   30  C20 UNL     1      19.032  24.521  15.904  1.00  0.00     0.365 C 
HETATM   31  O5  UNL     1      19.741  23.639  15.328  1.00  0.00    -0.238 OA
ATOM     32  H2  UNL     1      17.173  24.880  16.744  1.00  0.00     0.170 HD
BRANCH  30  33
HETATM   33  O6  UNL     1      19.592  25.782  16.125  1.00  0.00    -0.296 OA
BRANCH  33  34
HETATM   34  C21 UNL     1      20.259  26.398  15.068  1.00  0.00     0.167 C 
HETATM   35  C22 UNL     1      19.640  27.697  14.616  1.00  0.00     0.204 C 
HETATM   36  O7  UNL     1      20.625  28.476  14.081  1.00  0.00    -0.358 OA
HETATM   37  C23 UNL     1      21.862  27.898  14.283  1.00  0.00     0.270 C 
HETATM   38  O8  UNL     1      22.714  28.839  14.788  1.00  0.00    -0.331 OA
HETATM   39  C28 UNL     1      21.668  26.830  15.370  1.00  0.00     0.082 C 
HETATM   40  C24 UNL     1      22.870  28.667  16.141  1.00  0.00     0.267 C 
HETATM   41  O9  UNL     1      24.013  27.866  16.320  1.00  0.00    -0.361 OA
HETATM   42  C27 UNL     1      21.772  27.708  16.600  1.00  0.00     0.054 C 
HETATM   43  C25 UNL     1      23.875  27.225  17.528  1.00  0.00     0.171 C 
HETATM   44  C26 UNL     1      22.396  27.004  17.759  1.00  0.00     0.036 C 
ENDBRANCH  33  34
ENDBRANCH  30  33
ENDBRANCH   1  29
TORSDOF 14
ENDMDL
