MODEL 1
REMARK VINA RESULT: -9.630838967      0.000      0.000
REMARK  14 active torsions:
REMARK  status: ('A' for Active; 'I' for Inactive)
REMARK    1  A    between atoms: O1_2  and  C2_3 
REMARK    2  A    between atoms: C5_6  and  S1_7 
REMARK    3  A    between atoms: S1_7  and  N1_10 
REMARK    4  A    between atoms: N1_10  and  C6_11 
REMARK    5  A    between atoms: N1_10  and  C10_15 
REMARK    6  A    between atoms: C6_11  and  C7_12 
REMARK    7  A    between atoms: C10_15  and  C11_16 
REMARK    8  A    between atoms: C11_16  and  O4_17 
REMARK    9  A    between atoms: C11_16  and  C12_19 
REMARK   10  A    between atoms: C12_19  and  C13_20 
REMARK   11  A    between atoms: C12_19  and  N2_27 
REMARK   12  A    between atoms: C13_20  and  C14_21 
REMARK       I    between atoms: N2_27  and  C20_29 
REMARK   13  A    between atoms: C20_29  and  O6_31 
REMARK   14  A    between atoms: O6_31  and  C21_32 
ROOT
HETATM    1  C12 UNL     1      13.238 -20.358 -19.529  1.00  0.00     0.026 C 
ENDROOT
BRANCH   1   2
HETATM    2  C11 UNL     1      13.170 -19.391 -18.406  1.00  0.00     0.178 C 
BRANCH   2   3
HETATM    3  C10 UNL     1      14.327 -19.423 -17.447  1.00  0.00     0.145 C 
BRANCH   3   4
HETATM    4  N1  UNL     1      14.251 -20.454 -16.455  1.00  0.00    -0.203 NA
BRANCH   4   5
HETATM    5  S1  UNL     1      12.731 -20.653 -15.714  1.00  0.00     0.243 S 
HETATM    6  O2  UNL     1      12.013 -21.882 -16.253  1.00  0.00    -0.206 OA
HETATM    7  O3  UNL     1      12.945 -20.972 -14.236  1.00  0.00    -0.206 OA
BRANCH   5   8
HETATM    8  C5  UNL     1      11.652 -19.315 -15.826  1.00  0.00     0.074 A 
HETATM    9  C4  UNL     1      10.471 -19.492 -16.560  1.00  0.00     0.027 A 
HETATM   10  C3  UNL     1       9.570 -18.467 -16.682  1.00  0.00     0.038 A 
HETATM   11  C2  UNL     1       9.835 -17.267 -16.078  1.00  0.00     0.068 A 
HETATM   12  C30 UNL     1      11.002 -17.099 -15.355  1.00  0.00     0.038 A 
HETATM   13  C29 UNL     1      11.914 -18.098 -15.217  1.00  0.00     0.027 A 
BRANCH  11  14
HETATM   14  O1  UNL     1       8.940 -16.236 -16.193  1.00  0.00    -0.356 OA
HETATM   15  C1  UNL     1       8.829 -15.199 -15.264  1.00  0.00     0.210 C 
ENDBRANCH  11  14
ENDBRANCH   5   8
ENDBRANCH   4   5
BRANCH   4  16
HETATM   16  C6  UNL     1      15.299 -20.448 -15.483  1.00  0.00     0.111 C 
BRANCH  16  17
HETATM   17  C7  UNL     1      16.333 -21.508 -15.617  1.00  0.00    -0.009 C 
HETATM   18  C8  UNL     1      17.421 -21.223 -14.589  1.00  0.00     0.011 C 
HETATM   19  C9  UNL     1      15.784 -22.883 -15.551  1.00  0.00     0.011 C 
ENDBRANCH  16  17
ENDBRANCH   4  16
ENDBRANCH   3   4
ENDBRANCH   2   3
BRANCH   2  20
HETATM   20  O4  UNL     1      13.167 -18.101 -18.995  1.00  0.00    -0.389 OA
ATOM     21  H4  UNL     1      12.662 -17.540 -18.418  1.00  0.00     0.210 HD
ENDBRANCH   2  20
ENDBRANCH   1   2
BRANCH   1  22
HETATM   22  C13 UNL     1      12.068 -21.206 -19.809  1.00  0.00     0.094 C 
BRANCH  22  23
HETATM   23  C14 UNL     1      10.834 -20.604 -20.272  1.00  0.00    -0.053 A 
HETATM   24  C15 UNL     1      10.710 -19.460 -21.000  1.00  0.00     0.007 A 
HETATM   25  C16 UNL     1       9.481 -18.960 -21.368  1.00  0.00     0.001 A 
HETATM   26  C17 UNL     1       8.298 -19.611 -21.006  1.00  0.00     0.000 A 
HETATM   27  C18 UNL     1       8.404 -20.772 -20.268  1.00  0.00     0.001 A 
HETATM   28  C19 UNL     1       9.640 -21.251 -19.914  1.00  0.00     0.007 A 
ENDBRANCH  22  23
ENDBRANCH   1  22
BRANCH   1  29
HETATM   29  N2  UNL     1      14.527 -21.026 -19.607  1.00  0.00    -0.307 N 
HETATM   30  C20 UNL     1      14.799 -22.330 -19.186  1.00  0.00     0.365 C 
HETATM   31  O5  UNL     1      13.842 -22.999 -18.684  1.00  0.00    -0.238 OA
ATOM     32  H2  UNL     1      15.301 -20.495 -20.005  1.00  0.00     0.170 HD
BRANCH  30  33
HETATM   33  O6  UNL     1      16.053 -22.937 -19.282  1.00  0.00    -0.296 OA
BRANCH  33  34
HETATM   34  C21 UNL     1      16.111 -24.259 -19.717  1.00  0.00     0.167 C 
HETATM   35  C22 UNL     1      16.695 -24.436 -21.096  1.00  0.00     0.204 C 
HETATM   36  O7  UNL     1      17.262 -25.675 -21.164  1.00  0.00    -0.358 OA
HETATM   37  C23 UNL     1      17.263 -26.276 -19.922  1.00  0.00     0.270 C 
HETATM   38  O8  UNL     1      18.511 -26.769 -19.668  1.00  0.00    -0.331 OA
HETATM   39  C28 UNL     1      16.999 -25.159 -18.901  1.00  0.00     0.082 C 
HETATM   40  C24 UNL     1      19.189 -25.939 -18.811  1.00  0.00     0.267 C 
HETATM   41  O9  UNL     1      18.977 -26.435 -17.511  1.00  0.00    -0.361 OA
HETATM   42  C27 UNL     1      18.409 -24.627 -18.748  1.00  0.00     0.054 C 
HETATM   43  C25 UNL     1      19.129 -25.380 -16.644  1.00  0.00     0.171 C 
HETATM   44  C26 UNL     1      18.689 -24.127 -17.370  1.00  0.00     0.036 C 
ENDBRANCH  33  34
ENDBRANCH  30  33
ENDBRANCH   1  29
TORSDOF 14
ENDMDL
