MODEL 5
REMARK VINA RESULT: -9.479543456      1.625      4.803
REMARK  14 active torsions:
REMARK  status: ('A' for Active; 'I' for Inactive)
REMARK    1  A    between atoms: O1_2  and  C2_3 
REMARK    2  A    between atoms: C5_6  and  S1_7 
REMARK    3  A    between atoms: S1_7  and  N1_10 
REMARK    4  A    between atoms: N1_10  and  C6_11 
REMARK    5  A    between atoms: N1_10  and  C10_15 
REMARK    6  A    between atoms: C6_11  and  C7_12 
REMARK    7  A    between atoms: C10_15  and  C11_16 
REMARK    8  A    between atoms: C11_16  and  O4_17 
REMARK    9  A    between atoms: C11_16  and  C12_19 
REMARK   10  A    between atoms: C12_19  and  C13_20 
REMARK   11  A    between atoms: C12_19  and  N2_27 
REMARK   12  A    between atoms: C13_20  and  C14_21 
REMARK       I    between atoms: N2_27  and  C20_29 
REMARK   13  A    between atoms: C20_29  and  O6_31 
REMARK   14  A    between atoms: O6_31  and  C21_32 
ROOT
HETATM    1  C12 UNL     1      14.645 -21.313 -17.195  1.00  0.00     0.026 C 
ENDROOT
BRANCH   1   2
HETATM    2  C11 UNL     1      14.214 -20.489 -18.351  1.00  0.00     0.178 C 
BRANCH   2   3
HETATM    3  C10 UNL     1      13.565 -19.177 -18.012  1.00  0.00     0.145 C 
BRANCH   3   4
HETATM    4  N1  UNL     1      12.135 -19.218 -17.948  1.00  0.00    -0.203 NA
BRANCH   4   5
HETATM    5  S1  UNL     1      11.461 -19.054 -16.393  1.00  0.00     0.243 S 
HETATM    6  O2  UNL     1      10.673 -20.294 -16.000  1.00  0.00    -0.206 OA
HETATM    7  O3  UNL     1      12.595 -19.001 -15.371  1.00  0.00    -0.206 OA
BRANCH   5   8
HETATM    8  C5  UNL     1      10.450 -17.681 -16.148  1.00  0.00     0.074 A 
HETATM    9  C4  UNL     1       9.623 -17.285 -17.208  1.00  0.00     0.027 A 
HETATM   10  C3  UNL     1       8.792 -16.205 -17.073  1.00  0.00     0.038 A 
HETATM   11  C2  UNL     1       8.776 -15.515 -15.890  1.00  0.00     0.068 A 
HETATM   12  C30 UNL     1       9.593 -15.911 -14.847  1.00  0.00     0.038 A 
HETATM   13  C29 UNL     1      10.429 -16.979 -14.952  1.00  0.00     0.027 A 
BRANCH  11  14
HETATM   14  O1  UNL     1       7.948 -14.433 -15.744  1.00  0.00    -0.356 OA
HETATM   15  C1  UNL     1       6.557 -14.501 -15.856  1.00  0.00     0.210 C 
ENDBRANCH  11  14
ENDBRANCH   5   8
ENDBRANCH   4   5
BRANCH   4  16
HETATM   16  C6  UNL     1      11.519 -20.291 -18.664  1.00  0.00     0.111 C 
BRANCH  16  17
HETATM   17  C7  UNL     1      11.402 -20.125 -20.136  1.00  0.00    -0.009 C 
HETATM   18  C8  UNL     1      10.932 -21.454 -20.715  1.00  0.00     0.011 C 
HETATM   19  C9  UNL     1      10.573 -18.963 -20.538  1.00  0.00     0.011 C 
ENDBRANCH  16  17
ENDBRANCH   4  16
ENDBRANCH   3   4
ENDBRANCH   2   3
BRANCH   2  20
HETATM   20  O4  UNL     1      15.392 -20.184 -19.081  1.00  0.00    -0.389 OA
ATOM     21  H4  UNL     1      15.231 -19.359 -19.523  1.00  0.00     0.210 HD
ENDBRANCH   2  20
ENDBRANCH   1   2
BRANCH   1  22
HETATM   22  C13 UNL     1      15.429 -20.680 -16.123  1.00  0.00     0.094 C 
BRANCH  22  23
HETATM   23  C14 UNL     1      16.012 -21.494 -15.076  1.00  0.00    -0.053 A 
HETATM   24  C15 UNL     1      17.336 -21.756 -14.893  1.00  0.00     0.007 A 
HETATM   25  C16 UNL     1      17.784 -22.568 -13.875  1.00  0.00     0.001 A 
HETATM   26  C17 UNL     1      16.891 -23.163 -12.980  1.00  0.00     0.000 A 
HETATM   27  C18 UNL     1      15.545 -22.909 -13.150  1.00  0.00     0.001 A 
HETATM   28  C19 UNL     1      15.123 -22.096 -14.172  1.00  0.00     0.007 A 
ENDBRANCH  22  23
ENDBRANCH   1  22
BRANCH   1  29
HETATM   29  N2  UNL     1      15.089 -22.639 -17.595  1.00  0.00    -0.307 N 
HETATM   30  C20 UNL     1      14.261 -23.693 -17.987  1.00  0.00     0.365 C 
HETATM   31  O5  UNL     1      13.007 -23.486 -17.996  1.00  0.00    -0.238 OA
ATOM     32  H2  UNL     1      16.093 -22.814 -17.588  1.00  0.00     0.170 HD
BRANCH  30  33
HETATM   33  O6  UNL     1      14.728 -24.954 -18.368  1.00  0.00    -0.296 OA
BRANCH  33  34
HETATM   34  C21 UNL     1      15.381 -25.069 -19.594  1.00  0.00     0.167 C 
HETATM   35  C22 UNL     1      15.803 -23.754 -20.199  1.00  0.00     0.204 C 
HETATM   36  O7  UNL     1      16.897 -23.977 -20.984  1.00  0.00    -0.358 OA
HETATM   37  C23 UNL     1      17.347 -25.273 -20.830  1.00  0.00     0.270 C 
HETATM   38  O8  UNL     1      18.696 -25.251 -20.614  1.00  0.00    -0.331 OA
HETATM   39  C28 UNL     1      16.690 -25.809 -19.550  1.00  0.00     0.082 C 
HETATM   40  C24 UNL     1      18.971 -25.435 -19.282  1.00  0.00     0.267 C 
HETATM   41  O9  UNL     1      19.193 -26.812 -19.099  1.00  0.00    -0.361 OA
HETATM   42  C27 UNL     1      17.656 -25.252 -18.525  1.00  0.00     0.054 C 
HETATM   43  C25 UNL     1      18.905 -27.098 -17.786  1.00  0.00     0.171 C 
HETATM   44  C26 UNL     1      17.817 -26.146 -17.340  1.00  0.00     0.036 C 
ENDBRANCH  33  34
ENDBRANCH  30  33
ENDBRANCH   1  29
TORSDOF 14
ENDMDL
