MODEL 13
REMARK VINA RESULT: -9.339174777      2.380      9.732
REMARK  14 active torsions:
REMARK  status: ('A' for Active; 'I' for Inactive)
REMARK    1  A    between atoms: O1_2  and  C2_3 
REMARK    2  A    between atoms: C5_6  and  S1_7 
REMARK    3  A    between atoms: S1_7  and  N1_10 
REMARK    4  A    between atoms: N1_10  and  C6_11 
REMARK    5  A    between atoms: N1_10  and  C10_15 
REMARK    6  A    between atoms: C6_11  and  C7_12 
REMARK    7  A    between atoms: C10_15  and  C11_16 
REMARK    8  A    between atoms: C11_16  and  O4_17 
REMARK    9  A    between atoms: C11_16  and  C12_19 
REMARK   10  A    between atoms: C12_19  and  C13_20 
REMARK   11  A    between atoms: C12_19  and  N2_27 
REMARK   12  A    between atoms: C13_20  and  C14_21 
REMARK       I    between atoms: N2_27  and  C20_29 
REMARK   13  A    between atoms: C20_29  and  O6_31 
REMARK   14  A    between atoms: O6_31  and  C21_32 
ROOT
HETATM    1  C12 UNL     1      11.242 -18.639 -18.266  1.00  0.00     0.026 C 
ENDROOT
BRANCH   1   2
HETATM    2  C11 UNL     1      12.639 -18.537 -17.777  1.00  0.00     0.178 C 
BRANCH   2   3
HETATM    3  C10 UNL     1      13.621 -19.486 -18.405  1.00  0.00     0.145 C 
BRANCH   3   4
HETATM    4  N1  UNL     1      13.972 -20.609 -17.587  1.00  0.00    -0.203 NA
BRANCH   4   5
HETATM    5  S1  UNL     1      13.804 -22.136 -18.318  1.00  0.00     0.243 S 
HETATM    6  O2  UNL     1      13.012 -23.087 -17.432  1.00  0.00    -0.206 OA
HETATM    7  O3  UNL     1      12.935 -21.989 -19.566  1.00  0.00    -0.206 OA
BRANCH   5   8
HETATM    8  C5  UNL     1      15.267 -22.925 -18.770  1.00  0.00     0.074 A 
HETATM    9  C4  UNL     1      15.287 -23.604 -19.997  1.00  0.00     0.027 A 
HETATM   10  C3  UNL     1      16.422 -24.246 -20.415  1.00  0.00     0.038 A 
HETATM   11  C2  UNL     1      17.539 -24.218 -19.623  1.00  0.00     0.068 A 
HETATM   12  C30 UNL     1      17.513 -23.545 -18.415  1.00  0.00     0.038 A 
HETATM   13  C29 UNL     1      16.401 -22.899 -17.973  1.00  0.00     0.027 A 
BRANCH  11  14
HETATM   14  O1  UNL     1      18.680 -24.856 -20.032  1.00  0.00    -0.356 OA
HETATM   15  C1  UNL     1      19.088 -26.101 -19.547  1.00  0.00     0.210 C 
ENDBRANCH  11  14
ENDBRANCH   5   8
ENDBRANCH   4   5
BRANCH   4  16
HETATM   16  C6  UNL     1      13.417 -20.605 -16.270  1.00  0.00     0.111 C 
BRANCH  16  17
HETATM   17  C7  UNL     1      14.382 -20.492 -15.144  1.00  0.00    -0.009 C 
HETATM   18  C8  UNL     1      14.456 -21.854 -14.463  1.00  0.00     0.011 C 
HETATM   19  C9  UNL     1      15.699 -19.943 -15.544  1.00  0.00     0.011 C 
ENDBRANCH  16  17
ENDBRANCH   4  16
ENDBRANCH   3   4
ENDBRANCH   2   3
BRANCH   2  20
HETATM   20  O4  UNL     1      13.077 -17.227 -18.100  1.00  0.00    -0.389 OA
ATOM     21  H4  UNL     1      13.674 -17.313 -18.834  1.00  0.00     0.210 HD
ENDBRANCH   2  20
ENDBRANCH   1   2
BRANCH   1  22
HETATM   22  C13 UNL     1      10.995 -19.203 -19.602  1.00  0.00     0.094 C 
BRANCH  22  23
HETATM   23  C14 UNL     1       9.638 -19.321 -20.098  1.00  0.00    -0.053 A 
HETATM   24  C15 UNL     1       8.734 -20.285 -19.771  1.00  0.00     0.007 A 
HETATM   25  C16 UNL     1       7.473 -20.319 -20.323  1.00  0.00     0.001 A 
HETATM   26  C17 UNL     1       7.065 -19.356 -21.250  1.00  0.00     0.000 A 
HETATM   27  C18 UNL     1       7.967 -18.371 -21.594  1.00  0.00     0.001 A 
HETATM   28  C19 UNL     1       9.219 -18.359 -21.030  1.00  0.00     0.007 A 
ENDBRANCH  22  23
ENDBRANCH   1  22
BRANCH   1  29
HETATM   29  N2  UNL     1      10.450 -17.469 -17.924  1.00  0.00    -0.307 N 
HETATM   30  C20 UNL     1       9.788 -17.257 -16.712  1.00  0.00     0.365 C 
HETATM   31  O5  UNL     1       9.878 -18.161 -15.825  1.00  0.00    -0.238 OA
ATOM     32  H2  UNL     1      10.369 -16.740 -18.632  1.00  0.00     0.170 HD
BRANCH  30  33
HETATM   33  O6  UNL     1       9.038 -16.115 -16.422  1.00  0.00    -0.296 OA
BRANCH  33  34
HETATM   34  C21 UNL     1       7.881 -16.266 -15.659  1.00  0.00     0.167 C 
HETATM   35  C22 UNL     1       7.447 -15.018 -14.933  1.00  0.00     0.204 C 
HETATM   36  O7  UNL     1       6.094 -15.070 -14.764  1.00  0.00    -0.358 OA
HETATM   37  C23 UNL     1       5.561 -16.143 -15.451  1.00  0.00     0.270 C 
HETATM   38  O8  UNL     1       4.492 -15.714 -16.184  1.00  0.00    -0.331 OA
HETATM   39  C28 UNL     1       6.641 -16.599 -16.445  1.00  0.00     0.082 C 
HETATM   40  C24 UNL     1       4.842 -15.571 -17.504  1.00  0.00     0.267 C 
HETATM   41  O9  UNL     1       4.509 -16.778 -18.146  1.00  0.00    -0.361 OA
HETATM   42  C27 UNL     1       6.368 -15.622 -17.570  1.00  0.00     0.054 C 
HETATM   43  C25 UNL     1       5.323 -16.891 -19.247  1.00  0.00     0.171 C 
HETATM   44  C26 UNL     1       6.632 -16.209 -18.918  1.00  0.00     0.036 C 
ENDBRANCH  33  34
ENDBRANCH  30  33
ENDBRANCH   1  29
TORSDOF 14
ENDMDL
