MODEL 4
REMARK VINA RESULT: -9.485475362      2.733      6.064
REMARK  14 active torsions:
REMARK  status: ('A' for Active; 'I' for Inactive)
REMARK    1  A    between atoms: O1_2  and  C2_3 
REMARK    2  A    between atoms: C5_6  and  S1_7 
REMARK    3  A    between atoms: S1_7  and  N1_10 
REMARK    4  A    between atoms: N1_10  and  C6_11 
REMARK    5  A    between atoms: N1_10  and  C10_15 
REMARK    6  A    between atoms: C6_11  and  C7_12 
REMARK    7  A    between atoms: C10_15  and  C11_16 
REMARK    8  A    between atoms: C11_16  and  O4_17 
REMARK    9  A    between atoms: C11_16  and  C12_19 
REMARK   10  A    between atoms: C12_19  and  C13_20 
REMARK   11  A    between atoms: C12_19  and  N2_27 
REMARK   12  A    between atoms: C13_20  and  C14_21 
REMARK       I    between atoms: N2_27  and  C20_29 
REMARK   13  A    between atoms: C20_29  and  O6_31 
REMARK   14  A    between atoms: O6_31  and  C21_32 
ROOT
HETATM    1  C12 UNL     1      12.553 -19.698 -17.167  1.00  0.00     0.026 C 
ENDROOT
BRANCH   1   2
HETATM    2  C11 UNL     1      11.971 -18.684 -18.080  1.00  0.00     0.178 C 
BRANCH   2   3
HETATM    3  C10 UNL     1      10.486 -18.484 -17.971  1.00  0.00     0.145 C 
BRANCH   3   4
HETATM    4  N1  UNL     1       9.729 -19.029 -19.059  1.00  0.00    -0.203 NA
BRANCH   4   5
HETATM    5  S1  UNL     1       8.098 -18.550 -19.136  1.00  0.00     0.243 S 
HETATM    6  O2  UNL     1       7.169 -19.696 -18.763  1.00  0.00    -0.206 OA
HETATM    7  O3  UNL     1       7.843 -17.504 -18.052  1.00  0.00    -0.206 OA
BRANCH   5   8
HETATM    8  C5  UNL     1       7.568 -17.905 -20.642  1.00  0.00     0.074 A 
HETATM    9  C4  UNL     1       6.509 -18.555 -21.292  1.00  0.00     0.027 A 
HETATM   10  C3  UNL     1       6.039 -18.088 -22.490  1.00  0.00     0.038 A 
HETATM   11  C2  UNL     1       6.613 -16.977 -23.048  1.00  0.00     0.068 A 
HETATM   12  C30 UNL     1       7.657 -16.339 -22.402  1.00  0.00     0.038 A 
HETATM   13  C29 UNL     1       8.145 -16.780 -21.212  1.00  0.00     0.027 A 
BRANCH  11  14
HETATM   14  O1  UNL     1       6.150 -16.501 -24.246  1.00  0.00    -0.356 OA
HETATM   15  C1  UNL     1       6.973 -16.221 -25.340  1.00  0.00     0.210 C 
ENDBRANCH  11  14
ENDBRANCH   5   8
ENDBRANCH   4   5
BRANCH   4  16
HETATM   16  C6  UNL     1       9.861 -20.439 -19.252  1.00  0.00     0.111 C 
BRANCH  16  17
HETATM   17  C7  UNL     1      10.367 -20.883 -20.577  1.00  0.00    -0.009 C 
HETATM   18  C8  UNL     1       9.320 -21.810 -21.184  1.00  0.00     0.011 C 
HETATM   19  C9  UNL     1      10.771 -19.765 -21.462  1.00  0.00     0.011 C 
ENDBRANCH  16  17
ENDBRANCH   4  16
ENDBRANCH   3   4
ENDBRANCH   2   3
BRANCH   2  20
HETATM   20  O4  UNL     1      12.573 -17.447 -17.734  1.00  0.00    -0.389 OA
ATOM     21  H4  UNL     1      13.507 -17.551 -17.873  1.00  0.00     0.210 HD
ENDBRANCH   2  20
ENDBRANCH   1   2
BRANCH   1  22
HETATM   22  C13 UNL     1      12.857 -19.315 -15.779  1.00  0.00     0.094 C 
BRANCH  22  23
HETATM   23  C14 UNL     1      13.908 -20.000 -15.054  1.00  0.00    -0.053 A 
HETATM   24  C15 UNL     1      15.243 -19.735 -15.114  1.00  0.00     0.007 A 
HETATM   25  C16 UNL     1      16.164 -20.468 -14.399  1.00  0.00     0.001 A 
HETATM   26  C17 UNL     1      15.764 -21.524 -13.575  1.00  0.00     0.000 A 
HETATM   27  C18 UNL     1      14.416 -21.807 -13.502  1.00  0.00     0.001 A 
HETATM   28  C19 UNL     1      13.517 -21.063 -14.224  1.00  0.00     0.007 A 
ENDBRANCH  22  23
ENDBRANCH   1  22
BRANCH   1  29
HETATM   29  N2  UNL     1      13.555 -20.522 -17.823  1.00  0.00    -0.307 N 
HETATM   30  C20 UNL     1      13.446 -21.892 -18.079  1.00  0.00     0.365 C 
HETATM   31  O5  UNL     1      12.383 -22.478 -17.705  1.00  0.00    -0.238 OA
ATOM     32  H2  UNL     1      14.413 -20.061 -18.123  1.00  0.00     0.170 HD
BRANCH  30  33
HETATM   33  O6  UNL     1      14.433 -22.648 -18.716  1.00  0.00    -0.296 OA
BRANCH  33  34
HETATM   34  C21 UNL     1      15.755 -22.473 -18.314  1.00  0.00     0.167 C 
HETATM   35  C22 UNL     1      16.058 -22.983 -16.928  1.00  0.00     0.204 C 
HETATM   36  O7  UNL     1      17.376 -23.333 -16.880  1.00  0.00    -0.358 OA
HETATM   37  C23 UNL     1      17.941 -23.267 -18.137  1.00  0.00     0.270 C 
HETATM   38  O8  UNL     1      18.630 -24.421 -18.376  1.00  0.00    -0.331 OA
HETATM   39  C28 UNL     1      16.773 -23.220 -19.134  1.00  0.00     0.082 C 
HETATM   40  C24 UNL     1      17.906 -25.251 -19.196  1.00  0.00     0.267 C 
HETATM   41  O9  UNL     1      18.331 -24.993 -20.512  1.00  0.00    -0.361 OA
HETATM   42  C27 UNL     1      16.481 -24.702 -19.241  1.00  0.00     0.054 C 
HETATM   43  C25 UNL     1      17.297 -25.341 -21.348  1.00  0.00     0.171 C 
HETATM   44  C26 UNL     1      16.005 -25.098 -20.600  1.00  0.00     0.036 C 
ENDBRANCH  33  34
ENDBRANCH  30  33
ENDBRANCH   1  29
TORSDOF 14
ENDMDL
