MODEL 3
REMARK VINA RESULT: -9.319951411      2.655     10.377
REMARK  14 active torsions:
REMARK  status: ('A' for Active; 'I' for Inactive)
REMARK    1  A    between atoms: O1_2  and  C2_3 
REMARK    2  A    between atoms: C5_6  and  S1_7 
REMARK    3  A    between atoms: S1_7  and  N1_10 
REMARK    4  A    between atoms: N1_10  and  C6_11 
REMARK    5  A    between atoms: N1_10  and  C10_15 
REMARK    6  A    between atoms: C6_11  and  C7_12 
REMARK    7  A    between atoms: C10_15  and  C11_16 
REMARK    8  A    between atoms: C11_16  and  O4_17 
REMARK    9  A    between atoms: C11_16  and  C12_19 
REMARK   10  A    between atoms: C12_19  and  C13_20 
REMARK   11  A    between atoms: C12_19  and  N2_27 
REMARK   12  A    between atoms: C13_20  and  C14_21 
REMARK       I    between atoms: N2_27  and  C20_29 
REMARK   13  A    between atoms: C20_29  and  O6_31 
REMARK   14  A    between atoms: O6_31  and  C21_32 
ROOT
HETATM    1  C12 UNL     1     -12.882  19.885 -17.438  1.00  0.00     0.026 C 
ENDROOT
BRANCH   1   2
HETATM    2  C11 UNL     1     -12.718  18.989 -18.609  1.00  0.00     0.178 C 
BRANCH   2   3
HETATM    3  C10 UNL     1     -11.436  18.205 -18.656  1.00  0.00     0.145 C 
BRANCH   3   4
HETATM    4  N1  UNL     1     -10.249  18.995 -18.517  1.00  0.00    -0.203 NA
BRANCH   4   5
HETATM    5  S1  UNL     1      -9.558  19.549 -19.971  1.00  0.00     0.243 S 
HETATM    6  O2  UNL     1     -10.574  19.536 -21.104  1.00  0.00    -0.206 OA
HETATM    7  O3  UNL     1      -9.204  21.027 -19.813  1.00  0.00    -0.206 OA
BRANCH   5   8
HETATM    8  C5  UNL     1      -8.152  18.713 -20.508  1.00  0.00     0.074 A 
HETATM    9  C4  UNL     1      -8.334  17.474 -21.139  1.00  0.00     0.027 A 
HETATM   10  C3  UNL     1      -7.255  16.762 -21.593  1.00  0.00     0.038 A 
HETATM   11  C2  UNL     1      -5.996  17.274 -21.426  1.00  0.00     0.068 A 
HETATM   12  C30 UNL     1      -5.823  18.497 -20.803  1.00  0.00     0.038 A 
HETATM   13  C29 UNL     1      -6.874  19.226 -20.342  1.00  0.00     0.027 A 
BRANCH  11  14
HETATM   14  O1  UNL     1      -4.910  16.571 -21.877  1.00  0.00    -0.356 OA
HETATM   15  C1  UNL     1      -3.747  17.170 -22.366  1.00  0.00     0.210 C 
ENDBRANCH  11  14
ENDBRANCH   5   8
ENDBRANCH   4   5
BRANCH   4  16
HETATM   16  C6  UNL     1      -9.252  18.456 -17.647  1.00  0.00     0.111 C 
BRANCH  16  17
HETATM   17  C7  UNL     1      -9.548  17.131 -17.040  1.00  0.00    -0.009 C 
HETATM   18  C8  UNL     1      -8.524  16.138 -17.578  1.00  0.00     0.011 C 
HETATM   19  C9  UNL     1      -9.639  17.164 -15.561  1.00  0.00     0.011 C 
ENDBRANCH  16  17
ENDBRANCH   4  16
ENDBRANCH   3   4
ENDBRANCH   2   3
BRANCH   2  20
HETATM   20  O4  UNL     1     -13.771  18.042 -18.534  1.00  0.00    -0.389 OA
ATOM     21  H4  UNL     1     -13.432  17.230 -18.892  1.00  0.00     0.210 HD
ENDBRANCH   2  20
ENDBRANCH   1   2
BRANCH   1  22
HETATM   22  C13 UNL     1     -13.232  19.297 -16.135  1.00  0.00     0.094 C 
BRANCH  22  23
HETATM   23  C14 UNL     1     -14.225  19.936 -15.296  1.00  0.00    -0.053 A 
HETATM   24  C15 UNL     1     -15.572  19.744 -15.341  1.00  0.00     0.007 A 
HETATM   25  C16 UNL     1     -16.433  20.426 -14.510  1.00  0.00     0.001 A 
HETATM   26  C17 UNL     1     -15.956  21.352 -13.579  1.00  0.00     0.000 A 
HETATM   27  C18 UNL     1     -14.594  21.560 -13.519  1.00  0.00     0.001 A 
HETATM   28  C19 UNL     1     -13.755  20.868 -14.357  1.00  0.00     0.007 A 
ENDBRANCH  22  23
ENDBRANCH   1  22
BRANCH   1  29
HETATM   29  N2  UNL     1     -13.579  21.115 -17.776  1.00  0.00    -0.307 N 
HETATM   30  C20 UNL     1     -13.079  22.409 -17.612  1.00  0.00     0.365 C 
HETATM   31  O5  UNL     1     -11.914  22.532 -17.120  1.00  0.00    -0.238 OA
ATOM     32  H2  UNL     1     -14.516  21.025 -18.168  1.00  0.00     0.170 HD
BRANCH  30  33
HETATM   33  O6  UNL     1     -13.781  23.568 -17.953  1.00  0.00    -0.296 OA
BRANCH  33  34
HETATM   34  C21 UNL     1     -13.935  23.867 -19.305  1.00  0.00     0.167 C 
HETATM   35  C22 UNL     1     -14.165  22.666 -20.186  1.00  0.00     0.204 C 
HETATM   36  O7  UNL     1     -14.885  23.065 -21.274  1.00  0.00    -0.358 OA
HETATM   37  C23 UNL     1     -15.301  24.374 -21.126  1.00  0.00     0.270 C 
HETATM   38  O8  UNL     1     -16.635  24.450 -21.411  1.00  0.00    -0.331 OA
HETATM   39  C28 UNL     1     -15.134  24.713 -19.637  1.00  0.00     0.082 C 
HETATM   40  C24 UNL     1     -17.369  24.518 -20.254  1.00  0.00     0.267 C 
HETATM   41  O9  UNL     1     -17.580  25.883 -19.985  1.00  0.00    -0.361 OA
HETATM   42  C27 UNL     1     -16.433  24.141 -19.106  1.00  0.00     0.054 C 
HETATM   43  C25 UNL     1     -17.780  26.004 -18.631  1.00  0.00     0.171 C 
HETATM   44  C26 UNL     1     -16.975  24.918 -17.952  1.00  0.00     0.036 C 
ENDBRANCH  33  34
ENDBRANCH  30  33
ENDBRANCH   1  29
TORSDOF 14
ENDMDL
