MODEL 6
REMARK VINA RESULT: -9.202220492      1.458      4.840
REMARK  14 active torsions:
REMARK  status: ('A' for Active; 'I' for Inactive)
REMARK    1  A    between atoms: O1_2  and  C2_3 
REMARK    2  A    between atoms: C5_6  and  S1_7 
REMARK    3  A    between atoms: S1_7  and  N1_10 
REMARK    4  A    between atoms: N1_10  and  C6_11 
REMARK    5  A    between atoms: N1_10  and  C10_15 
REMARK    6  A    between atoms: C6_11  and  C7_12 
REMARK    7  A    between atoms: C10_15  and  C11_16 
REMARK    8  A    between atoms: C11_16  and  O4_17 
REMARK    9  A    between atoms: C11_16  and  C12_19 
REMARK   10  A    between atoms: C12_19  and  C13_20 
REMARK   11  A    between atoms: C12_19  and  N2_27 
REMARK   12  A    between atoms: C13_20  and  C14_21 
REMARK       I    between atoms: N2_27  and  C20_29 
REMARK   13  A    between atoms: C20_29  and  O6_31 
REMARK   14  A    between atoms: O6_31  and  C21_32 
ROOT
HETATM    1  C12 UNL     1     -13.826  19.781 -16.690  1.00  0.00     0.026 C 
ENDROOT
BRANCH   1   2
HETATM    2  C11 UNL     1     -14.729  19.494 -17.831  1.00  0.00     0.178 C 
BRANCH   2   3
HETATM    3  C10 UNL     1     -14.797  20.556 -18.892  1.00  0.00     0.145 C 
BRANCH   3   4
HETATM    4  N1  UNL     1     -13.558  21.233 -19.138  1.00  0.00    -0.203 NA
BRANCH   4   5
HETATM    5  S1  UNL     1     -13.639  22.933 -19.158  1.00  0.00     0.243 S 
HETATM    6  O2  UNL     1     -13.217  23.521 -17.820  1.00  0.00    -0.206 OA
HETATM    7  O3  UNL     1     -12.591  23.461 -20.137  1.00  0.00    -0.206 OA
BRANCH   5   8
HETATM    8  C5  UNL     1     -15.163  23.614 -19.582  1.00  0.00     0.074 A 
HETATM    9  C4  UNL     1     -16.003  24.027 -18.538  1.00  0.00     0.027 A 
HETATM   10  C3  UNL     1     -17.226  24.581 -18.810  1.00  0.00     0.038 A 
HETATM   11  C2  UNL     1     -17.620  24.729 -20.113  1.00  0.00     0.068 A 
HETATM   12  C30 UNL     1     -16.786  24.321 -21.139  1.00  0.00     0.038 A 
HETATM   13  C29 UNL     1     -15.567  23.767 -20.899  1.00  0.00     0.027 A 
BRANCH  11  14
HETATM   14  O1  UNL     1     -18.841  25.283 -20.396  1.00  0.00    -0.356 OA
HETATM   15  C1  UNL     1     -19.321  26.449 -19.796  1.00  0.00     0.210 C 
ENDBRANCH  11  14
ENDBRANCH   5   8
ENDBRANCH   4   5
BRANCH   4  16
HETATM   16  C6  UNL     1     -12.800  20.741 -20.245  1.00  0.00     0.111 C 
BRANCH  16  17
HETATM   17  C7  UNL     1     -11.512  20.073 -19.922  1.00  0.00    -0.009 C 
HETATM   18  C8  UNL     1     -11.372  18.869 -20.846  1.00  0.00     0.011 C 
HETATM   19  C9  UNL     1     -10.347  20.989 -19.943  1.00  0.00     0.011 C 
ENDBRANCH  16  17
ENDBRANCH   4  16
ENDBRANCH   3   4
ENDBRANCH   2   3
BRANCH   2  20
HETATM   20  O4  UNL     1     -14.220  18.327 -18.455  1.00  0.00    -0.389 OA
ATOM     21  H4  UNL     1     -13.291  18.472 -18.586  1.00  0.00     0.210 HD
ENDBRANCH   2  20
ENDBRANCH   1   2
BRANCH   1  22
HETATM   22  C13 UNL     1     -14.157  20.890 -15.781  1.00  0.00     0.094 C 
BRANCH  22  23
HETATM   23  C14 UNL     1     -15.532  21.109 -15.378  1.00  0.00    -0.053 A 
HETATM   24  C15 UNL     1     -16.341  20.224 -14.734  1.00  0.00     0.007 A 
HETATM   25  C16 UNL     1     -17.647  20.527 -14.419  1.00  0.00     0.001 A 
HETATM   26  C17 UNL     1     -18.202  21.766 -14.752  1.00  0.00     0.000 A 
HETATM   27  C18 UNL     1     -17.397  22.675 -15.406  1.00  0.00     0.001 A 
HETATM   28  C19 UNL     1     -16.098  22.351 -15.708  1.00  0.00     0.007 A 
ENDBRANCH  22  23
ENDBRANCH   1  22
BRANCH   1  29
HETATM   29  N2  UNL     1     -12.423  19.669 -17.053  1.00  0.00    -0.307 N 
HETATM   30  C20 UNL     1     -11.453  18.946 -16.353  1.00  0.00     0.365 C 
HETATM   31  O5  UNL     1     -11.820  18.333 -15.302  1.00  0.00    -0.238 OA
ATOM     32  H2  UNL     1     -12.119  20.160 -17.893  1.00  0.00     0.170 HD
BRANCH  30  33
HETATM   33  O6  UNL     1     -10.113  18.860 -16.738  1.00  0.00    -0.296 OA
BRANCH  33  34
HETATM   34  C21 UNL     1      -9.751  17.856 -17.634  1.00  0.00     0.167 C 
HETATM   35  C22 UNL     1      -8.491  18.141 -18.411  1.00  0.00     0.204 C 
HETATM   36  O7  UNL     1      -7.914  16.949 -18.742  1.00  0.00    -0.358 OA
HETATM   37  C23 UNL     1      -8.571  15.905 -18.121  1.00  0.00     0.270 C 
HETATM   38  O8  UNL     1      -7.649  15.093 -17.524  1.00  0.00    -0.331 OA
HETATM   39  C28 UNL     1      -9.418  16.531 -17.003  1.00  0.00     0.082 C 
HETATM   40  C24 UNL     1      -7.608  15.329 -16.172  1.00  0.00     0.267 C 
HETATM   41  O9  UNL     1      -8.478  14.401 -15.571  1.00  0.00    -0.361 OA
HETATM   42  C27 UNL     1      -8.362  16.634 -15.922  1.00  0.00     0.054 C 
HETATM   43  C25 UNL     1      -8.892  14.945 -14.379  1.00  0.00     0.171 C 
HETATM   44  C26 UNL     1      -8.923  16.447 -14.551  1.00  0.00     0.036 C 
ENDBRANCH  33  34
ENDBRANCH  30  33
ENDBRANCH   1  29
TORSDOF 14
ENDMDL
