MODEL 1
REMARK VINA RESULT: -9.774702032      0.000      0.000
REMARK  14 active torsions:
REMARK  status: ('A' for Active; 'I' for Inactive)
REMARK    1  A    between atoms: O1_2  and  C2_3 
REMARK    2  A    between atoms: C5_6  and  S1_7 
REMARK    3  A    between atoms: S1_7  and  N1_10 
REMARK    4  A    between atoms: N1_10  and  C6_11 
REMARK    5  A    between atoms: N1_10  and  C10_15 
REMARK    6  A    between atoms: C6_11  and  C7_12 
REMARK    7  A    between atoms: C10_15  and  C11_16 
REMARK    8  A    between atoms: C11_16  and  O4_17 
REMARK    9  A    between atoms: C11_16  and  C12_19 
REMARK   10  A    between atoms: C12_19  and  C13_20 
REMARK   11  A    between atoms: C12_19  and  N2_27 
REMARK   12  A    between atoms: C13_20  and  C14_21 
REMARK       I    between atoms: N2_27  and  C20_29 
REMARK   13  A    between atoms: C20_29  and  O6_31 
REMARK   14  A    between atoms: O6_31  and  C21_32 
ROOT
HETATM    1  C12 UNL     1     -12.109  19.078 -18.598  1.00  0.00     0.026 C 
ENDROOT
BRANCH   1   2
HETATM    2  C11 UNL     1     -13.536  19.326 -18.276  1.00  0.00     0.178 C 
BRANCH   2   3
HETATM    3  C10 UNL     1     -14.197  20.431 -19.050  1.00  0.00     0.145 C 
BRANCH   3   4
HETATM    4  N1  UNL     1     -14.798  21.449 -18.241  1.00  0.00    -0.203 NA
BRANCH   4   5
HETATM    5  S1  UNL     1     -14.571  23.048 -18.779  1.00  0.00     0.243 S 
HETATM    6  O2  UNL     1     -13.716  23.841 -17.802  1.00  0.00    -0.206 OA
HETATM    7  O3  UNL     1     -13.736  23.021 -20.058  1.00  0.00    -0.206 OA
BRANCH   5   8
HETATM    8  C5  UNL     1     -16.003  23.953 -19.089  1.00  0.00     0.074 A 
HETATM    9  C4  UNL     1     -16.010  24.795 -20.210  1.00  0.00     0.027 A 
HETATM   10  C3  UNL     1     -17.120  25.537 -20.514  1.00  0.00     0.038 A 
HETATM   11  C2  UNL     1     -18.225  25.448 -19.710  1.00  0.00     0.068 A 
HETATM   12  C30 UNL     1     -18.213  24.615 -18.606  1.00  0.00     0.038 A 
HETATM   13  C29 UNL     1     -17.126  23.867 -18.280  1.00  0.00     0.027 A 
BRANCH  11  14
HETATM   14  O1  UNL     1     -19.342  26.185 -20.005  1.00  0.00    -0.356 OA
HETATM   15  C1  UNL     1     -19.816  27.227 -19.205  1.00  0.00     0.210 C 
ENDBRANCH  11  14
ENDBRANCH   5   8
ENDBRANCH   4   5
BRANCH   4  16
HETATM   16  C6  UNL     1     -14.556  21.339 -16.837  1.00  0.00     0.111 C 
BRANCH  16  17
HETATM   17  C7  UNL     1     -15.754  21.246 -15.962  1.00  0.00    -0.009 C 
HETATM   18  C8  UNL     1     -15.731  19.877 -15.292  1.00  0.00     0.011 C 
HETATM   19  C9  UNL     1     -15.888  22.380 -15.017  1.00  0.00     0.011 C 
ENDBRANCH  16  17
ENDBRANCH   4  16
ENDBRANCH   3   4
ENDBRANCH   2   3
BRANCH   2  20
HETATM   20  O4  UNL     1     -14.229  18.131 -18.601  1.00  0.00    -0.389 OA
ATOM     21  H4  UNL     1     -13.567  17.473 -18.778  1.00  0.00     0.210 HD
ENDBRANCH   2  20
ENDBRANCH   1   2
BRANCH   1  22
HETATM   22  C13 UNL     1     -11.634  19.332 -19.967  1.00  0.00     0.094 C 
BRANCH  22  23
HETATM   23  C14 UNL     1     -10.216  19.476 -20.226  1.00  0.00    -0.053 A 
HETATM   24  C15 UNL     1      -9.330  18.474 -20.482  1.00  0.00     0.007 A 
HETATM   25  C16 UNL     1      -7.991  18.720 -20.689  1.00  0.00     0.001 A 
HETATM   26  C17 UNL     1      -7.481  20.020 -20.645  1.00  0.00     0.000 A 
HETATM   27  C18 UNL     1      -8.363  21.049 -20.387  1.00  0.00     0.001 A 
HETATM   28  C19 UNL     1      -9.693  20.778 -20.184  1.00  0.00     0.007 A 
ENDBRANCH  22  23
ENDBRANCH   1  22
BRANCH   1  29
HETATM   29  N2  UNL     1     -11.604  17.865 -17.976  1.00  0.00    -0.307 N 
HETATM   30  C20 UNL     1     -10.775  17.808 -16.853  1.00  0.00     0.365 C 
HETATM   31  O5  UNL     1     -10.422  18.907 -16.324  1.00  0.00    -0.238 OA
ATOM     32  H2  UNL     1     -11.879  16.978 -18.396  1.00  0.00     0.170 HD
BRANCH  30  33
HETATM   33  O6  UNL     1     -10.313  16.619 -16.282  1.00  0.00    -0.296 OA
BRANCH  33  34
HETATM   34  C21 UNL     1      -9.201  16.682 -15.445  1.00  0.00     0.167 C 
HETATM   35  C22 UNL     1      -9.110  15.557 -14.445  1.00  0.00     0.204 C 
HETATM   36  O7  UNL     1      -7.794  15.355 -14.146  1.00  0.00    -0.358 OA
HETATM   37  C23 UNL     1      -6.989  16.117 -14.969  1.00  0.00     0.270 C 
HETATM   38  O8  UNL     1      -6.004  15.323 -15.485  1.00  0.00    -0.331 OA
HETATM   39  C28 UNL     1      -7.872  16.566 -16.143  1.00  0.00     0.082 C 
HETATM   40  C24 UNL     1      -6.297  14.976 -16.780  1.00  0.00     0.267 C 
HETATM   41  O9  UNL     1      -5.657  15.918 -17.607  1.00  0.00    -0.361 OA
HETATM   42  C27 UNL     1      -7.763  15.335 -17.018  1.00  0.00     0.054 C 
HETATM   43  C25 UNL     1      -6.355  15.960 -18.790  1.00  0.00     0.171 C 
HETATM   44  C26 UNL     1      -7.804  15.660 -18.475  1.00  0.00     0.036 C 
ENDBRANCH  33  34
ENDBRANCH  30  33
ENDBRANCH   1  29
TORSDOF 14
ENDMDL
