MODEL 4
REMARK VINA RESULT: -9.271939711      2.652     10.568
REMARK  14 active torsions:
REMARK  status: ('A' for Active; 'I' for Inactive)
REMARK    1  A    between atoms: O1_2  and  C2_3 
REMARK    2  A    between atoms: C5_6  and  S1_7 
REMARK    3  A    between atoms: S1_7  and  N1_10 
REMARK    4  A    between atoms: N1_10  and  C6_11 
REMARK    5  A    between atoms: N1_10  and  C10_15 
REMARK    6  A    between atoms: C6_11  and  C7_12 
REMARK    7  A    between atoms: C10_15  and  C11_16 
REMARK    8  A    between atoms: C11_16  and  O4_17 
REMARK    9  A    between atoms: C11_16  and  C12_19 
REMARK   10  A    between atoms: C12_19  and  C13_20 
REMARK   11  A    between atoms: C12_19  and  N2_27 
REMARK   12  A    between atoms: C13_20  and  C14_21 
REMARK       I    between atoms: N2_27  and  C20_29 
REMARK   13  A    between atoms: C20_29  and  O6_31 
REMARK   14  A    between atoms: O6_31  and  C21_32 
ROOT
HETATM    1  C12 UNL     1     -12.817  19.743 -17.685  1.00  0.00     0.026 C 
ENDROOT
BRANCH   1   2
HETATM    2  C11 UNL     1     -12.532  18.744 -18.743  1.00  0.00     0.178 C 
BRANCH   2   3
HETATM    3  C10 UNL     1     -11.258  17.965 -18.579  1.00  0.00     0.145 C 
BRANCH   3   4
HETATM    4  N1  UNL     1     -10.072  18.767 -18.520  1.00  0.00    -0.203 NA
BRANCH   4   5
HETATM    5  S1  UNL     1      -9.462  19.292 -20.020  1.00  0.00     0.243 S 
HETATM    6  O2  UNL     1     -10.540  19.265 -21.094  1.00  0.00    -0.206 OA
HETATM    7  O3  UNL     1      -9.093  20.771 -19.908  1.00  0.00    -0.206 OA
BRANCH   5   8
HETATM    8  C5  UNL     1      -8.091  18.439 -20.620  1.00  0.00     0.074 A 
HETATM    9  C4  UNL     1      -6.843  19.071 -20.533  1.00  0.00     0.027 A 
HETATM   10  C3  UNL     1      -5.714  18.443 -20.988  1.00  0.00     0.038 A 
HETATM   11  C2  UNL     1      -5.817  17.189 -21.529  1.00  0.00     0.068 A 
HETATM   12  C30 UNL     1      -7.051  16.571 -21.612  1.00  0.00     0.038 A 
HETATM   13  C29 UNL     1      -8.189  17.169 -21.168  1.00  0.00     0.027 A 
BRANCH  11  14
HETATM   14  O1  UNL     1      -4.694  16.551 -21.987  1.00  0.00    -0.356 OA
HETATM   15  C1  UNL     1      -3.462  17.184 -22.164  1.00  0.00     0.210 C 
ENDBRANCH  11  14
ENDBRANCH   5   8
ENDBRANCH   4   5
BRANCH   4  16
HETATM   16  C6  UNL     1      -9.027  18.257 -17.690  1.00  0.00     0.111 C 
BRANCH  16  17
HETATM   17  C7  UNL     1      -9.284  16.952 -17.026  1.00  0.00    -0.009 C 
HETATM   18  C8  UNL     1      -8.282  15.946 -17.582  1.00  0.00     0.011 C 
HETATM   19  C9  UNL     1      -9.302  17.033 -15.546  1.00  0.00     0.011 C 
ENDBRANCH  16  17
ENDBRANCH   4  16
ENDBRANCH   3   4
ENDBRANCH   2   3
BRANCH   2  20
HETATM   20  O4  UNL     1     -13.592  17.802 -18.695  1.00  0.00    -0.389 OA
ATOM     21  H4  UNL     1     -14.318  18.186 -19.172  1.00  0.00     0.210 HD
ENDBRANCH   2  20
ENDBRANCH   1   2
BRANCH   1  22
HETATM   22  C13 UNL     1     -12.934  19.290 -16.290  1.00  0.00     0.094 C 
BRANCH  22  23
HETATM   23  C14 UNL     1     -13.960  19.846 -15.432  1.00  0.00    -0.053 A 
HETATM   24  C15 UNL     1     -15.280  19.511 -15.420  1.00  0.00     0.007 A 
HETATM   25  C16 UNL     1     -16.179  20.124 -14.576  1.00  0.00     0.001 A 
HETATM   26  C17 UNL     1     -15.773  21.125 -13.690  1.00  0.00     0.000 A 
HETATM   27  C18 UNL     1     -14.439  21.478 -13.688  1.00  0.00     0.001 A 
HETATM   28  C19 UNL     1     -13.561  20.853 -14.538  1.00  0.00     0.007 A 
ENDBRANCH  22  23
ENDBRANCH   1  22
BRANCH   1  29
HETATM   29  N2  UNL     1     -13.798  20.730 -18.106  1.00  0.00    -0.307 N 
HETATM   30  C20 UNL     1     -13.634  22.117 -18.057  1.00  0.00     0.365 C 
HETATM   31  O5  UNL     1     -12.536  22.565 -17.602  1.00  0.00    -0.238 OA
ATOM     32  H2  UNL     1     -14.684  20.380 -18.469  1.00  0.00     0.170 HD
BRANCH  30  33
HETATM   33  O6  UNL     1     -14.602  23.034 -18.475  1.00  0.00    -0.296 OA
BRANCH  33  34
HETATM   34  C21 UNL     1     -15.932  22.778 -18.148  1.00  0.00     0.167 C 
HETATM   35  C22 UNL     1     -16.337  23.248 -16.774  1.00  0.00     0.204 C 
HETATM   36  O7  UNL     1     -17.673  23.523 -16.792  1.00  0.00    -0.358 OA
HETATM   37  C23 UNL     1     -18.166  23.445 -18.079  1.00  0.00     0.270 C 
HETATM   38  O8  UNL     1     -18.906  24.563 -18.340  1.00  0.00    -0.331 OA
HETATM   39  C28 UNL     1     -16.946  23.480 -19.012  1.00  0.00     0.082 C 
HETATM   40  C24 UNL     1     -18.187  25.445 -19.108  1.00  0.00     0.267 C 
HETATM   41  O9  UNL     1     -18.526  25.185 -20.449  1.00  0.00    -0.361 OA
HETATM   42  C27 UNL     1     -16.733  24.978 -19.083  1.00  0.00     0.054 C 
HETATM   43  C25 UNL     1     -17.470  25.604 -21.223  1.00  0.00     0.171 C 
HETATM   44  C26 UNL     1     -16.208  25.422 -20.409  1.00  0.00     0.036 C 
ENDBRANCH  33  34
ENDBRANCH  30  33
ENDBRANCH   1  29
TORSDOF 14
ENDMDL
