MODEL 2
REMARK VINA RESULT: -9.505382073      1.370      1.923
REMARK  14 active torsions:
REMARK  status: ('A' for Active; 'I' for Inactive)
REMARK    1  A    between atoms: O1_2  and  C2_3 
REMARK    2  A    between atoms: C5_6  and  S1_7 
REMARK    3  A    between atoms: S1_7  and  N1_10 
REMARK    4  A    between atoms: N1_10  and  C6_11 
REMARK    5  A    between atoms: N1_10  and  C10_15 
REMARK    6  A    between atoms: C6_11  and  C7_12 
REMARK    7  A    between atoms: C10_15  and  C11_16 
REMARK    8  A    between atoms: C11_16  and  O4_17 
REMARK    9  A    between atoms: C11_16  and  C12_19 
REMARK   10  A    between atoms: C12_19  and  C13_20 
REMARK   11  A    between atoms: C12_19  and  N2_27 
REMARK   12  A    between atoms: C13_20  and  C14_21 
REMARK       I    between atoms: N2_27  and  C20_29 
REMARK   13  A    between atoms: C20_29  and  O6_31 
REMARK   14  A    between atoms: O6_31  and  C21_32 
ROOT
HETATM    1  C12 UNL     1     -11.359 -19.072  18.391  1.00  0.00     0.026 C 
ENDROOT
BRANCH   1   2
HETATM    2  C11 UNL     1     -12.642 -18.705  17.743  1.00  0.00     0.178 C 
BRANCH   2   3
HETATM    3  C10 UNL     1     -13.870 -19.363  18.307  1.00  0.00     0.145 C 
BRANCH   3   4
HETATM    4  N1  UNL     1     -14.224 -20.602  17.681  1.00  0.00    -0.203 NA
BRANCH   4   5
HETATM    5  S1  UNL     1     -13.869 -22.007  18.573  1.00  0.00     0.243 S 
HETATM    6  O2  UNL     1     -12.923 -22.922  17.809  1.00  0.00    -0.206 OA
HETATM    7  O3  UNL     1     -13.072 -21.611  19.815  1.00  0.00    -0.206 OA
BRANCH   5   8
HETATM    8  C5  UNL     1     -15.222 -22.945  19.079  1.00  0.00     0.074 A 
HETATM    9  C4  UNL     1     -16.318 -23.028  18.208  1.00  0.00     0.027 A 
HETATM   10  C3  UNL     1     -17.422 -23.762  18.550  1.00  0.00     0.038 A 
HETATM   11  C2  UNL     1     -17.445 -24.417  19.753  1.00  0.00     0.068 A 
HETATM   12  C30 UNL     1     -16.361 -24.332  20.608  1.00  0.00     0.038 A 
HETATM   13  C29 UNL     1     -15.252 -23.610  20.295  1.00  0.00     0.027 A 
BRANCH  11  14
HETATM   14  O1  UNL     1     -18.545 -25.155  20.105  1.00  0.00    -0.356 OA
HETATM   15  C1  UNL     1     -19.032 -26.226  19.353  1.00  0.00     0.210 C 
ENDBRANCH  11  14
ENDBRANCH   5   8
ENDBRANCH   4   5
BRANCH   4  16
HETATM   16  C6  UNL     1     -13.813 -20.740  16.319  1.00  0.00     0.111 C 
BRANCH  16  17
HETATM   17  C7  UNL     1     -14.745 -20.214  15.288  1.00  0.00    -0.009 C 
HETATM   18  C8  UNL     1     -13.963 -20.072  13.988  1.00  0.00     0.011 C 
HETATM   19  C9  UNL     1     -15.994 -21.002  15.160  1.00  0.00     0.011 C 
ENDBRANCH  16  17
ENDBRANCH   4  16
ENDBRANCH   3   4
ENDBRANCH   2   3
BRANCH   2  20
HETATM   20  O4  UNL     1     -12.801 -17.310  17.941  1.00  0.00    -0.389 OA
ATOM     21  H4  UNL     1     -13.000 -16.935  17.091  1.00  0.00     0.210 HD
ENDBRANCH   2  20
ENDBRANCH   1   2
BRANCH   1  22
HETATM   22  C13 UNL     1     -11.222 -18.900  19.846  1.00  0.00     0.094 C 
BRANCH  22  23
HETATM   23  C14 UNL     1      -9.947 -19.151  20.487  1.00  0.00    -0.053 A 
HETATM   24  C15 UNL     1      -9.087 -18.218  20.980  1.00  0.00     0.007 A 
HETATM   25  C16 UNL     1      -7.883 -18.565  21.550  1.00  0.00     0.001 A 
HETATM   26  C17 UNL     1      -7.489 -19.903  21.647  1.00  0.00     0.000 A 
HETATM   27  C18 UNL     1      -8.347 -20.863  21.153  1.00  0.00     0.001 A 
HETATM   28  C19 UNL     1      -9.542 -20.492  20.589  1.00  0.00     0.007 A 
ENDBRANCH  22  23
ENDBRANCH   1  22
BRANCH   1  29
HETATM   29  N2  UNL     1     -10.206 -18.672  17.602  1.00  0.00    -0.307 N 
HETATM   30  C20 UNL     1      -9.757 -19.296  16.436  1.00  0.00     0.365 C 
HETATM   31  O5  UNL     1     -10.406 -20.307  16.021  1.00  0.00    -0.238 OA
ATOM     32  H2  UNL     1      -9.677 -17.864  17.929  1.00  0.00     0.170 HD
BRANCH  30  33
HETATM   33  O6  UNL     1      -8.644 -18.877  15.704  1.00  0.00    -0.296 OA
BRANCH  33  34
HETATM   34  C21 UNL     1      -8.770 -17.737  14.913  1.00  0.00     0.167 C 
HETATM   35  C22 UNL     1     -10.019 -16.935  15.173  1.00  0.00     0.204 C 
HETATM   36  O7  UNL     1      -9.764 -15.631  14.860  1.00  0.00    -0.358 OA
HETATM   37  C23 UNL     1      -8.423 -15.455  14.579  1.00  0.00     0.270 C 
HETATM   38  O8  UNL     1      -7.960 -14.379  15.281  1.00  0.00    -0.331 OA
HETATM   39  C28 UNL     1      -7.701 -16.697  15.121  1.00  0.00     0.082 C 
HETATM   40  C24 UNL     1      -7.252 -14.794  16.381  1.00  0.00     0.267 C 
HETATM   41  O9  UNL     1      -5.898 -14.840  16.000  1.00  0.00    -0.361 OA
HETATM   42  C27 UNL     1      -7.548 -16.281  16.569  1.00  0.00     0.054 C 
HETATM   43  C25 UNL     1      -5.275 -15.748  16.822  1.00  0.00     0.171 C 
HETATM   44  C26 UNL     1      -6.295 -16.804  17.189  1.00  0.00     0.036 C 
ENDBRANCH  33  34
ENDBRANCH  30  33
ENDBRANCH   1  29
TORSDOF 14
ENDMDL
