MODEL 5
REMARK VINA RESULT: -9.371716526      2.657     10.226
REMARK  14 active torsions:
REMARK  status: ('A' for Active; 'I' for Inactive)
REMARK    1  A    between atoms: O1_2  and  C2_3 
REMARK    2  A    between atoms: C5_6  and  S1_7 
REMARK    3  A    between atoms: S1_7  and  N1_10 
REMARK    4  A    between atoms: N1_10  and  C6_11 
REMARK    5  A    between atoms: N1_10  and  C10_15 
REMARK    6  A    between atoms: C6_11  and  C7_12 
REMARK    7  A    between atoms: C10_15  and  C11_16 
REMARK    8  A    between atoms: C11_16  and  O4_17 
REMARK    9  A    between atoms: C11_16  and  C12_19 
REMARK   10  A    between atoms: C12_19  and  C13_20 
REMARK   11  A    between atoms: C12_19  and  N2_27 
REMARK   12  A    between atoms: C13_20  and  C14_21 
REMARK       I    between atoms: N2_27  and  C20_29 
REMARK   13  A    between atoms: C20_29  and  O6_31 
REMARK   14  A    between atoms: O6_31  and  C21_32 
ROOT
HETATM    1  C12 UNL     1     -12.857 -19.909  17.343  1.00  0.00     0.026 C 
ENDROOT
BRANCH   1   2
HETATM    2  C11 UNL     1     -12.682 -19.123  18.589  1.00  0.00     0.178 C 
BRANCH   2   3
HETATM    3  C10 UNL     1     -11.382 -18.381  18.715  1.00  0.00     0.145 C 
BRANCH   3   4
HETATM    4  N1  UNL     1     -10.220 -19.218  18.770  1.00  0.00    -0.203 NA
BRANCH   4   5
HETATM    5  S1  UNL     1      -9.635 -19.565  20.331  1.00  0.00     0.243 S 
HETATM    6  O2  UNL     1     -10.676 -19.245  21.393  1.00  0.00    -0.206 OA
HETATM    7  O3  UNL     1      -9.438 -21.075  20.454  1.00  0.00    -0.206 OA
BRANCH   5   8
HETATM    8  C5  UNL     1      -8.163 -18.791  20.778  1.00  0.00     0.074 A 
HETATM    9  C4  UNL     1      -8.231 -17.453  21.189  1.00  0.00     0.027 A 
HETATM   10  C3  UNL     1      -7.096 -16.784  21.562  1.00  0.00     0.038 A 
HETATM   11  C2  UNL     1      -5.892 -17.436  21.530  1.00  0.00     0.068 A 
HETATM   12  C30 UNL     1      -5.832 -18.757  21.124  1.00  0.00     0.038 A 
HETATM   13  C29 UNL     1      -6.941 -19.447  20.748  1.00  0.00     0.027 A 
BRANCH  11  14
HETATM   14  O1  UNL     1      -4.751 -16.776  21.902  1.00  0.00    -0.356 OA
HETATM   15  C1  UNL     1      -4.567 -16.192  23.157  1.00  0.00     0.210 C 
ENDBRANCH  11  14
ENDBRANCH   5   8
ENDBRANCH   4   5
BRANCH   4  16
HETATM   16  C6  UNL     1      -9.154 -18.846  17.893  1.00  0.00     0.111 C 
BRANCH  16  17
HETATM   17  C7  UNL     1      -9.376 -17.639  17.054  1.00  0.00    -0.009 C 
HETATM   18  C8  UNL     1      -8.365 -16.584  17.488  1.00  0.00     0.011 C 
HETATM   19  C9  UNL     1      -9.371 -17.919  15.599  1.00  0.00     0.011 C 
ENDBRANCH  16  17
ENDBRANCH   4  16
ENDBRANCH   3   4
ENDBRANCH   2   3
BRANCH   2  20
HETATM   20  O4  UNL     1     -13.710 -18.146  18.589  1.00  0.00    -0.389 OA
ATOM     21  H4  UNL     1     -13.973 -18.028  19.494  1.00  0.00     0.210 HD
ENDBRANCH   2  20
ENDBRANCH   1   2
BRANCH   1  22
HETATM   22  C13 UNL     1     -12.871 -19.203  16.053  1.00  0.00     0.094 C 
BRANCH  22  23
HETATM   23  C14 UNL     1     -13.632 -19.739  14.943  1.00  0.00    -0.053 A 
HETATM   24  C15 UNL     1     -14.985 -19.880  14.877  1.00  0.00     0.007 A 
HETATM   25  C16 UNL     1     -15.608 -20.429  13.779  1.00  0.00     0.001 A 
HETATM   26  C17 UNL     1     -14.872 -20.869  12.675  1.00  0.00     0.000 A 
HETATM   27  C18 UNL     1     -13.499 -20.735  12.724  1.00  0.00     0.001 A 
HETATM   28  C19 UNL     1     -12.901 -20.184  13.829  1.00  0.00     0.007 A 
ENDBRANCH  22  23
ENDBRANCH   1  22
BRANCH   1  29
HETATM   29  N2  UNL     1     -13.846 -20.965  17.489  1.00  0.00    -0.307 N 
HETATM   30  C20 UNL     1     -13.569 -22.323  17.671  1.00  0.00     0.365 C 
HETATM   31  O5  UNL     1     -12.350 -22.676  17.709  1.00  0.00    -0.238 OA
ATOM     32  H2  UNL     1     -14.827 -20.691  17.456  1.00  0.00     0.170 HD
BRANCH  30  33
HETATM   33  O6  UNL     1     -14.550 -23.308  17.811  1.00  0.00    -0.296 OA
BRANCH  33  34
HETATM   34  C21 UNL     1     -15.884 -22.931  17.661  1.00  0.00     0.167 C 
HETATM   35  C22 UNL     1     -16.520 -23.394  16.375  1.00  0.00     0.204 C 
HETATM   36  O7  UNL     1     -17.860 -23.537  16.588  1.00  0.00    -0.358 OA
HETATM   37  C23 UNL     1     -18.157 -23.379  17.927  1.00  0.00     0.270 C 
HETATM   38  O8  UNL     1     -18.954 -24.412  18.330  1.00  0.00    -0.331 OA
HETATM   39  C28 UNL     1     -16.826 -23.509  18.683  1.00  0.00     0.082 C 
HETATM   40  C24 UNL     1     -18.219 -25.341  19.025  1.00  0.00     0.267 C 
HETATM   41  O9  UNL     1     -18.339 -25.015  20.389  1.00  0.00    -0.361 OA
HETATM   42  C27 UNL     1     -16.745 -25.018  18.782  1.00  0.00     0.054 C 
HETATM   43  C25 UNL     1     -17.229 -25.516  21.025  1.00  0.00     0.171 C 
HETATM   44  C26 UNL     1     -16.083 -25.478  20.038  1.00  0.00     0.036 C 
ENDBRANCH  33  34
ENDBRANCH  30  33
ENDBRANCH   1  29
TORSDOF 14
ENDMDL
