MODEL 6
REMARK VINA RESULT: -9.371182062      1.576      4.734
REMARK  14 active torsions:
REMARK  status: ('A' for Active; 'I' for Inactive)
REMARK    1  A    between atoms: O1_2  and  C2_3 
REMARK    2  A    between atoms: C5_6  and  S1_7 
REMARK    3  A    between atoms: S1_7  and  N1_10 
REMARK    4  A    between atoms: N1_10  and  C6_11 
REMARK    5  A    between atoms: N1_10  and  C10_15 
REMARK    6  A    between atoms: C6_11  and  C7_12 
REMARK    7  A    between atoms: C10_15  and  C11_16 
REMARK    8  A    between atoms: C11_16  and  O4_17 
REMARK    9  A    between atoms: C11_16  and  C12_19 
REMARK   10  A    between atoms: C12_19  and  C13_20 
REMARK   11  A    between atoms: C12_19  and  N2_27 
REMARK   12  A    between atoms: C13_20  and  C14_21 
REMARK       I    between atoms: N2_27  and  C20_29 
REMARK   13  A    between atoms: C20_29  and  O6_31 
REMARK   14  A    between atoms: O6_31  and  C21_32 
ROOT
HETATM    1  C12 UNL     1     -13.089 -18.732  16.670  1.00  0.00     0.026 C 
ENDROOT
BRANCH   1   2
HETATM    2  C11 UNL     1     -13.404 -19.343  17.984  1.00  0.00     0.178 C 
BRANCH   2   3
HETATM    3  C10 UNL     1     -12.499 -18.953  19.119  1.00  0.00     0.145 C 
BRANCH   3   4
HETATM    4  N1  UNL     1     -11.258 -19.667  19.164  1.00  0.00    -0.203 NA
BRANCH   4   5
HETATM    5  S1  UNL     1     -11.343 -21.321  18.770  1.00  0.00     0.243 S 
HETATM    6  O2  UNL     1     -10.882 -21.571  17.342  1.00  0.00    -0.206 OA
HETATM    7  O3  UNL     1     -10.328 -22.080  19.622  1.00  0.00    -0.206 OA
BRANCH   5   8
HETATM    8  C5  UNL     1     -12.882 -22.068  18.970  1.00  0.00     0.074 A 
HETATM    9  C4  UNL     1     -13.427 -22.740  17.866  1.00  0.00     0.027 A 
HETATM   10  C3  UNL     1     -14.645 -23.359  17.964  1.00  0.00     0.038 A 
HETATM   11  C2  UNL     1     -15.325 -23.317  19.151  1.00  0.00     0.068 A 
HETATM   12  C30 UNL     1     -14.782 -22.653  20.237  1.00  0.00     0.038 A 
HETATM   13  C29 UNL     1     -13.575 -22.029  20.170  1.00  0.00     0.027 A 
BRANCH  11  14
HETATM   14  O1  UNL     1     -16.544 -23.933  19.260  1.00  0.00    -0.356 OA
HETATM   15  C1  UNL     1     -16.712 -25.320  19.270  1.00  0.00     0.210 C 
ENDBRANCH  11  14
ENDBRANCH   5   8
ENDBRANCH   4   5
BRANCH   4  16
HETATM   16  C6  UNL     1     -10.474 -19.459  20.341  1.00  0.00     0.111 C 
BRANCH  16  17
HETATM   17  C7  UNL     1      -9.249 -18.631  20.185  1.00  0.00    -0.009 C 
HETATM   18  C8  UNL     1      -8.469 -18.709  21.492  1.00  0.00     0.011 C 
HETATM   19  C9  UNL     1      -8.451 -18.973  18.983  1.00  0.00     0.011 C 
ENDBRANCH  16  17
ENDBRANCH   4  16
ENDBRANCH   3   4
ENDBRANCH   2   3
BRANCH   2  20
HETATM   20  O4  UNL     1     -14.704 -18.893  18.329  1.00  0.00    -0.389 OA
ATOM     21  H4  UNL     1     -14.883 -18.136  17.783  1.00  0.00     0.210 HD
ENDBRANCH   2  20
ENDBRANCH   1   2
BRANCH   1  22
HETATM   22  C13 UNL     1     -12.972 -19.603  15.490  1.00  0.00     0.094 C 
BRANCH  22  23
HETATM   23  C14 UNL     1     -14.128 -20.335  15.013  1.00  0.00    -0.053 A 
HETATM   24  C15 UNL     1     -15.432 -19.961  15.131  1.00  0.00     0.007 A 
HETATM   25  C16 UNL     1     -16.460 -20.747  14.663  1.00  0.00     0.001 A 
HETATM   26  C17 UNL     1     -16.207 -21.973  14.042  1.00  0.00     0.000 A 
HETATM   27  C18 UNL     1     -14.892 -22.369  13.913  1.00  0.00     0.001 A 
HETATM   28  C19 UNL     1     -13.884 -21.568  14.388  1.00  0.00     0.007 A 
ENDBRANCH  22  23
ENDBRANCH   1  22
BRANCH   1  29
HETATM   29  N2  UNL     1     -12.089 -17.681  16.774  1.00  0.00    -0.307 N 
HETATM   30  C20 UNL     1     -10.787 -17.739  16.270  1.00  0.00     0.365 C 
HETATM   31  O5  UNL     1     -10.435 -18.802  15.669  1.00  0.00    -0.238 OA
ATOM     32  H2  UNL     1     -12.363 -16.826  17.257  1.00  0.00     0.170 HD
BRANCH  30  33
HETATM   33  O6  UNL     1      -9.857 -16.704  16.388  1.00  0.00    -0.296 OA
BRANCH  33  34
HETATM   34  C21 UNL     1      -8.834 -16.631  15.445  1.00  0.00     0.167 C 
HETATM   35  C22 UNL     1      -8.884 -15.407  14.566  1.00  0.00     0.204 C 
HETATM   36  O7  UNL     1      -7.613 -15.117  14.163  1.00  0.00    -0.358 OA
HETATM   37  C23 UNL     1      -6.702 -15.921  14.819  1.00  0.00     0.270 C 
HETATM   38  O8  UNL     1      -5.699 -15.140  15.318  1.00  0.00    -0.331 OA
HETATM   39  C28 UNL     1      -7.446 -16.527  16.018  1.00  0.00     0.082 C 
HETATM   40  C24 UNL     1      -5.871 -14.941  16.665  1.00  0.00     0.267 C 
HETATM   41  O9  UNL     1      -5.118 -15.932  17.321  1.00  0.00    -0.361 OA
HETATM   42  C27 UNL     1      -7.293 -15.388  17.005  1.00  0.00     0.054 C 
HETATM   43  C25 UNL     1      -5.691 -16.126  18.555  1.00  0.00     0.171 C 
HETATM   44  C26 UNL     1      -7.174 -15.861  18.416  1.00  0.00     0.036 C 
ENDBRANCH  33  34
ENDBRANCH  30  33
ENDBRANCH   1  29
TORSDOF 14
ENDMDL
