MODEL 1
REMARK VINA RESULT: -9.710328332      0.000      0.000
REMARK  14 active torsions:
REMARK  status: ('A' for Active; 'I' for Inactive)
REMARK    1  A    between atoms: O1_2  and  C2_3 
REMARK    2  A    between atoms: C5_6  and  S1_7 
REMARK    3  A    between atoms: S1_7  and  N1_10 
REMARK    4  A    between atoms: N1_10  and  C6_11 
REMARK    5  A    between atoms: N1_10  and  C10_15 
REMARK    6  A    between atoms: C6_11  and  C7_12 
REMARK    7  A    between atoms: C10_15  and  C11_16 
REMARK    8  A    between atoms: C11_16  and  O4_17 
REMARK    9  A    between atoms: C11_16  and  C12_19 
REMARK   10  A    between atoms: C12_19  and  C13_20 
REMARK   11  A    between atoms: C12_19  and  N2_27 
REMARK   12  A    between atoms: C13_20  and  C14_21 
REMARK       I    between atoms: N2_27  and  C20_29 
REMARK   13  A    between atoms: C20_29  and  O6_31 
REMARK   14  A    between atoms: O6_31  and  C21_32 
ROOT
HETATM    1  C12 UNL     1     -11.913 -18.836  17.954  1.00  0.00     0.026 C 
ENDROOT
BRANCH   1   2
HETATM    2  C11 UNL     1     -13.191 -19.138  17.264  1.00  0.00     0.178 C 
BRANCH   2   3
HETATM    3  C10 UNL     1     -13.302 -20.514  16.671  1.00  0.00     0.145 C 
BRANCH   3   4
HETATM    4  N1  UNL     1     -14.382 -21.301  17.188  1.00  0.00    -0.203 NA
BRANCH   4   5
HETATM    5  S1  UNL     1     -13.969 -22.405  18.416  1.00  0.00     0.243 S 
HETATM    6  O2  UNL     1     -12.605 -23.029  18.159  1.00  0.00    -0.206 OA
HETATM    7  O3  UNL     1     -13.779 -21.635  19.722  1.00  0.00    -0.206 OA
BRANCH   5   8
HETATM    8  C5  UNL     1     -15.092 -23.679  18.699  1.00  0.00     0.074 A 
HETATM    9  C4  UNL     1     -16.362 -23.331  19.181  1.00  0.00     0.027 A 
HETATM   10  C3  UNL     1     -17.301 -24.298  19.420  1.00  0.00     0.038 A 
HETATM   11  C2  UNL     1     -16.988 -25.610  19.184  1.00  0.00     0.068 A 
HETATM   12  C30 UNL     1     -15.734 -25.947  18.707  1.00  0.00     0.038 A 
HETATM   13  C29 UNL     1     -14.781 -25.009  18.460  1.00  0.00     0.027 A 
BRANCH  11  14
HETATM   14  O1  UNL     1     -17.921 -26.585  19.420  1.00  0.00    -0.356 OA
HETATM   15  C1  UNL     1     -19.211 -26.571  18.884  1.00  0.00     0.210 C 
ENDBRANCH  11  14
ENDBRANCH   5   8
ENDBRANCH   4   5
BRANCH   4  16
HETATM   16  C6  UNL     1     -15.219 -21.915  16.205  1.00  0.00     0.111 C 
BRANCH  16  17
HETATM   17  C7  UNL     1     -15.137 -21.365  14.827  1.00  0.00    -0.009 C 
HETATM   18  C8  UNL     1     -14.993 -22.541  13.868  1.00  0.00     0.011 C 
HETATM   19  C9  UNL     1     -16.246 -20.442  14.489  1.00  0.00     0.011 C 
ENDBRANCH  16  17
ENDBRANCH   4  16
ENDBRANCH   3   4
ENDBRANCH   2   3
BRANCH   2  20
HETATM   20  O4  UNL     1     -14.207 -19.036  18.249  1.00  0.00    -0.389 OA
ATOM     21  H4  UNL     1     -14.889 -18.488  17.880  1.00  0.00     0.210 HD
ENDBRANCH   2  20
ENDBRANCH   1   2
BRANCH   1  22
HETATM   22  C13 UNL     1     -11.848 -18.962  19.418  1.00  0.00     0.094 C 
BRANCH  22  23
HETATM   23  C14 UNL     1     -10.718 -19.625  20.037  1.00  0.00    -0.053 A 
HETATM   24  C15 UNL     1     -10.278 -20.888  19.784  1.00  0.00     0.007 A 
HETATM   25  C16 UNL     1      -9.203 -21.433  20.451  1.00  0.00     0.001 A 
HETATM   26  C17 UNL     1      -8.513 -20.706  21.425  1.00  0.00     0.000 A 
HETATM   27  C18 UNL     1      -8.945 -19.424  21.695  1.00  0.00     0.001 A 
HETATM   28  C19 UNL     1     -10.018 -18.902  21.017  1.00  0.00     0.007 A 
ENDBRANCH  22  23
ENDBRANCH   1  22
BRANCH   1  29
HETATM   29  N2  UNL     1     -11.245 -17.671  17.396  1.00  0.00    -0.307 N 
HETATM   30  C20 UNL     1     -10.506 -17.644  16.210  1.00  0.00     0.365 C 
HETATM   31  O5  UNL     1     -10.400 -18.728  15.557  1.00  0.00    -0.238 OA
ATOM     32  H2  UNL     1     -11.322 -16.798  17.915  1.00  0.00     0.170 HD
BRANCH  30  33
HETATM   33  O6  UNL     1      -9.880 -16.501  15.706  1.00  0.00    -0.296 OA
BRANCH  33  34
HETATM   34  C21 UNL     1      -8.592 -16.631  15.191  1.00  0.00     0.167 C 
HETATM   35  C22 UNL     1      -8.065 -15.392  14.512  1.00  0.00     0.204 C 
HETATM   36  O7  UNL     1      -6.704 -15.395  14.613  1.00  0.00    -0.358 OA
HETATM   37  C23 UNL     1      -6.282 -16.422  15.434  1.00  0.00     0.270 C 
HETATM   38  O8  UNL     1      -5.392 -15.926  16.343  1.00  0.00    -0.331 OA
HETATM   39  C28 UNL     1      -7.520 -16.887  16.216  1.00  0.00     0.082 C 
HETATM   40  C24 UNL     1      -5.999 -15.753  17.562  1.00  0.00     0.267 C 
HETATM   41  O9  UNL     1      -5.759 -16.923  18.306  1.00  0.00    -0.361 OA
HETATM   42  C27 UNL     1      -7.506 -15.863  17.332  1.00  0.00     0.054 C 
HETATM   43  C25 UNL     1      -6.770 -17.030  19.231  1.00  0.00     0.171 C 
HETATM   44  C26 UNL     1      -8.010 -16.413  18.624  1.00  0.00     0.036 C 
ENDBRANCH  33  34
ENDBRANCH  30  33
ENDBRANCH   1  29
TORSDOF 14
ENDMDL
