MODEL 3
REMARK VINA RESULT: -9.399594043      2.634     10.365
REMARK  14 active torsions:
REMARK  status: ('A' for Active; 'I' for Inactive)
REMARK    1  A    between atoms: O1_2  and  C2_3 
REMARK    2  A    between atoms: C5_6  and  S1_7 
REMARK    3  A    between atoms: S1_7  and  N1_10 
REMARK    4  A    between atoms: N1_10  and  C6_11 
REMARK    5  A    between atoms: N1_10  and  C10_15 
REMARK    6  A    between atoms: C6_11  and  C7_12 
REMARK    7  A    between atoms: C10_15  and  C11_16 
REMARK    8  A    between atoms: C11_16  and  O4_17 
REMARK    9  A    between atoms: C11_16  and  C12_19 
REMARK   10  A    between atoms: C12_19  and  C13_20 
REMARK   11  A    between atoms: C12_19  and  N2_27 
REMARK   12  A    between atoms: C13_20  and  C14_21 
REMARK       I    between atoms: N2_27  and  C20_29 
REMARK   13  A    between atoms: C20_29  and  O6_31 
REMARK   14  A    between atoms: O6_31  and  C21_32 
ROOT
HETATM    1  C12 UNL     1     -15.017 -21.363  15.762  1.00  0.00     0.026 C 
ENDROOT
BRANCH   1   2
HETATM    2  C11 UNL     1     -13.757 -20.579  15.771  1.00  0.00     0.178 C 
BRANCH   2   3
HETATM    3  C10 UNL     1     -13.488 -19.793  17.024  1.00  0.00     0.145 C 
BRANCH   3   4
HETATM    4  N1  UNL     1     -12.100 -19.637  17.343  1.00  0.00    -0.203 NA
BRANCH   4   5
HETATM    5  S1  UNL     1     -11.544 -20.538  18.675  1.00  0.00     0.243 S 
HETATM    6  O2  UNL     1     -12.674 -20.836  19.649  1.00  0.00    -0.206 OA
HETATM    7  O3  UNL     1     -11.108 -21.919  18.186  1.00  0.00    -0.206 OA
BRANCH   5   8
HETATM    8  C5  UNL     1     -10.242 -19.848  19.566  1.00  0.00     0.074 A 
HETATM    9  C4  UNL     1     -10.547 -19.219  20.782  1.00  0.00     0.027 A 
HETATM   10  C3  UNL     1      -9.555 -18.655  21.539  1.00  0.00     0.038 A 
HETATM   11  C2  UNL     1      -8.261 -18.712  21.098  1.00  0.00     0.068 A 
HETATM   12  C30 UNL     1      -7.965 -19.334  19.898  1.00  0.00     0.038 A 
HETATM   13  C29 UNL     1      -8.929 -19.903  19.125  1.00  0.00     0.027 A 
BRANCH  11  14
HETATM   14  O1  UNL     1      -7.260 -18.152  21.848  1.00  0.00    -0.356 OA
HETATM   15  C1  UNL     1      -7.300 -16.846  22.341  1.00  0.00     0.210 C 
ENDBRANCH  11  14
ENDBRANCH   5   8
ENDBRANCH   4   5
BRANCH   4  16
HETATM   16  C6  UNL     1     -11.633 -18.288  17.404  1.00  0.00     0.111 C 
BRANCH  16  17
HETATM   17  C7  UNL     1     -10.633 -17.885  16.380  1.00  0.00    -0.009 C 
HETATM   18  C8  UNL     1      -9.592 -17.011  17.070  1.00  0.00     0.011 C 
HETATM   19  C9  UNL     1     -10.061 -19.027  15.628  1.00  0.00     0.011 C 
ENDBRANCH  16  17
ENDBRANCH   4  16
ENDBRANCH   3   4
ENDBRANCH   2   3
BRANCH   2  20
HETATM   20  O4  UNL     1     -12.704 -21.521  15.648  1.00  0.00    -0.389 OA
ATOM     21  H4  UNL     1     -12.486 -21.567  14.725  1.00  0.00     0.210 HD
ENDBRANCH   2  20
ENDBRANCH   1   2
BRANCH   1  22
HETATM   22  C13 UNL     1     -16.028 -21.072  14.733  1.00  0.00     0.094 C 
BRANCH  22  23
HETATM   23  C14 UNL     1     -17.093 -22.021  14.478  1.00  0.00    -0.053 A 
HETATM   24  C15 UNL     1     -16.950 -23.319  14.092  1.00  0.00     0.007 A 
HETATM   25  C16 UNL     1     -18.036 -24.131  13.850  1.00  0.00     0.001 A 
HETATM   26  C17 UNL     1     -19.342 -23.652  13.991  1.00  0.00     0.000 A 
HETATM   27  C18 UNL     1     -19.506 -22.339  14.381  1.00  0.00     0.001 A 
HETATM   28  C19 UNL     1     -18.409 -21.550  14.617  1.00  0.00     0.007 A 
ENDBRANCH  22  23
ENDBRANCH   1  22
BRANCH   1  29
HETATM   29  N2  UNL     1     -15.534 -21.595  17.100  1.00  0.00    -0.307 N 
HETATM   30  C20 UNL     1     -15.087 -22.574  17.991  1.00  0.00     0.365 C 
HETATM   31  O5  UNL     1     -14.147 -23.337  17.604  1.00  0.00    -0.238 OA
ATOM     32  H2  UNL     1     -16.291 -20.990  17.417  1.00  0.00     0.170 HD
BRANCH  30  33
HETATM   33  O6  UNL     1     -15.610 -22.763  19.272  1.00  0.00    -0.296 OA
BRANCH  33  34
HETATM   34  C21 UNL     1     -15.672 -24.063  19.771  1.00  0.00     0.167 C 
HETATM   35  C22 UNL     1     -16.120 -24.157  21.207  1.00  0.00     0.204 C 
HETATM   36  O7  UNL     1     -16.722 -25.368  21.389  1.00  0.00    -0.358 OA
HETATM   37  C23 UNL     1     -16.870 -26.021  20.181  1.00  0.00     0.270 C 
HETATM   38  O8  UNL     1     -18.155 -26.472  20.075  1.00  0.00    -0.331 OA
HETATM   39  C28 UNL     1     -16.669 -24.959  19.089  1.00  0.00     0.082 C 
HETATM   40  C24 UNL     1     -18.885 -25.652  19.252  1.00  0.00     0.267 C 
HETATM   41  O9  UNL     1     -18.822 -26.210  17.962  1.00  0.00    -0.361 OA
HETATM   42  C27 UNL     1     -18.067 -24.376  19.052  1.00  0.00     0.054 C 
HETATM   43  C25 UNL     1     -19.022 -25.187  17.066  1.00  0.00     0.171 C 
HETATM   44  C26 UNL     1     -18.466 -23.924  17.686  1.00  0.00     0.036 C 
ENDBRANCH  33  34
ENDBRANCH  30  33
ENDBRANCH   1  29
TORSDOF 14
ENDMDL
