MODEL 1
REMARK VINA RESULT: -10.530632922      0.000      0.000
REMARK  7 active torsions:
REMARK  status: ('A' for Active; 'I' for Inactive)
REMARK    1  A    between atoms: C2_2  and  O1_3 
REMARK    2  A    between atoms: C2_2  and  C3_5 
REMARK    3  A    between atoms: N1_8  and  C6_9 
REMARK    4  A    between atoms: C9_16  and  O2_17 
REMARK    5  A    between atoms: O2_17  and  C10_18 
REMARK    6  A    between atoms: C13_21  and  N4_22 
REMARK    7  A    between atoms: N4_22  and  C14_24 
ROOT
HETATM    1  O2  UNL     1      13.801  89.218  38.915  1.00  0.00    -0.290 OA
ENDROOT
BRANCH   1   2
HETATM    2  C9  UNL     1      13.151  88.286  38.120  1.00  0.00     0.192 A 
HETATM    3  C6  UNL     1      11.899  88.529  37.608  1.00  0.00     0.155 A 
HETATM    4  N2  UNL     1      11.297  87.610  36.843  1.00  0.00    -0.348 N 
HETATM    5  C7  UNL     1      11.884  86.423  36.547  1.00  0.00     0.107 A 
ATOM      6  H2  UNL     1      10.368  87.808  36.471  1.00  0.00     0.167 HD
HETATM    7  C8  UNL     1      13.140  86.174  37.058  1.00  0.00     0.107 A 
HETATM    8  N3  UNL     1      13.739  87.094  37.823  1.00  0.00    -0.342 N 
ATOM      9  H3  UNL     1      14.668  86.897  38.196  1.00  0.00     0.167 HD
BRANCH   3  10
HETATM   10  N1  UNL     1      11.280  89.763  37.913  1.00  0.00    -0.364 N 
HETATM   11  C5  UNL     1      10.272  89.897  38.958  1.00  0.00     0.125 C 
HETATM   12  C4  UNL     1       9.246  90.887  38.448  1.00  0.00     0.027 C 
HETATM   13  C3  UNL     1       9.191  90.736  36.944  1.00  0.00     0.017 C 
HETATM   14  C24 UNL     1      10.412  91.358  36.338  1.00  0.00     0.027 C 
HETATM   15  C23 UNL     1      11.614  90.995  37.194  1.00  0.00     0.125 C 
BRANCH  13  16
HETATM   16  C2  UNL     1       7.911  91.253  36.351  1.00  0.00     0.118 C 
HETATM   17  C1  UNL     1       6.876  91.280  37.455  1.00  0.00     0.040 C 
BRANCH  16  18
HETATM   18  O1  UNL     1       7.501  90.561  35.235  1.00  0.00    -0.396 OA
ATOM     19  H1  UNL     1       8.200  90.406  34.610  1.00  0.00     0.210 HD
ENDBRANCH  16  18
ENDBRANCH  13  16
ENDBRANCH   3  10
ENDBRANCH   1   2
BRANCH   1  20
HETATM   20  C10 UNL     1      14.141  88.831  40.206  1.00  0.00     0.078 A 
HETATM   21  C11 UNL     1      15.438  88.912  40.665  1.00  0.00     0.039 A 
HETATM   22  C12 UNL     1      15.818  88.543  41.923  1.00  0.00     0.032 A 
HETATM   23  C13 UNL     1      14.884  88.056  42.832  1.00  0.00     0.034 A 
HETATM   24  C21 UNL     1      13.584  87.967  42.396  1.00  0.00     0.032 A 
HETATM   25  C22 UNL     1      13.217  88.349  41.101  1.00  0.00     0.039 A 
BRANCH  23  26
HETATM   26  N4  UNL     1      15.285  87.675  44.134  1.00  0.00    -0.337 N 
ATOM     27  H4  UNL     1      14.596  87.197  44.716  1.00  0.00     0.168 HD
BRANCH  26  28
HETATM   28  C14 UNL     1      16.574  87.906  44.699  1.00  0.00     0.150 A 
HETATM   29  N5  UNL     1      17.751  88.097  44.175  1.00  0.00    -0.335 N 
HETATM   30  C15 UNL     1      18.806  88.292  44.905  1.00  0.00     0.051 A 
ATOM     31  H5  UNL     1      17.846  88.093  43.159  1.00  0.00     0.168 HD
HETATM   32  C16 UNL     1      20.114  88.506  44.433  1.00  0.00     0.031 A 
HETATM   33  C20 UNL     1      18.636  88.290  46.266  1.00  0.00     0.035 A 
HETATM   34  C17 UNL     1      21.145  88.699  45.313  1.00  0.00     0.002 A 
HETATM   35  C18 UNL     1      20.984  88.699  46.682  1.00  0.00     0.002 A 
HETATM   36  C19 UNL     1      19.706  88.490  47.141  1.00  0.00     0.021 A 
HETATM   37  S1  UNL     1      16.957  88.006  46.396  1.00  0.00    -0.052 SA
ENDBRANCH  26  28
ENDBRANCH  23  26
ENDBRANCH   1  20
TORSDOF 7
ENDMDL
