MODEL 6
REMARK VINA RESULT: -9.306479432      5.995      9.106
REMARK  7 active torsions:
REMARK  status: ('A' for Active; 'I' for Inactive)
REMARK    1  A    between atoms: C2_2  and  O1_3 
REMARK    2  A    between atoms: C2_2  and  C3_5 
REMARK    3  A    between atoms: N1_8  and  C6_9 
REMARK    4  A    between atoms: C9_16  and  O2_17 
REMARK    5  A    between atoms: O2_17  and  C10_18 
REMARK    6  A    between atoms: C13_21  and  N4_22 
REMARK    7  A    between atoms: N4_22  and  C14_24 
ROOT
HETATM    1  O2  UNL     1       9.361  95.444  40.167  1.00  0.00    -0.290 OA
ENDROOT
BRANCH   1   2
HETATM    2  C9  UNL     1       9.247  95.285  41.540  1.00  0.00     0.192 A 
HETATM    3  C6  UNL     1       8.070  95.553  42.198  1.00  0.00     0.155 A 
HETATM    4  N2  UNL     1       7.990  95.389  43.524  1.00  0.00    -0.348 N 
HETATM    5  C7  UNL     1       9.046  94.962  44.261  1.00  0.00     0.107 A 
ATOM      6  H2  UNL     1       7.109  95.592  43.994  1.00  0.00     0.167 HD
HETATM    7  C8  UNL     1      10.229  94.692  43.607  1.00  0.00     0.107 A 
HETATM    8  N3  UNL     1      10.306  94.856  42.280  1.00  0.00    -0.342 N 
ATOM      9  H3  UNL     1      11.187  94.654  41.809  1.00  0.00     0.167 HD
BRANCH   3  10
HETATM   10  N1  UNL     1       6.966  95.999  41.437  1.00  0.00    -0.364 N 
HETATM   11  C5  UNL     1       5.878  95.114  41.038  1.00  0.00     0.125 C 
HETATM   12  C4  UNL     1       5.469  95.529  39.640  1.00  0.00     0.027 C 
HETATM   13  C3  UNL     1       6.710  96.052  38.950  1.00  0.00     0.017 C 
HETATM   14  C24 UNL     1       7.044  97.409  39.491  1.00  0.00     0.027 C 
HETATM   15  C23 UNL     1       6.841  97.392  40.997  1.00  0.00     0.125 C 
BRANCH  13  16
HETATM   16  C2  UNL     1       6.601  96.026  37.452  1.00  0.00     0.118 C 
HETATM   17  C1  UNL     1       6.254  94.610  37.046  1.00  0.00     0.040 C 
BRANCH  16  18
HETATM   18  O1  UNL     1       7.712  96.523  36.810  1.00  0.00    -0.396 OA
ATOM     19  H1  UNL     1       8.163  97.197  37.304  1.00  0.00     0.210 HD
ENDBRANCH  16  18
ENDBRANCH  13  16
ENDBRANCH   3  10
ENDBRANCH   1   2
BRANCH   1  20
HETATM   20  C10 UNL     1       9.341  94.295  39.386  1.00  0.00     0.078 A 
HETATM   21  C11 UNL     1      10.046  94.213  38.205  1.00  0.00     0.039 A 
HETATM   22  C12 UNL     1      10.056  93.106  37.406  1.00  0.00     0.032 A 
HETATM   23  C13 UNL     1       9.333  91.971  37.758  1.00  0.00     0.034 A 
HETATM   24  C21 UNL     1       8.621  92.030  38.932  1.00  0.00     0.032 A 
HETATM   25  C22 UNL     1       8.625  93.176  39.736  1.00  0.00     0.039 A 
BRANCH  23  26
HETATM   26  N4  UNL     1       9.346  90.828  36.925  1.00  0.00    -0.337 N 
ATOM     27  H4  UNL     1       8.635  90.770  36.197  1.00  0.00     0.168 HD
BRANCH  26  28
HETATM   28  C14 UNL     1      10.275  89.750  37.024  1.00  0.00     0.150 A 
HETATM   29  N5  UNL     1      11.155  89.417  37.924  1.00  0.00    -0.335 N 
HETATM   30  C15 UNL     1      11.908  88.366  37.796  1.00  0.00     0.051 A 
ATOM     31  H5  UNL     1      11.257  89.999  38.755  1.00  0.00     0.168 HD
HETATM   32  C16 UNL     1      12.882  87.927  38.710  1.00  0.00     0.031 A 
HETATM   33  C20 UNL     1      11.740  87.610  36.664  1.00  0.00     0.035 A 
HETATM   34  C17 UNL     1      13.611  86.797  38.455  1.00  0.00     0.002 A 
HETATM   35  C18 UNL     1      13.452  86.030  37.320  1.00  0.00     0.002 A 
HETATM   36  C19 UNL     1      12.499  86.461  36.429  1.00  0.00     0.021 A 
HETATM   37  S1  UNL     1      10.504  88.472  35.861  1.00  0.00    -0.052 SA
ENDBRANCH  26  28
ENDBRANCH  23  26
ENDBRANCH   1  20
TORSDOF 7
ENDMDL
