MODEL 3
REMARK VINA RESULT: -9.348645094      0.737      1.212
REMARK  7 active torsions:
REMARK  status: ('A' for Active; 'I' for Inactive)
REMARK    1  A    between atoms: C2_2  and  O1_3 
REMARK    2  A    between atoms: C2_2  and  C3_5 
REMARK    3  A    between atoms: N1_8  and  C6_9 
REMARK    4  A    between atoms: C9_16  and  O2_17 
REMARK    5  A    between atoms: O2_17  and  C10_18 
REMARK    6  A    between atoms: C13_21  and  N4_22 
REMARK    7  A    between atoms: N4_22  and  C14_24 
ROOT
HETATM    1  O2  UNL     1      13.725  89.159  39.090  1.00  0.00    -0.290 OA
ENDROOT
BRANCH   1   2
HETATM    2  C9  UNL     1      13.112  88.260  38.229  1.00  0.00     0.192 A 
HETATM    3  C6  UNL     1      11.876  88.518  37.685  1.00  0.00     0.155 A 
HETATM    4  N2  UNL     1      11.310  87.631  36.857  1.00  0.00    -0.348 N 
HETATM    5  C7  UNL     1      11.918  86.465  36.526  1.00  0.00     0.107 A 
ATOM      6  H2  UNL     1      10.392  87.840  36.463  1.00  0.00     0.167 HD
HETATM    7  C8  UNL     1      13.158  86.201  37.069  1.00  0.00     0.107 A 
HETATM    8  N3  UNL     1      13.722  87.089  37.897  1.00  0.00    -0.342 N 
ATOM      9  H3  UNL     1      14.638  86.882  38.292  1.00  0.00     0.167 HD
BRANCH   3  10
HETATM   10  N1  UNL     1      11.235  89.731  38.026  1.00  0.00    -0.364 N 
HETATM   11  C5  UNL     1      10.146  89.797  38.994  1.00  0.00     0.125 C 
HETATM   12  C4  UNL     1       9.165  90.827  38.474  1.00  0.00     0.027 C 
HETATM   13  C3  UNL     1       9.231  90.783  36.963  1.00  0.00     0.017 C 
HETATM   14  C24 UNL     1      10.497  91.438  36.503  1.00  0.00     0.027 C 
HETATM   15  C23 UNL     1      11.626  91.009  37.426  1.00  0.00     0.125 C 
BRANCH  13  16
HETATM   16  C2  UNL     1       8.003  91.348  36.308  1.00  0.00     0.118 C 
HETATM   17  C1  UNL     1       6.931  91.462  37.370  1.00  0.00     0.040 C 
BRANCH  16  18
HETATM   18  O1  UNL     1       7.598  90.645  35.196  1.00  0.00    -0.396 OA
ATOM     19  H1  UNL     1       7.211  89.803  35.404  1.00  0.00     0.210 HD
ENDBRANCH  16  18
ENDBRANCH  13  16
ENDBRANCH   3  10
ENDBRANCH   1   2
BRANCH   1  20
HETATM   20  C10 UNL     1      13.916  88.755  40.405  1.00  0.00     0.078 A 
HETATM   21  C11 UNL     1      12.869  88.681  41.297  1.00  0.00     0.039 A 
HETATM   22  C12 UNL     1      13.011  88.290  42.598  1.00  0.00     0.032 A 
HETATM   23  C13 UNL     1      14.258  87.933  43.099  1.00  0.00     0.034 A 
HETATM   24  C21 UNL     1      15.317  87.998  42.227  1.00  0.00     0.032 A 
HETATM   25  C22 UNL     1      15.150  88.403  40.898  1.00  0.00     0.039 A 
BRANCH  23  26
HETATM   26  N4  UNL     1      14.397  87.529  44.448  1.00  0.00    -0.337 N 
ATOM     27  H4  UNL     1      13.588  87.097  44.894  1.00  0.00     0.168 HD
BRANCH  26  28
HETATM   28  C14 UNL     1      15.579  87.677  45.233  1.00  0.00     0.150 A 
HETATM   29  N5  UNL     1      16.791  88.059  44.948  1.00  0.00    -0.335 N 
HETATM   30  C15 UNL     1      17.724  88.117  45.848  1.00  0.00     0.051 A 
ATOM     31  H5  UNL     1      17.014  88.322  43.988  1.00  0.00     0.168 HD
HETATM   32  C16 UNL     1      19.057  88.517  45.639  1.00  0.00     0.031 A 
HETATM   33  C20 UNL     1      17.384  87.757  47.127  1.00  0.00     0.035 A 
HETATM   34  C17 UNL     1      19.946  88.533  46.679  1.00  0.00     0.002 A 
HETATM   35  C18 UNL     1      19.615  88.172  47.968  1.00  0.00     0.002 A 
HETATM   36  C19 UNL     1      18.313  87.784  48.170  1.00  0.00     0.021 A 
HETATM   37  S1  UNL     1      15.735  87.358  46.939  1.00  0.00    -0.052 SA
ENDBRANCH  26  28
ENDBRANCH  23  26
ENDBRANCH   1  20
TORSDOF 7
ENDMDL
