MODEL 2
REMARK VINA RESULT: -9.443639219      1.507      2.213
REMARK  7 active torsions:
REMARK  status: ('A' for Active; 'I' for Inactive)
REMARK    1  A    between atoms: C2_2  and  O1_3 
REMARK    2  A    between atoms: C2_2  and  C3_5 
REMARK    3  A    between atoms: N1_8  and  C6_9 
REMARK    4  A    between atoms: C9_16  and  O2_17 
REMARK    5  A    between atoms: O2_17  and  C10_18 
REMARK    6  A    between atoms: C13_21  and  N4_22 
REMARK    7  A    between atoms: N4_22  and  C14_24 
ROOT
HETATM    1  O2  UNL     1      13.289  89.209  39.078  1.00  0.00    -0.290 OA
ENDROOT
BRANCH   1   2
HETATM    2  C9  UNL     1      13.028  88.189  38.173  1.00  0.00     0.192 A 
HETATM    3  C6  UNL     1      11.898  88.197  37.390  1.00  0.00     0.155 A 
HETATM    4  N2  UNL     1      11.674  87.200  36.526  1.00  0.00    -0.348 N 
HETATM    5  C7  UNL     1      12.534  86.159  36.389  1.00  0.00     0.107 A 
ATOM      6  H2  UNL     1      10.831  87.223  35.953  1.00  0.00     0.167 HD
HETATM    7  C8  UNL     1      13.669  86.146  37.172  1.00  0.00     0.107 A 
HETATM    8  N3  UNL     1      13.890  87.145  38.035  1.00  0.00    -0.342 N 
ATOM      9  H3  UNL     1      14.733  87.123  38.609  1.00  0.00     0.167 HD
BRANCH   3  10
HETATM   10  N1  UNL     1      10.996  89.277  37.528  1.00  0.00    -0.364 N 
HETATM   11  C5  UNL     1      11.356  90.648  37.185  1.00  0.00     0.125 C 
HETATM   12  C4  UNL     1      10.698  91.541  38.215  1.00  0.00     0.027 C 
HETATM   13  C3  UNL     1      10.637  90.760  39.509  1.00  0.00     0.017 C 
HETATM   14  C24 UNL     1       9.566  89.717  39.410  1.00  0.00     0.027 C 
HETATM   15  C23 UNL     1       9.632  89.088  38.027  1.00  0.00     0.125 C 
BRANCH  13  16
HETATM   16  C2  UNL     1      10.492  91.639  40.718  1.00  0.00     0.118 C 
HETATM   17  C1  UNL     1      10.288  90.737  41.916  1.00  0.00     0.040 C 
BRANCH  16  18
HETATM   18  O1  UNL     1       9.517  92.601  40.586  1.00  0.00    -0.396 OA
ATOM     19  H1  UNL     1       8.855  92.381  39.941  1.00  0.00     0.210 HD
ENDBRANCH  16  18
ENDBRANCH  13  16
ENDBRANCH   3  10
ENDBRANCH   1   2
BRANCH   1  20
HETATM   20  C10 UNL     1      13.799  88.847  40.318  1.00  0.00     0.078 A 
HETATM   21  C11 UNL     1      12.981  88.392  41.330  1.00  0.00     0.039 A 
HETATM   22  C12 UNL     1      13.438  88.027  42.563  1.00  0.00     0.032 A 
HETATM   23  C13 UNL     1      14.794  88.096  42.867  1.00  0.00     0.034 A 
HETATM   24  C21 UNL     1      15.628  88.547  41.873  1.00  0.00     0.032 A 
HETATM   25  C22 UNL     1      15.139  88.917  40.616  1.00  0.00     0.039 A 
BRANCH  23  26
HETATM   26  N4  UNL     1      15.260  87.716  44.147  1.00  0.00    -0.337 N 
ATOM     27  H4  UNL     1      14.601  87.242  44.765  1.00  0.00     0.168 HD
BRANCH  26  28
HETATM   28  C14 UNL     1      16.578  87.942  44.643  1.00  0.00     0.150 A 
HETATM   29  N5  UNL     1      17.727  88.124  44.057  1.00  0.00    -0.335 N 
HETATM   30  C15 UNL     1      18.820  88.316  44.730  1.00  0.00     0.051 A 
ATOM     31  H5  UNL     1      17.769  88.116  43.038  1.00  0.00     0.168 HD
HETATM   32  C16 UNL     1      20.103  88.522  44.190  1.00  0.00     0.031 A 
HETATM   33  C20 UNL     1      18.721  88.321  46.098  1.00  0.00     0.035 A 
HETATM   34  C17 UNL     1      21.179  88.713  45.014  1.00  0.00     0.002 A 
HETATM   35  C18 UNL     1      21.090  88.718  46.390  1.00  0.00     0.002 A 
HETATM   36  C19 UNL     1      19.836  88.518  46.916  1.00  0.00     0.021 A 
HETATM   37  S1  UNL     1      17.050  88.046  46.318  1.00  0.00    -0.052 SA
ENDBRANCH  26  28
ENDBRANCH  23  26
ENDBRANCH   1  20
TORSDOF 7
ENDMDL
