MODEL 12
REMARK VINA RESULT: -9.033144528      1.780      2.463
REMARK  7 active torsions:
REMARK  status: ('A' for Active; 'I' for Inactive)
REMARK    1  A    between atoms: C2_2  and  O1_3 
REMARK    2  A    between atoms: C2_2  and  C3_5 
REMARK    3  A    between atoms: N1_8  and  C6_9 
REMARK    4  A    between atoms: C9_16  and  O2_17 
REMARK    5  A    between atoms: O2_17  and  C10_18 
REMARK    6  A    between atoms: C13_21  and  N4_22 
REMARK    7  A    between atoms: N4_22  and  C14_24 
ROOT
HETATM    1  O2  UNL     1      12.244  89.845  38.481  1.00  0.00    -0.290 OA
ENDROOT
BRANCH   1   2
HETATM    2  C9  UNL     1      11.811  88.970  37.495  1.00  0.00     0.192 A 
HETATM    3  C6  UNL     1      10.939  89.374  36.511  1.00  0.00     0.155 A 
HETATM    4  N2  UNL     1      10.539  88.507  35.573  1.00  0.00    -0.348 N 
HETATM    5  C7  UNL     1      10.965  87.220  35.554  1.00  0.00     0.107 A 
ATOM      6  H2  UNL     1       9.893  88.825  34.851  1.00  0.00     0.167 HD
HETATM    7  C8  UNL     1      11.838  86.809  36.538  1.00  0.00     0.107 A 
HETATM    8  N3  UNL     1      12.238  87.678  37.475  1.00  0.00    -0.342 N 
ATOM      9  H3  UNL     1      12.883  87.361  38.199  1.00  0.00     0.167 HD
BRANCH   3  10
HETATM   10  N1  UNL     1      10.490  90.714  36.525  1.00  0.00    -0.364 N 
HETATM   11  C5  UNL     1      11.405  91.848  36.569  1.00  0.00     0.125 C 
HETATM   12  C4  UNL     1      10.762  92.893  37.457  1.00  0.00     0.027 C 
HETATM   13  C3  UNL     1       9.950  92.153  38.497  1.00  0.00     0.017 C 
HETATM   14  C24 UNL     1       8.705  91.612  37.863  1.00  0.00     0.027 C 
HETATM   15  C23 UNL     1       9.064  91.053  36.495  1.00  0.00     0.125 C 
BRANCH  13  16
HETATM   16  C2  UNL     1       9.675  92.980  39.721  1.00  0.00     0.118 C 
HETATM   17  C1  UNL     1       8.183  92.942  39.970  1.00  0.00     0.040 C 
BRANCH  16  18
HETATM   18  O1  UNL     1      10.185  94.256  39.651  1.00  0.00    -0.396 OA
ATOM     19  H1  UNL     1      10.569  94.553  40.466  1.00  0.00     0.210 HD
ENDBRANCH  16  18
ENDBRANCH  13  16
ENDBRANCH   3  10
ENDBRANCH   1   2
BRANCH   1  20
HETATM   20  C10 UNL     1      12.610  89.299  39.704  1.00  0.00     0.078 A 
HETATM   21  C11 UNL     1      11.889  89.551  40.851  1.00  0.00     0.039 A 
HETATM   22  C12 UNL     1      12.211  89.037  42.074  1.00  0.00     0.032 A 
HETATM   23  C13 UNL     1      13.316  88.205  42.226  1.00  0.00     0.034 A 
HETATM   24  C21 UNL     1      14.050  87.940  41.095  1.00  0.00     0.032 A 
HETATM   25  C22 UNL     1      13.702  88.478  39.851  1.00  0.00     0.039 A 
BRANCH  23  26
HETATM   26  N4  UNL     1      13.644  87.676  43.496  1.00  0.00    -0.337 N 
ATOM     27  H4  UNL     1      12.929  87.127  43.974  1.00  0.00     0.168 HD
BRANCH  26  28
HETATM   28  C14 UNL     1      14.894  87.848  44.161  1.00  0.00     0.150 A 
HETATM   29  N5  UNL     1      16.121  87.933  43.734  1.00  0.00    -0.335 N 
HETATM   30  C15 UNL     1      17.123  88.093  44.544  1.00  0.00     0.051 A 
ATOM     31  H5  UNL     1      16.302  87.873  42.731  1.00  0.00     0.168 HD
HETATM   32  C16 UNL     1      18.478  88.196  44.179  1.00  0.00     0.031 A 
HETATM   33  C20 UNL     1      16.839  88.169  45.884  1.00  0.00     0.035 A 
HETATM   34  C17 UNL     1      19.441  88.363  45.137  1.00  0.00     0.002 A 
HETATM   35  C18 UNL     1      19.167  88.439  46.486  1.00  0.00     0.002 A 
HETATM   36  C19 UNL     1      17.843  88.339  46.839  1.00  0.00     0.021 A 
HETATM   37  S1  UNL     1      15.139  88.004  45.879  1.00  0.00    -0.052 SA
ENDBRANCH  26  28
ENDBRANCH  23  26
ENDBRANCH   1  20
TORSDOF 7
ENDMDL
