MODEL 5
REMARK VINA RESULT: -9.311637426      6.441     10.186
REMARK  7 active torsions:
REMARK  status: ('A' for Active; 'I' for Inactive)
REMARK    1  A    between atoms: C2_2  and  O1_3 
REMARK    2  A    between atoms: C2_2  and  C3_5 
REMARK    3  A    between atoms: N1_8  and  C6_9 
REMARK    4  A    between atoms: C9_16  and  O2_17 
REMARK    5  A    between atoms: O2_17  and  C10_18 
REMARK    6  A    between atoms: C13_21  and  N4_22 
REMARK    7  A    between atoms: N4_22  and  C14_24 
ROOT
HETATM    1  O2  UNL     1       8.935  95.223  40.157  1.00  0.00    -0.290 OA
ENDROOT
BRANCH   1   2
HETATM    2  C9  UNL     1       8.239  96.336  39.705  1.00  0.00     0.192 A 
HETATM    3  C6  UNL     1       7.302  96.963  40.492  1.00  0.00     0.155 A 
HETATM    4  N2  UNL     1       6.646  98.034  40.028  1.00  0.00    -0.348 N 
HETATM    5  C7  UNL     1       6.873  98.536  38.788  1.00  0.00     0.107 A 
ATOM      6  H2  UNL     1       5.955  98.487  40.626  1.00  0.00     0.167 HD
HETATM    7  C8  UNL     1       7.812  97.911  37.996  1.00  0.00     0.107 A 
HETATM    8  N3  UNL     1       8.466  96.839  38.461  1.00  0.00    -0.342 N 
ATOM      9  H3  UNL     1       9.157  96.386  37.864  1.00  0.00     0.167 HD
BRANCH   3  10
HETATM   10  N1  UNL     1       7.058  96.445  41.784  1.00  0.00    -0.364 N 
HETATM   11  C5  UNL     1       6.018  95.458  42.050  1.00  0.00     0.125 C 
HETATM   12  C4  UNL     1       5.418  95.811  43.395  1.00  0.00     0.027 C 
HETATM   13  C3  UNL     1       5.508  97.315  43.542  1.00  0.00     0.017 C 
HETATM   14  C24 UNL     1       6.926  97.701  43.829  1.00  0.00     0.027 C 
HETATM   15  C23 UNL     1       7.842  96.867  42.948  1.00  0.00     0.125 C 
BRANCH  13  16
HETATM   16  C2  UNL     1       4.534  97.864  44.544  1.00  0.00     0.118 C 
HETATM   17  C1  UNL     1       4.708  97.078  45.826  1.00  0.00     0.040 C 
BRANCH  16  18
HETATM   18  O1  UNL     1       3.234  97.891  44.093  1.00  0.00    -0.396 OA
ATOM     19  H1  UNL     1       2.958  97.077  43.690  1.00  0.00     0.210 HD
ENDBRANCH  16  18
ENDBRANCH  13  16
ENDBRANCH   3  10
ENDBRANCH   1   2
BRANCH   1  20
HETATM   20  C10 UNL     1       9.010  94.128  39.306  1.00  0.00     0.078 A 
HETATM   21  C11 UNL     1      10.072  93.954  38.446  1.00  0.00     0.039 A 
HETATM   22  C12 UNL     1      10.188  92.894  37.593  1.00  0.00     0.032 A 
HETATM   23  C13 UNL     1       9.211  91.906  37.552  1.00  0.00     0.034 A 
HETATM   24  C21 UNL     1       8.142  92.058  38.403  1.00  0.00     0.032 A 
HETATM   25  C22 UNL     1       8.042  93.153  39.268  1.00  0.00     0.039 A 
BRANCH  23  26
HETATM   26  N4  UNL     1       9.337  90.811  36.666  1.00  0.00    -0.337 N 
ATOM     27  H4  UNL     1       8.722  90.792  35.853  1.00  0.00     0.168 HD
BRANCH  26  28
HETATM   28  C14 UNL     1      10.255  89.730  36.820  1.00  0.00     0.150 A 
HETATM   29  N5  UNL     1      11.125  89.430  37.741  1.00  0.00    -0.335 N 
HETATM   30  C15 UNL     1      11.869  88.369  37.665  1.00  0.00     0.051 A 
ATOM     31  H5  UNL     1      11.226  90.047  38.546  1.00  0.00     0.168 HD
HETATM   32  C16 UNL     1      12.833  87.961  38.606  1.00  0.00     0.031 A 
HETATM   33  C20 UNL     1      11.704  87.564  36.567  1.00  0.00     0.035 A 
HETATM   34  C17 UNL     1      13.554  86.815  38.406  1.00  0.00     0.002 A 
HETATM   35  C18 UNL     1      13.396  86.000  37.305  1.00  0.00     0.002 A 
HETATM   36  C19 UNL     1      12.454  86.400  36.388  1.00  0.00     0.021 A 
HETATM   37  S1  UNL     1      10.482  88.400  35.716  1.00  0.00    -0.052 SA
ENDBRANCH  26  28
ENDBRANCH  23  26
ENDBRANCH   1  20
TORSDOF 7
ENDMDL
