MODEL 4
REMARK VINA RESULT: -9.329372371      6.051      9.139
REMARK  7 active torsions:
REMARK  status: ('A' for Active; 'I' for Inactive)
REMARK    1  A    between atoms: C2_2  and  O1_3 
REMARK    2  A    between atoms: C2_2  and  C3_5 
REMARK    3  A    between atoms: N1_8  and  C6_9 
REMARK    4  A    between atoms: C9_16  and  O2_17 
REMARK    5  A    between atoms: O2_17  and  C10_18 
REMARK    6  A    between atoms: C13_21  and  N4_22 
REMARK    7  A    between atoms: N4_22  and  C14_24 
ROOT
HETATM    1  O2  UNL     1       9.329  95.587  40.189  1.00  0.00    -0.290 OA
ENDROOT
BRANCH   1   2
HETATM    2  C9  UNL     1       9.232  95.489  41.570  1.00  0.00     0.192 A 
HETATM    3  C6  UNL     1       8.052  95.749  42.226  1.00  0.00     0.155 A 
HETATM    4  N2  UNL     1       7.989  95.646  43.559  1.00  0.00    -0.348 N 
HETATM    5  C7  UNL     1       9.065  95.289  44.305  1.00  0.00     0.107 A 
ATOM      6  H2  UNL     1       7.105  95.843  44.028  1.00  0.00     0.167 HD
HETATM    7  C8  UNL     1      10.250  95.027  43.652  1.00  0.00     0.107 A 
HETATM    8  N3  UNL     1      10.311  95.131  42.319  1.00  0.00    -0.342 N 
ATOM      9  H3  UNL     1      11.194  94.936  41.848  1.00  0.00     0.167 HD
BRANCH   3  10
HETATM   10  N1  UNL     1       6.927  96.124  41.456  1.00  0.00    -0.364 N 
HETATM   11  C5  UNL     1       5.887  95.176  41.075  1.00  0.00     0.125 C 
HETATM   12  C4  UNL     1       5.458  95.541  39.670  1.00  0.00     0.027 C 
HETATM   13  C3  UNL     1       6.671  96.112  38.969  1.00  0.00     0.017 C 
HETATM   14  C24 UNL     1       6.935  97.494  39.481  1.00  0.00     0.027 C 
HETATM   15  C23 UNL     1       6.732  97.498  40.987  1.00  0.00     0.125 C 
BRANCH  13  16
HETATM   16  C2  UNL     1       6.565  96.049  37.472  1.00  0.00     0.118 C 
HETATM   17  C1  UNL     1       6.273  94.612  37.096  1.00  0.00     0.040 C 
BRANCH  16  18
HETATM   18  O1  UNL     1       7.657  96.573  36.819  1.00  0.00    -0.396 OA
ATOM     19  H1  UNL     1       8.484  96.354  37.231  1.00  0.00     0.210 HD
ENDBRANCH  16  18
ENDBRANCH  13  16
ENDBRANCH   3  10
ENDBRANCH   1   2
BRANCH   1  20
HETATM   20  C10 UNL     1       9.327  94.404  39.462  1.00  0.00     0.078 A 
HETATM   21  C11 UNL     1       9.961  94.305  38.243  1.00  0.00     0.039 A 
HETATM   22  C12 UNL     1       9.985  93.163  37.495  1.00  0.00     0.032 A 
HETATM   23  C13 UNL     1       9.353  92.008  37.942  1.00  0.00     0.034 A 
HETATM   24  C21 UNL     1       8.713  92.083  39.156  1.00  0.00     0.032 A 
HETATM   25  C22 UNL     1       8.700  93.264  39.907  1.00  0.00     0.039 A 
BRANCH  23  26
HETATM   26  N4  UNL     1       9.381  90.828  37.161  1.00  0.00    -0.337 N 
ATOM     27  H4  UNL     1       8.639  90.704  36.472  1.00  0.00     0.168 HD
BRANCH  26  28
HETATM   28  C14 UNL     1      10.364  89.800  37.261  1.00  0.00     0.150 A 
HETATM   29  N5  UNL     1      10.573  88.704  36.588  1.00  0.00    -0.335 N 
HETATM   30  C15 UNL     1      11.555  87.902  36.866  1.00  0.00     0.051 A 
ATOM     31  H5  UNL     1       9.945  88.469  35.819  1.00  0.00     0.168 HD
HETATM   32  C16 UNL     1      11.860  86.702  36.200  1.00  0.00     0.031 A 
HETATM   33  C20 UNL     1      12.376  88.254  37.907  1.00  0.00     0.035 A 
HETATM   34  C17 UNL     1      12.930  85.944  36.594  1.00  0.00     0.002 A 
HETATM   35  C18 UNL     1      13.761  86.288  37.639  1.00  0.00     0.002 A 
HETATM   36  C19 UNL     1      13.461  87.462  38.288  1.00  0.00     0.021 A 
HETATM   37  S1  UNL     1      11.669  89.724  38.413  1.00  0.00    -0.052 SA
ENDBRANCH  26  28
ENDBRANCH  23  26
ENDBRANCH   1  20
TORSDOF 7
ENDMDL
