MODEL 1
REMARK VINA RESULT: -9.313161117      0.000      0.000
REMARK  11 active torsions:
REMARK  status: ('A' for Active; 'I' for Inactive)
REMARK    1  A    between atoms: C9_11  and  S1_12 
REMARK    2  A    between atoms: S1_12  and  N2_15 
REMARK    3  A    between atoms: N2_15  and  C10_17 
REMARK    4  A    between atoms: C10_17  and  C11_18 
REMARK    5  A    between atoms: C10_17  and  C15_26 
REMARK    6  A    between atoms: C11_18  and  C12_19 
REMARK    7  A    between atoms: C12_19  and  C13_20 
REMARK    8  A    between atoms: C13_20  and  N3_21 
REMARK    9  A    between atoms: C15_26  and  O3_27 
REMARK   10  A    between atoms: C15_26  and  N6_29 
REMARK   11  A    between atoms: C21_35  and  C22_36 
ROOT
HETATM    1  C10 UNL     1       4.954  13.938   0.759  1.00  0.00     0.071 C 
ENDROOT
BRANCH   1   2
HETATM    2  N2  UNL     1       4.379  13.647  -0.584  1.00  0.00    -0.280 N 
ATOM      3  H2  UNL     1       4.704  12.846  -1.125  1.00  0.00     0.179 HD
BRANCH   2   4
HETATM    4  S1  UNL     1       3.208  14.644  -1.183  1.00  0.00     0.265 S 
HETATM    5  O1  UNL     1       2.694  15.672  -0.210  1.00  0.00    -0.200 OA
HETATM    6  O2  UNL     1       1.921  13.691  -1.255  1.00  0.00    -0.200 OA
BRANCH   4   7
HETATM    7  C9  UNL     1       3.290  15.194  -2.826  1.00  0.00     0.106 A 
HETATM    8  C4  UNL     1       4.138  16.283  -3.093  1.00  0.00     0.058 A 
HETATM    9  N1  UNL     1       5.055  16.734  -2.107  1.00  0.00    -0.388 N 
HETATM   10  C5  UNL     1       4.172  16.869  -4.362  1.00  0.00    -0.030 A 
HETATM   11  C3  UNL     1       5.458  18.118  -2.063  1.00  0.00     0.124 C 
ATOM     12  H1  UNL     1       5.432  16.074  -1.426  1.00  0.00     0.159 HD
HETATM   13  C2  UNL     1       4.922  18.877  -3.225  1.00  0.00     0.003 C 
HETATM   14  C1  UNL     1       5.667  20.178  -3.412  1.00  0.00     0.012 C 
HETATM   15  C23 UNL     1       5.051  18.083  -4.526  1.00  0.00     0.046 C 
HETATM   16  C6  UNL     1       3.381  16.380  -5.353  1.00  0.00     0.009 A 
HETATM   17  C7  UNL     1       2.551  15.312  -5.101  1.00  0.00     0.002 A 
HETATM   18  C8  UNL     1       2.503  14.716  -3.833  1.00  0.00     0.028 A 
ENDBRANCH   4   7
ENDBRANCH   2   4
ENDBRANCH   1   2
BRANCH   1  19
HETATM   19  C11 UNL     1       4.403  13.163   1.814  1.00  0.00     0.064 C 
BRANCH  19  20
HETATM   20  C12 UNL     1       3.810  13.914   3.019  1.00  0.00     0.026 C 
BRANCH  20  21
HETATM   21  C13 UNL     1       3.825  12.967   4.223  1.00  0.00     0.122 C 
BRANCH  21  22
HETATM   22  N3  UNL     1       2.699  13.078   5.083  1.00  0.00    -0.367 N 
HETATM   23  C14 UNL     1       1.586  12.464   5.047  1.00  0.00     0.196 C 
HETATM   24  N4  UNL     1       0.544  12.683   5.986  1.00  0.00    -0.067 NA
HETATM   25  N5  UNL     1       1.379  11.523   4.012  1.00  0.00    -0.067 NA
ATOM     26  H3  UNL     1       2.798  13.751   5.843  1.00  0.00     0.161 HD
ENDBRANCH  21  22
ENDBRANCH  20  21
ENDBRANCH  19  20
ENDBRANCH   1  19
BRANCH   1  27
HETATM   27  C15 UNL     1       6.333  14.322   0.490  1.00  0.00     0.166 C 
BRANCH  27  28
HETATM   28  O3  UNL     1       6.524  15.608   0.324  1.00  0.00    -0.344 OA
ATOM     29  H3  UNL     1       7.392  15.916   0.559  1.00  0.00     0.219 HD
ENDBRANCH  27  28
BRANCH  27  30
HETATM   30  N6  UNL     1       7.474  13.543   0.334  1.00  0.00    -0.324 N 
HETATM   31  C16 UNL     1       7.685  12.255   0.901  1.00  0.00     0.131 C 
HETATM   32  C17 UNL     1       9.102  12.011   1.276  1.00  0.00     0.025 C 
HETATM   33  C18 UNL     1      10.195  12.592   0.445  1.00  0.00    -0.011 C 
HETATM   34  C19 UNL     1      10.588  11.693  -0.714  1.00  0.00     0.010 C 
HETATM   35  C20 UNL     1       9.847  13.991  -0.070  1.00  0.00     0.069 C 
HETATM   36  C21 UNL     1       8.484  13.949  -0.628  1.00  0.00     0.091 C 
BRANCH  36  37
HETATM   37  C22 UNL     1       8.173  15.050  -1.517  1.00  0.00     0.222 C 
HETATM   38  O4  UNL     1       8.771  16.182  -1.446  1.00  0.00    -0.643 OA
HETATM   39  O5  UNL     1       7.216  14.985  -2.532  1.00  0.00    -0.643 OA
ENDBRANCH  36  37
ENDBRANCH  27  30
ENDBRANCH   1  27
TORSDOF 11
ENDMDL
