MODEL 2
REMARK VINA RESULT: -9.095635609      2.230      6.207
REMARK  11 active torsions:
REMARK  status: ('A' for Active; 'I' for Inactive)
REMARK    1  A    between atoms: C9_11  and  S1_12 
REMARK    2  A    between atoms: S1_12  and  N2_15 
REMARK    3  A    between atoms: N2_15  and  C10_17 
REMARK    4  A    between atoms: C10_17  and  C11_18 
REMARK    5  A    between atoms: C10_17  and  C15_26 
REMARK    6  A    between atoms: C11_18  and  C12_19 
REMARK    7  A    between atoms: C12_19  and  C13_20 
REMARK    8  A    between atoms: C13_20  and  N3_21 
REMARK    9  A    between atoms: C15_26  and  O3_27 
REMARK   10  A    between atoms: C15_26  and  N6_29 
REMARK   11  A    between atoms: C21_35  and  C22_36 
ROOT
HETATM    1  C10 UNL     1       6.618  13.545   1.286  1.00  0.00     0.071 C 
ENDROOT
BRANCH   1   2
HETATM    2  N2  UNL     1       6.150  14.714   0.491  1.00  0.00    -0.280 N 
ATOM      3  H2  UNL     1       5.499  15.388   0.895  1.00  0.00     0.179 HD
BRANCH   2   4
HETATM    4  S1  UNL     1       6.700  14.900  -1.053  1.00  0.00     0.265 S 
HETATM    5  O1  UNL     1       7.362  13.682  -1.640  1.00  0.00    -0.200 OA
HETATM    6  O2  UNL     1       7.991  15.833  -0.870  1.00  0.00    -0.200 OA
BRANCH   4   7
HETATM    7  C9  UNL     1       5.790  15.838  -2.195  1.00  0.00     0.106 A 
HETATM    8  C4  UNL     1       4.825  15.154  -2.956  1.00  0.00     0.058 A 
HETATM    9  N1  UNL     1       4.459  13.825  -2.620  1.00  0.00    -0.388 N 
HETATM   10  C5  UNL     1       4.133  15.804  -3.983  1.00  0.00    -0.030 A 
HETATM   11  C3  UNL     1       4.006  12.912  -3.641  1.00  0.00     0.124 C 
ATOM     12  H1  UNL     1       4.516  13.513  -1.651  1.00  0.00     0.159 HD
HETATM   13  C2  UNL     1       3.848  13.598  -4.952  1.00  0.00     0.003 C 
HETATM   14  C1  UNL     1       2.993  12.780  -5.891  1.00  0.00     0.012 C 
HETATM   15  C23 UNL     1       3.181  14.965  -4.795  1.00  0.00     0.046 C 
HETATM   16  C6  UNL     1       4.390  17.112  -4.249  1.00  0.00     0.009 A 
HETATM   17  C7  UNL     1       5.330  17.789  -3.505  1.00  0.00     0.002 A 
HETATM   18  C8  UNL     1       6.034  17.151  -2.475  1.00  0.00     0.028 A 
ENDBRANCH   4   7
ENDBRANCH   2   4
ENDBRANCH   1   2
BRANCH   1  19
HETATM   19  C11 UNL     1       7.835  13.761   1.987  1.00  0.00     0.064 C 
BRANCH  19  20
HETATM   20  C12 UNL     1       9.146  13.376   1.280  1.00  0.00     0.026 C 
BRANCH  20  21
HETATM   21  C13 UNL     1       9.127  11.865   1.033  1.00  0.00     0.122 C 
BRANCH  21  22
HETATM   22  N3  UNL     1      10.171  11.384   0.196  1.00  0.00    -0.367 N 
HETATM   23  C14 UNL     1      10.394  10.207  -0.227  1.00  0.00     0.196 C 
HETATM   24  N4  UNL     1      11.490   9.875  -1.067  1.00  0.00    -0.067 NA
HETATM   25  N5  UNL     1       9.508   9.178   0.168  1.00  0.00    -0.067 NA
ATOM     26  H3  UNL     1      10.841  12.090  -0.110  1.00  0.00     0.161 HD
ENDBRANCH  21  22
ENDBRANCH  20  21
ENDBRANCH  19  20
ENDBRANCH   1  19
BRANCH   1  27
HETATM   27  C15 UNL     1       5.395  12.873   1.703  1.00  0.00     0.166 C 
BRANCH  27  28
HETATM   28  O3  UNL     1       5.157  11.737   1.096  1.00  0.00    -0.344 OA
ATOM     29  H3  UNL     1       4.280  11.651   0.740  1.00  0.00     0.219 HD
ENDBRANCH  27  28
BRANCH  27  30
HETATM   30  N6  UNL     1       4.414  13.263   2.607  1.00  0.00    -0.324 N 
HETATM   31  C16 UNL     1       4.587  13.408   4.012  1.00  0.00     0.131 C 
HETATM   32  C17 UNL     1       3.375  13.040   4.788  1.00  0.00     0.025 C 
HETATM   33  C18 UNL     1       2.024  13.321   4.222  1.00  0.00    -0.011 C 
HETATM   34  C19 UNL     1       1.530  14.717   4.554  1.00  0.00     0.010 C 
HETATM   35  C20 UNL     1       1.973  13.091   2.709  1.00  0.00     0.069 C 
HETATM   36  C21 UNL     1       3.142  13.754   2.104  1.00  0.00     0.091 C 
BRANCH  36  37
HETATM   37  C22 UNL     1       3.019  13.990   0.681  1.00  0.00     0.222 C 
HETATM   38  O4  UNL     1       2.686  13.066  -0.144  1.00  0.00    -0.643 OA
HETATM   39  O5  UNL     1       3.233  15.230   0.076  1.00  0.00    -0.643 OA
ENDBRANCH  36  37
ENDBRANCH  27  30
ENDBRANCH   1  27
TORSDOF 11
ENDMDL
