MODEL 4
REMARK VINA RESULT: -9.016948331      2.242      6.376
REMARK  11 active torsions:
REMARK  status: ('A' for Active; 'I' for Inactive)
REMARK    1  A    between atoms: C9_11  and  S1_12 
REMARK    2  A    between atoms: S1_12  and  N2_15 
REMARK    3  A    between atoms: N2_15  and  C10_17 
REMARK    4  A    between atoms: C10_17  and  C11_18 
REMARK    5  A    between atoms: C10_17  and  C15_26 
REMARK    6  A    between atoms: C11_18  and  C12_19 
REMARK    7  A    between atoms: C12_19  and  C13_20 
REMARK    8  A    between atoms: C13_20  and  N3_21 
REMARK    9  A    between atoms: C15_26  and  O3_27 
REMARK   10  A    between atoms: C15_26  and  N6_29 
REMARK   11  A    between atoms: C21_35  and  C22_36 
ROOT
HETATM    1  C10 UNL     1       4.890  13.643   0.841  1.00  0.00     0.071 C 
ENDROOT
BRANCH   1   2
HETATM    2  N2  UNL     1       5.162  14.975   0.231  1.00  0.00    -0.280 N 
ATOM      3  H2  UNL     1       4.876  15.831   0.706  1.00  0.00     0.179 HD
BRANCH   2   4
HETATM    4  S1  UNL     1       5.933  15.041  -1.226  1.00  0.00     0.265 S 
HETATM    5  O1  UNL     1       6.653  13.778  -1.620  1.00  0.00    -0.200 OA
HETATM    6  O2  UNL     1       7.198  15.978  -0.927  1.00  0.00    -0.200 OA
BRANCH   4   7
HETATM    7  C9  UNL     1       5.212  15.895  -2.554  1.00  0.00     0.106 A 
HETATM    8  C4  UNL     1       4.397  15.150  -3.424  1.00  0.00     0.058 A 
HETATM    9  N1  UNL     1       3.997  13.832  -3.078  1.00  0.00    -0.388 N 
HETATM   10  C5  UNL     1       3.876  15.727  -4.586  1.00  0.00    -0.030 A 
HETATM   11  C3  UNL     1       3.732  12.856  -4.105  1.00  0.00     0.124 C 
ATOM     12  H1  UNL     1       3.897  13.575  -2.096  1.00  0.00     0.159 HD
HETATM   13  C2  UNL     1       3.784  13.466  -5.461  1.00  0.00     0.003 C 
HETATM   14  C1  UNL     1       3.107  12.580  -6.481  1.00  0.00     0.012 C 
HETATM   15  C23 UNL     1       3.082  14.825  -5.495  1.00  0.00     0.046 C 
HETATM   16  C6  UNL     1       4.155  17.025  -4.880  1.00  0.00     0.009 A 
HETATM   17  C7  UNL     1       4.950  17.761  -4.031  1.00  0.00     0.002 A 
HETATM   18  C8  UNL     1       5.482  17.196  -2.864  1.00  0.00     0.028 A 
ENDBRANCH   4   7
ENDBRANCH   2   4
ENDBRANCH   1   2
BRANCH   1  19
HETATM   19  C11 UNL     1       5.762  13.296   1.908  1.00  0.00     0.064 C 
BRANCH  19  20
HETATM   20  C12 UNL     1       7.092  12.611   1.551  1.00  0.00     0.026 C 
BRANCH  20  21
HETATM   21  C13 UNL     1       8.225  13.609   1.810  1.00  0.00     0.122 C 
BRANCH  21  22
HETATM   22  N3  UNL     1       8.944  14.009   0.650  1.00  0.00    -0.367 N 
HETATM   23  C14 UNL     1       9.993  13.511   0.135  1.00  0.00     0.196 C 
HETATM   24  N4  UNL     1      10.603  14.024  -1.040  1.00  0.00    -0.067 NA
HETATM   25  N5  UNL     1      10.582  12.394   0.771  1.00  0.00    -0.067 NA
ATOM     26  H3  UNL     1       8.560  14.816   0.159  1.00  0.00     0.161 HD
ENDBRANCH  21  22
ENDBRANCH  20  21
ENDBRANCH  19  20
ENDBRANCH   1  19
BRANCH   1  27
HETATM   27  C15 UNL     1       3.451  13.465   0.702  1.00  0.00     0.166 C 
BRANCH  27  28
HETATM   28  O3  UNL     1       3.084  12.728  -0.317  1.00  0.00    -0.344 OA
ATOM     29  H3  UNL     1       2.268  12.255  -0.193  1.00  0.00     0.219 HD
ENDBRANCH  27  28
BRANCH  27  30
HETATM   30  N6  UNL     1       2.400  13.989   1.447  1.00  0.00    -0.324 N 
HETATM   31  C16 UNL     1       2.232  13.860   2.854  1.00  0.00     0.131 C 
HETATM   32  C17 UNL     1       0.807  13.758   3.261  1.00  0.00     0.025 C 
HETATM   33  C18 UNL     1      -0.232  14.514   2.504  1.00  0.00    -0.011 C 
HETATM   34  C19 UNL     1      -0.424  15.926   3.026  1.00  0.00     0.010 C 
HETATM   35  C20 UNL     1       0.057  14.543   1.000  1.00  0.00     0.069 C 
HETATM   36  C21 UNL     1       1.472  14.910   0.812  1.00  0.00     0.091 C 
BRANCH  36  37
HETATM   37  C22 UNL     1       1.789  15.386  -0.518  1.00  0.00     0.222 C 
HETATM   38  O4  UNL     1       2.482  16.445  -0.723  1.00  0.00    -0.643 OA
HETATM   39  O5  UNL     1       1.390  14.743  -1.692  1.00  0.00    -0.643 OA
ENDBRANCH  36  37
ENDBRANCH  27  30
ENDBRANCH   1  27
TORSDOF 11
ENDMDL
