MODEL 17
REMARK VINA RESULT: -8.612899685      2.562      5.398
REMARK  11 active torsions:
REMARK  status: ('A' for Active; 'I' for Inactive)
REMARK    1  A    between atoms: C9_11  and  S1_12 
REMARK    2  A    between atoms: S1_12  and  N2_15 
REMARK    3  A    between atoms: N2_15  and  C10_17 
REMARK    4  A    between atoms: C10_17  and  C11_18 
REMARK    5  A    between atoms: C10_17  and  C15_26 
REMARK    6  A    between atoms: C11_18  and  C12_19 
REMARK    7  A    between atoms: C12_19  and  C13_20 
REMARK    8  A    between atoms: C13_20  and  N3_21 
REMARK    9  A    between atoms: C15_26  and  O3_27 
REMARK   10  A    between atoms: C15_26  and  N6_29 
REMARK   11  A    between atoms: C21_35  and  C22_36 
ROOT
HETATM    1  C10 UNL     1       3.824  14.245  -0.410  1.00  0.00     0.071 C 
ENDROOT
BRANCH   1   2
HETATM    2  N2  UNL     1       2.984  13.039  -0.650  1.00  0.00    -0.280 N 
ATOM      3  H2  UNL     1       3.402  12.109  -0.657  1.00  0.00     0.179 HD
BRANCH   2   4
HETATM    4  S1  UNL     1       1.366  13.234  -0.905  1.00  0.00     0.265 S 
HETATM    5  O1  UNL     1       0.558  13.515   0.335  1.00  0.00    -0.200 OA
HETATM    6  O2  UNL     1       0.863  11.743  -1.209  1.00  0.00    -0.200 OA
BRANCH   4   7
HETATM    7  C9  UNL     1       0.801  14.055  -2.325  1.00  0.00     0.106 A 
HETATM    8  C4  UNL     1       1.317  13.623  -3.560  1.00  0.00     0.058 A 
HETATM    9  N1  UNL     1       2.065  12.419  -3.641  1.00  0.00    -0.388 N 
HETATM   10  C5  UNL     1       1.012  14.306  -4.741  1.00  0.00    -0.030 A 
HETATM   11  C3  UNL     1       3.086  12.260  -4.647  1.00  0.00     0.124 C 
ATOM     12  H1  UNL     1       1.880  11.662  -2.983  1.00  0.00     0.159 HD
HETATM   13  C2  UNL     1       3.096  13.406  -5.596  1.00  0.00     0.003 C 
HETATM   14  C1  UNL     1       3.845  13.054  -6.861  1.00  0.00     0.012 C 
HETATM   15  C23 UNL     1       1.679  13.816  -6.001  1.00  0.00     0.046 C 
HETATM   16  C6  UNL     1       0.204  15.398  -4.701  1.00  0.00     0.009 A 
HETATM   17  C7  UNL     1      -0.308  15.825  -3.496  1.00  0.00     0.002 A 
HETATM   18  C8  UNL     1      -0.009  15.154  -2.304  1.00  0.00     0.028 A 
ENDBRANCH   4   7
ENDBRANCH   2   4
ENDBRANCH   1   2
BRANCH   1  19
HETATM   19  C11 UNL     1       4.370  14.331   0.899  1.00  0.00     0.064 C 
BRANCH  19  20
HETATM   20  C12 UNL     1       5.061  13.081   1.469  1.00  0.00     0.026 C 
BRANCH  20  21
HETATM   21  C13 UNL     1       6.558  13.184   1.162  1.00  0.00     0.122 C 
BRANCH  21  22
HETATM   22  N3  UNL     1       7.182  11.954   0.818  1.00  0.00    -0.367 N 
HETATM   23  C14 UNL     1       8.412  11.633   0.843  1.00  0.00     0.196 C 
HETATM   24  N4  UNL     1       8.891  10.350   0.466  1.00  0.00    -0.067 NA
HETATM   25  N5  UNL     1       9.346  12.609   1.261  1.00  0.00    -0.067 NA
ATOM     26  H3  UNL     1       6.548  11.219   0.504  1.00  0.00     0.161 HD
ENDBRANCH  21  22
ENDBRANCH  20  21
ENDBRANCH  19  20
ENDBRANCH   1  19
BRANCH   1  27
HETATM   27  C15 UNL     1       4.427  14.533  -1.705  1.00  0.00     0.166 C 
BRANCH  27  28
HETATM   28  O3  UNL     1       4.968  13.501  -2.302  1.00  0.00    -0.344 OA
ATOM     29  H3  UNL     1       5.064  12.729  -1.756  1.00  0.00     0.219 HD
ENDBRANCH  27  28
BRANCH  27  30
HETATM   30  N6  UNL     1       4.563  15.736  -2.390  1.00  0.00    -0.324 N 
HETATM   31  C16 UNL     1       3.505  16.484  -2.978  1.00  0.00     0.131 C 
HETATM   32  C17 UNL     1       3.908  17.180  -4.226  1.00  0.00     0.025 C 
HETATM   33  C18 UNL     1       5.293  17.718  -4.355  1.00  0.00    -0.011 C 
HETATM   34  C19 UNL     1       5.428  19.124  -3.801  1.00  0.00     0.010 C 
HETATM   35  C20 UNL     1       6.333  16.797  -3.709  1.00  0.00     0.069 C 
HETATM   36  C21 UNL     1       5.844  16.421  -2.370  1.00  0.00     0.091 C 
BRANCH  36  37
HETATM   37  C22 UNL     1       6.872  15.916  -1.485  1.00  0.00     0.222 C 
HETATM   38  O4  UNL     1       7.636  14.936  -1.804  1.00  0.00    -0.643 OA
HETATM   39  O5  UNL     1       7.140  16.444  -0.221  1.00  0.00    -0.643 OA
ENDBRANCH  36  37
ENDBRANCH  27  30
ENDBRANCH   1  27
TORSDOF 11
ENDMDL
