MODEL 6
REMARK VINA RESULT: -9.031726828      3.171      7.330
REMARK  3 active torsions:
REMARK  status: ('A' for Active; 'I' for Inactive)
REMARK    1  A    between atoms: C4_4  and  N1_5 
REMARK       I    between atoms: N1_5  and  C5_7 
REMARK    2  A    between atoms: C5_7  and  C6_9 
REMARK    3  A    between atoms: N5_20  and  C12_21 
ROOT
HETATM    1  N1  UNL     1      56.525   9.501   3.473  1.00  0.00    -0.307 N 
ATOM      2  H1  UNL     1      56.428  10.509   3.348  1.00  0.00     0.170 HD
HETATM    3  C5  UNL     1      57.320   9.043   4.556  1.00  0.00     0.262 C 
HETATM    4  O1  UNL     1      57.466   7.823   4.748  1.00  0.00    -0.267 OA
ENDROOT
BRANCH   1   5
HETATM    5  C4  UNL     1      55.858   8.655   2.552  1.00  0.00     0.132 A 
HETATM    6  C3  UNL     1      56.383   8.116   1.397  1.00  0.00     0.076 A 
HETATM    7  C2  UNL     1      55.375   7.364   0.824  1.00  0.00     0.026 A 
HETATM    8  C1  UNL     1      55.440   6.588  -0.426  1.00  0.00     0.070 C 
HETATM    9  N6  UNL     1      54.304   7.465   1.623  1.00  0.00    -0.297 N 
HETATM   10  N5  UNL     1      54.578   8.235   2.661  1.00  0.00    -0.240 N 
ATOM     11  H6  UNL     1      53.406   7.012   1.453  1.00  0.00     0.187 HD
BRANCH  10  12
HETATM   12  C12 UNL     1      53.720   8.609   3.755  1.00  0.00     0.060 A 
HETATM   13  C13 UNL     1      53.986   8.139   5.015  1.00  0.00     0.032 A 
HETATM   14  C14 UNL     1      53.195   8.472   6.077  1.00  0.00     0.004 A 
HETATM   15  C15 UNL     1      52.111   9.293   5.883  1.00  0.00     0.024 A 
HETATM   16  C16 UNL     1      51.838   9.768   4.619  1.00  0.00     0.036 A 
HETATM   17 CL1  UNL     1      50.441  10.811   4.438  1.00  0.00    -0.084 Cl
HETATM   18  C17 UNL     1      52.641   9.428   3.551  1.00  0.00     0.055 A 
ENDBRANCH  10  12
ENDBRANCH   1   5
BRANCH   3  19
HETATM   19  C6  UNL     1      57.978   9.986   5.466  1.00  0.00     0.095 A 
HETATM   20  C7  UNL     1      57.483  10.572   6.587  1.00  0.00     0.128 A 
HETATM   21  N2  UNL     1      58.468  11.359   7.080  1.00  0.00    -0.303 N 
HETATM   22  N3  UNL     1      59.542  11.297   6.333  1.00  0.00    -0.250 N 
ATOM     23  H2  UNL     1      58.385  11.927   7.924  1.00  0.00     0.186 HD
HETATM   24  C8  UNL     1      60.760  11.878   6.396  1.00  0.00     0.119 A 
HETATM   25  C11 UNL     1      59.275  10.453   5.321  1.00  0.00     0.143 A 
HETATM   26  C9  UNL     1      61.715  11.607   5.430  1.00  0.00     0.036 A 
HETATM   27  C10 UNL     1      61.430  10.741   4.396  1.00  0.00     0.091 A 
HETATM   28  N4  UNL     1      60.212  10.185   4.369  1.00  0.00    -0.350 N 
ATOM     29  H4  UNL     1      59.979   9.541   3.614  1.00  0.00     0.166 HD
ENDBRANCH   3  19
TORSDOF 3
ENDMDL
