MODEL 2
REMARK VINA RESULT: -9.508786143      1.235      1.442
REMARK  3 active torsions:
REMARK  status: ('A' for Active; 'I' for Inactive)
REMARK    1  A    between atoms: C4_4  and  N1_5 
REMARK       I    between atoms: N1_5  and  C5_7 
REMARK    2  A    between atoms: C5_7  and  C6_9 
REMARK    3  A    between atoms: N5_20  and  C12_21 
ROOT
HETATM    1  N1  UNL     1      57.403   9.210   4.614  1.00  0.00    -0.307 N 
ATOM      2  H1  UNL     1      57.983   8.372   4.570  1.00  0.00     0.170 HD
HETATM    3  C5  UNL     1      56.724   9.607   3.433  1.00  0.00     0.262 C 
HETATM    4  O1  UNL     1      56.004  10.621   3.440  1.00  0.00    -0.267 OA
ENDROOT
BRANCH   1   5
HETATM    5  C4  UNL     1      57.332   9.898   5.852  1.00  0.00     0.132 A 
HETATM    6  C3  UNL     1      56.271   9.902   6.732  1.00  0.00     0.076 A 
HETATM    7  C2  UNL     1      56.649  10.703   7.793  1.00  0.00     0.026 A 
HETATM    8  C1  UNL     1      55.859  11.026   8.995  1.00  0.00     0.070 C 
HETATM    9  N6  UNL     1      57.887  11.145   7.534  1.00  0.00    -0.297 N 
HETATM   10  N5  UNL     1      58.309  10.671   6.375  1.00  0.00    -0.240 N 
ATOM     11  H6  UNL     1      58.426  11.760   8.144  1.00  0.00     0.187 HD
BRANCH  10  12
HETATM   12  C12 UNL     1      59.570  10.893   5.718  1.00  0.00     0.060 A 
HETATM   13  C13 UNL     1      60.434  11.837   6.212  1.00  0.00     0.032 A 
HETATM   14  C14 UNL     1      61.639  12.075   5.616  1.00  0.00     0.004 A 
HETATM   15  C15 UNL     1      61.996  11.358   4.500  1.00  0.00     0.024 A 
HETATM   16  C16 UNL     1      61.133  10.408   3.999  1.00  0.00     0.036 A 
HETATM   17 CL1  UNL     1      61.648   9.528   2.574  1.00  0.00    -0.084 Cl
HETATM   18  C17 UNL     1      59.918  10.173   4.606  1.00  0.00     0.055 A 
ENDBRANCH  10  12
ENDBRANCH   1   5
BRANCH   3  19
HETATM   19  C6  UNL     1      56.850   8.838   2.191  1.00  0.00     0.095 A 
HETATM   20  C7  UNL     1      57.976   8.512   1.503  1.00  0.00     0.128 A 
HETATM   21  N2  UNL     1      57.577   7.798   0.424  1.00  0.00    -0.303 N 
HETATM   22  N3  UNL     1      56.275   7.663   0.401  1.00  0.00    -0.250 N 
ATOM     23  H2  UNL     1      58.209   7.415  -0.280  1.00  0.00     0.186 HD
HETATM   24  C8  UNL     1      55.413   7.054  -0.442  1.00  0.00     0.119 A 
HETATM   25  C11 UNL     1      55.789   8.296   1.483  1.00  0.00     0.143 A 
HETATM   26  C9  UNL     1      54.050   7.084  -0.193  1.00  0.00     0.036 A 
HETATM   27  C10 UNL     1      53.563   7.737   0.920  1.00  0.00     0.091 A 
HETATM   28  N4  UNL     1      54.450   8.328   1.731  1.00  0.00    -0.350 N 
ATOM     29  H4  UNL     1      54.112   8.817   2.559  1.00  0.00     0.166 HD
ENDBRANCH   3  19
TORSDOF 3
ENDMDL
