MODEL 1
REMARK VINA RESULT: -9.741503322      0.000      0.000
REMARK  3 active torsions:
REMARK  status: ('A' for Active; 'I' for Inactive)
REMARK    1  A    between atoms: C4_4  and  N1_5 
REMARK       I    between atoms: N1_5  and  C5_7 
REMARK    2  A    between atoms: C5_7  and  C6_9 
REMARK    3  A    between atoms: N5_20  and  C12_21 
ROOT
HETATM    1  N1  UNL     1      56.883  10.531   4.789  1.00  0.00    -0.307 N 
ATOM      2  H1  UNL     1      56.837  11.372   4.214  1.00  0.00     0.170 HD
HETATM    3  C5  UNL     1      56.733   9.278   4.141  1.00  0.00     0.262 C 
HETATM    4  O1  UNL     1      56.784   8.225   4.802  1.00  0.00    -0.267 OA
ENDROOT
BRANCH   1   5
HETATM    5  C4  UNL     1      57.094  10.696   6.182  1.00  0.00     0.132 A 
HETATM    6  C3  UNL     1      56.142  10.613   7.175  1.00  0.00     0.076 A 
HETATM    7  C2  UNL     1      56.802  10.841   8.368  1.00  0.00     0.026 A 
HETATM    8  C1  UNL     1      56.220  10.859   9.721  1.00  0.00     0.070 C 
HETATM    9  N6  UNL     1      58.092  11.048   8.072  1.00  0.00    -0.297 N 
HETATM   10  N5  UNL     1      58.282  10.964   6.767  1.00  0.00    -0.240 N 
ATOM     11  H6  UNL     1      58.823  11.243   8.757  1.00  0.00     0.187 HD
BRANCH  10  12
HETATM   12  C12 UNL     1      59.506  11.120   6.025  1.00  0.00     0.060 A 
HETATM   13  C13 UNL     1      60.411  12.076   6.405  1.00  0.00     0.032 A 
HETATM   14  C14 UNL     1      61.582  12.253   5.725  1.00  0.00     0.004 A 
HETATM   15  C15 UNL     1      61.861  11.459   4.640  1.00  0.00     0.024 A 
HETATM   16  C16 UNL     1      60.956  10.496   4.252  1.00  0.00     0.036 A 
HETATM   17 CL1  UNL     1      61.371   9.516   2.860  1.00  0.00    -0.084 Cl
HETATM   18  C17 UNL     1      59.775  10.323   4.944  1.00  0.00     0.055 A 
ENDBRANCH  10  12
ENDBRANCH   1   5
BRANCH   3  19
HETATM   19  C6  UNL     1      56.519   9.194   2.693  1.00  0.00     0.095 A 
HETATM   20  C7  UNL     1      56.406  10.202   1.789  1.00  0.00     0.128 A 
HETATM   21  N2  UNL     1      56.217   9.621   0.581  1.00  0.00    -0.303 N 
HETATM   22  N3  UNL     1      56.204   8.315   0.681  1.00  0.00    -0.250 N 
ATOM     23  H2  UNL     1      56.099  10.133  -0.293  1.00  0.00     0.186 HD
HETATM   24  C8  UNL     1      56.053   7.310  -0.209  1.00  0.00     0.119 A 
HETATM   25  C11 UNL     1      56.389   8.012   1.978  1.00  0.00     0.143 A 
HETATM   26  C9  UNL     1      56.087   5.991   0.212  1.00  0.00     0.036 A 
HETATM   27  C10 UNL     1      56.277   5.693   1.545  1.00  0.00     0.091 A 
HETATM   28  N4  UNL     1      56.423   6.716   2.395  1.00  0.00    -0.350 N 
ATOM     29  H4  UNL     1      56.564   6.519   3.386  1.00  0.00     0.166 HD
ENDBRANCH   3  19
TORSDOF 3
ENDMDL
