MODEL 14
REMARK VINA RESULT: -8.744692266      2.387      5.522
REMARK  3 active torsions:
REMARK  status: ('A' for Active; 'I' for Inactive)
REMARK    1  A    between atoms: C4_4  and  N1_5 
REMARK       I    between atoms: N1_5  and  C5_7 
REMARK    2  A    between atoms: C5_7  and  C6_9 
REMARK    3  A    between atoms: N5_20  and  C12_21 
ROOT
HETATM    1  N1  UNL     1      56.956  10.381   5.340  1.00  0.00    -0.307 N 
ATOM      2  H1  UNL     1      56.970  11.400   5.361  1.00  0.00     0.170 HD
HETATM    3  C5  UNL     1      58.201   9.705   5.247  1.00  0.00     0.262 C 
HETATM    4  O1  UNL     1      58.233   8.461   5.221  1.00  0.00    -0.267 OA
ENDROOT
BRANCH   1   5
HETATM    5  C4  UNL     1      55.695   9.736   5.408  1.00  0.00     0.132 A 
HETATM    6  C3  UNL     1      54.831   9.726   6.482  1.00  0.00     0.076 A 
HETATM    7  C2  UNL     1      53.736   8.978   6.094  1.00  0.00     0.026 A 
HETATM    8  C1  UNL     1      52.535   8.671   6.891  1.00  0.00     0.070 C 
HETATM    9  N6  UNL     1      53.960   8.572   4.837  1.00  0.00    -0.297 N 
HETATM   10  N5  UNL     1      55.129   9.018   4.413  1.00  0.00    -0.240 N 
ATOM     11  H6  UNL     1      53.319   8.000   4.286  1.00  0.00     0.187 HD
BRANCH  10  12
HETATM   12  C12 UNL     1      55.759   8.817   3.134  1.00  0.00     0.060 A 
HETATM   13  C13 UNL     1      55.913   7.545   2.648  1.00  0.00     0.032 A 
HETATM   14  C14 UNL     1      56.505   7.315   1.439  1.00  0.00     0.004 A 
HETATM   15  C15 UNL     1      56.955   8.377   0.693  1.00  0.00     0.024 A 
HETATM   16  C16 UNL     1      56.803   9.659   1.175  1.00  0.00     0.036 A 
HETATM   17 CL1  UNL     1      57.399  10.969   0.176  1.00  0.00    -0.084 Cl
HETATM   18  C17 UNL     1      56.204   9.882   2.397  1.00  0.00     0.055 A 
ENDBRANCH  10  12
ENDBRANCH   1   5
BRANCH   3  19
HETATM   19  C6  UNL     1      59.464  10.446   5.182  1.00  0.00     0.095 A 
HETATM   20  C7  UNL     1      59.967  11.349   6.064  1.00  0.00     0.128 A 
HETATM   21  N2  UNL     1      61.158  11.755   5.566  1.00  0.00    -0.303 N 
HETATM   22  N3  UNL     1      61.424  11.161   4.429  1.00  0.00    -0.250 N 
ATOM     23  H2  UNL     1      61.770  12.436   6.016  1.00  0.00     0.186 HD
HETATM   24  C8  UNL     1      62.456  11.221   3.561  1.00  0.00     0.119 A 
HETATM   25  C11 UNL     1      60.394  10.339   4.159  1.00  0.00     0.143 A 
HETATM   26  C9  UNL     1      62.450  10.449   2.410  1.00  0.00     0.036 A 
HETATM   27  C10 UNL     1      61.389   9.611   2.143  1.00  0.00     0.091 A 
HETATM   28  N4  UNL     1      60.384   9.579   3.029  1.00  0.00    -0.350 N 
ATOM     29  H4  UNL     1      59.589   8.967   2.852  1.00  0.00     0.166 HD
ENDBRANCH   3  19
TORSDOF 3
ENDMDL
