MODEL 1
REMARK VINA RESULT: -7.055120852      0.000      0.000
REMARK  16 active torsions:
REMARK  status: ('A' for Active; 'I' for Inactive)
REMARK    1  A    between atoms: C3_3  and  O1_4 
REMARK    2  A    between atoms: O1_4  and  C4_5 
REMARK    3  A    between atoms: C4_5  and  C5_6 
REMARK    4  A    between atoms: C7_10  and  O4_11 
REMARK    5  A    between atoms: O4_11  and  C8_12 
REMARK    6  A    between atoms: C8_12  and  C9_13 
REMARK    7  A    between atoms: C11_17  and  O7_18 
REMARK    8  A    between atoms: C12_20  and  O8_21 
REMARK    9  A    between atoms: C13_23  and  C14_24 
REMARK   10  A    between atoms: C14_24  and  O9_25 
REMARK   11  A    between atoms: C14_24  and  C15_27 
REMARK   12  A    between atoms: C15_27  and  O10_28 
REMARK   13  A    between atoms: C17_32  and  C18_33 
REMARK   14  A    between atoms: C18_33  and  O12_34 
REMARK   15  A    between atoms: C18_33  and  C19_36 
REMARK   16  A    between atoms: C19_36  and  O13_37 
ROOT
HETATM    1  O4  UNL     1      -7.079   3.669   2.165  1.00  0.00    -0.341 OA
ENDROOT
BRANCH   1   2
HETATM    2  C7  UNL     1      -5.952   2.976   1.782  1.00  0.00     0.134 C 
HETATM    3  C6  UNL     1      -6.150   1.532   2.163  1.00  0.00     0.113 C 
HETATM    4  C4  UNL     1      -5.564   1.201   3.519  1.00  0.00     0.262 C 
HETATM    5  O14 UNL     1      -4.230   1.488   3.482  1.00  0.00    -0.338 OA
HETATM    6  C17 UNL     1      -4.006   2.829   3.407  1.00  0.00     0.159 C 
HETATM    7  C16 UNL     1      -4.748   3.599   2.383  1.00  0.00     0.067 C 
BRANCH   4   8
HETATM    8  O1  UNL     1      -5.782  -0.205   3.703  1.00  0.00    -0.317 OA
BRANCH   8   9
HETATM    9  C3  UNL     1      -4.761  -0.922   4.340  1.00  0.00     0.135 C 
HETATM   10  C2  UNL     1      -5.032  -2.053   4.967  1.00  0.00    -0.007 C 
HETATM   11  C1  UNL     1      -3.947  -2.799   5.635  1.00  0.00     0.038 C 
ENDBRANCH   8   9
ENDBRANCH   4   8
BRANCH   4  12
HETATM   12  C5  UNL     1      -6.350   1.903   4.549  1.00  0.00     0.239 C 
HETATM   13  O2  UNL     1      -5.877   2.634   5.457  1.00  0.00    -0.644 OA
HETATM   14  O3  UNL     1      -7.749   1.759   4.540  1.00  0.00    -0.644 OA
ENDBRANCH   4  12
BRANCH   6  15
HETATM   15  C18 UNL     1      -2.487   2.998   3.257  1.00  0.00     0.170 C 
BRANCH  15  16
HETATM   16  O12 UNL     1      -2.306   3.874   2.189  1.00  0.00    -0.391 OA
ATOM     17  H12 UNL     1      -1.860   3.374   1.516  1.00  0.00     0.210 HD
ENDBRANCH  15  16
BRANCH  15  18
HETATM   18  C19 UNL     1      -1.878   3.592   4.497  1.00  0.00     0.198 C 
BRANCH  18  19
HETATM   19  O13 UNL     1      -2.882   3.640   5.467  1.00  0.00    -0.398 OA
ATOM     20  H13 UNL     1      -2.489   3.982   6.262  1.00  0.00     0.209 HD
ENDBRANCH  18  19
ENDBRANCH  15  18
ENDBRANCH   6  15
ENDBRANCH   1   2
BRANCH   1  21
HETATM   21  C8  UNL     1      -7.588   4.573   1.264  1.00  0.00     0.259 C 
HETATM   22  C10 UNL     1      -6.682   4.645   0.071  1.00  0.00     0.115 C 
HETATM   23  C11 UNL     1      -6.914   3.533  -0.940  1.00  0.00     0.155 C 
HETATM   24  C12 UNL     1      -8.330   3.592  -1.483  1.00  0.00     0.178 C 
HETATM   25  C13 UNL     1      -9.143   4.311  -0.459  1.00  0.00     0.187 C 
HETATM   26  O11 UNL     1      -8.817   4.059   0.844  1.00  0.00    -0.336 OA
BRANCH  21  27
HETATM   27  C9  UNL     1      -7.763   5.946   1.799  1.00  0.00     0.239 C 
HETATM   28  O5  UNL     1      -6.754   6.708   1.838  1.00  0.00    -0.644 OA
HETATM   29  O6  UNL     1      -8.938   6.483   2.266  1.00  0.00    -0.644 OA
ENDBRANCH  21  27
BRANCH  23  30
HETATM   30  O7  UNL     1      -5.962   3.662  -1.933  1.00  0.00    -0.393 OA
ATOM     31  H7  UNL     1      -5.236   3.090  -1.715  1.00  0.00     0.210 HD
ENDBRANCH  23  30
BRANCH  24  32
HETATM   32  O8  UNL     1      -8.241   4.321  -2.690  1.00  0.00    -0.390 OA
ATOM     33  H8  UNL     1      -9.093   4.726  -2.804  1.00  0.00     0.210 HD
ENDBRANCH  24  32
BRANCH  25  34
HETATM   34  C14 UNL     1     -10.634   4.159  -0.629  1.00  0.00     0.173 C 
BRANCH  34  35
HETATM   35  O9  UNL     1     -10.814   3.581  -1.898  1.00  0.00    -0.391 OA
ATOM     36  H9  UNL     1     -11.715   3.282  -1.917  1.00  0.00     0.210 HD
ENDBRANCH  34  35
BRANCH  34  37
HETATM   37  C15 UNL     1     -11.389   5.457  -0.577  1.00  0.00     0.198 C 
BRANCH  37  38
HETATM   38  O10 UNL     1     -10.778   6.447   0.157  1.00  0.00    -0.398 OA
ATOM     39  H10 UNL     1     -10.411   7.155  -0.360  1.00  0.00     0.209 HD
ENDBRANCH  37  38
ENDBRANCH  34  37
ENDBRANCH  25  34
ENDBRANCH   1  21
TORSDOF 16
ENDMDL
