MODEL 3
REMARK VINA RESULT: -6.825317640      1.827      2.511
REMARK  16 active torsions:
REMARK  status: ('A' for Active; 'I' for Inactive)
REMARK    1  A    between atoms: C3_3  and  O1_4 
REMARK    2  A    between atoms: O1_4  and  C4_5 
REMARK    3  A    between atoms: C4_5  and  C5_6 
REMARK    4  A    between atoms: C7_10  and  O4_11 
REMARK    5  A    between atoms: O4_11  and  C8_12 
REMARK    6  A    between atoms: C8_12  and  C9_13 
REMARK    7  A    between atoms: C11_17  and  O7_18 
REMARK    8  A    between atoms: C12_20  and  O8_21 
REMARK    9  A    between atoms: C13_23  and  C14_24 
REMARK   10  A    between atoms: C14_24  and  O9_25 
REMARK   11  A    between atoms: C14_24  and  C15_27 
REMARK   12  A    between atoms: C15_27  and  O10_28 
REMARK   13  A    between atoms: C17_32  and  C18_33 
REMARK   14  A    between atoms: C18_33  and  O12_34 
REMARK   15  A    between atoms: C18_33  and  C19_36 
REMARK   16  A    between atoms: C19_36  and  O13_37 
ROOT
HETATM    1  O4  UNL     1      -6.572   3.248   2.887  1.00  0.00    -0.341 OA
ENDROOT
BRANCH   1   2
HETATM    2  C7  UNL     1      -5.495   2.498   2.472  1.00  0.00     0.134 C 
HETATM    3  C6  UNL     1      -5.511   1.206   3.247  1.00  0.00     0.113 C 
HETATM    4  C4  UNL     1      -4.649   1.261   4.491  1.00  0.00     0.262 C 
HETATM    5  O14 UNL     1      -3.371   1.551   4.105  1.00  0.00    -0.338 OA
HETATM    6  C17 UNL     1      -3.264   2.825   3.640  1.00  0.00     0.159 C 
HETATM    7  C16 UNL     1      -4.245   3.279   2.627  1.00  0.00     0.067 C 
BRANCH   4   8
HETATM    8  O1  UNL     1      -4.725  -0.047   5.074  1.00  0.00    -0.317 OA
BRANCH   8   9
HETATM    9  C3  UNL     1      -3.723  -0.386   5.993  1.00  0.00     0.135 C 
HETATM   10  C2  UNL     1      -3.388  -1.651   6.176  1.00  0.00    -0.007 C 
HETATM   11  C1  UNL     1      -2.330  -1.995   7.148  1.00  0.00     0.038 C 
ENDBRANCH   8   9
ENDBRANCH   4   8
BRANCH   4  12
HETATM   12  C5  UNL     1      -5.267   2.201   5.443  1.00  0.00     0.239 C 
HETATM   13  O2  UNL     1      -4.664   3.111   6.067  1.00  0.00    -0.644 OA
HETATM   14  O3  UNL     1      -6.647   2.090   5.695  1.00  0.00    -0.644 OA
ENDBRANCH   4  12
BRANCH   6  15
HETATM   15  C18 UNL     1      -1.819   2.974   3.140  1.00  0.00     0.170 C 
BRANCH  15  16
HETATM   16  O12 UNL     1      -1.872   3.895   2.095  1.00  0.00    -0.391 OA
ATOM     17  H12 UNL     1      -1.253   4.580   2.321  1.00  0.00     0.210 HD
ENDBRANCH  15  16
BRANCH  15  18
HETATM   18  C19 UNL     1      -0.917   3.500   4.222  1.00  0.00     0.198 C 
BRANCH  18  19
HETATM   19  O13 UNL     1      -1.622   3.410   5.426  1.00  0.00    -0.398 OA
ATOM     20  H13 UNL     1      -2.373   2.849   5.270  1.00  0.00     0.209 HD
ENDBRANCH  18  19
ENDBRANCH  15  18
ENDBRANCH   6  15
ENDBRANCH   1   2
BRANCH   1  21
HETATM   21  C8  UNL     1      -7.649   3.313   2.035  1.00  0.00     0.259 C 
HETATM   22  C10 UNL     1      -7.657   4.648   1.350  1.00  0.00     0.115 C 
HETATM   23  C11 UNL     1      -6.725   4.726   0.151  1.00  0.00     0.155 C 
HETATM   24  C12 UNL     1      -7.125   3.710  -0.903  1.00  0.00     0.178 C 
HETATM   25  C13 UNL     1      -7.885   2.642  -0.190  1.00  0.00     0.187 C 
HETATM   26  O11 UNL     1      -7.440   2.330   1.064  1.00  0.00    -0.336 OA
BRANCH  21  27
HETATM   27  C9  UNL     1      -8.966   3.115   2.688  1.00  0.00     0.239 C 
HETATM   28  O5  UNL     1      -9.297   1.943   3.031  1.00  0.00    -0.644 OA
HETATM   29  O6  UNL     1      -9.882   4.101   2.965  1.00  0.00    -0.644 OA
ENDBRANCH  21  27
BRANCH  23  30
HETATM   30  O7  UNL     1      -6.760   6.022  -0.325  1.00  0.00    -0.393 OA
ATOM     31  H7  UNL     1      -6.835   6.603   0.423  1.00  0.00     0.210 HD
ENDBRANCH  23  30
BRANCH  24  32
HETATM   32  O8  UNL     1      -7.941   4.415  -1.815  1.00  0.00    -0.390 OA
ATOM     33  H8  UNL     1      -7.953   5.312  -1.504  1.00  0.00     0.210 HD
ENDBRANCH  24  32
BRANCH  25  34
HETATM   34  C14 UNL     1      -8.056   1.367  -0.979  1.00  0.00     0.173 C 
BRANCH  34  35
HETATM   35  O9  UNL     1      -8.180   1.767  -2.321  1.00  0.00    -0.391 OA
ATOM     36  H9  UNL     1      -8.192   0.963  -2.827  1.00  0.00     0.210 HD
ENDBRANCH  34  35
BRANCH  34  37
HETATM   37  C15 UNL     1      -9.273   0.573  -0.597  1.00  0.00     0.198 C 
BRANCH  37  38
HETATM   38  O10 UNL     1      -9.227   0.022   0.663  1.00  0.00    -0.398 OA
ATOM     39  H10 UNL     1      -9.586  -0.856   0.725  1.00  0.00     0.209 HD
ENDBRANCH  37  38
ENDBRANCH  34  37
ENDBRANCH  25  34
ENDBRANCH   1  21
TORSDOF 16
ENDMDL
