MODEL 2
REMARK VINA RESULT: -6.955605885      1.850      3.394
REMARK  16 active torsions:
REMARK  status: ('A' for Active; 'I' for Inactive)
REMARK    1  A    between atoms: C3_3  and  O1_4 
REMARK    2  A    between atoms: O1_4  and  C4_5 
REMARK    3  A    between atoms: C4_5  and  C5_6 
REMARK    4  A    between atoms: C7_10  and  O4_11 
REMARK    5  A    between atoms: O4_11  and  C8_12 
REMARK    6  A    between atoms: C8_12  and  C9_13 
REMARK    7  A    between atoms: C11_17  and  O7_18 
REMARK    8  A    between atoms: C12_20  and  O8_21 
REMARK    9  A    between atoms: C13_23  and  C14_24 
REMARK   10  A    between atoms: C14_24  and  O9_25 
REMARK   11  A    between atoms: C14_24  and  C15_27 
REMARK   12  A    between atoms: C15_27  and  O10_28 
REMARK   13  A    between atoms: C17_32  and  C18_33 
REMARK   14  A    between atoms: C18_33  and  O12_34 
REMARK   15  A    between atoms: C18_33  and  C19_36 
REMARK   16  A    between atoms: C19_36  and  O13_37 
ROOT
HETATM    1  O4  UNL     1      -7.176   3.835   2.323  1.00  0.00    -0.341 OA
ENDROOT
BRANCH   1   2
HETATM    2  C7  UNL     1      -6.894   4.380   3.556  1.00  0.00     0.134 C 
HETATM    3  C6  UNL     1      -5.436   4.758   3.567  1.00  0.00     0.113 C 
HETATM    4  C4  UNL     1      -4.557   3.671   4.148  1.00  0.00     0.262 C 
HETATM    5  O14 UNL     1      -4.978   3.424   5.423  1.00  0.00    -0.338 OA
HETATM    6  C17 UNL     1      -6.201   2.827   5.441  1.00  0.00     0.159 C 
HETATM    7  C16 UNL     1      -7.281   3.431   4.628  1.00  0.00     0.067 C 
BRANCH   4   8
HETATM    8  O1  UNL     1      -3.225   4.205   4.142  1.00  0.00    -0.317 OA
BRANCH   8   9
HETATM    9  C3  UNL     1      -2.256   3.486   4.854  1.00  0.00     0.135 C 
HETATM   10  C2  UNL     1      -1.001   3.468   4.438  1.00  0.00    -0.007 C 
HETATM   11  C1  UNL     1       0.011   2.707   5.197  1.00  0.00     0.038 C 
ENDBRANCH   8   9
ENDBRANCH   4   8
BRANCH   4  12
HETATM   12  C5  UNL     1      -4.570   2.521   3.227  1.00  0.00     0.239 C 
HETATM   13  O2  UNL     1      -4.696   1.315   3.565  1.00  0.00    -0.644 OA
HETATM   14  O3  UNL     1      -4.432   2.763   1.849  1.00  0.00    -0.644 OA
ENDBRANCH   4  12
BRANCH   6  15
HETATM   15  C18 UNL     1      -6.598   2.716   6.921  1.00  0.00     0.170 C 
BRANCH  15  16
HETATM   16  O12 UNL     1      -5.413   2.845   7.643  1.00  0.00    -0.391 OA
ATOM     17  H12 UNL     1      -5.300   3.776   7.793  1.00  0.00     0.210 HD
ENDBRANCH  15  16
BRANCH  15  18
HETATM   18  C19 UNL     1      -7.544   3.816   7.317  1.00  0.00     0.198 C 
BRANCH  18  19
HETATM   19  O13 UNL     1      -7.080   4.344   8.525  1.00  0.00    -0.398 OA
ATOM     20  H13 UNL     1      -6.368   4.937   8.317  1.00  0.00     0.209 HD
ENDBRANCH  18  19
ENDBRANCH  15  18
ENDBRANCH   6  15
ENDBRANCH   1   2
BRANCH   1  21
HETATM   21  C8  UNL     1      -7.681   4.686   1.369  1.00  0.00     0.259 C 
HETATM   22  C10 UNL     1      -6.734   4.741   0.206  1.00  0.00     0.115 C 
HETATM   23  C11 UNL     1      -6.892   3.584  -0.767  1.00  0.00     0.155 C 
HETATM   24  C12 UNL     1      -8.289   3.573  -1.361  1.00  0.00     0.178 C 
HETATM   25  C13 UNL     1      -9.162   4.303  -0.396  1.00  0.00     0.187 C 
HETATM   26  O11 UNL     1      -8.876   4.114   0.926  1.00  0.00    -0.336 OA
BRANCH  21  27
HETATM   27  C9  UNL     1      -7.920   6.072   1.842  1.00  0.00     0.239 C 
HETATM   28  O5  UNL     1      -9.024   6.332   2.403  1.00  0.00    -0.644 OA
HETATM   29  O6  UNL     1      -7.043   7.123   1.728  1.00  0.00    -0.644 OA
ENDBRANCH  21  27
BRANCH  23  30
HETATM   30  O7  UNL     1      -5.910   3.706  -1.729  1.00  0.00    -0.393 OA
ATOM     31  H7  UNL     1      -6.329   3.976  -2.538  1.00  0.00     0.210 HD
ENDBRANCH  23  30
BRANCH  24  32
HETATM   32  O8  UNL     1      -8.180   4.257  -2.592  1.00  0.00    -0.390 OA
ATOM     33  H8  UNL     1      -8.894   3.932  -3.127  1.00  0.00     0.210 HD
ENDBRANCH  24  32
BRANCH  25  34
HETATM   34  C14 UNL     1     -10.640   4.094  -0.613  1.00  0.00     0.173 C 
BRANCH  34  35
HETATM   35  O9  UNL     1     -10.762   3.570  -1.911  1.00  0.00    -0.391 OA
ATOM     36  H9  UNL     1     -11.227   2.748  -1.813  1.00  0.00     0.210 HD
ENDBRANCH  34  35
BRANCH  34  37
HETATM   37  C15 UNL     1     -11.453   5.354  -0.521  1.00  0.00     0.198 C 
BRANCH  37  38
HETATM   38  O10 UNL     1     -10.792   6.426   0.034  1.00  0.00    -0.398 OA
ATOM     39  H10 UNL     1     -10.000   6.683  -0.424  1.00  0.00     0.209 HD
ENDBRANCH  37  38
ENDBRANCH  34  37
ENDBRANCH  25  34
ENDBRANCH   1  21
TORSDOF 16
ENDMDL
