MODEL 2
REMARK VINA RESULT: -9.768612360      1.078      1.687
REMARK  13 active torsions:
REMARK  status: ('A' for Active; 'I' for Inactive)
REMARK    1  A    between atoms: C2_2  and  C4_4 
REMARK    2  A    between atoms: C4_4  and  N1_5 
REMARK    3  A    between atoms: N1_5  and  C5_6 
REMARK    4  A    between atoms: N1_5  and  S1_31 
REMARK    5  A    between atoms: C5_6  and  C6_7 
REMARK    6  A    between atoms: C6_7  and  O1_8 
REMARK    7  A    between atoms: C6_7  and  C7_10 
REMARK    8  A    between atoms: C7_10  and  C8_11 
REMARK    9  A    between atoms: C7_10  and  N2_18 
REMARK   10  A    between atoms: C8_11  and  C9_12 
REMARK       I    between atoms: N2_18  and  C15_20 
REMARK   11  A    between atoms: C15_20  and  O3_22 
REMARK   12  A    between atoms: O3_22  and  C16_23 
REMARK   13  A    between atoms: S1_31  and  C22_34 
ROOT
HETATM    1  C7  UNL     1       8.442 -17.234  -1.087  1.00  0.00     0.029 C 
ENDROOT
BRANCH   1   2
HETATM    2  C6  UNL     1       9.782 -17.406  -0.417  1.00  0.00     0.203 C 
BRANCH   2   3
HETATM    3  C5  UNL     1       9.829 -17.036   1.009  1.00  0.00     0.119 C 
BRANCH   3   4
HETATM    4  N1  UNL     1       9.907 -15.674   1.329  1.00  0.00    -0.262 N 
BRANCH   4   5
HETATM    5  C4  UNL     1      10.431 -14.734   0.440  1.00  0.00     0.085 C 
BRANCH   5   6
HETATM    6  C2  UNL     1      11.717 -14.050   0.887  1.00  0.00     0.017 C 
HETATM    7  C1  UNL     1      12.956 -14.837   0.563  1.00  0.00     0.015 C 
HETATM    8  C3  UNL     1      11.832 -12.653   0.324  1.00  0.00     0.015 C 
ENDBRANCH   5   6
ENDBRANCH   4   5
BRANCH   4   9
HETATM    9  S1  UNL     1       8.830 -15.154   2.523  1.00  0.00     0.267 S 
HETATM   10  O6  UNL     1       8.593 -13.665   2.323  1.00  0.00    -0.200 OA
HETATM   11  O7  UNL     1       7.489 -15.871   2.442  1.00  0.00    -0.200 OA
BRANCH   9  12
HETATM   12  C22 UNL     1       9.433 -15.368   4.162  1.00  0.00     0.080 A 
HETATM   13  C23 UNL     1       8.692 -15.946   5.171  1.00  0.00     0.027 A 
HETATM   14  C24 UNL     1       9.186 -16.099   6.452  1.00  0.00     0.028 A 
HETATM   15  C25 UNL     1      10.457 -15.673   6.774  1.00  0.00     0.046 A 
HETATM   16  N3  UNL     1      10.974 -15.830   8.108  1.00  0.00    -0.102 NA
HETATM   17  C26 UNL     1      11.211 -15.093   5.779  1.00  0.00     0.028 A 
HETATM   18  C27 UNL     1      10.714 -14.944   4.504  1.00  0.00     0.027 A 
ENDBRANCH   9  12
ENDBRANCH   4   9
ENDBRANCH   3   4
ENDBRANCH   2   3
BRANCH   2  19
HETATM   19  O1  UNL     1      10.084 -18.786  -0.521  1.00  0.00    -0.385 OA
ATOM     20  H1  UNL     1       9.268 -19.268  -0.462  1.00  0.00     0.211 HD
ENDBRANCH   2  19
ENDBRANCH   1   2
BRANCH   1  21
HETATM   21  C8  UNL     1       7.314 -17.861  -0.316  1.00  0.00     0.094 C 
BRANCH  21  22
HETATM   22  C9  UNL     1       6.020 -17.888  -0.998  1.00  0.00    -0.053 A 
HETATM   23  C10 UNL     1       5.210 -16.753  -0.941  1.00  0.00     0.007 A 
HETATM   24  C11 UNL     1       3.969 -16.671  -1.513  1.00  0.00     0.001 A 
HETATM   25  C12 UNL     1       3.480 -17.774  -2.190  1.00  0.00     0.000 A 
HETATM   26  C13 UNL     1       4.241 -18.914  -2.273  1.00  0.00     0.001 A 
HETATM   27  C14 UNL     1       5.509 -18.954  -1.671  1.00  0.00     0.007 A 
ENDBRANCH  21  22
ENDBRANCH   1  21
BRANCH   1  28
HETATM   28  N2  UNL     1       8.444 -17.351  -2.491  1.00  0.00    -0.307 N 
HETATM   29  C15 UNL     1       8.844 -16.335  -3.393  1.00  0.00     0.365 C 
HETATM   30  O2  UNL     1       9.224 -15.241  -2.961  1.00  0.00    -0.238 OA
ATOM     31  H2  UNL     1       8.132 -18.237  -2.889  1.00  0.00     0.170 HD
BRANCH  29  32
HETATM   32  O3  UNL     1       8.818 -16.548  -4.775  1.00  0.00    -0.296 OA
BRANCH  32  33
HETATM   33  C16 UNL     1       8.097 -15.686  -5.640  1.00  0.00     0.166 C 
HETATM   34  C17 UNL     1       8.308 -16.026  -7.079  1.00  0.00     0.204 C 
HETATM   35  O4  UNL     1       7.105 -15.987  -7.733  1.00  0.00    -0.358 OA
HETATM   36  C18 UNL     1       6.106 -15.642  -6.838  1.00  0.00     0.266 C 
HETATM   37  O5  UNL     1       4.965 -16.424  -6.972  1.00  0.00    -0.361 OA
HETATM   38  C21 UNL     1       6.626 -15.999  -5.460  1.00  0.00     0.075 C 
HETATM   39  C19 UNL     1       5.201 -17.650  -6.400  1.00  0.00     0.171 C 
HETATM   40  C20 UNL     1       6.328 -17.460  -5.380  1.00  0.00     0.038 C 
ENDBRANCH  32  33
ENDBRANCH  29  32
ENDBRANCH   1  28
TORSDOF 13
ENDMDL
