MODEL 6
REMARK VINA RESULT: -9.573704214      2.498      9.106
REMARK  13 active torsions:
REMARK  status: ('A' for Active; 'I' for Inactive)
REMARK    1  A    between atoms: C2_2  and  C4_4 
REMARK    2  A    between atoms: C4_4  and  N1_5 
REMARK    3  A    between atoms: N1_5  and  C5_6 
REMARK    4  A    between atoms: N1_5  and  S1_31 
REMARK    5  A    between atoms: C5_6  and  C6_7 
REMARK    6  A    between atoms: C6_7  and  O1_8 
REMARK    7  A    between atoms: C6_7  and  C7_10 
REMARK    8  A    between atoms: C7_10  and  C8_11 
REMARK    9  A    between atoms: C7_10  and  N2_18 
REMARK   10  A    between atoms: C8_11  and  C9_12 
REMARK       I    between atoms: N2_18  and  C15_20 
REMARK   11  A    between atoms: C15_20  and  O3_22 
REMARK   12  A    between atoms: O3_22  and  C16_23 
REMARK   13  A    between atoms: S1_31  and  C22_34 
ROOT
HETATM    1  C7  UNL     1       9.766 -16.094   0.696  1.00  0.00     0.029 C 
ENDROOT
BRANCH   1   2
HETATM    2  C6  UNL     1       9.309 -17.461   0.252  1.00  0.00     0.203 C 
BRANCH   2   3
HETATM    3  C5  UNL     1       8.617 -17.505  -1.049  1.00  0.00     0.119 C 
BRANCH   3   4
HETATM    4  N1  UNL     1       7.576 -16.592  -1.267  1.00  0.00    -0.262 N 
BRANCH   4   5
HETATM    5  C4  UNL     1       7.613 -15.661  -2.305  1.00  0.00     0.085 C 
BRANCH   5   6
HETATM    6  C2  UNL     1       8.642 -15.930  -3.396  1.00  0.00     0.017 C 
HETATM    7  C1  UNL     1       8.052 -16.534  -4.638  1.00  0.00     0.015 C 
HETATM    8  C3  UNL     1       9.423 -14.685  -3.747  1.00  0.00     0.015 C 
ENDBRANCH   5   6
ENDBRANCH   4   5
BRANCH   4   9
HETATM    9  S1  UNL     1       6.076 -17.052  -0.638  1.00  0.00     0.267 S 
HETATM   10  O6  UNL     1       6.281 -18.316   0.183  1.00  0.00    -0.200 OA
HETATM   11  O7  UNL     1       5.476 -15.983   0.265  1.00  0.00    -0.200 OA
BRANCH   9  12
HETATM   12  C22 UNL     1       4.876 -17.423  -1.870  1.00  0.00     0.080 A 
HETATM   13  C23 UNL     1       3.582 -16.949  -1.832  1.00  0.00     0.027 A 
HETATM   14  C24 UNL     1       2.655 -17.258  -2.809  1.00  0.00     0.028 A 
HETATM   15  C25 UNL     1       2.996 -18.063  -3.875  1.00  0.00     0.046 A 
HETATM   16  N3  UNL     1       2.033 -18.387  -4.894  1.00  0.00    -0.102 NA
HETATM   17  C26 UNL     1       4.284 -18.546  -3.929  1.00  0.00     0.028 A 
HETATM   18  C27 UNL     1       5.203 -18.234  -2.952  1.00  0.00     0.027 A 
ENDBRANCH   9  12
ENDBRANCH   4   9
ENDBRANCH   3   4
ENDBRANCH   2   3
BRANCH   2  19
HETATM   19  O1  UNL     1      10.488 -18.239   0.146  1.00  0.00    -0.385 OA
ATOM     20  H1  UNL     1      11.040 -18.037   0.892  1.00  0.00     0.211 HD
ENDBRANCH   2  19
ENDBRANCH   1   2
BRANCH   1  21
HETATM   21  C8  UNL     1      10.937 -15.579  -0.095  1.00  0.00     0.094 C 
BRANCH  21  22
HETATM   22  C9  UNL     1      11.615 -14.412   0.468  1.00  0.00    -0.053 A 
HETATM   23  C10 UNL     1      12.668 -14.616   1.360  1.00  0.00     0.007 A 
HETATM   24  C11 UNL     1      13.357 -13.604   1.973  1.00  0.00     0.001 A 
HETATM   25  C12 UNL     1      12.995 -12.298   1.698  1.00  0.00     0.000 A 
HETATM   26  C13 UNL     1      11.964 -12.047   0.827  1.00  0.00     0.001 A 
HETATM   27  C14 UNL     1      11.285 -13.116   0.220  1.00  0.00     0.007 A 
ENDBRANCH  21  22
ENDBRANCH   1  21
BRANCH   1  28
HETATM   28  N2  UNL     1       9.742 -15.866   2.086  1.00  0.00    -0.307 N 
HETATM   29  C15 UNL     1       8.973 -14.868   2.734  1.00  0.00     0.365 C 
HETATM   30  O2  UNL     1       8.258 -14.110   2.068  1.00  0.00    -0.238 OA
ATOM     31  H2  UNL     1      10.322 -16.466   2.671  1.00  0.00     0.170 HD
BRANCH  29  32
HETATM   32  O3  UNL     1       9.008 -14.721   4.124  1.00  0.00    -0.296 OA
BRANCH  32  33
HETATM   33  C16 UNL     1       9.755 -15.609   4.940  1.00  0.00     0.166 C 
HETATM   34  C17 UNL     1      11.216 -15.305   4.912  1.00  0.00     0.204 C 
HETATM   35  O4  UNL     1      11.715 -15.367   6.186  1.00  0.00    -0.358 OA
HETATM   36  C18 UNL     1      10.694 -15.693   7.064  1.00  0.00     0.266 C 
HETATM   37  O5  UNL     1      10.705 -14.920   8.219  1.00  0.00    -0.361 OA
HETATM   38  C21 UNL     1       9.401 -15.298   6.380  1.00  0.00     0.075 C 
HETATM   39  C19 UNL     1      10.198 -13.678   7.923  1.00  0.00     0.171 C 
HETATM   40  C20 UNL     1       9.322 -13.837   6.676  1.00  0.00     0.038 C 
ENDBRANCH  32  33
ENDBRANCH  29  32
ENDBRANCH   1  28
TORSDOF 13
ENDMDL
