MODEL 4
REMARK VINA RESULT: -9.689315775      2.574      9.190
REMARK  13 active torsions:
REMARK  status: ('A' for Active; 'I' for Inactive)
REMARK    1  A    between atoms: C2_2  and  C4_4 
REMARK    2  A    between atoms: C4_4  and  N1_5 
REMARK    3  A    between atoms: N1_5  and  C5_6 
REMARK    4  A    between atoms: N1_5  and  S1_31 
REMARK    5  A    between atoms: C5_6  and  C6_7 
REMARK    6  A    between atoms: C6_7  and  O1_8 
REMARK    7  A    between atoms: C6_7  and  C7_10 
REMARK    8  A    between atoms: C7_10  and  C8_11 
REMARK    9  A    between atoms: C7_10  and  N2_18 
REMARK   10  A    between atoms: C8_11  and  C9_12 
REMARK       I    between atoms: N2_18  and  C15_20 
REMARK   11  A    between atoms: C15_20  and  O3_22 
REMARK   12  A    between atoms: O3_22  and  C16_23 
REMARK   13  A    between atoms: S1_31  and  C22_34 
ROOT
HETATM    1  C7  UNL     1       9.894 -16.441   0.801  1.00  0.00     0.029 C 
ENDROOT
BRANCH   1   2
HETATM    2  C6  UNL     1       9.294 -17.679   0.183  1.00  0.00     0.203 C 
BRANCH   2   3
HETATM    3  C5  UNL     1       8.479 -17.452  -1.024  1.00  0.00     0.119 C 
BRANCH   3   4
HETATM    4  N1  UNL     1       7.496 -16.454  -0.971  1.00  0.00    -0.262 N 
BRANCH   4   5
HETATM    5  C4  UNL     1       7.620 -15.254  -1.672  1.00  0.00     0.085 C 
BRANCH   5   6
HETATM    6  C2  UNL     1       8.278 -15.357  -3.042  1.00  0.00     0.017 C 
HETATM    7  C1  UNL     1       7.402 -14.875  -4.164  1.00  0.00     0.015 C 
HETATM    8  C3  UNL     1       9.607 -14.638  -3.079  1.00  0.00     0.015 C 
ENDBRANCH   5   6
ENDBRANCH   4   5
BRANCH   4   9
HETATM    9  S1  UNL     1       5.951 -16.992  -0.544  1.00  0.00     0.267 S 
HETATM   10  O6  UNL     1       6.108 -18.272   0.262  1.00  0.00    -0.200 OA
HETATM   11  O7  UNL     1       5.201 -15.976   0.307  1.00  0.00    -0.200 OA
BRANCH   9  12
HETATM   12  C22 UNL     1       4.927 -17.369  -1.923  1.00  0.00     0.080 A 
HETATM   13  C23 UNL     1       5.403 -17.936  -3.086  1.00  0.00     0.027 A 
HETATM   14  C24 UNL     1       4.579 -18.218  -4.159  1.00  0.00     0.028 A 
HETATM   15  C25 UNL     1       3.230 -17.940  -4.105  1.00  0.00     0.046 A 
HETATM   16  N3  UNL     1       2.369 -18.232  -5.221  1.00  0.00    -0.102 NA
HETATM   17  C26 UNL     1       2.737 -17.373  -2.951  1.00  0.00     0.028 A 
HETATM   18  C27 UNL     1       3.563 -17.094  -1.886  1.00  0.00     0.027 A 
ENDBRANCH   9  12
ENDBRANCH   4   9
ENDBRANCH   3   4
ENDBRANCH   2   3
BRANCH   2  19
HETATM   19  O1  UNL     1      10.394 -18.493  -0.179  1.00  0.00    -0.385 OA
ATOM     20  H1  UNL     1      10.873 -18.707   0.613  1.00  0.00     0.211 HD
ENDBRANCH   2  19
ENDBRANCH   1   2
BRANCH   1  21
HETATM   21  C8  UNL     1      11.105 -15.943   0.063  1.00  0.00     0.094 C 
BRANCH  21  22
HETATM   22  C9  UNL     1      11.622 -14.646   0.498  1.00  0.00    -0.053 A 
HETATM   23  C10 UNL     1      12.614 -14.616   1.479  1.00  0.00     0.007 A 
HETATM   24  C11 UNL     1      13.151 -13.464   1.986  1.00  0.00     0.001 A 
HETATM   25  C12 UNL     1      12.690 -12.252   1.505  1.00  0.00     0.000 A 
HETATM   26  C13 UNL     1      11.714 -12.230   0.540  1.00  0.00     0.001 A 
HETATM   27  C14 UNL     1      11.190 -13.437   0.047  1.00  0.00     0.007 A 
ENDBRANCH  21  22
ENDBRANCH   1  21
BRANCH   1  28
HETATM   28  N2  UNL     1       9.905 -16.407   2.210  1.00  0.00    -0.307 N 
HETATM   29  C15 UNL     1       8.812 -16.017   3.023  1.00  0.00     0.365 C 
HETATM   30  O2  UNL     1       7.749 -15.665   2.501  1.00  0.00    -0.238 OA
ATOM     31  H2  UNL     1      10.766 -16.686   2.680  1.00  0.00     0.170 HD
BRANCH  29  32
HETATM   32  O3  UNL     1       8.916 -16.023   4.418  1.00  0.00    -0.296 OA
BRANCH  32  33
HETATM   33  C16 UNL     1       9.733 -15.086   5.101  1.00  0.00     0.166 C 
HETATM   34  C17 UNL     1       8.988 -13.841   5.453  1.00  0.00     0.204 C 
HETATM   35  O4  UNL     1       9.295 -13.479   6.738  1.00  0.00    -0.358 OA
HETATM   36  C18 UNL     1      10.194 -14.390   7.270  1.00  0.00     0.266 C 
HETATM   37  O5  UNL     1       9.874 -14.774   8.566  1.00  0.00    -0.361 OA
HETATM   38  C21 UNL     1      10.033 -15.666   6.468  1.00  0.00     0.075 C 
HETATM   39  C19 UNL     1       8.832 -15.668   8.517  1.00  0.00     0.171 C 
HETATM   40  C20 UNL     1       8.850 -16.301   7.122  1.00  0.00     0.038 C 
ENDBRANCH  32  33
ENDBRANCH  29  32
ENDBRANCH   1  28
TORSDOF 13
ENDMDL
