MODEL 1
REMARK VINA RESULT: -9.794849551      0.000      0.000
REMARK  13 active torsions:
REMARK  status: ('A' for Active; 'I' for Inactive)
REMARK    1  A    between atoms: C2_2  and  C4_4 
REMARK    2  A    between atoms: C4_4  and  N1_5 
REMARK    3  A    between atoms: N1_5  and  C5_6 
REMARK    4  A    between atoms: N1_5  and  S1_31 
REMARK    5  A    between atoms: C5_6  and  C6_7 
REMARK    6  A    between atoms: C6_7  and  O1_8 
REMARK    7  A    between atoms: C6_7  and  C7_10 
REMARK    8  A    between atoms: C7_10  and  C8_11 
REMARK    9  A    between atoms: C7_10  and  N2_18 
REMARK   10  A    between atoms: C8_11  and  C9_12 
REMARK       I    between atoms: N2_18  and  C15_20 
REMARK   11  A    between atoms: C15_20  and  O3_22 
REMARK   12  A    between atoms: O3_22  and  C16_23 
REMARK   13  A    between atoms: S1_31  and  C22_34 
ROOT
HETATM    1  C7  UNL     1       8.281 -16.933  -0.790  1.00  0.00     0.029 C 
ENDROOT
BRANCH   1   2
HETATM    2  C6  UNL     1       9.712 -17.274  -0.459  1.00  0.00     0.203 C 
BRANCH   2   3
HETATM    3  C5  UNL     1      10.129 -16.979   0.924  1.00  0.00     0.119 C 
BRANCH   3   4
HETATM    4  N1  UNL     1      10.141 -15.639   1.331  1.00  0.00    -0.262 N 
BRANCH   4   5
HETATM    5  C4  UNL     1      10.672 -14.626   0.530  1.00  0.00     0.085 C 
BRANCH   5   6
HETATM    6  C2  UNL     1      11.994 -14.037   1.004  1.00  0.00     0.017 C 
HETATM    7  C1  UNL     1      13.184 -14.890   0.665  1.00  0.00     0.015 C 
HETATM    8  C3  UNL     1      12.200 -12.634   0.482  1.00  0.00     0.015 C 
ENDBRANCH   5   6
ENDBRANCH   4   5
BRANCH   4   9
HETATM    9  S1  UNL     1       8.988 -15.234   2.499  1.00  0.00     0.267 S 
HETATM   10  O6  UNL     1       8.615 -13.772   2.300  1.00  0.00    -0.200 OA
HETATM   11  O7  UNL     1       7.725 -16.074   2.379  1.00  0.00    -0.200 OA
BRANCH   9  12
HETATM   12  C22 UNL     1       9.567 -15.401   4.152  1.00  0.00     0.080 A 
HETATM   13  C23 UNL     1       8.812 -15.955   5.164  1.00  0.00     0.027 A 
HETATM   14  C24 UNL     1       9.286 -16.071   6.457  1.00  0.00     0.028 A 
HETATM   15  C25 UNL     1      10.551 -15.632   6.787  1.00  0.00     0.046 A 
HETATM   16  N3  UNL     1      11.048 -15.751   8.133  1.00  0.00    -0.102 NA
HETATM   17  C26 UNL     1      11.318 -15.076   5.788  1.00  0.00     0.028 A 
HETATM   18  C27 UNL     1      10.840 -14.963   4.502  1.00  0.00     0.027 A 
ENDBRANCH   9  12
ENDBRANCH   4   9
ENDBRANCH   3   4
ENDBRANCH   2   3
BRANCH   2  19
HETATM   19  O1  UNL     1       9.825 -18.671  -0.662  1.00  0.00    -0.385 OA
ATOM     20  H1  UNL     1       9.124 -18.940  -1.244  1.00  0.00     0.211 HD
ENDBRANCH   2  19
ENDBRANCH   1   2
BRANCH   1  21
HETATM   21  C8  UNL     1       7.304 -17.976  -0.323  1.00  0.00     0.094 C 
BRANCH  21  22
HETATM   22  C9  UNL     1       5.942 -17.844  -0.840  1.00  0.00    -0.053 A 
HETATM   23  C10 UNL     1       5.490 -18.772  -1.779  1.00  0.00     0.007 A 
HETATM   24  C11 UNL     1       4.249 -18.732  -2.356  1.00  0.00     0.001 A 
HETATM   25  C12 UNL     1       3.384 -17.715  -1.993  1.00  0.00     0.000 A 
HETATM   26  C13 UNL     1       3.785 -16.778  -1.072  1.00  0.00     0.001 A 
HETATM   27  C14 UNL     1       5.067 -16.857  -0.506  1.00  0.00     0.007 A 
ENDBRANCH  21  22
ENDBRANCH   1  21
BRANCH   1  28
HETATM   28  N2  UNL     1       8.072 -16.333  -2.047  1.00  0.00    -0.307 N 
HETATM   29  C15 UNL     1       7.913 -14.943  -2.270  1.00  0.00     0.365 C 
HETATM   30  O2  UNL     1       7.945 -14.157  -1.316  1.00  0.00    -0.238 OA
ATOM     31  H2  UNL     1       8.034 -16.946  -2.861  1.00  0.00     0.170 HD
BRANCH  29  32
HETATM   32  O3  UNL     1       7.718 -14.438  -3.559  1.00  0.00    -0.296 OA
BRANCH  32  33
HETATM   33  C16 UNL     1       8.759 -14.454  -4.523  1.00  0.00     0.166 C 
HETATM   34  C17 UNL     1       9.770 -15.516  -4.243  1.00  0.00     0.204 C 
HETATM   35  O4  UNL     1      10.089 -16.156  -5.411  1.00  0.00    -0.358 OA
HETATM   36  C18 UNL     1       9.366 -15.598  -6.453  1.00  0.00     0.266 C 
HETATM   37  O5  UNL     1       8.818 -16.550  -7.303  1.00  0.00    -0.361 OA
HETATM   38  C21 UNL     1       8.155 -14.937  -5.826  1.00  0.00     0.075 C 
HETATM   39  C19 UNL     1       7.717 -17.103  -6.696  1.00  0.00     0.171 C 
HETATM   40  C20 UNL     1       7.217 -16.088  -5.663  1.00  0.00     0.038 C 
ENDBRANCH  32  33
ENDBRANCH  29  32
ENDBRANCH   1  28
TORSDOF 13
ENDMDL
