MODEL 2
REMARK VINA RESULT: -7.159701288      3.513      9.723
REMARK  17 active torsions:
REMARK  status: ('A' for Active; 'I' for Inactive)
REMARK       I    between atoms: C2_2  and  N1_4 
REMARK    1  A    between atoms: N1_4  and  C3_6 
REMARK    2  A    between atoms: C4_7  and  O2_8 
REMARK    3  A    between atoms: O2_8  and  C5_9 
REMARK    4  A    between atoms: C6_10  and  C7_11 
REMARK    5  A    between atoms: C7_11  and  O3_12 
REMARK    6  A    between atoms: C8_15  and  O5_16 
REMARK    7  A    between atoms: O5_16  and  C9_17 
REMARK    8  A    between atoms: C10_18  and  C11_19 
REMARK    9  A    between atoms: C11_19  and  O6_20 
REMARK   10  A    between atoms: C13_25  and  O7_26 
REMARK   11  A    between atoms: C14_28  and  O8_29 
REMARK   12  A    between atoms: C15_31  and  N3_32 
REMARK       I    between atoms: N3_32  and  C16_34 
REMARK   13  A    between atoms: C18_37  and  O10_38 
REMARK   14  A    between atoms: C19_41  and  C20_42 
REMARK   15  A    between atoms: C20_42  and  O12_43 
REMARK   16  A    between atoms: C21_45  and  O13_46 
REMARK   17  A    between atoms: C22_48  and  O14_49 
ROOT
HETATM    1  C5  UNL     1     -24.696  -7.780  -2.815  1.00  0.00     0.186 C 
HETATM    2  C6  UNL     1     -24.533  -6.447  -3.408  1.00  0.00     0.180 C 
HETATM    3  O4  UNL     1     -25.174  -6.190  -4.581  1.00  0.00    -0.349 OA
HETATM    4  C8  UNL     1     -25.196  -7.176  -5.522  1.00  0.00     0.286 C 
HETATM    5  C15 UNL     1     -24.668  -8.514  -5.105  1.00  0.00     0.170 C 
HETATM    6  C18 UNL     1     -25.279  -8.836  -3.762  1.00  0.00     0.177 C 
ENDROOT
BRANCH   1   7
HETATM    7  O2  UNL     1     -25.470  -7.773  -1.629  1.00  0.00    -0.348 OA
BRANCH   7   8
HETATM    8  C4  UNL     1     -24.685  -8.061  -0.552  1.00  0.00     0.286 C 
HETATM    9  C3  UNL     1     -25.424  -8.496   0.693  1.00  0.00     0.170 C 
HETATM   10  C22 UNL     1     -24.487  -8.270   1.839  1.00  0.00     0.177 C 
HETATM   11  C21 UNL     1     -23.098  -8.617   1.384  1.00  0.00     0.180 C 
HETATM   12  C19 UNL     1     -23.013  -9.470   0.166  1.00  0.00     0.179 C 
HETATM   13  O11 UNL     1     -23.862  -9.165  -0.863  1.00  0.00    -0.349 OA
BRANCH   9  14
HETATM   14  N1  UNL     1     -26.674  -7.827   0.755  1.00  0.00    -0.349 N 
HETATM   15  C2  UNL     1     -27.836  -8.349   1.401  1.00  0.00     0.214 C 
HETATM   16  C1  UNL     1     -29.128  -7.633   1.451  1.00  0.00     0.117 C 
HETATM   17  O1  UNL     1     -27.730  -9.463   1.939  1.00  0.00    -0.274 OA
ATOM     18  H1  UNL     1     -26.747  -6.913   0.308  1.00  0.00     0.163 HD
ENDBRANCH   9  14
BRANCH  10  19
HETATM   19  O14 UNL     1     -24.835  -9.106   2.889  1.00  0.00    -0.391 OA
ATOM     20  H14 UNL     1     -25.333  -8.614   3.531  1.00  0.00     0.210 HD
ENDBRANCH  10  19
BRANCH  11  21
HETATM   21  O13 UNL     1     -22.290  -7.462   1.256  1.00  0.00    -0.390 OA
ATOM     22  H13 UNL     1     -21.515  -7.524   1.803  1.00  0.00     0.210 HD
ENDBRANCH  11  21
BRANCH  12  23
HETATM   23  C20 UNL     1     -23.017 -10.950   0.541  1.00  0.00     0.198 C 
BRANCH  23  24
HETATM   24  O12 UNL     1     -22.620 -11.119   1.877  1.00  0.00    -0.398 OA
ATOM     25  H12 UNL     1     -22.852 -11.987   2.184  1.00  0.00     0.209 HD
ENDBRANCH  23  24
ENDBRANCH  12  23
ENDBRANCH   7   8
ENDBRANCH   1   7
BRANCH   2  26
HETATM   26  C7  UNL     1     -23.096  -5.994  -3.537  1.00  0.00     0.198 C 
BRANCH  26  27
HETATM   27  O3  UNL     1     -22.640  -5.255  -2.458  1.00  0.00    -0.398 OA
ATOM     28  H3  UNL     1     -21.709  -5.346  -2.295  1.00  0.00     0.209 HD
ENDBRANCH  26  27
ENDBRANCH   2  26
BRANCH   6  29
HETATM   29  O10 UNL     1     -24.824 -10.097  -3.386  1.00  0.00    -0.391 OA
ATOM     30  H10 UNL     1     -24.903 -10.693  -4.121  1.00  0.00     0.210 HD
ENDBRANCH   6  29
BRANCH   5  31
HETATM   31  N3  UNL     1     -25.024  -9.518  -6.096  1.00  0.00    -0.349 N 
HETATM   32  C16 UNL     1     -24.059 -10.124  -6.917  1.00  0.00     0.214 C 
HETATM   33  C17 UNL     1     -24.385 -11.149  -7.934  1.00  0.00     0.117 C 
HETATM   34  O9  UNL     1     -22.848  -9.765  -6.768  1.00  0.00    -0.274 OA
ATOM     35  H3  UNL     1     -26.003  -9.788  -6.198  1.00  0.00     0.163 HD
ENDBRANCH   5  31
BRANCH   4  36
HETATM   36  O5  UNL     1     -24.581  -6.835  -6.712  1.00  0.00    -0.349 OA
BRANCH  36  37
HETATM   37  C9  UNL     1     -25.055  -5.644  -7.254  1.00  0.00     0.180 C 
HETATM   38  C10 UNL     1     -25.870  -5.903  -8.459  1.00  0.00     0.132 C 
HETATM   39  N2  UNL     1     -25.242  -5.525  -9.705  1.00  0.00    -0.410 N 
HETATM   40  C12 UNL     1     -24.835  -4.166  -9.809  1.00  0.00     0.148 C 
ATOM     41  H2  UNL     1     -25.099  -6.193 -10.463  1.00  0.00     0.153 HD
HETATM   42  C13 UNL     1     -24.094  -3.750  -8.591  1.00  0.00     0.166 C 
HETATM   43  C14 UNL     1     -23.797  -4.865  -7.630  1.00  0.00     0.179 C 
BRANCH  38  44
HETATM   44  C11 UNL     1     -27.243  -5.283  -8.428  1.00  0.00     0.191 C 
BRANCH  44  45
HETATM   45  O6  UNL     1     -27.493  -4.480  -7.350  1.00  0.00    -0.399 OA
ATOM     46  H6  UNL     1     -28.277  -3.949  -7.416  1.00  0.00     0.209 HD
ENDBRANCH  44  45
ENDBRANCH  38  44
BRANCH  42  47
HETATM   47  O7  UNL     1     -22.875  -3.187  -8.963  1.00  0.00    -0.391 OA
ATOM     48  H7  UNL     1     -22.968  -2.243  -9.011  1.00  0.00     0.210 HD
ENDBRANCH  42  47
BRANCH  43  49
HETATM   49  O8  UNL     1     -23.277  -4.314  -6.465  1.00  0.00    -0.390 OA
ATOM     50  H8  UNL     1     -22.523  -3.789  -6.705  1.00  0.00     0.210 HD
ENDBRANCH  43  49
ENDBRANCH  36  37
ENDBRANCH   4  36
TORSDOF 17
ENDMDL
