MODEL 4
REMARK VINA RESULT: -6.953733705      3.241      6.591
REMARK  17 active torsions:
REMARK  status: ('A' for Active; 'I' for Inactive)
REMARK       I    between atoms: C2_2  and  N1_4 
REMARK    1  A    between atoms: N1_4  and  C3_6 
REMARK    2  A    between atoms: C4_7  and  O2_8 
REMARK    3  A    between atoms: O2_8  and  C5_9 
REMARK    4  A    between atoms: C6_10  and  C7_11 
REMARK    5  A    between atoms: C7_11  and  O3_12 
REMARK    6  A    between atoms: C8_15  and  O5_16 
REMARK    7  A    between atoms: O5_16  and  C9_17 
REMARK    8  A    between atoms: C10_18  and  C11_19 
REMARK    9  A    between atoms: C11_19  and  O6_20 
REMARK   10  A    between atoms: C13_25  and  O7_26 
REMARK   11  A    between atoms: C14_28  and  O8_29 
REMARK   12  A    between atoms: C15_31  and  N3_32 
REMARK       I    between atoms: N3_32  and  C16_34 
REMARK   13  A    between atoms: C18_37  and  O10_38 
REMARK   14  A    between atoms: C19_41  and  C20_42 
REMARK   15  A    between atoms: C20_42  and  O12_43 
REMARK   16  A    between atoms: C21_45  and  O13_46 
REMARK   17  A    between atoms: C22_48  and  O14_49 
ROOT
HETATM    1  C5  UNL     1     -24.436  -7.505  -4.830  1.00  0.00     0.186 C 
HETATM    2  C6  UNL     1     -23.974  -7.024  -3.522  1.00  0.00     0.180 C 
HETATM    3  O4  UNL     1     -23.744  -7.949  -2.550  1.00  0.00    -0.349 OA
HETATM    4  C8  UNL     1     -24.623  -8.987  -2.439  1.00  0.00     0.286 C 
HETATM    5  C15 UNL     1     -25.656  -9.108  -3.516  1.00  0.00     0.170 C 
HETATM    6  C18 UNL     1     -24.944  -8.952  -4.838  1.00  0.00     0.177 C 
ENDROOT
BRANCH   1   7
HETATM    7  O2  UNL     1     -23.464  -7.371  -5.850  1.00  0.00    -0.348 OA
BRANCH   7   8
HETATM    8  C4  UNL     1     -24.060  -7.395  -7.076  1.00  0.00     0.286 C 
HETATM    9  C3  UNL     1     -23.734  -6.228  -7.981  1.00  0.00     0.170 C 
HETATM   10  C22 UNL     1     -24.826  -6.172  -9.005  1.00  0.00     0.177 C 
HETATM   11  C21 UNL     1     -25.204  -7.580  -9.364  1.00  0.00     0.180 C 
HETATM   12  C19 UNL     1     -24.202  -8.625  -9.015  1.00  0.00     0.179 C 
HETATM   13  O11 UNL     1     -23.598  -8.520  -7.792  1.00  0.00    -0.349 OA
BRANCH   9  14
HETATM   14  N1  UNL     1     -23.543  -5.063  -7.193  1.00  0.00    -0.349 N 
HETATM   15  C2  UNL     1     -22.799  -3.919  -7.614  1.00  0.00     0.214 C 
HETATM   16  C1  UNL     1     -22.613  -2.717  -6.775  1.00  0.00     0.117 C 
HETATM   17  O1  UNL     1     -22.291  -3.962  -8.747  1.00  0.00    -0.274 OA
ATOM     18  H1  UNL     1     -23.965  -5.041  -6.265  1.00  0.00     0.163 HD
ENDBRANCH   9  14
BRANCH  10  19
HETATM   19  O14 UNL     1     -24.357  -5.531 -10.141  1.00  0.00    -0.391 OA
ATOM     20  H14 UNL     1     -24.883  -4.758 -10.306  1.00  0.00     0.210 HD
ENDBRANCH  10  19
BRANCH  11  21
HETATM   21  O13 UNL     1     -26.486  -7.917  -8.867  1.00  0.00    -0.390 OA
ATOM     22  H13 UNL     1     -26.821  -7.237  -8.294  1.00  0.00     0.210 HD
ENDBRANCH  11  21
BRANCH  12  23
HETATM   23  C20 UNL     1     -23.219  -8.837 -10.164  1.00  0.00     0.198 C 
BRANCH  23  24
HETATM   24  O12 UNL     1     -22.105  -9.570  -9.728  1.00  0.00    -0.398 OA
ATOM     25  H12 UNL     1     -21.737 -10.072 -10.446  1.00  0.00     0.209 HD
ENDBRANCH  23  24
ENDBRANCH  12  23
ENDBRANCH   7   8
ENDBRANCH   1   7
BRANCH   2  26
HETATM   26  C7  UNL     1     -24.811  -5.910  -2.936  1.00  0.00     0.198 C 
BRANCH  26  27
HETATM   27  O3  UNL     1     -24.820  -4.753  -3.697  1.00  0.00    -0.398 OA
ATOM     28  H3  UNL     1     -25.679  -4.360  -3.792  1.00  0.00     0.209 HD
ENDBRANCH  26  27
ENDBRANCH   2  26
BRANCH   6  29
HETATM   29  O10 UNL     1     -25.892  -9.105  -5.845  1.00  0.00    -0.391 OA
ATOM     30  H10 UNL     1     -26.728  -8.767  -5.546  1.00  0.00     0.210 HD
ENDBRANCH   6  29
BRANCH   5  31
HETATM   31  N3  UNL     1     -26.315 -10.402  -3.425  1.00  0.00    -0.349 N 
HETATM   32  C16 UNL     1     -27.670 -10.569  -3.755  1.00  0.00     0.214 C 
HETATM   33  C17 UNL     1     -28.371 -11.870  -3.676  1.00  0.00     0.117 C 
HETATM   34  O9  UNL     1     -28.314  -9.541  -4.139  1.00  0.00    -0.274 OA
ATOM     35  H3  UNL     1     -25.777 -11.212  -3.114  1.00  0.00     0.163 HD
ENDBRANCH   5  31
BRANCH   4  36
HETATM   36  O5  UNL     1     -25.275  -9.047  -1.223  1.00  0.00    -0.349 OA
BRANCH  36  37
HETATM   37  C9  UNL     1     -24.496  -8.602  -0.158  1.00  0.00     0.180 C 
HETATM   38  C10 UNL     1     -23.800  -9.731   0.491  1.00  0.00     0.132 C 
HETATM   39  N2  UNL     1     -24.313 -10.088   1.794  1.00  0.00    -0.410 N 
HETATM   40  C12 UNL     1     -24.329  -9.048   2.763  1.00  0.00     0.148 C 
ATOM     41  H2  UNL     1     -24.644 -11.030   2.006  1.00  0.00     0.153 HD
HETATM   42  C13 UNL     1     -24.911  -7.809   2.186  1.00  0.00     0.166 C 
HETATM   43  C14 UNL     1     -25.494  -7.975   0.812  1.00  0.00     0.179 C 
BRANCH  38  44
HETATM   44  C11 UNL     1     -22.308  -9.556   0.615  1.00  0.00     0.191 C 
BRANCH  44  45
HETATM   45  O6  UNL     1     -21.816  -8.391   0.094  1.00  0.00    -0.399 OA
ATOM     46  H6  UNL     1     -22.461  -7.709  -0.048  1.00  0.00     0.209 HD
ENDBRANCH  44  45
ENDBRANCH  38  44
BRANCH  42  47
HETATM   47  O7  UNL     1     -25.930  -7.349   3.017  1.00  0.00    -0.391 OA
ATOM     48  H7  UNL     1     -26.759  -7.408   2.557  1.00  0.00     0.210 HD
ENDBRANCH  42  47
BRANCH  43  49
HETATM   49  O8  UNL     1     -25.826  -6.717   0.322  1.00  0.00    -0.390 OA
ATOM     50  H8  UNL     1     -25.996  -6.152   1.067  1.00  0.00     0.210 HD
ENDBRANCH  43  49
ENDBRANCH  36  37
ENDBRANCH   4  36
TORSDOF 17
ENDMDL
