MODEL 12
REMARK VINA RESULT: -6.624784437      1.897      3.576
REMARK  17 active torsions:
REMARK  status: ('A' for Active; 'I' for Inactive)
REMARK       I    between atoms: C2_2  and  N1_4 
REMARK    1  A    between atoms: N1_4  and  C3_6 
REMARK    2  A    between atoms: C4_7  and  O2_8 
REMARK    3  A    between atoms: O2_8  and  C5_9 
REMARK    4  A    between atoms: C6_10  and  C7_11 
REMARK    5  A    between atoms: C7_11  and  O3_12 
REMARK    6  A    between atoms: C8_15  and  O5_16 
REMARK    7  A    between atoms: O5_16  and  C9_17 
REMARK    8  A    between atoms: C10_18  and  C11_19 
REMARK    9  A    between atoms: C11_19  and  O6_20 
REMARK   10  A    between atoms: C13_25  and  O7_26 
REMARK   11  A    between atoms: C14_28  and  O8_29 
REMARK   12  A    between atoms: C15_31  and  N3_32 
REMARK       I    between atoms: N3_32  and  C16_34 
REMARK   13  A    between atoms: C18_37  and  O10_38 
REMARK   14  A    between atoms: C19_41  and  C20_42 
REMARK   15  A    between atoms: C20_42  and  O12_43 
REMARK   16  A    between atoms: C21_45  and  O13_46 
REMARK   17  A    between atoms: C22_48  and  O14_49 
ROOT
HETATM    1  C5  UNL     1     -25.823  -4.167 -10.171  1.00  0.00     0.186 C 
HETATM    2  C6  UNL     1     -26.210  -5.574 -10.006  1.00  0.00     0.180 C 
HETATM    3  O4  UNL     1     -26.348  -6.051  -8.738  1.00  0.00    -0.349 OA
HETATM    4  C8  UNL     1     -25.434  -5.652  -7.807  1.00  0.00     0.286 C 
HETATM    5  C15 UNL     1     -24.472  -4.584  -8.225  1.00  0.00     0.170 C 
HETATM    6  C18 UNL     1     -25.275  -3.500  -8.903  1.00  0.00     0.177 C 
ENDROOT
BRANCH   1   7
HETATM    7  O2  UNL     1     -26.864  -3.357 -10.684  1.00  0.00    -0.348 OA
BRANCH   7   8
HETATM    8  C4  UNL     1     -26.437  -2.683 -11.789  1.00  0.00     0.286 C 
HETATM    9  C3  UNL     1     -27.451  -2.554 -12.904  1.00  0.00     0.170 C 
HETATM   10  C22 UNL     1     -26.671  -2.265 -14.150  1.00  0.00     0.177 C 
HETATM   11  C21 UNL     1     -25.530  -1.358 -13.789  1.00  0.00     0.180 C 
HETATM   12  C19 UNL     1     -25.667  -0.632 -12.496  1.00  0.00     0.179 C 
HETATM   13  O11 UNL     1     -26.150  -1.347 -11.433  1.00  0.00    -0.349 OA
BRANCH   9  14
HETATM   14  N1  UNL     1     -28.275  -3.709 -12.925  1.00  0.00    -0.349 N 
HETATM   15  C2  UNL     1     -29.634  -3.720 -13.363  1.00  0.00     0.214 C 
HETATM   16  C1  UNL     1     -30.474  -4.937 -13.375  1.00  0.00     0.117 C 
HETATM   17  O1  UNL     1     -30.113  -2.641 -13.747  1.00  0.00    -0.274 OA
ATOM     18  H1  UNL     1     -27.870  -4.589 -12.606  1.00  0.00     0.163 HD
ENDBRANCH   9  14
BRANCH  10  19
HETATM   19  O14 UNL     1     -27.488  -1.615 -15.062  1.00  0.00    -0.391 OA
ATOM     20  H14 UNL     1     -28.101  -2.237 -15.435  1.00  0.00     0.210 HD
ENDBRANCH  10  19
BRANCH  11  21
HETATM   21  O13 UNL     1     -24.287  -2.031 -13.867  1.00  0.00    -0.390 OA
ATOM     22  H13 UNL     1     -23.571  -1.458 -13.617  1.00  0.00     0.210 HD
ENDBRANCH  11  21
BRANCH  12  23
HETATM   23  C20 UNL     1     -26.371   0.707 -12.699  1.00  0.00     0.198 C 
BRANCH  23  24
HETATM   24  O12 UNL     1     -26.244   1.130 -14.031  1.00  0.00    -0.398 OA
ATOM     25  H12 UNL     1     -26.489   2.044 -14.114  1.00  0.00     0.209 HD
ENDBRANCH  23  24
ENDBRANCH  12  23
ENDBRANCH   7   8
ENDBRANCH   1   7
BRANCH   2  26
HETATM   26  C7  UNL     1     -25.368  -6.549 -10.797  1.00  0.00     0.198 C 
BRANCH  26  27
HETATM   27  O3  UNL     1     -25.619  -6.532 -12.159  1.00  0.00    -0.398 OA
ATOM     28  H3  UNL     1     -25.704  -7.395 -12.546  1.00  0.00     0.209 HD
ENDBRANCH  26  27
ENDBRANCH   2  26
BRANCH   6  29
HETATM   29  O10 UNL     1     -24.392  -2.485  -9.259  1.00  0.00    -0.391 OA
ATOM     30  H10 UNL     1     -24.291  -1.884  -8.530  1.00  0.00     0.210 HD
ENDBRANCH   6  29
BRANCH   5  31
HETATM   31  N3  UNL     1     -23.771  -4.066  -7.060  1.00  0.00    -0.349 N 
HETATM   32  C16 UNL     1     -22.444  -3.614  -7.134  1.00  0.00     0.214 C 
HETATM   33  C17 UNL     1     -21.702  -3.080  -5.970  1.00  0.00     0.117 C 
HETATM   34  O9  UNL     1     -21.862  -3.674  -8.264  1.00  0.00    -0.274 OA
ATOM     35  H3  UNL     1     -24.259  -4.029  -6.165  1.00  0.00     0.163 HD
ENDBRANCH   5  31
BRANCH   4  36
HETATM   36  O5  UNL     1     -24.701  -6.687  -7.258  1.00  0.00    -0.349 OA
BRANCH  36  37
HETATM   37  C9  UNL     1     -25.130  -7.048  -5.984  1.00  0.00     0.180 C 
HETATM   38  C10 UNL     1     -24.036  -6.904  -5.001  1.00  0.00     0.132 C 
HETATM   39  N2  UNL     1     -23.487  -8.152  -4.521  1.00  0.00    -0.410 N 
HETATM   40  C12 UNL     1     -24.414  -9.051  -3.925  1.00  0.00     0.148 C 
ATOM     41  H2  UNL     1     -22.494  -8.375  -4.606  1.00  0.00     0.153 HD
HETATM   42  C13 UNL     1     -25.622  -9.193  -4.776  1.00  0.00     0.166 C 
HETATM   43  C14 UNL     1     -25.525  -8.517  -6.114  1.00  0.00     0.179 C 
BRANCH  38  44
HETATM   44  C11 UNL     1     -24.382  -6.061  -3.802  1.00  0.00     0.191 C 
BRANCH  44  45
HETATM   45  O6  UNL     1     -24.817  -4.796  -4.088  1.00  0.00    -0.399 OA
ATOM     46  H6  UNL     1     -24.183  -4.107  -3.929  1.00  0.00     0.209 HD
ENDBRANCH  44  45
ENDBRANCH  38  44
BRANCH  42  47
HETATM   47  O7  UNL     1     -25.864 -10.544  -5.010  1.00  0.00    -0.391 OA
ATOM     48  H7  UNL     1     -26.595 -10.829  -4.475  1.00  0.00     0.210 HD
ENDBRANCH  42  47
BRANCH  43  49
HETATM   49  O8  UNL     1     -26.775  -8.565  -6.722  1.00  0.00    -0.390 OA
ATOM     50  H8  UNL     1     -26.676  -9.022  -7.549  1.00  0.00     0.210 HD
ENDBRANCH  43  49
ENDBRANCH  36  37
ENDBRANCH   4  36
TORSDOF 17
ENDMDL
