MODEL 5
REMARK VINA RESULT: -6.901306107      2.233      8.399
REMARK  17 active torsions:
REMARK  status: ('A' for Active; 'I' for Inactive)
REMARK       I    between atoms: C2_2  and  N1_4 
REMARK    1  A    between atoms: N1_4  and  C3_6 
REMARK    2  A    between atoms: C4_7  and  O2_8 
REMARK    3  A    between atoms: O2_8  and  C5_9 
REMARK    4  A    between atoms: C6_10  and  C7_11 
REMARK    5  A    between atoms: C7_11  and  O3_12 
REMARK    6  A    between atoms: C8_15  and  O5_16 
REMARK    7  A    between atoms: O5_16  and  C9_17 
REMARK    8  A    between atoms: C10_18  and  C11_19 
REMARK    9  A    between atoms: C11_19  and  O6_20 
REMARK   10  A    between atoms: C13_25  and  O7_26 
REMARK   11  A    between atoms: C14_28  and  O8_29 
REMARK   12  A    between atoms: C15_31  and  N3_32 
REMARK       I    between atoms: N3_32  and  C16_34 
REMARK   13  A    between atoms: C18_37  and  O10_38 
REMARK   14  A    between atoms: C19_41  and  C20_42 
REMARK   15  A    between atoms: C20_42  and  O12_43 
REMARK   16  A    between atoms: C21_45  and  O13_46 
REMARK   17  A    between atoms: C22_48  and  O14_49 
ROOT
HETATM    1  C5  UNL     1     -27.167  -5.157  -8.139  1.00  0.00     0.186 C 
HETATM    2  C6  UNL     1     -26.180  -4.865  -9.186  1.00  0.00     0.180 C 
HETATM    3  O4  UNL     1     -26.001  -3.564  -9.546  1.00  0.00    -0.349 OA
HETATM    4  C8  UNL     1     -27.107  -2.774  -9.643  1.00  0.00     0.286 C 
HETATM    5  C15 UNL     1     -28.399  -3.365  -9.168  1.00  0.00     0.170 C 
HETATM    6  C18 UNL     1     -28.130  -4.004  -7.826  1.00  0.00     0.177 C 
ENDROOT
BRANCH   1   7
HETATM    7  O2  UNL     1     -26.583  -5.587  -6.923  1.00  0.00    -0.348 OA
BRANCH   7   8
HETATM    8  C4  UNL     1     -25.674  -6.574  -7.161  1.00  0.00     0.286 C 
HETATM    9  C3  UNL     1     -24.675  -6.820  -6.052  1.00  0.00     0.170 C 
HETATM   10  C22 UNL     1     -23.515  -7.529  -6.680  1.00  0.00     0.177 C 
HETATM   11  C21 UNL     1     -24.050  -8.483  -7.709  1.00  0.00     0.180 C 
HETATM   12  C19 UNL     1     -25.492  -8.830  -7.578  1.00  0.00     0.179 C 
HETATM   13  O11 UNL     1     -26.352  -7.806  -7.288  1.00  0.00    -0.349 OA
BRANCH   9  14
HETATM   14  N1  UNL     1     -24.390  -5.593  -5.398  1.00  0.00    -0.349 N 
HETATM   15  C2  UNL     1     -24.019  -5.481  -4.023  1.00  0.00     0.214 C 
HETATM   16  C1  UNL     1     -23.728  -4.192  -3.363  1.00  0.00     0.117 C 
HETATM   17  O1  UNL     1     -23.946  -6.535  -3.370  1.00  0.00    -0.274 OA
ATOM     18  H1  UNL     1     -24.455  -4.735  -5.945  1.00  0.00     0.163 HD
ENDBRANCH   9  14
BRANCH  10  19
HETATM   19  O14 UNL     1     -22.839  -8.252  -5.709  1.00  0.00    -0.391 OA
ATOM     20  H14 UNL     1     -21.903  -8.152  -5.837  1.00  0.00     0.210 HD
ENDBRANCH  10  19
BRANCH  11  21
HETATM   21  O13 UNL     1     -23.746  -8.052  -9.024  1.00  0.00    -0.390 OA
ATOM     22  H13 UNL     1     -22.853  -7.735  -9.082  1.00  0.00     0.210 HD
ENDBRANCH  11  21
BRANCH  12  23
HETATM   23  C20 UNL     1     -25.674 -10.052  -6.681  1.00  0.00     0.198 C 
BRANCH  23  24
HETATM   24  O12 UNL     1     -24.460 -10.741  -6.538  1.00  0.00    -0.398 OA
ATOM     25  H12 UNL     1     -24.093 -10.593  -5.674  1.00  0.00     0.209 HD
ENDBRANCH  23  24
ENDBRANCH  12  23
ENDBRANCH   7   8
ENDBRANCH   1   7
BRANCH   2  26
HETATM   26  C7  UNL     1     -26.340  -5.693 -10.441  1.00  0.00     0.198 C 
BRANCH  26  27
HETATM   27  O3  UNL     1     -25.140  -6.103 -11.000  1.00  0.00    -0.398 OA
ATOM     28  H3  UNL     1     -24.590  -5.389 -11.298  1.00  0.00     0.209 HD
ENDBRANCH  26  27
ENDBRANCH   2  26
BRANCH   6  29
HETATM   29  O10 UNL     1     -29.335  -4.520  -7.360  1.00  0.00    -0.391 OA
ATOM     30  H10 UNL     1     -29.809  -3.844  -6.891  1.00  0.00     0.210 HD
ENDBRANCH   6  29
BRANCH   5  31
HETATM   31  N3  UNL     1     -29.409  -2.324  -9.059  1.00  0.00    -0.349 N 
HETATM   32  C16 UNL     1     -30.757  -2.563  -9.372  1.00  0.00     0.214 C 
HETATM   33  C17 UNL     1     -31.811  -1.529  -9.272  1.00  0.00     0.117 C 
HETATM   34  O9  UNL     1     -31.073  -3.733  -9.761  1.00  0.00    -0.274 OA
ATOM     35  H3  UNL     1     -29.130  -1.393  -8.746  1.00  0.00     0.163 HD
ENDBRANCH   5  31
BRANCH   4  36
HETATM   36  O5  UNL     1     -27.322  -2.257 -10.906  1.00  0.00    -0.349 OA
BRANCH  36  37
HETATM   37  C9  UNL     1     -26.255  -1.497 -11.379  1.00  0.00     0.180 C 
HETATM   38  C10 UNL     1     -26.672  -0.101 -11.623  1.00  0.00     0.132 C 
HETATM   39  N2  UNL     1     -26.773   0.264 -13.018  1.00  0.00    -0.410 N 
HETATM   40  C12 UNL     1     -25.597   0.080 -13.796  1.00  0.00     0.148 C 
ATOM     41  H2  UNL     1     -27.637   0.631 -13.419  1.00  0.00     0.153 HD
HETATM   42  C13 UNL     1     -25.015  -1.264 -13.548  1.00  0.00     0.166 C 
HETATM   43  C14 UNL     1     -25.863  -2.163 -12.695  1.00  0.00     0.179 C 
BRANCH  38  44
HETATM   44  C11 UNL     1     -25.818   0.933 -10.936  1.00  0.00     0.191 C 
BRANCH  44  45
HETATM   45  O6  UNL     1     -26.298   2.213 -10.995  1.00  0.00    -0.399 OA
ATOM     46  H6  UNL     1     -27.056   2.385 -10.450  1.00  0.00     0.209 HD
ENDBRANCH  44  45
ENDBRANCH  38  44
BRANCH  42  47
HETATM   47  O7  UNL     1     -24.817  -1.912 -14.765  1.00  0.00    -0.391 OA
ATOM     48  H7  UNL     1     -24.888  -2.850 -14.636  1.00  0.00     0.210 HD
ENDBRANCH  42  47
BRANCH  43  49
HETATM   49  O8  UNL     1     -25.125  -3.301 -12.388  1.00  0.00    -0.390 OA
ATOM     50  H8  UNL     1     -24.381  -3.331 -12.979  1.00  0.00     0.210 HD
ENDBRANCH  43  49
ENDBRANCH  36  37
ENDBRANCH   4  36
TORSDOF 17
ENDMDL
