MODEL 7
REMARK VINA RESULT: -7.608434670      3.402      4.421
REMARK  4 active torsions:
REMARK  status: ('A' for Active; 'I' for Inactive)
REMARK    1  A    between atoms: C6_8  and  S1_9 
REMARK    2  A    between atoms: S1_9  and  C7_10 
REMARK    3  A    between atoms: C10_15  and  S2_16 
REMARK    4  A    between atoms: S2_16  and  N2_17 
ROOT
HETATM    1  C7  UNL     1      -3.449   3.757  11.726  1.00  0.00     0.091 A 
HETATM    2  C8  UNL     1      -3.442   4.264  13.003  1.00  0.00     0.176 A 
HETATM    3  F1  UNL     1      -3.090   5.556  13.161  1.00  0.00    -0.201 F 
HETATM    4  C9  UNL     1      -3.780   3.498  14.102  1.00  0.00     0.182 A 
HETATM    5  F2  UNL     1      -3.763   4.036  15.360  1.00  0.00    -0.201 F 
HETATM    6  C10 UNL     1      -4.138   2.182  13.928  1.00  0.00     0.162 A 
HETATM    7  C11 UNL     1      -4.153   1.649  12.663  1.00  0.00     0.182 A 
HETATM    8  F3  UNL     1      -4.509   0.347  12.518  1.00  0.00    -0.201 F 
HETATM    9  C12 UNL     1      -3.812   2.432  11.584  1.00  0.00     0.176 A 
HETATM   10  F4  UNL     1      -3.844   1.852  10.354  1.00  0.00    -0.201 F 
ENDROOT
BRANCH   1  11
HETATM   11  S1  UNL     1      -3.025   4.692  10.285  1.00  0.00    -0.048 SA
BRANCH  11  12
HETATM   12  C6  UNL     1      -4.358   5.781   9.806  1.00  0.00     0.149 A 
HETATM   13  N1  UNL     1      -5.172   6.246  10.758  1.00  0.00    -0.341 N 
HETATM   14  C4  UNL     1      -6.211   7.072  10.521  1.00  0.00     0.009 A 
ATOM     15  H1  UNL     1      -4.997   5.959  11.721  1.00  0.00     0.167 HD
HETATM   16  C3  UNL     1      -6.401   7.429   9.188  1.00  0.00     0.049 A 
HETATM   17  C5  UNL     1      -7.108   7.579  11.594  1.00  0.00     0.068 C 
HETATM   18  C2  UNL     1      -5.581   6.970   8.178  1.00  0.00     0.009 A 
HETATM   19  C1  UNL     1      -5.782   7.351   6.756  1.00  0.00     0.068 C 
HETATM   20  N3  UNL     1      -4.564   6.143   8.524  1.00  0.00    -0.341 N 
ATOM     21  H3  UNL     1      -3.942   5.787   7.799  1.00  0.00     0.167 HD
ENDBRANCH  11  12
ENDBRANCH   1  11
BRANCH   6  22
HETATM   22  S2  UNL     1      -4.568   1.214  15.337  1.00  0.00     0.263 S 
HETATM   23  O1  UNL     1      -3.439   1.326  16.327  1.00  0.00    -0.201 OA
HETATM   24  O2  UNL     1      -4.824  -0.197  14.926  1.00  0.00    -0.201 OA
BRANCH  22  25
HETATM   25  N2  UNL     1      -6.020   1.873  15.986  1.00  0.00    -0.324 N 
ATOM     26  H22 UNL     1      -6.270   2.862  15.996  1.00  0.00     0.169 HD
ATOM     27  H21 UNL     1      -6.568   1.096  16.351  1.00  0.00     0.169 HD
ENDBRANCH  22  25
ENDBRANCH   6  22
TORSDOF 4
ENDMDL
