MODEL 6
REMARK VINA RESULT: -7.662265698      3.379      4.473
REMARK  4 active torsions:
REMARK  status: ('A' for Active; 'I' for Inactive)
REMARK    1  A    between atoms: C6_8  and  S1_9 
REMARK    2  A    between atoms: S1_9  and  C7_10 
REMARK    3  A    between atoms: C10_15  and  S2_16 
REMARK    4  A    between atoms: S2_16  and  N2_17 
ROOT
HETATM    1  C7  UNL     1      -3.476   3.605  11.704  1.00  0.00     0.091 A 
HETATM    2  C8  UNL     1      -3.826   2.280  11.614  1.00  0.00     0.176 A 
HETATM    3  F1  UNL     1      -3.838   1.718  10.388  1.00  0.00    -0.201 F 
HETATM    4  C9  UNL     1      -4.157   1.528  12.725  1.00  0.00     0.182 A 
HETATM    5  F2  UNL     1      -4.499   0.209  12.597  1.00  0.00    -0.201 F 
HETATM    6  C10 UNL     1      -4.140   2.112  13.968  1.00  0.00     0.162 A 
HETATM    7  C11 UNL     1      -3.795   3.435  14.088  1.00  0.00     0.182 A 
HETATM    8  F3  UNL     1      -3.787   3.988  15.327  1.00  0.00    -0.201 F 
HETATM    9  C12 UNL     1      -3.470   4.164  12.966  1.00  0.00     0.176 A 
HETATM   10  F4  UNL     1      -3.136   5.470  13.144  1.00  0.00    -0.201 F 
ENDROOT
BRANCH   1  11
HETATM   11  S1  UNL     1      -3.045   4.615  10.315  1.00  0.00    -0.048 SA
BRANCH  11  12
HETATM   12  C6  UNL     1      -4.368   5.742   9.901  1.00  0.00     0.149 A 
HETATM   13  N1  UNL     1      -4.523   6.099   8.622  1.00  0.00    -0.341 N 
HETATM   14  C4  UNL     1      -5.481   6.941   8.188  1.00  0.00     0.009 A 
ATOM     15  H1  UNL     1      -3.876   5.713   7.935  1.00  0.00     0.167 HD
HETATM   16  C3  UNL     1      -6.334   7.438   9.170  1.00  0.00     0.049 A 
HETATM   17  C5  UNL     1      -5.637   7.329   6.761  1.00  0.00     0.068 C 
HETATM   18  C2  UNL     1      -6.207   7.091  10.500  1.00  0.00     0.009 A 
HETATM   19  C1  UNL     1      -7.116   7.619  11.550  1.00  0.00     0.068 C 
HETATM   20  N3  UNL     1      -5.208   6.237  10.831  1.00  0.00    -0.341 N 
ATOM     21  H3  UNL     1      -5.089   5.963  11.807  1.00  0.00     0.167 HD
ENDBRANCH  11  12
ENDBRANCH   1  11
BRANCH   6  22
HETATM   22  S2  UNL     1      -4.562   1.143  15.379  1.00  0.00     0.263 S 
HETATM   23  O1  UNL     1      -3.436   1.268  16.371  1.00  0.00    -0.201 OA
HETATM   24  O2  UNL     1      -4.804  -0.272  14.972  1.00  0.00    -0.201 OA
BRANCH  22  25
HETATM   25  N2  UNL     1      -6.021   1.789  16.025  1.00  0.00    -0.324 N 
ATOM     26  H22 UNL     1      -6.128   2.713  16.442  1.00  0.00     0.169 HD
ATOM     27  H21 UNL     1      -6.744   1.079  15.910  1.00  0.00     0.169 HD
ENDBRANCH  22  25
ENDBRANCH   6  22
TORSDOF 4
ENDMDL
