MODEL 4
REMARK VINA RESULT: -7.752669733      3.355      4.027
REMARK  4 active torsions:
REMARK  status: ('A' for Active; 'I' for Inactive)
REMARK    1  A    between atoms: C6_8  and  S1_9 
REMARK    2  A    between atoms: S1_9  and  C7_10 
REMARK    3  A    between atoms: C10_15  and  S2_16 
REMARK    4  A    between atoms: S2_16  and  N2_17 
ROOT
HETATM    1  C7  UNL     1      -3.491   3.579  11.758  1.00  0.00     0.091 A 
HETATM    2  C8  UNL     1      -3.506   4.119  13.022  1.00  0.00     0.176 A 
HETATM    3  F1  UNL     1      -3.192   5.424  13.149  1.00  0.00    -0.201 F 
HETATM    4  C9  UNL     1      -3.827   3.371  14.138  1.00  0.00     0.182 A 
HETATM    5  F2  UNL     1      -3.833   3.942  15.382  1.00  0.00    -0.201 F 
HETATM    6  C10 UNL     1      -4.145   2.042  13.996  1.00  0.00     0.162 A 
HETATM    7  C11 UNL     1      -4.138   1.476  12.745  1.00  0.00     0.182 A 
HETATM    8  F3  UNL     1      -4.455   0.162  12.631  1.00  0.00    -0.201 F 
HETATM    9  C12 UNL     1      -3.814   2.242  11.648  1.00  0.00     0.176 A 
HETATM   10  F4  UNL     1      -3.822   1.630  10.433  1.00  0.00    -0.201 F 
ENDROOT
BRANCH   1  11
HETATM   11  S1  UNL     1      -3.085   4.490  10.295  1.00  0.00    -0.048 SA
BRANCH  11  12
HETATM   12  C6  UNL     1      -4.368   5.666   9.891  1.00  0.00     0.149 A 
HETATM   13  N1  UNL     1      -4.495   6.056   8.619  1.00  0.00    -0.341 N 
HETATM   14  C4  UNL     1      -5.423   6.936   8.192  1.00  0.00     0.009 A 
ATOM     15  H1  UNL     1      -3.853   5.664   7.931  1.00  0.00     0.167 HD
HETATM   16  C3  UNL     1      -6.271   7.438   9.176  1.00  0.00     0.049 A 
HETATM   17  C5  UNL     1      -5.549   7.359   6.772  1.00  0.00     0.068 C 
HETATM   18  C2  UNL     1      -6.171   7.059  10.498  1.00  0.00     0.009 A 
HETATM   19  C1  UNL     1      -7.076   7.592  11.549  1.00  0.00     0.068 C 
HETATM   20  N3  UNL     1      -5.203   6.167  10.823  1.00  0.00    -0.341 N 
ATOM     21  H3  UNL     1      -5.104   5.869  11.793  1.00  0.00     0.167 HD
ENDBRANCH  11  12
ENDBRANCH   1  11
BRANCH   6  22
HETATM   22  S2  UNL     1      -4.556   1.098  15.427  1.00  0.00     0.263 S 
HETATM   23  O1  UNL     1      -3.427   1.251  16.412  1.00  0.00    -0.201 OA
HETATM   24  O2  UNL     1      -4.789  -0.326  15.048  1.00  0.00    -0.201 OA
BRANCH  22  25
HETATM   25  N2  UNL     1      -6.017   1.746  16.065  1.00  0.00    -0.324 N 
ATOM     26  H22 UNL     1      -6.194   2.731  16.259  1.00  0.00     0.169 HD
ATOM     27  H21 UNL     1      -6.657   0.966  16.209  1.00  0.00     0.169 HD
ENDBRANCH  22  25
ENDBRANCH   6  22
TORSDOF 4
ENDMDL
