MODEL 12
REMARK VINA RESULT: -7.441647188      4.121      5.864
REMARK  4 active torsions:
REMARK  status: ('A' for Active; 'I' for Inactive)
REMARK    1  A    between atoms: C6_8  and  S1_9 
REMARK    2  A    between atoms: S1_9  and  C7_10 
REMARK    3  A    between atoms: C10_15  and  S2_16 
REMARK    4  A    between atoms: S2_16  and  N2_17 
ROOT
HETATM    1  C7  UNL     1       0.947  -9.183  18.262  1.00  0.00     0.091 A 
HETATM    2  C8  UNL     1       1.341 -10.443  18.643  1.00  0.00     0.176 A 
HETATM    3  F1  UNL     1       1.266 -11.426  17.723  1.00  0.00    -0.201 F 
HETATM    4  C9  UNL     1       1.802 -10.718  19.916  1.00  0.00     0.182 A 
HETATM    5  F2  UNL     1       2.188 -11.985  20.259  1.00  0.00    -0.201 F 
HETATM    6  C10 UNL     1       1.874  -9.707  20.844  1.00  0.00     0.162 A 
HETATM    7  C11 UNL     1       1.486  -8.438  20.492  1.00  0.00     0.182 A 
HETATM    8  F3  UNL     1       1.566  -7.458  21.427  1.00  0.00    -0.201 F 
HETATM    9  C12 UNL     1       1.030  -8.189  19.217  1.00  0.00     0.176 A 
HETATM   10  F4  UNL     1       0.658  -6.914  18.923  1.00  0.00    -0.201 F 
ENDROOT
BRANCH   1  11
HETATM   11  S1  UNL     1       0.348  -8.776  16.647  1.00  0.00    -0.048 SA
BRANCH  11  12
HETATM   12  C6  UNL     1      -1.434  -8.880  16.574  1.00  0.00     0.149 A 
HETATM   13  N1  UNL     1      -2.143  -8.375  17.588  1.00  0.00    -0.341 N 
HETATM   14  C4  UNL     1      -3.489  -8.394  17.648  1.00  0.00     0.009 A 
ATOM     15  H1  UNL     1      -1.634  -7.950  18.364  1.00  0.00     0.167 HD
HETATM   16  C3  UNL     1      -4.129  -8.988  16.562  1.00  0.00     0.049 A 
HETATM   17  C5  UNL     1      -4.261  -7.828  18.786  1.00  0.00     0.068 C 
HETATM   18  C2  UNL     1      -3.432  -9.519  15.497  1.00  0.00     0.009 A 
HETATM   19  C1  UNL     1      -4.113 -10.152  14.337  1.00  0.00     0.068 C 
HETATM   20  N3  UNL     1      -2.079  -9.448  15.536  1.00  0.00    -0.341 N 
ATOM     21  H3  UNL     1      -1.536  -9.834  14.763  1.00  0.00     0.167 HD
ENDBRANCH  11  12
ENDBRANCH   1  11
BRANCH   6  22
HETATM   22  S2  UNL     1       2.465 -10.068  22.465  1.00  0.00     0.263 S 
HETATM   23  O1  UNL     1       1.723 -11.281  22.960  1.00  0.00    -0.201 OA
HETATM   24  O2  UNL     1       2.273  -8.885  23.353  1.00  0.00    -0.201 OA
BRANCH  22  25
HETATM   25  N2  UNL     1       4.151 -10.393  22.334  1.00  0.00    -0.324 N 
ATOM     26  H22 UNL     1       4.729 -10.829  23.052  1.00  0.00     0.169 HD
ATOM     27  H21 UNL     1       4.451 -10.069  21.415  1.00  0.00     0.169 HD
ENDBRANCH  22  25
ENDBRANCH   6  22
TORSDOF 4
ENDMDL
