MODEL 10
REMARK VINA RESULT: -7.444338164      4.138      5.896
REMARK  4 active torsions:
REMARK  status: ('A' for Active; 'I' for Inactive)
REMARK    1  A    between atoms: C6_8  and  S1_9 
REMARK    2  A    between atoms: S1_9  and  C7_10 
REMARK    3  A    between atoms: C10_15  and  S2_16 
REMARK    4  A    between atoms: S2_16  and  N2_17 
ROOT
HETATM    1  C7  UNL     1       0.948  -9.272  18.310  1.00  0.00     0.091 A 
HETATM    2  C8  UNL     1       1.350 -10.529  18.692  1.00  0.00     0.176 A 
HETATM    3  F1  UNL     1       1.263 -11.518  17.779  1.00  0.00    -0.201 F 
HETATM    4  C9  UNL     1       1.829 -10.796  19.960  1.00  0.00     0.182 A 
HETATM    5  F2  UNL     1       2.221 -12.061  20.305  1.00  0.00    -0.201 F 
HETATM    6  C10 UNL     1       1.912  -9.780  20.882  1.00  0.00     0.162 A 
HETATM    7  C11 UNL     1       1.518  -8.514  20.528  1.00  0.00     0.182 A 
HETATM    8  F3  UNL     1       1.609  -7.528  21.456  1.00  0.00    -0.201 F 
HETATM    9  C12 UNL     1       1.043  -8.273  19.258  1.00  0.00     0.176 A 
HETATM   10  F4  UNL     1       0.666  -7.000  18.962  1.00  0.00    -0.201 F 
ENDROOT
BRANCH   1  11
HETATM   11  S1  UNL     1       0.326  -8.875  16.701  1.00  0.00    -0.048 SA
BRANCH  11  12
HETATM   12  C6  UNL     1      -1.460  -8.880  16.681  1.00  0.00     0.149 A 
HETATM   13  N1  UNL     1      -2.083  -9.424  15.630  1.00  0.00    -0.341 N 
HETATM   14  C4  UNL     1      -3.423  -9.487  15.501  1.00  0.00     0.009 A 
ATOM     15  H1  UNL     1      -1.509  -9.814  14.882  1.00  0.00     0.167 HD
HETATM   16  C3  UNL     1      -4.154  -8.938  16.552  1.00  0.00     0.049 A 
HETATM   17  C5  UNL     1      -4.098 -10.096  14.324  1.00  0.00     0.068 C 
HETATM   18  C2  UNL     1      -3.547  -8.369  17.652  1.00  0.00     0.009 A 
HETATM   19  C1  UNL     1      -4.325  -7.784  18.775  1.00  0.00     0.068 C 
HETATM   20  N3  UNL     1      -2.192  -8.357  17.684  1.00  0.00    -0.341 N 
ATOM     21  H3  UNL     1      -1.715  -7.942  18.485  1.00  0.00     0.167 HD
ENDBRANCH  11  12
ENDBRANCH   1  11
BRANCH   6  22
HETATM   22  S2  UNL     1       2.526 -10.132  22.496  1.00  0.00     0.263 S 
HETATM   23  O1  UNL     1       1.818 -11.363  22.994  1.00  0.00    -0.201 OA
HETATM   24  O2  UNL     1       2.315  -8.956  23.389  1.00  0.00    -0.201 OA
BRANCH  22  25
HETATM   25  N2  UNL     1       4.218 -10.416  22.349  1.00  0.00    -0.324 N 
ATOM     26  H22 UNL     1       4.754 -10.374  21.482  1.00  0.00     0.169 HD
ATOM     27  H21 UNL     1       4.571 -10.632  23.281  1.00  0.00     0.169 HD
ENDBRANCH  22  25
ENDBRANCH   6  22
TORSDOF 4
ENDMDL
