MODEL 8
REMARK VINA RESULT: -7.467776229      4.104      5.884
REMARK  4 active torsions:
REMARK  status: ('A' for Active; 'I' for Inactive)
REMARK    1  A    between atoms: C6_8  and  S1_9 
REMARK    2  A    between atoms: S1_9  and  C7_10 
REMARK    3  A    between atoms: C10_15  and  S2_16 
REMARK    4  A    between atoms: S2_16  and  N2_17 
ROOT
HETATM    1  C7  UNL     1       0.942  -9.238  18.274  1.00  0.00     0.091 A 
HETATM    2  C8  UNL     1       1.145  -8.376  19.324  1.00  0.00     0.176 A 
HETATM    3  F1  UNL     1       0.869  -7.071  19.124  1.00  0.00    -0.201 F 
HETATM    4  C9  UNL     1       1.615  -8.805  20.550  1.00  0.00     0.182 A 
HETATM    5  F2  UNL     1       1.805  -7.917  21.574  1.00  0.00    -0.201 F 
HETATM    6  C10 UNL     1       1.893 -10.137  20.741  1.00  0.00     0.162 A 
HETATM    7  C11 UNL     1       1.700 -11.022  19.710  1.00  0.00     0.182 A 
HETATM    8  F3  UNL     1       1.983 -12.332  19.923  1.00  0.00    -0.201 F 
HETATM    9  C12 UNL     1       1.231 -10.570  18.497  1.00  0.00     0.176 A 
HETATM   10  F4  UNL     1       1.059 -11.490  17.510  1.00  0.00    -0.201 F 
ENDROOT
BRANCH   1  11
HETATM   11  S1  UNL     1       0.344  -8.742  16.683  1.00  0.00    -0.048 SA
BRANCH  11  12
HETATM   12  C6  UNL     1      -1.437  -8.851  16.601  1.00  0.00     0.149 A 
HETATM   13  N1  UNL     1      -2.153  -8.344  17.609  1.00  0.00    -0.341 N 
HETATM   14  C4  UNL     1      -3.500  -8.366  17.661  1.00  0.00     0.009 A 
ATOM     15  H1  UNL     1      -1.650  -7.914  18.386  1.00  0.00     0.167 HD
HETATM   16  C3  UNL     1      -4.132  -8.966  16.575  1.00  0.00     0.049 A 
HETATM   17  C5  UNL     1      -4.279  -7.797  18.792  1.00  0.00     0.068 C 
HETATM   18  C2  UNL     1      -3.427  -9.500  15.515  1.00  0.00     0.009 A 
HETATM   19  C1  UNL     1      -4.100 -10.139  14.355  1.00  0.00     0.068 C 
HETATM   20  N3  UNL     1      -2.074  -9.426  15.562  1.00  0.00    -0.341 N 
ATOM     21  H3  UNL     1      -1.527  -9.813  14.793  1.00  0.00     0.167 HD
ENDBRANCH  11  12
ENDBRANCH   1  11
BRANCH   6  22
HETATM   22  S2  UNL     1       2.491 -10.674  22.310  1.00  0.00     0.263 S 
HETATM   23  O1  UNL     1       2.255 -12.159  22.403  1.00  0.00    -0.201 OA
HETATM   24  O2  UNL     1       1.806  -9.922  23.401  1.00  0.00    -0.201 OA
BRANCH  22  25
HETATM   25  N2  UNL     1       4.174 -10.318  22.365  1.00  0.00    -0.324 N 
ATOM     26  H22 UNL     1       4.626  -9.685  23.025  1.00  0.00     0.169 HD
ATOM     27  H21 UNL     1       4.622 -10.854  21.622  1.00  0.00     0.169 HD
ENDBRANCH  22  25
ENDBRANCH   6  22
TORSDOF 4
ENDMDL
