MODEL 10
REMARK VINA RESULT: -6.902765121      1.594      2.954
REMARK  6 active torsions:
REMARK  status: ('A' for Active; 'I' for Inactive)
REMARK    1  A    between atoms: N1_1  and  S1_4 
REMARK    2  A    between atoms: S1_4  and  C1_7 
REMARK    3  A    between atoms: C4_12  and  S2_13 
REMARK    4  A    between atoms: S2_13  and  C5_16 
REMARK    5  A    between atoms: C5_16  and  C6_17 
REMARK    6  A    between atoms: C6_17  and  O5_18 
ROOT
HETATM    1  C1  UNL     1     -36.974 -35.939  23.883  1.00  0.00     0.162 A 
HETATM    2  C2  UNL     1     -36.729 -35.668  22.560  1.00  0.00     0.182 A 
HETATM    3  F1  UNL     1     -35.600 -36.183  22.018  1.00  0.00    -0.201 F 
HETATM    4  C3  UNL     1     -37.581 -34.903  21.783  1.00  0.00     0.181 A 
HETATM    5  F2  UNL     1     -37.325 -34.643  20.479  1.00  0.00    -0.201 F 
HETATM    6  C4  UNL     1     -38.727 -34.383  22.341  1.00  0.00     0.142 A 
HETATM    7  C7  UNL     1     -38.972 -34.656  23.674  1.00  0.00     0.181 A 
HETATM    8  F3  UNL     1     -40.120 -34.122  24.191  1.00  0.00    -0.201 F 
HETATM    9  C8  UNL     1     -38.121 -35.419  24.440  1.00  0.00     0.182 A 
HETATM   10  F4  UNL     1     -38.414 -35.659  25.759  1.00  0.00    -0.201 F 
ENDROOT
BRANCH   6  11
HETATM   11  S2  UNL     1     -39.852 -33.396  21.395  1.00  0.00     0.183 S 
HETATM   12  O3  UNL     1     -40.661 -32.539  22.312  1.00  0.00    -0.222 OA
HETATM   13  O4  UNL     1     -39.088 -32.565  20.409  1.00  0.00    -0.222 OA
BRANCH  11  14
HETATM   14  C5  UNL     1     -40.907 -34.534  20.523  1.00  0.00     0.172 C 
BRANCH  14  15
HETATM   15  C6  UNL     1     -41.645 -33.826  19.399  1.00  0.00     0.179 C 
BRANCH  15  16
HETATM   16  O5  UNL     1     -41.912 -32.499  19.735  1.00  0.00    -0.400 OA
ATOM     17  H5  UNL     1     -42.583 -32.446  20.405  1.00  0.00     0.209 HD
ENDBRANCH  15  16
ENDBRANCH  14  15
ENDBRANCH  11  14
ENDBRANCH   6  11
BRANCH   1  18
HETATM   18  S1  UNL     1     -35.893 -36.912  24.872  1.00  0.00     0.263 S 
HETATM   19  O1  UNL     1     -36.128 -38.386  24.575  1.00  0.00    -0.201 OA
HETATM   20  O2  UNL     1     -36.118 -36.696  26.328  1.00  0.00    -0.201 OA
BRANCH  18  21
HETATM   21  N1  UNL     1     -34.258 -36.588  24.404  1.00  0.00    -0.324 N 
ATOM     22  H12 UNL     1     -33.741 -37.052  23.658  1.00  0.00     0.169 HD
ATOM     23  H11 UNL     1     -33.931 -35.847  25.025  1.00  0.00     0.169 HD
ENDBRANCH  18  21
ENDBRANCH   1  18
TORSDOF 6
ENDMDL
