MODEL 4
REMARK VINA RESULT: -7.141261879      2.797      6.296
REMARK  6 active torsions:
REMARK  status: ('A' for Active; 'I' for Inactive)
REMARK    1  A    between atoms: N1_1  and  S1_4 
REMARK    2  A    between atoms: S1_4  and  C1_7 
REMARK    3  A    between atoms: C4_12  and  S2_13 
REMARK    4  A    between atoms: S2_13  and  C5_16 
REMARK    5  A    between atoms: C5_16  and  C6_17 
REMARK    6  A    between atoms: C6_17  and  O5_18 
ROOT
HETATM    1  C1  UNL     1     -39.769 -34.334  23.089  1.00  0.00     0.162 A 
HETATM    2  C2  UNL     1     -38.920 -34.994  22.236  1.00  0.00     0.182 A 
HETATM    3  F1  UNL     1     -39.164 -34.888  20.908  1.00  0.00    -0.201 F 
HETATM    4  C3  UNL     1     -37.848 -35.748  22.682  1.00  0.00     0.181 A 
HETATM    5  F2  UNL     1     -37.020 -36.395  21.829  1.00  0.00    -0.201 F 
HETATM    6  C4  UNL     1     -37.606 -35.852  24.034  1.00  0.00     0.142 A 
HETATM    7  C7  UNL     1     -38.463 -35.186  24.891  1.00  0.00     0.181 A 
HETATM    8  F3  UNL     1     -38.190 -35.314  26.226  1.00  0.00    -0.201 F 
HETATM    9  C8  UNL     1     -39.526 -34.438  24.440  1.00  0.00     0.182 A 
HETATM   10  F4  UNL     1     -40.344 -33.798  25.337  1.00  0.00    -0.201 F 
ENDROOT
BRANCH   6  11
HETATM   11  S2  UNL     1     -36.251 -36.802  24.661  1.00  0.00     0.183 S 
HETATM   12  O3  UNL     1     -36.184 -36.660  26.147  1.00  0.00    -0.222 OA
HETATM   13  O4  UNL     1     -36.414 -38.238  24.261  1.00  0.00    -0.222 OA
BRANCH  11  14
HETATM   14  C5  UNL     1     -34.781 -36.138  23.911  1.00  0.00     0.172 C 
BRANCH  14  15
HETATM   15  C6  UNL     1     -33.565 -36.967  24.288  1.00  0.00     0.179 C 
BRANCH  15  16
HETATM   16  O5  UNL     1     -33.697 -37.490  25.575  1.00  0.00    -0.400 OA
ATOM     17  H5  UNL     1     -34.411 -37.072  26.040  1.00  0.00     0.209 HD
ENDBRANCH  15  16
ENDBRANCH  14  15
ENDBRANCH  11  14
ENDBRANCH   6  11
BRANCH   1  18
HETATM   18  S1  UNL     1     -41.131 -33.375  22.523  1.00  0.00     0.263 S 
HETATM   19  O1  UNL     1     -40.621 -32.050  21.975  1.00  0.00    -0.201 OA
HETATM   20  O2  UNL     1     -42.100 -33.078  23.614  1.00  0.00    -0.201 OA
BRANCH  18  21
HETATM   21  N1  UNL     1     -41.875 -34.188  21.187  1.00  0.00    -0.324 N 
ATOM     22  H12 UNL     1     -42.300 -33.746  20.373  1.00  0.00     0.169 HD
ATOM     23  H11 UNL     1     -41.796 -35.185  21.388  1.00  0.00     0.169 HD
ENDBRANCH  18  21
ENDBRANCH   1  18
TORSDOF 6
ENDMDL
