MODEL 11
REMARK VINA RESULT: -6.863667474      1.293      2.757
REMARK  6 active torsions:
REMARK  status: ('A' for Active; 'I' for Inactive)
REMARK    1  A    between atoms: N1_1  and  S1_4 
REMARK    2  A    between atoms: S1_4  and  C1_7 
REMARK    3  A    between atoms: C4_12  and  S2_13 
REMARK    4  A    between atoms: S2_13  and  C5_16 
REMARK    5  A    between atoms: C5_16  and  C6_17 
REMARK    6  A    between atoms: C6_17  and  O5_18 
ROOT
HETATM    1  C1  UNL     1     -35.934 -36.186  23.389  1.00  0.00     0.162 A 
HETATM    2  C2  UNL     1     -36.147 -35.609  22.161  1.00  0.00     0.182 A 
HETATM    3  F1  UNL     1     -35.157 -35.715  21.243  1.00  0.00    -0.201 F 
HETATM    4  C3  UNL     1     -37.315 -34.939  21.842  1.00  0.00     0.181 A 
HETATM    5  F2  UNL     1     -37.510 -34.373  20.627  1.00  0.00    -0.201 F 
HETATM    6  C4  UNL     1     -38.317 -34.834  22.780  1.00  0.00     0.142 A 
HETATM    7  C7  UNL     1     -38.101 -35.416  24.016  1.00  0.00     0.181 A 
HETATM    8  F3  UNL     1     -39.120 -35.291  24.921  1.00  0.00    -0.201 F 
HETATM    9  C8  UNL     1     -36.937 -36.082  24.326  1.00  0.00     0.182 A 
HETATM   10  F4  UNL     1     -36.777 -36.641  25.569  1.00  0.00    -0.201 F 
ENDROOT
BRANCH   6  11
HETATM   11  S2  UNL     1     -39.831 -33.987  22.428  1.00  0.00     0.183 S 
HETATM   12  O3  UNL     1     -40.218 -33.144  23.599  1.00  0.00    -0.222 OA
HETATM   13  O4  UNL     1     -39.668 -33.156  21.191  1.00  0.00    -0.222 OA
BRANCH  11  14
HETATM   14  C5  UNL     1     -41.056 -35.246  22.142  1.00  0.00     0.172 C 
BRANCH  14  15
HETATM   15  C6  UNL     1     -42.456 -34.677  22.302  1.00  0.00     0.179 C 
BRANCH  15  16
HETATM   16  O5  UNL     1     -42.477 -33.313  22.012  1.00  0.00    -0.400 OA
ATOM     17  H5  UNL     1     -43.178 -32.876  22.480  1.00  0.00     0.209 HD
ENDBRANCH  15  16
ENDBRANCH  14  15
ENDBRANCH  11  14
ENDBRANCH   6  11
BRANCH   1  18
HETATM   18  S1  UNL     1     -34.452 -37.040  23.795  1.00  0.00     0.263 S 
HETATM   19  O1  UNL     1     -33.929 -37.760  22.560  1.00  0.00    -0.201 OA
HETATM   20  O2  UNL     1     -34.664 -38.056  24.864  1.00  0.00    -0.201 OA
BRANCH  18  21
HETATM   21  N1  UNL     1     -33.235 -35.883  24.221  1.00  0.00    -0.324 N 
ATOM     22  H12 UNL     1     -32.247 -35.930  23.978  1.00  0.00     0.169 HD
ATOM     23  H11 UNL     1     -33.713 -35.159  24.757  1.00  0.00     0.169 HD
ENDBRANCH  18  21
ENDBRANCH   1  18
TORSDOF 6
ENDMDL
