MODEL 1
REMARK VINA RESULT: -7.197413977      0.000      0.000
REMARK  6 active torsions:
REMARK  status: ('A' for Active; 'I' for Inactive)
REMARK    1  A    between atoms: N1_1  and  S1_4 
REMARK    2  A    between atoms: S1_4  and  C1_7 
REMARK    3  A    between atoms: C4_12  and  S2_13 
REMARK    4  A    between atoms: S2_13  and  C5_16 
REMARK    5  A    between atoms: C5_16  and  C6_17 
REMARK    6  A    between atoms: C6_17  and  O5_18 
ROOT
HETATM    1  C1  UNL     1     -35.817 -36.156  23.378  1.00  0.00     0.162 A 
HETATM    2  C2  UNL     1     -36.965 -35.935  24.098  1.00  0.00     0.182 A 
HETATM    3  F1  UNL     1     -36.991 -36.378  25.378  1.00  0.00    -0.201 F 
HETATM    4  C3  UNL     1     -38.069 -35.290  23.568  1.00  0.00     0.181 A 
HETATM    5  F2  UNL     1     -39.194 -35.081  24.291  1.00  0.00    -0.201 F 
HETATM    6  C4  UNL     1     -38.035 -34.843  22.267  1.00  0.00     0.142 A 
HETATM    7  C7  UNL     1     -36.879 -35.066  21.542  1.00  0.00     0.181 A 
HETATM    8  F3  UNL     1     -36.884 -34.608  20.253  1.00  0.00    -0.201 F 
HETATM    9  C8  UNL     1     -35.785 -35.708  22.076  1.00  0.00     0.182 A 
HETATM   10  F4  UNL     1     -34.662 -35.903  21.311  1.00  0.00    -0.201 F 
ENDROOT
BRANCH   6  11
HETATM   11  S2  UNL     1     -39.418 -34.013  21.537  1.00  0.00     0.183 S 
HETATM   12  O3  UNL     1     -40.315 -33.493  22.612  1.00  0.00    -0.222 OA
HETATM   13  O4  UNL     1     -38.932 -32.904  20.653  1.00  0.00    -0.222 OA
BRANCH  11  14
HETATM   14  C5  UNL     1     -40.271 -35.227  20.554  1.00  0.00     0.172 C 
BRANCH  14  15
HETATM   15  C6  UNL     1     -40.594 -36.458  21.385  1.00  0.00     0.179 C 
BRANCH  15  16
HETATM   16  O5  UNL     1     -41.503 -36.152  22.398  1.00  0.00    -0.400 OA
ATOM     17  H5  UNL     1     -41.054 -35.995  23.220  1.00  0.00     0.209 HD
ENDBRANCH  15  16
ENDBRANCH  14  15
ENDBRANCH  11  14
ENDBRANCH   6  11
BRANCH   1  18
HETATM   18  S1  UNL     1     -34.413 -36.974  24.049  1.00  0.00     0.263 S 
HETATM   19  O1  UNL     1     -34.874 -38.048  25.025  1.00  0.00    -0.201 OA
HETATM   20  O2  UNL     1     -33.517 -36.040  24.785  1.00  0.00    -0.201 OA
BRANCH  18  21
HETATM   21  N1  UNL     1     -33.588 -37.811  22.777  1.00  0.00    -0.324 N 
ATOM     22  H12 UNL     1     -33.829 -38.728  22.403  1.00  0.00     0.169 HD
ATOM     23  H11 UNL     1     -32.824 -37.199  22.489  1.00  0.00     0.169 HD
ENDBRANCH  18  21
ENDBRANCH   1  18
TORSDOF 6
ENDMDL
