MODEL 12
REMARK VINA RESULT: -5.894536297      3.157      5.656
REMARK  6 active torsions:
REMARK  status: ('A' for Active; 'I' for Inactive)
REMARK    1  A    between atoms: N1_1  and  S1_4 
REMARK    2  A    between atoms: S1_4  and  C1_7 
REMARK    3  A    between atoms: C4_12  and  S2_13 
REMARK    4  A    between atoms: S2_13  and  C5_16 
REMARK    5  A    between atoms: C5_16  and  C6_17 
REMARK    6  A    between atoms: C6_17  and  O5_18 
ROOT
HETATM    1  C1  UNL     1     -39.610 -34.563  24.579  1.00  0.00     0.162 A 
HETATM    2  C2  UNL     1     -38.773 -35.283  25.396  1.00  0.00     0.182 A 
HETATM    3  F1  UNL     1     -39.203 -35.542  26.654  1.00  0.00    -0.201 F 
HETATM    4  C3  UNL     1     -37.534 -35.739  24.982  1.00  0.00     0.181 A 
HETATM    5  F2  UNL     1     -36.719 -36.447  25.800  1.00  0.00    -0.201 F 
HETATM    6  C4  UNL     1     -37.103 -35.472  23.702  1.00  0.00     0.142 A 
HETATM    7  C7  UNL     1     -37.947 -34.747  22.881  1.00  0.00     0.181 A 
HETATM    8  F3  UNL     1     -37.484 -34.502  21.617  1.00  0.00    -0.201 F 
HETATM    9  C8  UNL     1     -39.178 -34.297  23.299  1.00  0.00     0.182 A 
HETATM   10  F4  UNL     1     -39.976 -33.582  22.441  1.00  0.00    -0.201 F 
ENDROOT
BRANCH   6  11
HETATM   11  S2  UNL     1     -35.528 -36.030  23.119  1.00  0.00     0.183 S 
HETATM   12  O3  UNL     1     -35.502 -35.990  21.626  1.00  0.00    -0.222 OA
HETATM   13  O4  UNL     1     -34.442 -35.176  23.703  1.00  0.00    -0.222 OA
BRANCH  11  14
HETATM   14  C5  UNL     1     -35.343 -37.703  23.695  1.00  0.00     0.172 C 
BRANCH  14  15
HETATM   15  C6  UNL     1     -33.954 -37.921  24.271  1.00  0.00     0.179 C 
BRANCH  15  16
HETATM   16  O5  UNL     1     -33.853 -37.378  25.552  1.00  0.00    -0.400 OA
ATOM     17  H5  UNL     1     -33.345 -37.943  26.121  1.00  0.00     0.209 HD
ENDBRANCH  15  16
ENDBRANCH  14  15
ENDBRANCH  11  14
ENDBRANCH   6  11
BRANCH   1  18
HETATM   18  S1  UNL     1     -41.185 -33.984  25.103  1.00  0.00     0.263 S 
HETATM   19  O1  UNL     1     -42.080 -35.173  25.421  1.00  0.00    -0.201 OA
HETATM   20  O2  UNL     1     -41.860 -33.168  24.055  1.00  0.00    -0.201 OA
BRANCH  18  21
HETATM   21  N1  UNL     1     -40.999 -33.118  26.591  1.00  0.00    -0.324 N 
ATOM     22  H12 UNL     1     -40.442 -32.276  26.734  1.00  0.00     0.169 HD
ATOM     23  H11 UNL     1     -41.558 -33.622  27.280  1.00  0.00     0.169 HD
ENDBRANCH  18  21
ENDBRANCH   1  18
TORSDOF 6
ENDMDL
