MODEL 3
REMARK VINA RESULT: -7.183586191      0.830      2.488
REMARK  6 active torsions:
REMARK  status: ('A' for Active; 'I' for Inactive)
REMARK    1  A    between atoms: N1_1  and  S1_4 
REMARK    2  A    between atoms: S1_4  and  C1_7 
REMARK    3  A    between atoms: C4_12  and  S2_13 
REMARK    4  A    between atoms: S2_13  and  C5_16 
REMARK    5  A    between atoms: C5_16  and  C6_17 
REMARK    6  A    between atoms: C6_17  and  O5_18 
ROOT
HETATM    1  C1  UNL     1     -35.819 -36.179  23.424  1.00  0.00     0.162 A 
HETATM    2  C2  UNL     1     -35.902 -35.684  22.146  1.00  0.00     0.182 A 
HETATM    3  F1  UNL     1     -34.811 -35.820  21.354  1.00  0.00    -0.201 F 
HETATM    4  C3  UNL     1     -37.038 -35.066  21.655  1.00  0.00     0.181 A 
HETATM    5  F2  UNL     1     -37.104 -34.582  20.392  1.00  0.00    -0.201 F 
HETATM    6  C4  UNL     1     -38.143 -34.931  22.465  1.00  0.00     0.142 A 
HETATM    7  C7  UNL     1     -38.058 -35.430  23.752  1.00  0.00     0.181 A 
HETATM    8  F3  UNL     1     -39.176 -35.277  24.526  1.00  0.00    -0.201 F 
HETATM    9  C8  UNL     1     -36.924 -36.044  24.233  1.00  0.00     0.182 A 
HETATM   10  F4  UNL     1     -36.896 -36.521  25.520  1.00  0.00    -0.201 F 
ENDROOT
BRANCH   6  11
HETATM   11  S2  UNL     1     -39.623 -34.149  21.891  1.00  0.00     0.183 S 
HETATM   12  O3  UNL     1     -40.090 -33.155  22.903  1.00  0.00    -0.222 OA
HETATM   13  O4  UNL     1     -39.366 -33.494  20.566  1.00  0.00    -0.222 OA
BRANCH  11  14
HETATM   14  C5  UNL     1     -40.830 -35.441  21.692  1.00  0.00     0.172 C 
BRANCH  14  15
HETATM   15  C6  UNL     1     -40.245 -36.605  20.909  1.00  0.00     0.179 C 
BRANCH  15  16
HETATM   16  O5  UNL     1     -39.887 -36.210  19.620  1.00  0.00    -0.400 OA
ATOM     17  H5  UNL     1     -39.095 -35.687  19.632  1.00  0.00     0.209 HD
ENDBRANCH  15  16
ENDBRANCH  14  15
ENDBRANCH  11  14
ENDBRANCH   6  11
BRANCH   1  18
HETATM   18  S1  UNL     1     -34.376 -36.965  24.050  1.00  0.00     0.263 S 
HETATM   19  O1  UNL     1     -34.781 -38.052  25.035  1.00  0.00    -0.201 OA
HETATM   20  O2  UNL     1     -33.480 -36.012  24.761  1.00  0.00    -0.201 OA
BRANCH  18  21
HETATM   21  N1  UNL     1     -33.570 -37.779  22.750  1.00  0.00    -0.324 N 
ATOM     22  H12 UNL     1     -32.588 -38.048  22.724  1.00  0.00     0.169 HD
ATOM     23  H11 UNL     1     -34.279 -37.927  22.031  1.00  0.00     0.169 HD
ENDBRANCH  18  21
ENDBRANCH   1  18
TORSDOF 6
ENDMDL
