MODEL 2
REMARK VINA RESULT: -7.189780140      2.879      5.914
REMARK  6 active torsions:
REMARK  status: ('A' for Active; 'I' for Inactive)
REMARK    1  A    between atoms: N1_1  and  S1_4 
REMARK    2  A    between atoms: S1_4  and  C1_7 
REMARK    3  A    between atoms: C4_12  and  S2_13 
REMARK    4  A    between atoms: S2_13  and  C5_16 
REMARK    5  A    between atoms: C5_16  and  C6_17 
REMARK    6  A    between atoms: C6_17  and  O5_18 
ROOT
HETATM    1  C1  UNL     1     -39.945 -34.447  23.436  1.00  0.00     0.162 A 
HETATM    2  C2  UNL     1     -39.561 -34.558  24.750  1.00  0.00     0.182 A 
HETATM    3  F1  UNL     1     -40.322 -33.927  25.676  1.00  0.00    -0.201 F 
HETATM    4  C3  UNL     1     -38.448 -35.278  25.146  1.00  0.00     0.181 A 
HETATM    5  F2  UNL     1     -38.081 -35.377  26.445  1.00  0.00    -0.201 F 
HETATM    6  C4  UNL     1     -37.679 -35.916  24.199  1.00  0.00     0.142 A 
HETATM    7  C7  UNL     1     -38.066 -35.803  22.876  1.00  0.00     0.181 A 
HETATM    8  F3  UNL     1     -37.277 -36.452  21.966  1.00  0.00    -0.201 F 
HETATM    9  C8  UNL     1     -39.175 -35.086  22.490  1.00  0.00     0.182 A 
HETATM   10  F4  UNL     1     -39.514 -35.008  21.162  1.00  0.00    -0.201 F 
ENDROOT
BRANCH   6  11
HETATM   11  S2  UNL     1     -36.243 -36.850  24.648  1.00  0.00     0.183 S 
HETATM   12  O3  UNL     1     -36.001 -36.722  26.117  1.00  0.00    -0.222 OA
HETATM   13  O4  UNL     1     -36.430 -38.284  24.253  1.00  0.00    -0.222 OA
BRANCH  11  14
HETATM   14  C5  UNL     1     -34.884 -36.152  23.735  1.00  0.00     0.172 C 
BRANCH  14  15
HETATM   15  C6  UNL     1     -33.592 -36.884  24.055  1.00  0.00     0.179 C 
BRANCH  15  16
HETATM   16  O5  UNL     1     -33.818 -37.924  24.957  1.00  0.00    -0.400 OA
ATOM     17  H5  UNL     1     -34.013 -38.734  24.501  1.00  0.00     0.209 HD
ENDBRANCH  15  16
ENDBRANCH  14  15
ENDBRANCH  11  14
ENDBRANCH   6  11
BRANCH   1  18
HETATM   18  S1  UNL     1     -41.360 -33.533  22.931  1.00  0.00     0.263 S 
HETATM   19  O1  UNL     1     -40.913 -32.261  22.225  1.00  0.00    -0.201 OA
HETATM   20  O2  UNL     1     -42.217 -33.142  24.084  1.00  0.00    -0.201 OA
BRANCH  18  21
HETATM   21  N1  UNL     1     -42.229 -34.452  21.748  1.00  0.00    -0.324 N 
ATOM     22  H12 UNL     1     -43.166 -34.839  21.854  1.00  0.00     0.169 HD
ATOM     23  H11 UNL     1     -41.612 -34.521  20.938  1.00  0.00     0.169 HD
ENDBRANCH  18  21
ENDBRANCH   1  18
TORSDOF 6
ENDMDL
