MODEL 7
REMARK VINA RESULT: -6.739497545      5.176      8.429
REMARK  9 active torsions:
REMARK  status: ('A' for Active; 'I' for Inactive)
REMARK    1  A    between atoms: O1_2  and  C2_3 
REMARK    2  A    between atoms: C5_6  and  C6_7 
REMARK    3  A    between atoms: C8_9  and  C9_10 
REMARK       I    between atoms: C9_10  and  N1_12 
REMARK    4  A    between atoms: N1_12  and  C10_14 
REMARK    5  A    between atoms: C10_14  and  C11_15 
REMARK    6  A    between atoms: C10_14  and  C12_18 
REMARK    7  A    between atoms: C11_15  and  O3_16 
REMARK    8  A    between atoms: C12_18  and  C13_19 
REMARK    9  A    between atoms: C22_30  and  O5_31 
ROOT
HETATM    1  C13 UNL     1      -7.903 -35.729  13.238  1.00  0.00    -0.055 A 
HETATM    2  C14 UNL     1      -9.203 -36.198  13.123  1.00  0.00     0.007 A 
HETATM    3  C15 UNL     1      -9.569 -37.124  12.179  1.00  0.00     0.002 A 
HETATM    4  C16 UNL     1      -8.631 -37.615  11.308  1.00  0.00     0.022 A 
HETATM    5  C17 UNL     1      -7.337 -37.150  11.421  1.00  0.00     0.045 A 
HETATM    6  C18 UNL     1      -6.332 -37.655  10.513  1.00  0.00     0.099 C 
HETATM    7  N2  UNL     1      -5.523 -38.071   9.784  1.00  0.00    -0.191 NA
HETATM    8  C19 UNL     1      -6.954 -36.212  12.375  1.00  0.00     0.029 A 
ENDROOT
BRANCH   1   9
HETATM    9  C12 UNL     1      -7.546 -34.729  14.272  1.00  0.00     0.065 C 
BRANCH   9  10
HETATM   10  C10 UNL     1      -7.415 -33.386  13.563  1.00  0.00     0.112 C 
BRANCH  10  11
HETATM   11  N1  UNL     1      -8.399 -32.510  14.152  1.00  0.00    -0.350 N 
HETATM   12  C9  UNL     1      -9.592 -32.237  13.459  1.00  0.00     0.254 C 
HETATM   13  O2  UNL     1      -9.842 -32.740  12.310  1.00  0.00    -0.268 OA
ATOM     14  H1  UNL     1      -8.231 -32.091  15.067  1.00  0.00     0.163 HD
BRANCH  12  15
HETATM   15  C8  UNL     1     -10.565 -31.350  14.079  1.00  0.00     0.057 A 
HETATM   16  C7  UNL     1     -11.123 -31.391  15.339  1.00  0.00     0.057 A 
HETATM   17  C6  UNL     1     -12.002 -30.338  15.483  1.00  0.00     0.086 A 
HETATM   18  O4  UNL     1     -11.964 -29.695  14.343  1.00  0.00    -0.321 OA
HETATM   19  C20 UNL     1     -11.140 -30.245  13.489  1.00  0.00     0.159 A 
BRANCH  17  20
HETATM   20  C5  UNL     1     -12.806 -30.012  16.666  1.00  0.00     0.001 A 
HETATM   21  C4  UNL     1     -12.834 -30.830  17.775  1.00  0.00     0.017 A 
HETATM   22  C3  UNL     1     -13.589 -30.534  18.897  1.00  0.00     0.040 A 
HETATM   23  C2  UNL     1     -14.353 -29.386  18.940  1.00  0.00     0.101 A 
HETATM   24  C22 UNL     1     -14.339 -28.549  17.835  1.00  0.00     0.102 A 
HETATM   25  C21 UNL     1     -13.570 -28.867  16.712  1.00  0.00     0.054 A 
BRANCH  23  26
HETATM   26  O1  UNL     1     -15.136 -29.013  20.021  1.00  0.00    -0.353 OA
HETATM   27  C1  UNL     1     -14.747 -29.443  21.332  1.00  0.00     0.210 C 
ENDBRANCH  23  26
BRANCH  24  28
HETATM   28  O5  UNL     1     -15.103 -27.395  17.871  1.00  0.00    -0.353 OA
HETATM   29  C23 UNL     1     -16.403 -27.443  17.319  1.00  0.00     0.210 C 
ENDBRANCH  24  28
ENDBRANCH  17  20
ENDBRANCH  12  15
ENDBRANCH  10  11
BRANCH  10  30
HETATM   30  C11 UNL     1      -6.052 -32.779  13.823  1.00  0.00     0.189 C 
BRANCH  30  31
HETATM   31  O3  UNL     1      -5.131 -33.211  12.873  1.00  0.00    -0.399 OA
ATOM     32  H3  UNL     1      -5.550 -33.771  12.229  1.00  0.00     0.209 HD
ENDBRANCH  30  31
ENDBRANCH  10  30
ENDBRANCH   9  10
ENDBRANCH   1   9
TORSDOF 9
ENDMDL
