MODEL 4
REMARK VINA RESULT: -7.072018219      0.972      1.266
REMARK  9 active torsions:
REMARK  status: ('A' for Active; 'I' for Inactive)
REMARK    1  A    between atoms: O1_2  and  C2_3 
REMARK    2  A    between atoms: C5_6  and  C6_7 
REMARK    3  A    between atoms: C8_9  and  C9_10 
REMARK       I    between atoms: C9_10  and  N1_12 
REMARK    4  A    between atoms: N1_12  and  C10_14 
REMARK    5  A    between atoms: C10_14  and  C11_15 
REMARK    6  A    between atoms: C10_14  and  C12_18 
REMARK    7  A    between atoms: C11_15  and  O3_16 
REMARK    8  A    between atoms: C12_18  and  C13_19 
REMARK    9  A    between atoms: C22_30  and  O5_31 
ROOT
HETATM    1  C13 UNL     1     -11.646 -31.493  14.088  1.00  0.00    -0.055 A 
HETATM    2  C14 UNL     1     -10.977 -30.654  13.210  1.00  0.00     0.007 A 
HETATM    3  C15 UNL     1     -11.109 -29.289  13.254  1.00  0.00     0.002 A 
HETATM    4  C16 UNL     1     -11.927 -28.715  14.192  1.00  0.00     0.022 A 
HETATM    5  C17 UNL     1     -12.593 -29.548  15.067  1.00  0.00     0.045 A 
HETATM    6  C18 UNL     1     -13.460 -28.963  16.064  1.00  0.00     0.099 C 
HETATM    7  N2  UNL     1     -14.152 -28.487  16.873  1.00  0.00    -0.191 NA
HETATM    8  C19 UNL     1     -12.467 -30.933  15.032  1.00  0.00     0.029 A 
ENDROOT
BRANCH   1   9
HETATM    9  C12 UNL     1     -11.477 -32.964  14.010  1.00  0.00     0.065 C 
BRANCH   9  10
HETATM   10  C10 UNL     1     -10.016 -33.224  13.661  1.00  0.00     0.112 C 
BRANCH  10  11
HETATM   11  N1  UNL     1      -9.299 -33.299  14.911  1.00  0.00    -0.350 N 
HETATM   12  C9  UNL     1      -7.996 -32.777  14.999  1.00  0.00     0.254 C 
HETATM   13  O2  UNL     1      -7.413 -32.232  14.001  1.00  0.00    -0.268 OA
ATOM     14  H1  UNL     1      -9.736 -33.728  15.727  1.00  0.00     0.163 HD
BRANCH  12  15
HETATM   15  C8  UNL     1      -7.300 -32.867  16.274  1.00  0.00     0.057 A 
HETATM   16  C7  UNL     1      -6.595 -31.906  16.967  1.00  0.00     0.057 A 
HETATM   17  C6  UNL     1      -6.107 -32.454  18.136  1.00  0.00     0.086 A 
HETATM   18  O4  UNL     1      -6.512 -33.699  18.132  1.00  0.00    -0.321 OA
HETATM   19  C20 UNL     1      -7.213 -33.991  17.068  1.00  0.00     0.159 A 
BRANCH  17  20
HETATM   20  C5  UNL     1      -5.305 -31.778  19.162  1.00  0.00     0.001 A 
HETATM   21  C4  UNL     1      -4.516 -30.688  18.867  1.00  0.00     0.017 A 
HETATM   22  C3  UNL     1      -3.754 -30.041  19.826  1.00  0.00     0.040 A 
HETATM   23  C2  UNL     1      -3.762 -30.480  21.134  1.00  0.00     0.101 A 
HETATM   24  C22 UNL     1      -4.549 -31.576  21.452  1.00  0.00     0.102 A 
HETATM   25  C21 UNL     1      -5.311 -32.214  20.468  1.00  0.00     0.054 A 
BRANCH  23  26
HETATM   26  O1  UNL     1      -3.031 -29.893  22.155  1.00  0.00    -0.353 OA
HETATM   27  C1  UNL     1      -1.608 -30.067  22.168  1.00  0.00     0.210 C 
ENDBRANCH  23  26
BRANCH  24  28
HETATM   28  O5  UNL     1      -4.563 -32.021  22.762  1.00  0.00    -0.353 OA
HETATM   29  C23 UNL     1      -3.986 -33.281  23.040  1.00  0.00     0.210 C 
ENDBRANCH  24  28
ENDBRANCH  17  20
ENDBRANCH  12  15
ENDBRANCH  10  11
BRANCH  10  30
HETATM   30  C11 UNL     1      -9.866 -34.563  12.970  1.00  0.00     0.189 C 
BRANCH  30  31
HETATM   31  O3  UNL     1      -8.682 -34.609  12.238  1.00  0.00    -0.399 OA
ATOM     32  H3  UNL     1      -7.938 -34.753  12.811  1.00  0.00     0.209 HD
ENDBRANCH  30  31
ENDBRANCH  10  30
ENDBRANCH   9  10
ENDBRANCH   1   9
TORSDOF 9
ENDMDL
