MODEL 3
REMARK VINA RESULT: -7.126496268      1.104      1.517
REMARK  9 active torsions:
REMARK  status: ('A' for Active; 'I' for Inactive)
REMARK    1  A    between atoms: O1_2  and  C2_3 
REMARK    2  A    between atoms: C5_6  and  C6_7 
REMARK    3  A    between atoms: C8_9  and  C9_10 
REMARK       I    between atoms: C9_10  and  N1_12 
REMARK    4  A    between atoms: N1_12  and  C10_14 
REMARK    5  A    between atoms: C10_14  and  C11_15 
REMARK    6  A    between atoms: C10_14  and  C12_18 
REMARK    7  A    between atoms: C11_15  and  O3_16 
REMARK    8  A    between atoms: C12_18  and  C13_19 
REMARK    9  A    between atoms: C22_30  and  O5_31 
ROOT
HETATM    1  C13 UNL     1     -11.946 -31.582  14.628  1.00  0.00    -0.055 A 
HETATM    2  C14 UNL     1     -12.276 -31.197  15.918  1.00  0.00     0.007 A 
HETATM    3  C15 UNL     1     -12.443 -29.882  16.272  1.00  0.00     0.002 A 
HETATM    4  C16 UNL     1     -12.280 -28.899  15.331  1.00  0.00     0.022 A 
HETATM    5  C17 UNL     1     -11.951 -29.280  14.046  1.00  0.00     0.045 A 
HETATM    6  C18 UNL     1     -11.775 -28.259  13.039  1.00  0.00     0.099 C 
HETATM    7  N2  UNL     1     -11.643 -27.433  12.226  1.00  0.00    -0.191 NA
HETATM    8  C19 UNL     1     -11.780 -30.610  13.676  1.00  0.00     0.029 A 
ENDROOT
BRANCH   1   9
HETATM    9  C12 UNL     1     -11.775 -33.014  14.284  1.00  0.00     0.065 C 
BRANCH   9  10
HETATM   10  C10 UNL     1     -10.331 -33.193  13.832  1.00  0.00     0.112 C 
BRANCH  10  11
HETATM   11  N1  UNL     1      -9.527 -33.255  15.030  1.00  0.00    -0.350 N 
HETATM   12  C9  UNL     1      -8.208 -32.768  15.009  1.00  0.00     0.254 C 
HETATM   13  O2  UNL     1      -7.684 -32.266  13.957  1.00  0.00    -0.268 OA
ATOM     14  H1  UNL     1      -9.915 -33.650  15.886  1.00  0.00     0.163 HD
BRANCH  12  15
HETATM   15  C8  UNL     1      -7.424 -32.844  16.233  1.00  0.00     0.057 A 
HETATM   16  C7  UNL     1      -6.705 -31.866  16.885  1.00  0.00     0.057 A 
HETATM   17  C6  UNL     1      -6.121 -32.405  18.013  1.00  0.00     0.086 A 
HETATM   18  O4  UNL     1      -6.486 -33.663  18.026  1.00  0.00    -0.321 OA
HETATM   19  C20 UNL     1      -7.248 -33.970  17.009  1.00  0.00     0.159 A 
BRANCH  17  20
HETATM   20  C5  UNL     1      -5.273 -31.711  18.988  1.00  0.00     0.001 A 
HETATM   21  C4  UNL     1      -3.909 -31.903  19.033  1.00  0.00     0.017 A 
HETATM   22  C3  UNL     1      -3.097 -31.254  19.948  1.00  0.00     0.040 A 
HETATM   23  C2  UNL     1      -3.641 -30.377  20.864  1.00  0.00     0.101 A 
HETATM   24  C22 UNL     1      -5.012 -30.170  20.837  1.00  0.00     0.102 A 
HETATM   25  C21 UNL     1      -5.813 -30.836  19.904  1.00  0.00     0.054 A 
BRANCH  23  26
HETATM   26  O1  UNL     1      -2.904 -29.687  21.813  1.00  0.00    -0.353 OA
HETATM   27  C1  UNL     1      -2.034 -30.429  22.678  1.00  0.00     0.210 C 
ENDBRANCH  23  26
BRANCH  24  28
HETATM   28  O5  UNL     1      -5.566 -29.293  21.752  1.00  0.00    -0.353 OA
HETATM   29  C23 UNL     1      -6.064 -28.061  21.272  1.00  0.00     0.210 C 
ENDBRANCH  24  28
ENDBRANCH  17  20
ENDBRANCH  12  15
ENDBRANCH  10  11
BRANCH  10  30
HETATM   30  C11 UNL     1     -10.162 -34.509  13.102  1.00  0.00     0.189 C 
BRANCH  30  31
HETATM   31  O3  UNL     1      -9.182 -34.403  12.118  1.00  0.00    -0.399 OA
ATOM     32  H3  UNL     1      -8.314 -34.450  12.501  1.00  0.00     0.209 HD
ENDBRANCH  30  31
ENDBRANCH  10  30
ENDBRANCH   9  10
ENDBRANCH   1   9
TORSDOF 9
ENDMDL
