MODEL 6
REMARK VINA RESULT: -6.868407612      1.513      2.049
REMARK  9 active torsions:
REMARK  status: ('A' for Active; 'I' for Inactive)
REMARK    1  A    between atoms: O1_2  and  C2_3 
REMARK    2  A    between atoms: C5_6  and  C6_7 
REMARK    3  A    between atoms: C8_9  and  C9_10 
REMARK       I    between atoms: C9_10  and  N1_12 
REMARK    4  A    between atoms: N1_12  and  C10_14 
REMARK    5  A    between atoms: C10_14  and  C11_15 
REMARK    6  A    between atoms: C10_14  and  C12_18 
REMARK    7  A    between atoms: C11_15  and  O3_16 
REMARK    8  A    between atoms: C12_18  and  C13_19 
REMARK    9  A    between atoms: C22_30  and  O5_31 
ROOT
HETATM    1  C13 UNL     1     -11.950 -31.551  14.579  1.00  0.00    -0.055 A 
HETATM    2  C14 UNL     1     -12.254 -31.177  15.880  1.00  0.00     0.007 A 
HETATM    3  C15 UNL     1     -12.411 -29.865  16.249  1.00  0.00     0.002 A 
HETATM    4  C16 UNL     1     -12.266 -28.873  15.315  1.00  0.00     0.022 A 
HETATM    5  C17 UNL     1     -11.964 -29.243  14.020  1.00  0.00     0.045 A 
HETATM    6  C18 UNL     1     -11.807 -28.213  13.019  1.00  0.00     0.099 C 
HETATM    7  N2  UNL     1     -11.690 -27.379  12.212  1.00  0.00    -0.191 NA
HETATM    8  C19 UNL     1     -11.803 -30.570  13.634  1.00  0.00     0.029 A 
ENDROOT
BRANCH   1   9
HETATM    9  C12 UNL     1     -11.790 -32.979  14.219  1.00  0.00     0.065 C 
BRANCH   9  10
HETATM   10  C10 UNL     1     -10.347 -33.163  13.764  1.00  0.00     0.112 C 
BRANCH  10  11
HETATM   11  N1  UNL     1      -9.546 -33.267  14.961  1.00  0.00    -0.350 N 
HETATM   12  C9  UNL     1      -8.223 -32.790  14.958  1.00  0.00     0.254 C 
HETATM   13  O2  UNL     1      -7.693 -32.260  13.922  1.00  0.00    -0.268 OA
ATOM     14  H1  UNL     1      -9.938 -33.686  15.804  1.00  0.00     0.163 HD
BRANCH  12  15
HETATM   15  C8  UNL     1      -7.442 -32.910  16.180  1.00  0.00     0.057 A 
HETATM   16  C7  UNL     1      -6.699 -31.963  16.851  1.00  0.00     0.057 A 
HETATM   17  C6  UNL     1      -6.130 -32.539  17.969  1.00  0.00     0.086 A 
HETATM   18  O4  UNL     1      -6.526 -33.787  17.957  1.00  0.00    -0.321 OA
HETATM   19  C20 UNL     1      -7.295 -34.055  16.934  1.00  0.00     0.159 A 
BRANCH  17  20
HETATM   20  C5  UNL     1      -5.265 -31.886  18.957  1.00  0.00     0.001 A 
HETATM   21  C4  UNL     1      -4.655 -30.676  18.704  1.00  0.00     0.017 A 
HETATM   22  C3  UNL     1      -3.836 -30.049  19.628  1.00  0.00     0.040 A 
HETATM   23  C2  UNL     1      -3.601 -30.630  20.858  1.00  0.00     0.101 A 
HETATM   24  C22 UNL     1      -4.204 -31.847  21.133  1.00  0.00     0.102 A 
HETATM   25  C21 UNL     1      -5.028 -32.463  20.185  1.00  0.00     0.054 A 
BRANCH  23  26
HETATM   26  O1  UNL     1      -2.797 -30.073  21.840  1.00  0.00    -0.353 OA
HETATM   27  C1  UNL     1      -1.373 -30.133  21.677  1.00  0.00     0.210 C 
ENDBRANCH  23  26
BRANCH  24  28
HETATM   28  O5  UNL     1      -3.973 -32.436  22.363  1.00  0.00    -0.353 OA
HETATM   29  C23 UNL     1      -4.391 -33.774  22.548  1.00  0.00     0.210 C 
ENDBRANCH  24  28
ENDBRANCH  17  20
ENDBRANCH  12  15
ENDBRANCH  10  11
BRANCH  10  30
HETATM   30  C11 UNL     1     -10.192 -34.459  12.998  1.00  0.00     0.189 C 
BRANCH  30  31
HETATM   31  O3  UNL     1      -9.199 -34.342  12.028  1.00  0.00    -0.399 OA
ATOM     32  H3  UNL     1      -8.728 -35.162  11.928  1.00  0.00     0.209 HD
ENDBRANCH  30  31
ENDBRANCH  10  30
ENDBRANCH   9  10
ENDBRANCH   1   9
TORSDOF 9
ENDMDL
