MODEL 8
REMARK VINA RESULT: -6.686867214      4.966      9.073
REMARK  9 active torsions:
REMARK  status: ('A' for Active; 'I' for Inactive)
REMARK    1  A    between atoms: O1_2  and  C2_3 
REMARK    2  A    between atoms: C5_6  and  C6_7 
REMARK    3  A    between atoms: C8_9  and  C9_10 
REMARK       I    between atoms: C9_10  and  N1_12 
REMARK    4  A    between atoms: N1_12  and  C10_14 
REMARK    5  A    between atoms: C10_14  and  C11_15 
REMARK    6  A    between atoms: C10_14  and  C12_18 
REMARK    7  A    between atoms: C11_15  and  O3_16 
REMARK    8  A    between atoms: C12_18  and  C13_19 
REMARK    9  A    between atoms: C22_30  and  O5_31 
ROOT
HETATM    1  C13 UNL     1     -15.459 -27.067  20.042  1.00  0.00    -0.055 A 
HETATM    2  C14 UNL     1     -16.651 -27.098  19.334  1.00  0.00     0.007 A 
HETATM    3  C15 UNL     1     -17.540 -26.053  19.345  1.00  0.00     0.002 A 
HETATM    4  C16 UNL     1     -17.259 -24.929  20.078  1.00  0.00     0.022 A 
HETATM    5  C17 UNL     1     -16.074 -24.896  20.784  1.00  0.00     0.045 A 
HETATM    6  C18 UNL     1     -15.758 -23.721  21.563  1.00  0.00     0.099 C 
HETATM    7  N2  UNL     1     -15.503 -22.767  22.183  1.00  0.00    -0.191 NA
HETATM    8  C19 UNL     1     -15.165 -25.949  20.779  1.00  0.00     0.029 A 
ENDROOT
BRANCH   1   9
HETATM    9  C12 UNL     1     -14.524 -28.216  20.004  1.00  0.00     0.065 C 
BRANCH   9  10
HETATM   10  C10 UNL     1     -15.161 -29.277  19.115  1.00  0.00     0.112 C 
BRANCH  10  11
HETATM   11  N1  UNL     1     -14.164 -29.652  18.140  1.00  0.00    -0.350 N 
HETATM   12  C9  UNL     1     -14.107 -28.978  16.907  1.00  0.00     0.254 C 
HETATM   13  O2  UNL     1     -14.915 -28.033  16.610  1.00  0.00    -0.268 OA
ATOM     14  H1  UNL     1     -13.505 -30.403  18.345  1.00  0.00     0.163 HD
BRANCH  12  15
HETATM   15  C8  UNL     1     -13.090 -29.380  15.946  1.00  0.00     0.057 A 
HETATM   16  C7  UNL     1     -12.770 -30.632  15.468  1.00  0.00     0.057 A 
HETATM   17  C6  UNL     1     -11.731 -30.524  14.566  1.00  0.00     0.086 A 
HETATM   18  O4  UNL     1     -11.448 -29.247  14.514  1.00  0.00    -0.321 OA
HETATM   19  C20 UNL     1     -12.213 -28.535  15.300  1.00  0.00     0.159 A 
BRANCH  17  20
HETATM   20  C5  UNL     1     -11.086 -31.613  13.826  1.00  0.00     0.001 A 
HETATM   21  C4  UNL     1     -11.792 -32.430  12.969  1.00  0.00     0.017 A 
HETATM   22  C3  UNL     1     -11.194 -33.461  12.264  1.00  0.00     0.040 A 
HETATM   23  C2  UNL     1      -9.844 -33.709  12.403  1.00  0.00     0.101 A 
HETATM   24  C22 UNL     1      -9.115 -32.900  13.261  1.00  0.00     0.102 A 
HETATM   25  C21 UNL     1      -9.738 -31.864  13.962  1.00  0.00     0.054 A 
BRANCH  23  26
HETATM   26  O1  UNL     1      -9.166 -34.718  11.738  1.00  0.00    -0.353 OA
HETATM   27  C1  UNL     1      -9.905 -35.578  10.859  1.00  0.00     0.210 C 
ENDBRANCH  23  26
BRANCH  24  28
HETATM   28  O5  UNL     1      -7.760 -33.142  13.405  1.00  0.00    -0.353 OA
HETATM   29  C23 UNL     1      -7.105 -32.596  14.532  1.00  0.00     0.210 C 
ENDBRANCH  24  28
ENDBRANCH  17  20
ENDBRANCH  12  15
ENDBRANCH  10  11
BRANCH  10  30
HETATM   30  C11 UNL     1     -15.497 -30.513  19.921  1.00  0.00     0.189 C 
BRANCH  30  31
HETATM   31  O3  UNL     1     -15.353 -31.661  19.146  1.00  0.00    -0.399 OA
ATOM     32  H3  UNL     1     -16.136 -32.198  19.191  1.00  0.00     0.209 HD
ENDBRANCH  30  31
ENDBRANCH  10  30
ENDBRANCH   9  10
ENDBRANCH   1   9
TORSDOF 9
ENDMDL
