MODEL 13
REMARK VINA RESULT: -6.531309112      5.122      8.193
REMARK  9 active torsions:
REMARK  status: ('A' for Active; 'I' for Inactive)
REMARK    1  A    between atoms: O1_2  and  C2_3 
REMARK    2  A    between atoms: C5_6  and  C6_7 
REMARK    3  A    between atoms: C8_9  and  C9_10 
REMARK       I    between atoms: C9_10  and  N1_12 
REMARK    4  A    between atoms: N1_12  and  C10_14 
REMARK    5  A    between atoms: C10_14  and  C11_15 
REMARK    6  A    between atoms: C10_14  and  C12_18 
REMARK    7  A    between atoms: C11_15  and  O3_16 
REMARK    8  A    between atoms: C12_18  and  C13_19 
REMARK    9  A    between atoms: C22_30  and  O5_31 
ROOT
HETATM    1  C13 UNL     1     -10.137 -34.707  12.163  1.00  0.00    -0.055 A 
HETATM    2  C14 UNL     1      -9.558 -35.897  11.750  1.00  0.00     0.007 A 
HETATM    3  C15 UNL     1      -9.558 -36.297  10.438  1.00  0.00     0.002 A 
HETATM    4  C16 UNL     1     -10.146 -35.506   9.486  1.00  0.00     0.022 A 
HETATM    5  C17 UNL     1     -10.723 -34.321   9.894  1.00  0.00     0.045 A 
HETATM    6  C18 UNL     1     -11.348 -33.472   8.907  1.00  0.00     0.099 C 
HETATM    7  N2  UNL     1     -11.844 -32.785   8.105  1.00  0.00    -0.191 NA
HETATM    8  C19 UNL     1     -10.729 -33.905  11.222  1.00  0.00     0.029 A 
ENDROOT
BRANCH   1   9
HETATM    9  C12 UNL     1     -10.117 -34.309  13.591  1.00  0.00     0.065 C 
BRANCH   9  10
HETATM   10  C10 UNL     1      -9.458 -32.936  13.659  1.00  0.00     0.112 C 
BRANCH  10  11
HETATM   11  N1  UNL     1     -10.266 -32.133  14.546  1.00  0.00    -0.350 N 
HETATM   12  C9  UNL     1     -10.970 -31.027  14.037  1.00  0.00     0.254 C 
HETATM   13  O2  UNL     1     -10.920 -30.698  12.802  1.00  0.00    -0.268 OA
ATOM     14  H1  UNL     1     -10.326 -32.367  15.537  1.00  0.00     0.163 HD
BRANCH  12  15
HETATM   15  C8  UNL     1     -11.776 -30.237  14.956  1.00  0.00     0.057 A 
HETATM   16  C7  UNL     1     -12.360 -30.595  16.152  1.00  0.00     0.057 A 
HETATM   17  C6  UNL     1     -13.032 -29.509  16.674  1.00  0.00     0.086 A 
HETATM   18  O4  UNL     1     -12.850 -28.541  15.812  1.00  0.00    -0.321 OA
HETATM   19  C20 UNL     1     -12.123 -28.913  14.791  1.00  0.00     0.159 A 
BRANCH  17  20
HETATM   20  C5  UNL     1     -13.789 -29.457  17.930  1.00  0.00     0.001 A 
HETATM   21  C4  UNL     1     -13.652 -30.424  18.902  1.00  0.00     0.017 A 
HETATM   22  C3  UNL     1     -14.360 -30.387  20.092  1.00  0.00     0.040 A 
HETATM   23  C2  UNL     1     -15.245 -29.358  20.344  1.00  0.00     0.101 A 
HETATM   24  C22 UNL     1     -15.398 -28.376  19.378  1.00  0.00     0.102 A 
HETATM   25  C21 UNL     1     -14.673 -28.433  18.184  1.00  0.00     0.054 A 
BRANCH  23  26
HETATM   26  O1  UNL     1     -15.993 -29.243  21.505  1.00  0.00    -0.353 OA
HETATM   27  C1  UNL     1     -16.968 -30.254  21.796  1.00  0.00     0.210 C 
ENDBRANCH  23  26
BRANCH  24  28
HETATM   28  O5  UNL     1     -16.284 -27.341  19.624  1.00  0.00    -0.353 OA
HETATM   29  C23 UNL     1     -16.712 -26.561  18.527  1.00  0.00     0.210 C 
ENDBRANCH  24  28
ENDBRANCH  17  20
ENDBRANCH  12  15
ENDBRANCH  10  11
BRANCH  10  30
HETATM   30  C11 UNL     1      -8.077 -33.039  14.271  1.00  0.00     0.189 C 
BRANCH  30  31
HETATM   31  O3  UNL     1      -7.303 -31.932  13.930  1.00  0.00    -0.399 OA
ATOM     32  H3  UNL     1      -6.397 -32.184  13.797  1.00  0.00     0.209 HD
ENDBRANCH  30  31
ENDBRANCH  10  30
ENDBRANCH   9  10
ENDBRANCH   1   9
TORSDOF 9
ENDMDL
