MODEL 16
REMARK VINA RESULT: -8.632404612      3.524      7.078
REMARK  6 active torsions:
REMARK  status: ('A' for Active; 'I' for Inactive)
REMARK    1  A    between atoms: C4_4  and  O1_5 
REMARK    2  A    between atoms: O1_5  and  C5_6 
REMARK    3  A    between atoms: C5_6  and  C6_7 
REMARK    4  A    between atoms: C6_7  and  C7_8 
REMARK    5  A    between atoms: C7_8  and  C8_9 
REMARK    6  A    between atoms: C9_10  and  C10_11 
ROOT
HETATM    1  C7  UNL     1      39.141  -9.178  25.430  1.00  0.00     0.043 C 
ENDROOT
BRANCH   1   2
HETATM    2  C6  UNL     1      38.838 -10.184  24.355  1.00  0.00     0.031 C 
BRANCH   2   3
HETATM    3  C5  UNL     1      38.353  -9.578  23.084  1.00  0.00     0.176 C 
BRANCH   3   4
HETATM    4  O1  UNL     1      37.862  -8.309  23.282  1.00  0.00    -0.351 OA
BRANCH   4   5
HETATM    5  C4  UNL     1      36.640  -7.777  23.474  1.00  0.00     0.069 A 
HETATM    6  C3  UNL     1      36.132  -7.357  24.676  1.00  0.00     0.045 A 
HETATM    7  C2  UNL     1      34.840  -6.818  24.777  1.00  0.00    -0.037 A 
HETATM    8  C1  UNL     1      34.330  -6.376  26.098  1.00  0.00     0.050 C 
HETATM    9  C20 UNL     1      34.048  -6.696  23.662  1.00  0.00     0.046 A 
HETATM   10  C18 UNL     1      34.548  -7.115  22.440  1.00  0.00    -0.037 A 
HETATM   11 CL1  UNL     1      32.426  -6.024  23.760  1.00  0.00    -0.083 Cl
HETATM   12  C17 UNL     1      35.791  -7.633  22.357  1.00  0.00     0.045 A 
HETATM   13  C19 UNL     1      33.663  -6.968  21.258  1.00  0.00     0.050 C 
ENDBRANCH   4   5
ENDBRANCH   3   4
ENDBRANCH   2   3
ENDBRANCH   1   2
BRANCH   1  14
HETATM   14  C8  UNL     1      39.155  -9.815  26.814  1.00  0.00    -0.022 A 
HETATM   15  C9  UNL     1      40.259  -9.666  27.614  1.00  0.00     0.089 A 
HETATM   16  S1  UNL     1      39.811 -10.485  29.047  1.00  0.00    -0.082 SA
HETATM   17  C11 UNL     1      38.244 -10.995  28.593  1.00  0.00     0.016 A 
HETATM   18  C12 UNL     1      37.241 -11.730  29.248  1.00  0.00     0.020 A 
HETATM   19  C16 UNL     1      38.116 -10.504  27.326  1.00  0.00    -0.011 A 
HETATM   20  C13 UNL     1      36.047 -11.997  28.621  1.00  0.00     0.001 A 
HETATM   21  C14 UNL     1      35.912 -11.505  27.343  1.00  0.00     0.001 A 
HETATM   22  C15 UNL     1      36.885 -10.791  26.704  1.00  0.00     0.013 A 
BRANCH  15  23
HETATM   23  C10 UNL     1      41.548  -9.030  27.388  1.00  0.00     0.217 C 
HETATM   24  O2  UNL     1      42.021  -8.201  28.189  1.00  0.00    -0.643 OA
HETATM   25  O3  UNL     1      42.280  -9.343  26.262  1.00  0.00    -0.643 OA
ENDBRANCH  15  23
ENDBRANCH   1  14
TORSDOF 6
ENDMDL
