MODEL 15
REMARK VINA RESULT: -8.657883407      3.629      7.643
REMARK  6 active torsions:
REMARK  status: ('A' for Active; 'I' for Inactive)
REMARK    1  A    between atoms: C4_4  and  O1_5 
REMARK    2  A    between atoms: O1_5  and  C5_6 
REMARK    3  A    between atoms: C5_6  and  C6_7 
REMARK    4  A    between atoms: C6_7  and  C7_8 
REMARK    5  A    between atoms: C7_8  and  C8_9 
REMARK    6  A    between atoms: C9_10  and  C10_11 
ROOT
HETATM    1  C7  UNL     1      38.254 -10.533  25.855  1.00  0.00     0.043 C 
ENDROOT
BRANCH   1   2
HETATM    2  C6  UNL     1      37.520  -9.287  25.441  1.00  0.00     0.031 C 
BRANCH   2   3
HETATM    3  C5  UNL     1      38.319  -8.379  24.573  1.00  0.00     0.176 C 
BRANCH   3   4
HETATM    4  O1  UNL     1      37.548  -7.371  24.047  1.00  0.00    -0.351 OA
BRANCH   4   5
HETATM    5  C4  UNL     1      36.227  -7.130  23.950  1.00  0.00     0.069 A 
HETATM    6  C3  UNL     1      35.412  -6.728  24.978  1.00  0.00     0.045 A 
HETATM    7  C2  UNL     1      34.040  -6.506  24.781  1.00  0.00    -0.037 A 
HETATM    8  C1  UNL     1      33.196  -6.073  25.921  1.00  0.00     0.050 C 
HETATM    9  C20 UNL     1      33.477  -6.687  23.541  1.00  0.00     0.046 A 
HETATM   10  C18 UNL     1      34.288  -7.092  22.494  1.00  0.00    -0.037 A 
HETATM   11 CL1  UNL     1      31.762  -6.416  23.267  1.00  0.00    -0.083 Cl
HETATM   12  C17 UNL     1      35.605  -7.303  22.697  1.00  0.00     0.045 A 
HETATM   13  C19 UNL     1      33.644  -7.276  21.170  1.00  0.00     0.050 C 
ENDBRANCH   4   5
ENDBRANCH   3   4
ENDBRANCH   2   3
ENDBRANCH   1   2
BRANCH   1  14
HETATM   14  C8  UNL     1      38.638 -10.501  27.329  1.00  0.00    -0.022 A 
HETATM   15  C9  UNL     1      37.805 -11.073  28.256  1.00  0.00     0.089 A 
HETATM   16  S1  UNL     1      38.648 -10.844  29.726  1.00  0.00    -0.082 SA
HETATM   17  C11 UNL     1      40.027 -10.030  29.129  1.00  0.00     0.016 A 
HETATM   18  C12 UNL     1      41.180  -9.511  29.740  1.00  0.00     0.020 A 
HETATM   19  C16 UNL     1      39.786  -9.962  27.787  1.00  0.00    -0.011 A 
HETATM   20  C13 UNL     1      42.151  -8.890  28.989  1.00  0.00     0.001 A 
HETATM   21  C14 UNL     1      41.914  -8.818  27.636  1.00  0.00     0.001 A 
HETATM   22  C15 UNL     1      40.793  -9.322  27.039  1.00  0.00     0.013 A 
BRANCH  15  23
HETATM   23  C10 UNL     1      36.498 -11.702  28.135  1.00  0.00     0.217 C 
HETATM   24  O2  UNL     1      36.013 -12.000  27.026  1.00  0.00    -0.643 OA
HETATM   25  O3  UNL     1      35.764 -11.985  29.267  1.00  0.00    -0.643 OA
ENDBRANCH  15  23
ENDBRANCH   1  14
TORSDOF 6
ENDMDL
