MODEL 2
REMARK VINA RESULT: -10.302490860      0.076      1.685
REMARK  6 active torsions:
REMARK  status: ('A' for Active; 'I' for Inactive)
REMARK    1  A    between atoms: C4_4  and  O1_5 
REMARK    2  A    between atoms: O1_5  and  C5_6 
REMARK    3  A    between atoms: C5_6  and  C6_7 
REMARK    4  A    between atoms: C6_7  and  C7_8 
REMARK    5  A    between atoms: C7_8  and  C8_9 
REMARK    6  A    between atoms: C9_10  and  C10_11 
ROOT
HETATM    1  C7  UNL     1      37.703  -8.412  22.880  1.00  0.00     0.043 C 
ENDROOT
BRANCH   1   2
HETATM    2  C6  UNL     1      37.734  -9.870  22.515  1.00  0.00     0.031 C 
BRANCH   2   3
HETATM    3  C5  UNL     1      38.085 -10.766  23.651  1.00  0.00     0.176 C 
BRANCH   3   4
HETATM    4  O1  UNL     1      37.934 -10.135  24.863  1.00  0.00    -0.351 OA
BRANCH   4   5
HETATM    5  C4  UNL     1      38.645 -10.075  26.004  1.00  0.00     0.069 A 
HETATM    6  C3  UNL     1      39.843  -9.428  26.165  1.00  0.00     0.045 A 
HETATM    7  C2  UNL     1      40.515  -9.426  27.397  1.00  0.00    -0.037 A 
HETATM    8  C1  UNL     1      41.810  -8.714  27.526  1.00  0.00     0.050 C 
HETATM    9  C20 UNL     1      39.981 -10.078  28.482  1.00  0.00     0.046 A 
HETATM   10  C18 UNL     1      38.771 -10.735  28.335  1.00  0.00    -0.037 A 
HETATM   11 CL1  UNL     1      40.801 -10.091  30.037  1.00  0.00    -0.083 Cl
HETATM   12  C17 UNL     1      38.136 -10.730  27.144  1.00  0.00     0.045 A 
HETATM   13  C19 UNL     1      38.225 -11.427  29.528  1.00  0.00     0.050 C 
ENDBRANCH   4   5
ENDBRANCH   3   4
ENDBRANCH   2   3
ENDBRANCH   1   2
BRANCH   1  14
HETATM   14  C8  UNL     1      36.302  -7.826  22.755  1.00  0.00    -0.022 A 
HETATM   15  C9  UNL     1      35.696  -7.784  21.526  1.00  0.00     0.089 A 
HETATM   16  S1  UNL     1      34.164  -7.110  21.874  1.00  0.00    -0.082 SA
HETATM   17  C11 UNL     1      34.333  -6.898  23.562  1.00  0.00     0.016 A 
HETATM   18  C12 UNL     1      33.486  -6.390  24.561  1.00  0.00     0.020 A 
HETATM   19  C16 UNL     1      35.593  -7.365  23.804  1.00  0.00    -0.011 A 
HETATM   20  C13 UNL     1      33.900  -6.339  25.871  1.00  0.00     0.001 A 
HETATM   21  C14 UNL     1      35.169  -6.809  26.122  1.00  0.00     0.001 A 
HETATM   22  C15 UNL     1      35.994  -7.303  25.153  1.00  0.00     0.013 A 
BRANCH  15  23
HETATM   23  C10 UNL     1      36.160  -8.152  20.197  1.00  0.00     0.217 C 
HETATM   24  O2  UNL     1      36.965  -7.443  19.562  1.00  0.00    -0.643 OA
HETATM   25  O3  UNL     1      35.709  -9.315  19.609  1.00  0.00    -0.643 OA
ENDBRANCH  15  23
ENDBRANCH   1  14
TORSDOF 6
ENDMDL
