MODEL 1
REMARK VINA RESULT: -10.360717522      0.000      0.000
REMARK  6 active torsions:
REMARK  status: ('A' for Active; 'I' for Inactive)
REMARK    1  A    between atoms: C4_4  and  O1_5 
REMARK    2  A    between atoms: O1_5  and  C5_6 
REMARK    3  A    between atoms: C5_6  and  C6_7 
REMARK    4  A    between atoms: C6_7  and  C7_8 
REMARK    5  A    between atoms: C7_8  and  C8_9 
REMARK    6  A    between atoms: C9_10  and  C10_11 
ROOT
HETATM    1  C7  UNL     1      37.712  -8.412  22.892  1.00  0.00     0.043 C 
ENDROOT
BRANCH   1   2
HETATM    2  C6  UNL     1      37.741  -9.879  22.562  1.00  0.00     0.031 C 
BRANCH   2   3
HETATM    3  C5  UNL     1      38.107 -10.747  23.715  1.00  0.00     0.176 C 
BRANCH   3   4
HETATM    4  O1  UNL     1      37.959 -10.090  24.913  1.00  0.00    -0.351 OA
BRANCH   4   5
HETATM    5  C4  UNL     1      38.590 -10.118  26.102  1.00  0.00     0.069 A 
HETATM    6  C3  UNL     1      38.132 -10.742  27.234  1.00  0.00     0.045 A 
HETATM    7  C2  UNL     1      38.860 -10.711  28.433  1.00  0.00    -0.037 A 
HETATM    8  C1  UNL     1      38.327 -11.399  29.634  1.00  0.00     0.050 C 
HETATM    9  C20 UNL     1      40.063 -10.051  28.500  1.00  0.00     0.046 A 
HETATM   10  C18 UNL     1      40.539  -9.417  27.364  1.00  0.00    -0.037 A 
HETATM   11 CL1  UNL     1      40.997  -9.997  29.988  1.00  0.00    -0.083 Cl
HETATM   12  C17 UNL     1      39.828  -9.453  26.218  1.00  0.00     0.045 A 
HETATM   13  C19 UNL     1      41.841  -8.714  27.475  1.00  0.00     0.050 C 
ENDBRANCH   4   5
ENDBRANCH   3   4
ENDBRANCH   2   3
ENDBRANCH   1   2
BRANCH   1  14
HETATM   14  C8  UNL     1      36.311  -7.829  22.760  1.00  0.00    -0.022 A 
HETATM   15  C9  UNL     1      35.708  -7.794  21.529  1.00  0.00     0.089 A 
HETATM   16  S1  UNL     1      34.173  -7.121  21.871  1.00  0.00    -0.082 SA
HETATM   17  C11 UNL     1      34.339  -6.901  23.558  1.00  0.00     0.016 A 
HETATM   18  C12 UNL     1      33.488  -6.389  24.552  1.00  0.00     0.020 A 
HETATM   19  C16 UNL     1      35.598  -7.365  23.806  1.00  0.00    -0.011 A 
HETATM   20  C13 UNL     1      33.898  -6.332  25.863  1.00  0.00     0.001 A 
HETATM   21  C14 UNL     1      35.167  -6.798  26.119  1.00  0.00     0.001 A 
HETATM   22  C15 UNL     1      35.996  -7.295  25.155  1.00  0.00     0.013 A 
BRANCH  15  23
HETATM   23  C10 UNL     1      36.176  -8.168  20.203  1.00  0.00     0.217 C 
HETATM   24  O2  UNL     1      36.975  -7.457  19.565  1.00  0.00    -0.643 OA
HETATM   25  O3  UNL     1      35.733  -9.339  19.623  1.00  0.00    -0.643 OA
ENDBRANCH  15  23
ENDBRANCH   1  14
TORSDOF 6
ENDMDL
