MODEL 13
REMARK VINA RESULT: -8.713275829      3.463      7.053
REMARK  6 active torsions:
REMARK  status: ('A' for Active; 'I' for Inactive)
REMARK    1  A    between atoms: C4_4  and  O1_5 
REMARK    2  A    between atoms: O1_5  and  C5_6 
REMARK    3  A    between atoms: C5_6  and  C6_7 
REMARK    4  A    between atoms: C6_7  and  C7_8 
REMARK    5  A    between atoms: C7_8  and  C8_9 
REMARK    6  A    between atoms: C9_10  and  C10_11 
ROOT
HETATM    1  C7  UNL     1      39.140  -9.293  25.358  1.00  0.00     0.043 C 
ENDROOT
BRANCH   1   2
HETATM    2  C6  UNL     1      38.692 -10.298  24.333  1.00  0.00     0.031 C 
BRANCH   2   3
HETATM    3  C5  UNL     1      38.399  -9.705  22.999  1.00  0.00     0.176 C 
BRANCH   3   4
HETATM    4  O1  UNL     1      37.923  -8.420  23.107  1.00  0.00    -0.351 OA
BRANCH   4   5
HETATM    5  C4  UNL     1      36.711  -7.863  23.283  1.00  0.00     0.069 A 
HETATM    6  C3  UNL     1      35.785  -7.638  22.296  1.00  0.00     0.045 A 
HETATM    7  C2  UNL     1      34.545  -7.044  22.577  1.00  0.00    -0.037 A 
HETATM    8  C1  UNL     1      33.574  -6.818  21.480  1.00  0.00     0.050 C 
HETATM    9  C20 UNL     1      34.227  -6.672  23.861  1.00  0.00     0.046 A 
HETATM   10  C18 UNL     1      35.151  -6.894  24.868  1.00  0.00    -0.037 A 
HETATM   11 CL1  UNL     1      32.681  -5.926  24.241  1.00  0.00    -0.083 Cl
HETATM   12  C17 UNL     1      36.340  -7.465  24.584  1.00  0.00     0.045 A 
HETATM   13  C19 UNL     1      34.772  -6.479  26.241  1.00  0.00     0.050 C 
ENDBRANCH   4   5
ENDBRANCH   3   4
ENDBRANCH   2   3
ENDBRANCH   1   2
BRANCH   1  14
HETATM   14  C8  UNL     1      39.137  -9.879  26.765  1.00  0.00    -0.022 A 
HETATM   15  C9  UNL     1      40.235  -9.709  27.568  1.00  0.00     0.089 A 
HETATM   16  S1  UNL     1      39.768 -10.471  29.026  1.00  0.00    -0.082 SA
HETATM   17  C11 UNL     1      38.200 -10.985  28.578  1.00  0.00     0.016 A 
HETATM   18  C12 UNL     1      37.186 -11.687  29.251  1.00  0.00     0.020 A 
HETATM   19  C16 UNL     1      38.088 -10.540  27.292  1.00  0.00    -0.011 A 
HETATM   20  C13 UNL     1      35.995 -11.967  28.624  1.00  0.00     0.001 A 
HETATM   21  C14 UNL     1      35.875 -11.522  27.327  1.00  0.00     0.001 A 
HETATM   22  C15 UNL     1      36.860 -10.840  26.671  1.00  0.00     0.013 A 
BRANCH  15  23
HETATM   23  C10 UNL     1      41.531  -9.093  27.330  1.00  0.00     0.217 C 
HETATM   24  O2  UNL     1      42.203  -9.348  26.312  1.00  0.00    -0.643 OA
HETATM   25  O3  UNL     1      42.045  -8.198  28.245  1.00  0.00    -0.643 OA
ENDBRANCH  15  23
ENDBRANCH   1  14
TORSDOF 6
ENDMDL
