MODEL 8
REMARK VINA RESULT: -9.433116795      2.650      4.892
REMARK  7 active torsions:
REMARK  status: ('A' for Active; 'I' for Inactive)
REMARK    1  A    between atoms: C2_2  and  O1_3 
REMARK    2  A    between atoms: C2_2  and  C3_5 
REMARK    3  A    between atoms: C3_5  and  N1_6 
REMARK    4  A    between atoms: C3_5  and  C4_10 
REMARK       I    between atoms: C4_10  and  N2_12 
REMARK    5  A    between atoms: N2_12  and  S1_14 
REMARK    6  A    between atoms: S1_14  and  C5_17 
REMARK    7  A    between atoms: C9_21  and  C10_22 
ROOT
HETATM    1  C5  UNL     1     -14.310 -37.782  17.035  1.00  0.00     0.080 A 
HETATM    2  C6  UNL     1     -13.898 -37.341  18.289  1.00  0.00     0.025 A 
HETATM    3  C7  UNL     1     -14.831 -37.022  19.254  1.00  0.00     0.002 A 
HETATM    4  C8  UNL     1     -16.180 -37.137  18.981  1.00  0.00     0.012 A 
HETATM    5  C9  UNL     1     -16.618 -37.576  17.727  1.00  0.00    -0.024 A 
HETATM    6  C18 UNL     1     -15.663 -37.879  16.812  1.00  0.00     0.037 A 
ENDROOT
BRANCH   1   7
HETATM    7  S1  UNL     1     -13.088 -38.181  15.830  1.00  0.00     0.265 S 
HETATM    8  O3  UNL     1     -11.954 -38.897  16.460  1.00  0.00    -0.200 OA
HETATM    9  O4  UNL     1     -12.571 -36.923  15.183  1.00  0.00    -0.200 OA
BRANCH   7  10
HETATM   10  N2  UNL     1     -13.883 -39.127  14.616  1.00  0.00    -0.248 N 
HETATM   11  C4  UNL     1     -14.402 -40.382  15.066  1.00  0.00     0.264 C 
HETATM   12  O2  UNL     1     -14.257 -40.743  16.282  1.00  0.00    -0.270 OA
ATOM     13  H2  UNL     1     -13.974 -38.813  13.650  1.00  0.00     0.182 HD
BRANCH  11  14
HETATM   14  C3  UNL     1     -15.108 -41.239  14.083  1.00  0.00     0.303 C 
BRANCH  14  15
HETATM   15  C2  UNL     1     -16.589 -40.864  14.220  1.00  0.00     0.153 C 
HETATM   16  C1  UNL     1     -17.343 -41.818  13.318  1.00  0.00     0.042 C 
BRANCH  15  17
HETATM   17  O1  UNL     1     -16.992 -41.022  15.545  1.00  0.00    -0.393 OA
ATOM     18  H1  UNL     1     -16.631 -40.331  16.089  1.00  0.00     0.210 HD
ENDBRANCH  15  17
ENDBRANCH  14  15
BRANCH  14  19
HETATM   19  N1  UNL     1     -14.932 -42.648  14.419  1.00  0.00    -0.064 N 
ATOM     20  H13 UNL     1     -15.039 -42.822  15.419  1.00  0.00     0.275 HD
ATOM     21  H12 UNL     1     -15.707 -43.223  14.088  1.00  0.00     0.275 HD
ATOM     22  H11 UNL     1     -14.033 -42.970  14.065  1.00  0.00     0.275 HD
ENDBRANCH  14  19
ENDBRANCH  11  14
ENDBRANCH   7  10
ENDBRANCH   1   7
BRANCH   5  23
HETATM   23  C10 UNL     1     -18.064 -37.665  17.517  1.00  0.00    -0.024 A 
HETATM   24  C11 UNL     1     -18.893 -37.354  18.573  1.00  0.00     0.013 A 
HETATM   25  C12 UNL     1     -20.255 -37.400  18.459  1.00  0.00     0.018 A 
HETATM   26  C13 UNL     1     -20.803 -37.770  17.247  1.00  0.00     0.032 A 
HETATM   27  C14 UNL     1     -22.147 -37.835  17.048  1.00  0.00     0.129 A 
HETATM   28  C16 UNL     1     -19.978 -38.089  16.167  1.00  0.00     0.047 A 
HETATM   29  N3  UNL     1     -23.017 -37.525  18.123  1.00  0.00    -0.082 NA
HETATM   30  N4  UNL     1     -22.607 -38.202  15.824  1.00  0.00    -0.340 N 
HETATM   31  C15 UNL     1     -21.824 -38.507  14.789  1.00  0.00     0.182 A 
ATOM     32  H4  UNL     1     -23.617 -38.247  15.688  1.00  0.00     0.167 HD
HETATM   33  N5  UNL     1     -20.484 -38.449  14.966  1.00  0.00    -0.352 N 
ATOM     34  H5  UNL     1     -19.856 -38.676  14.194  1.00  0.00     0.166 HD
HETATM   35  C17 UNL     1     -18.611 -38.032  16.316  1.00  0.00     0.042 A 
ENDBRANCH   5  23
TORSDOF 7
ENDMDL
