MODEL 5
REMARK VINA RESULT: -10.042306679      3.271      4.827
REMARK  7 active torsions:
REMARK  status: ('A' for Active; 'I' for Inactive)
REMARK    1  A    between atoms: C2_2  and  O1_3 
REMARK    2  A    between atoms: C2_2  and  C3_5 
REMARK    3  A    between atoms: C3_5  and  N1_6 
REMARK    4  A    between atoms: C3_5  and  C4_10 
REMARK       I    between atoms: C4_10  and  N2_12 
REMARK    5  A    between atoms: N2_12  and  S1_14 
REMARK    6  A    between atoms: S1_14  and  C5_17 
REMARK    7  A    between atoms: C9_21  and  C10_22 
ROOT
HETATM    1  C5  UNL     1     -14.232 -37.877  16.905  1.00  0.00     0.080 A 
HETATM    2  C6  UNL     1     -13.779 -37.431  18.143  1.00  0.00     0.025 A 
HETATM    3  C7  UNL     1     -14.679 -37.090  19.131  1.00  0.00     0.002 A 
HETATM    4  C8  UNL     1     -16.037 -37.188  18.897  1.00  0.00     0.012 A 
HETATM    5  C9  UNL     1     -16.516 -37.632  17.659  1.00  0.00    -0.024 A 
HETATM    6  C18 UNL     1     -15.592 -37.957  16.720  1.00  0.00     0.037 A 
ENDROOT
BRANCH   1   7
HETATM    7  S1  UNL     1     -13.050 -38.304  15.670  1.00  0.00     0.265 S 
HETATM    8  O3  UNL     1     -11.754 -38.660  16.295  1.00  0.00    -0.200 OA
HETATM    9  O4  UNL     1     -12.837 -37.142  14.736  1.00  0.00    -0.200 OA
BRANCH   7  10
HETATM   10  N2  UNL     1     -13.735 -39.610  14.762  1.00  0.00    -0.248 N 
HETATM   11  C4  UNL     1     -13.160 -39.819  13.469  1.00  0.00     0.264 C 
HETATM   12  O2  UNL     1     -12.219 -39.066  13.050  1.00  0.00    -0.270 OA
ATOM     13  H2  UNL     1     -14.493 -40.189  15.123  1.00  0.00     0.182 HD
BRANCH  11  14
HETATM   14  C3  UNL     1     -13.688 -40.931  12.641  1.00  0.00     0.303 C 
BRANCH  14  15
HETATM   15  C2  UNL     1     -12.626 -42.034  12.734  1.00  0.00     0.153 C 
HETATM   16  C1  UNL     1     -12.039 -42.162  11.344  1.00  0.00     0.042 C 
BRANCH  15  17
HETATM   17  O1  UNL     1     -11.642 -41.663  13.649  1.00  0.00    -0.393 OA
ATOM     18  H1  UNL     1     -11.612 -42.276  14.374  1.00  0.00     0.210 HD
ENDBRANCH  15  17
ENDBRANCH  14  15
BRANCH  14  19
HETATM   19  N1  UNL     1     -13.825 -40.508  11.251  1.00  0.00    -0.064 N 
ATOM     20  H13 UNL     1     -13.251 -41.066  10.619  1.00  0.00     0.275 HD
ATOM     21  H12 UNL     1     -14.739 -40.745  10.864  1.00  0.00     0.275 HD
ATOM     22  H11 UNL     1     -13.622 -39.512  11.180  1.00  0.00     0.275 HD
ENDBRANCH  14  19
ENDBRANCH  11  14
ENDBRANCH   7  10
ENDBRANCH   1   7
BRANCH   5  23
HETATM   23  C10 UNL     1     -17.969 -37.702  17.491  1.00  0.00    -0.024 A 
HETATM   24  C11 UNL     1     -18.762 -37.472  18.594  1.00  0.00     0.013 A 
HETATM   25  C12 UNL     1     -20.127 -37.507  18.522  1.00  0.00     0.018 A 
HETATM   26  C13 UNL     1     -20.716 -37.783  17.304  1.00  0.00     0.032 A 
HETATM   27  C14 UNL     1     -22.065 -37.830  17.144  1.00  0.00     0.129 A 
HETATM   28  C16 UNL     1     -19.927 -38.019  16.176  1.00  0.00     0.047 A 
HETATM   29  N3  UNL     1     -22.899 -37.602  18.269  1.00  0.00    -0.082 NA
HETATM   30  N4  UNL     1     -22.567 -38.101  15.912  1.00  0.00    -0.340 N 
HETATM   31  C15 UNL     1     -21.819 -38.327  14.832  1.00  0.00     0.182 A 
ATOM     32  H4  UNL     1     -23.581 -38.134  15.806  1.00  0.00     0.167 HD
HETATM   33  N5  UNL     1     -20.474 -38.285  14.968  1.00  0.00    -0.352 N 
ATOM     34  H5  UNL     1     -19.873 -38.453  14.161  1.00  0.00     0.166 HD
HETATM   35  C17 UNL     1     -18.556 -37.975  16.284  1.00  0.00     0.042 A 
ENDBRANCH   5  23
TORSDOF 7
ENDMDL
