MODEL 1
REMARK VINA RESULT: -11.846272053      0.000      0.000
REMARK  7 active torsions:
REMARK  status: ('A' for Active; 'I' for Inactive)
REMARK    1  A    between atoms: C2_2  and  O1_3 
REMARK    2  A    between atoms: C2_2  and  C3_5 
REMARK    3  A    between atoms: C3_5  and  N1_6 
REMARK    4  A    between atoms: C3_5  and  C4_10 
REMARK       I    between atoms: C4_10  and  N2_12 
REMARK    5  A    between atoms: N2_12  and  S1_14 
REMARK    6  A    between atoms: S1_14  and  C5_17 
REMARK    7  A    between atoms: C9_21  and  C10_22 
ROOT
HETATM    1  C5  UNL     1     -14.527 -37.420  17.665  1.00  0.00     0.080 A 
HETATM    2  C6  UNL     1     -14.448 -37.053  19.005  1.00  0.00     0.025 A 
HETATM    3  C7  UNL     1     -15.597 -36.893  19.751  1.00  0.00     0.002 A 
HETATM    4  C8  UNL     1     -16.835 -37.094  19.171  1.00  0.00     0.012 A 
HETATM    5  C9  UNL     1     -16.940 -37.461  17.825  1.00  0.00    -0.024 A 
HETATM    6  C18 UNL     1     -15.782 -37.608  17.134  1.00  0.00     0.037 A 
ENDROOT
BRANCH   1   7
HETATM    7  S1  UNL     1     -13.036 -37.616  16.746  1.00  0.00     0.265 S 
HETATM    8  O3  UNL     1     -13.297 -37.451  15.297  1.00  0.00    -0.200 OA
HETATM    9  O4  UNL     1     -12.459 -38.986  16.984  1.00  0.00    -0.200 OA
BRANCH   7  10
HETATM   10  N2  UNL     1     -11.920 -36.442  17.362  1.00  0.00    -0.248 N 
HETATM   11  C4  UNL     1     -12.180 -35.091  16.968  1.00  0.00     0.264 C 
HETATM   12  O2  UNL     1     -13.168 -34.818  16.208  1.00  0.00    -0.270 OA
ATOM     13  H2  UNL     1     -11.135 -36.696  17.961  1.00  0.00     0.182 HD
BRANCH  11  14
HETATM   14  C3  UNL     1     -11.272 -34.031  17.469  1.00  0.00     0.303 C 
BRANCH  14  15
HETATM   15  C2  UNL     1     -11.203 -34.253  18.986  1.00  0.00     0.153 C 
HETATM   16  C1  UNL     1     -12.637 -34.251  19.471  1.00  0.00     0.042 C 
BRANCH  15  17
HETATM   17  O1  UNL     1     -10.597 -35.479  19.254  1.00  0.00    -0.393 OA
ATOM     18  H1  UNL     1     -10.642 -35.678  20.182  1.00  0.00     0.210 HD
ENDBRANCH  15  17
ENDBRANCH  14  15
BRANCH  14  19
HETATM   19  N1  UNL     1     -11.833 -32.712  17.199  1.00  0.00    -0.064 N 
ATOM     20  H13 UNL     1     -11.442 -31.993  17.808  1.00  0.00     0.275 HD
ATOM     21  H12 UNL     1     -11.516 -32.334  16.306  1.00  0.00     0.275 HD
ATOM     22  H11 UNL     1     -12.849 -32.758  17.260  1.00  0.00     0.275 HD
ENDBRANCH  14  19
ENDBRANCH  11  14
ENDBRANCH   7  10
ENDBRANCH   1   7
BRANCH   5  23
HETATM   23  C10 UNL     1     -18.288 -37.650  17.287  1.00  0.00    -0.024 A 
HETATM   24  C11 UNL     1     -18.413 -38.040  15.971  1.00  0.00     0.013 A 
HETATM   25  C12 UNL     1     -19.634 -38.249  15.393  1.00  0.00     0.018 A 
HETATM   26  C13 UNL     1     -20.768 -38.060  16.160  1.00  0.00     0.032 A 
HETATM   27  C14 UNL     1     -22.019 -38.252  15.664  1.00  0.00     0.129 A 
HETATM   28  C16 UNL     1     -20.659 -37.664  17.495  1.00  0.00     0.047 A 
HETATM   29  N3  UNL     1     -22.170 -38.647  14.311  1.00  0.00    -0.082 NA
HETATM   30  N4  UNL     1     -23.082 -38.052  16.484  1.00  0.00    -0.340 N 
HETATM   31  C15 UNL     1     -22.985 -37.675  17.760  1.00  0.00     0.182 A 
ATOM     32  H4  UNL     1     -24.016 -38.200  16.101  1.00  0.00     0.167 HD
HETATM   33  N5  UNL     1     -21.749 -37.478  18.272  1.00  0.00    -0.352 N 
ATOM     34  H5  UNL     1     -21.639 -37.190  19.245  1.00  0.00     0.166 HD
HETATM   35  C17 UNL     1     -19.414 -37.464  18.045  1.00  0.00     0.042 A 
ENDBRANCH   5  23
TORSDOF 7
ENDMDL
