MODEL 7
REMARK VINA RESULT: -9.869935971      3.142      4.971
REMARK  7 active torsions:
REMARK  status: ('A' for Active; 'I' for Inactive)
REMARK    1  A    between atoms: C2_2  and  O1_3 
REMARK    2  A    between atoms: C2_2  and  C3_5 
REMARK    3  A    between atoms: C3_5  and  N1_6 
REMARK    4  A    between atoms: C3_5  and  C4_10 
REMARK       I    between atoms: C4_10  and  N2_12 
REMARK    5  A    between atoms: N2_12  and  S1_14 
REMARK    6  A    between atoms: S1_14  and  C5_17 
REMARK    7  A    between atoms: C9_21  and  C10_22 
ROOT
HETATM    1  C5  UNL     1     -14.262 -37.881  16.937  1.00  0.00     0.080 A 
HETATM    2  C6  UNL     1     -13.813 -37.405  18.165  1.00  0.00     0.025 A 
HETATM    3  C7  UNL     1     -14.716 -37.039  19.142  1.00  0.00     0.002 A 
HETATM    4  C8  UNL     1     -16.073 -37.141  18.905  1.00  0.00     0.012 A 
HETATM    5  C9  UNL     1     -16.549 -37.615  17.678  1.00  0.00    -0.024 A 
HETATM    6  C18 UNL     1     -15.622 -37.964  16.750  1.00  0.00     0.037 A 
ENDROOT
BRANCH   1   7
HETATM    7  S1  UNL     1     -13.077 -38.339  15.717  1.00  0.00     0.265 S 
HETATM    8  O3  UNL     1     -11.802 -38.739  16.358  1.00  0.00    -0.200 OA
HETATM    9  O4  UNL     1     -12.814 -37.180  14.792  1.00  0.00    -0.200 OA
BRANCH   7  10
HETATM   10  N2  UNL     1     -13.790 -39.620  14.793  1.00  0.00    -0.248 N 
HETATM   11  C4  UNL     1     -12.891 -40.315  13.924  1.00  0.00     0.264 C 
HETATM   12  O2  UNL     1     -11.663 -39.975  13.858  1.00  0.00    -0.270 OA
ATOM     13  H2  UNL     1     -14.778 -39.861  14.864  1.00  0.00     0.182 HD
BRANCH  11  14
HETATM   14  C3  UNL     1     -13.430 -41.434  13.112  1.00  0.00     0.303 C 
BRANCH  14  15
HETATM   15  C2  UNL     1     -13.990 -40.771  11.846  1.00  0.00     0.153 C 
HETATM   16  C1  UNL     1     -14.408 -41.906  10.936  1.00  0.00     0.042 C 
BRANCH  15  17
HETATM   17  O1  UNL     1     -15.088 -39.980  12.178  1.00  0.00    -0.393 OA
ATOM     18  H1  UNL     1     -15.373 -39.472  11.426  1.00  0.00     0.210 HD
ENDBRANCH  15  17
ENDBRANCH  14  15
BRANCH  14  19
HETATM   19  N1  UNL     1     -14.510 -42.104  13.826  1.00  0.00    -0.064 N 
ATOM     20  H13 UNL     1     -14.163 -42.794  14.493  1.00  0.00     0.275 HD
ATOM     21  H12 UNL     1     -14.979 -41.485  14.487  1.00  0.00     0.275 HD
ATOM     22  H11 UNL     1     -15.158 -42.511  13.152  1.00  0.00     0.275 HD
ENDBRANCH  14  19
ENDBRANCH  11  14
ENDBRANCH   7  10
ENDBRANCH   1   7
BRANCH   5  23
HETATM   23  C10 UNL     1     -18.001 -37.688  17.506  1.00  0.00    -0.024 A 
HETATM   24  C11 UNL     1     -18.797 -37.457  18.608  1.00  0.00     0.013 A 
HETATM   25  C12 UNL     1     -20.161 -37.495  18.533  1.00  0.00     0.018 A 
HETATM   26  C13 UNL     1     -20.747 -37.772  17.313  1.00  0.00     0.032 A 
HETATM   27  C14 UNL     1     -22.096 -37.822  17.151  1.00  0.00     0.129 A 
HETATM   28  C16 UNL     1     -19.956 -38.008  16.187  1.00  0.00     0.047 A 
HETATM   29  N3  UNL     1     -22.933 -37.595  18.274  1.00  0.00    -0.082 NA
HETATM   30  N4  UNL     1     -22.595 -38.094  15.918  1.00  0.00    -0.340 N 
HETATM   31  C15 UNL     1     -21.844 -38.320  14.840  1.00  0.00     0.182 A 
ATOM     32  H4  UNL     1     -23.609 -38.129  15.810  1.00  0.00     0.167 HD
HETATM   33  N5  UNL     1     -20.500 -38.276  14.979  1.00  0.00    -0.352 N 
ATOM     34  H5  UNL     1     -19.896 -38.443  14.173  1.00  0.00     0.166 HD
HETATM   35  C17 UNL     1     -18.585 -37.962  16.299  1.00  0.00     0.042 A 
ENDBRANCH   5  23
TORSDOF 7
ENDMDL
