MODEL 2
REMARK VINA RESULT: -11.595305402      1.041      1.784
REMARK  7 active torsions:
REMARK  status: ('A' for Active; 'I' for Inactive)
REMARK    1  A    between atoms: C2_2  and  O1_3 
REMARK    2  A    between atoms: C2_2  and  C3_5 
REMARK    3  A    between atoms: C3_5  and  N1_6 
REMARK    4  A    between atoms: C3_5  and  C4_10 
REMARK       I    between atoms: C4_10  and  N2_12 
REMARK    5  A    between atoms: N2_12  and  S1_14 
REMARK    6  A    between atoms: S1_14  and  C5_17 
REMARK    7  A    between atoms: C9_21  and  C10_22 
ROOT
HETATM    1  C5  UNL     1     -14.506 -37.607  17.558  1.00  0.00     0.080 A 
HETATM    2  C6  UNL     1     -14.231 -37.140  18.840  1.00  0.00     0.025 A 
HETATM    3  C7  UNL     1     -15.261 -36.827  19.702  1.00  0.00     0.002 A 
HETATM    4  C8  UNL     1     -16.574 -36.975  19.298  1.00  0.00     0.012 A 
HETATM    5  C9  UNL     1     -16.875 -37.441  18.014  1.00  0.00    -0.024 A 
HETATM    6  C18 UNL     1     -15.828 -37.736  17.203  1.00  0.00     0.037 A 
ENDROOT
BRANCH   1   7
HETATM    7  S1  UNL     1     -13.163 -37.996  16.487  1.00  0.00     0.265 S 
HETATM    8  O3  UNL     1     -13.538 -37.747  15.075  1.00  0.00    -0.200 OA
HETATM    9  O4  UNL     1     -12.781 -39.444  16.641  1.00  0.00    -0.200 OA
BRANCH   7  10
HETATM   10  N2  UNL     1     -11.824 -37.024  17.002  1.00  0.00    -0.248 N 
HETATM   11  C4  UNL     1     -11.961 -35.621  16.758  1.00  0.00     0.264 C 
HETATM   12  O2  UNL     1     -13.007 -35.163  16.189  1.00  0.00    -0.270 OA
ATOM     13  H2  UNL     1     -10.998 -37.424  17.448  1.00  0.00     0.182 HD
BRANCH  11  14
HETATM   14  C3  UNL     1     -10.858 -34.727  17.186  1.00  0.00     0.303 C 
BRANCH  14  15
HETATM   15  C2  UNL     1     -11.453 -33.875  18.315  1.00  0.00     0.153 C 
HETATM   16  C1  UNL     1     -11.135 -34.610  19.601  1.00  0.00     0.042 C 
BRANCH  15  17
HETATM   17  O1  UNL     1     -10.861 -32.613  18.314  1.00  0.00    -0.393 OA
ATOM     18  H1  UNL     1     -10.458 -32.435  17.472  1.00  0.00     0.210 HD
ENDBRANCH  15  17
ENDBRANCH  14  15
BRANCH  14  19
HETATM   19  N1  UNL     1     -10.453 -33.858  16.087  1.00  0.00    -0.064 N 
ATOM     20  H13 UNL     1     -11.144 -33.837  15.337  1.00  0.00     0.275 HD
ATOM     21  H12 UNL     1     -10.485 -32.871  16.343  1.00  0.00     0.275 HD
ATOM     22  H11 UNL     1      -9.532 -34.141  15.755  1.00  0.00     0.275 HD
ENDBRANCH  14  19
ENDBRANCH  11  14
ENDBRANCH   7  10
ENDBRANCH   1   7
BRANCH   5  23
HETATM   23  C10 UNL     1     -18.292 -37.564  17.663  1.00  0.00    -0.024 A 
HETATM   24  C11 UNL     1     -19.227 -37.333  18.648  1.00  0.00     0.013 A 
HETATM   25  C12 UNL     1     -20.569 -37.416  18.403  1.00  0.00     0.018 A 
HETATM   26  C13 UNL     1     -20.988 -37.740  17.127  1.00  0.00     0.032 A 
HETATM   27  C14 UNL     1     -22.303 -37.837  16.797  1.00  0.00     0.129 A 
HETATM   28  C16 UNL     1     -20.053 -37.978  16.117  1.00  0.00     0.047 A 
HETATM   29  N3  UNL     1     -23.281 -37.610  17.799  1.00  0.00    -0.082 NA
HETATM   30  N4  UNL     1     -22.633 -38.154  15.519  1.00  0.00    -0.340 N 
HETATM   31  C15 UNL     1     -21.746 -38.381  14.551  1.00  0.00     0.182 A 
ATOM     32  H4  UNL     1     -23.624 -38.223  15.285  1.00  0.00     0.167 HD
HETATM   33  N5  UNL     1     -20.431 -38.290  14.857  1.00  0.00    -0.352 N 
ATOM     34  H5  UNL     1     -19.726 -38.458  14.139  1.00  0.00     0.166 HD
HETATM   35  C17 UNL     1     -18.709 -37.885  16.399  1.00  0.00     0.042 A 
ENDBRANCH   5  23
TORSDOF 7
ENDMDL
