MODEL 9
REMARK VINA RESULT: -9.711398690      4.671      8.741
REMARK  7 active torsions:
REMARK  status: ('A' for Active; 'I' for Inactive)
REMARK    1  A    between atoms: C7_10  and  C8_11 
REMARK    2  A    between atoms: C12_15  and  S1_16 
REMARK    3  A    between atoms: S1_16  and  N3_19 
REMARK       I    between atoms: N3_19  and  C13_21 
REMARK    4  A    between atoms: C13_21  and  C14_23 
REMARK    5  A    between atoms: C14_23  and  N4_24 
REMARK    6  A    between atoms: C14_23  and  C15_28 
REMARK    7  A    between atoms: C15_28  and  O4_30 
ROOT
HETATM    1  C8  UNL     1     -19.717 -37.857  16.614  1.00  0.00    -0.024 A 
HETATM    2  C9  UNL     1     -20.915 -37.796  17.325  1.00  0.00     0.012 A 
HETATM    3  C10 UNL     1     -22.125 -38.024  16.750  1.00  0.00     0.002 A 
HETATM    4  C11 UNL     1     -22.223 -38.330  15.412  1.00  0.00     0.025 A 
HETATM    5  C12 UNL     1     -21.048 -38.396  14.684  1.00  0.00     0.080 A 
HETATM    6  C17 UNL     1     -19.824 -38.163  15.273  1.00  0.00     0.037 A 
ENDROOT
BRANCH   5   7
HETATM    7  S1  UNL     1     -21.104 -38.830  12.969  1.00  0.00     0.265 S 
HETATM    8  O1  UNL     1     -21.050 -37.646  12.077  1.00  0.00    -0.200 OA
HETATM    9  O2  UNL     1     -22.327 -39.624  12.678  1.00  0.00    -0.200 OA
BRANCH   7  10
HETATM   10  N3  UNL     1     -19.719 -39.879  12.744  1.00  0.00    -0.248 N 
HETATM   11  C13 UNL     1     -19.567 -41.042  13.526  1.00  0.00     0.264 C 
HETATM   12  O3  UNL     1     -20.411 -41.329  14.404  1.00  0.00    -0.270 OA
ATOM     13  H3  UNL     1     -19.017 -39.646  12.042  1.00  0.00     0.182 HD
BRANCH  11  14
HETATM   14  C14 UNL     1     -18.410 -41.935  13.314  1.00  0.00     0.303 C 
BRANCH  14  15
HETATM   15  N4  UNL     1     -18.201 -42.686  14.547  1.00  0.00    -0.064 N 
ATOM     16  H43 UNL     1     -17.882 -42.100  15.319  1.00  0.00     0.275 HD
ATOM     17  H42 UNL     1     -19.073 -43.003  14.972  1.00  0.00     0.275 HD
ATOM     18  H41 UNL     1     -17.560 -43.451  14.337  1.00  0.00     0.275 HD
ENDBRANCH  14  15
BRANCH  14  19
HETATM   19  C15 UNL     1     -18.735 -42.923  12.177  1.00  0.00     0.153 C 
HETATM   20  C16 UNL     1     -18.486 -44.309  12.711  1.00  0.00     0.042 C 
BRANCH  19  21
HETATM   21  O4  UNL     1     -20.063 -42.758  11.774  1.00  0.00    -0.393 OA
ATOM     22  H4  UNL     1     -20.463 -43.608  11.634  1.00  0.00     0.210 HD
ENDBRANCH  19  21
ENDBRANCH  14  19
ENDBRANCH  11  14
ENDBRANCH   7  10
ENDBRANCH   5   7
BRANCH   1  23
HETATM   23  C7  UNL     1     -18.466 -37.631  17.314  1.00  0.00    -0.024 A 
HETATM   24  C6  UNL     1     -18.486 -37.454  18.698  1.00  0.00     0.013 A 
HETATM   25  C5  UNL     1     -17.307 -37.263  19.421  1.00  0.00     0.018 A 
HETATM   26  C4  UNL     1     -16.093 -37.243  18.773  1.00  0.00     0.032 A 
HETATM   27  C3  UNL     1     -14.893 -37.056  19.464  1.00  0.00     0.130 A 
HETATM   28  C19 UNL     1     -16.042 -37.412  17.403  1.00  0.00     0.048 A 
HETATM   29  N1  UNL     1     -13.730 -37.046  18.793  1.00  0.00    -0.334 N 
HETATM   30  N2  UNL     1     -14.994 -36.891  20.866  1.00  0.00    -0.082 NA
HETATM   31  C2  UNL     1     -13.685 -37.212  17.452  1.00  0.00     0.078 A 
ATOM     32  H1  UNL     1     -12.859 -36.910  19.307  1.00  0.00     0.168 HD
HETATM   33  C1  UNL     1     -12.388 -37.196  16.710  1.00  0.00     0.089 C 
HETATM   34  N5  UNL     1     -14.841 -37.391  16.794  1.00  0.00    -0.345 N 
ATOM     35  H5  UNL     1     -14.809 -37.516  15.782  1.00  0.00     0.167 HD
HETATM   36  C18 UNL     1     -17.224 -37.601  16.721  1.00  0.00     0.042 A 
ENDBRANCH   1  23
TORSDOF 7
ENDMDL
