MODEL 7
REMARK VINA RESULT: -9.979946895      3.679      5.962
REMARK  7 active torsions:
REMARK  status: ('A' for Active; 'I' for Inactive)
REMARK    1  A    between atoms: C7_10  and  C8_11 
REMARK    2  A    between atoms: C12_15  and  S1_16 
REMARK    3  A    between atoms: S1_16  and  N3_19 
REMARK       I    between atoms: N3_19  and  C13_21 
REMARK    4  A    between atoms: C13_21  and  C14_23 
REMARK    5  A    between atoms: C14_23  and  N4_24 
REMARK    6  A    between atoms: C14_23  and  C15_28 
REMARK    7  A    between atoms: C15_28  and  O4_30 
ROOT
HETATM    1  C8  UNL     1     -20.346 -38.324  15.107  1.00  0.00    -0.024 A 
HETATM    2  C9  UNL     1     -21.704 -38.116  15.345  1.00  0.00     0.012 A 
HETATM    3  C10 UNL     1     -22.205 -37.856  16.581  1.00  0.00     0.002 A 
HETATM    4  C11 UNL     1     -21.375 -37.785  17.676  1.00  0.00     0.025 A 
HETATM    5  C12 UNL     1     -20.022 -37.987  17.467  1.00  0.00     0.080 A 
HETATM    6  C17 UNL     1     -19.521 -38.252  16.211  1.00  0.00     0.037 A 
ENDROOT
BRANCH   5   7
HETATM    7  S1  UNL     1     -18.899 -37.864  18.829  1.00  0.00     0.265 S 
HETATM    8  O1  UNL     1     -19.403 -38.538  20.050  1.00  0.00    -0.200 OA
HETATM    9  O2  UNL     1     -18.603 -36.438  19.127  1.00  0.00    -0.200 OA
BRANCH   7  10
HETATM   10  N3  UNL     1     -17.424 -38.603  18.239  1.00  0.00    -0.248 N 
HETATM   11  C13 UNL     1     -16.459 -37.833  17.559  1.00  0.00     0.264 C 
HETATM   12  O3  UNL     1     -16.654 -36.615  17.352  1.00  0.00    -0.270 OA
ATOM     13  H3  UNL     1     -17.262 -39.599  18.388  1.00  0.00     0.182 HD
BRANCH  11  14
HETATM   14  C14 UNL     1     -15.206 -38.457  17.087  1.00  0.00     0.303 C 
BRANCH  14  15
HETATM   15  N4  UNL     1     -15.521 -39.221  15.885  1.00  0.00    -0.064 N 
ATOM     16  H43 UNL     1     -16.424 -38.971  15.480  1.00  0.00     0.275 HD
ATOM     17  H42 UNL     1     -14.941 -38.964  15.086  1.00  0.00     0.275 HD
ATOM     18  H41 UNL     1     -15.453 -40.211  16.122  1.00  0.00     0.275 HD
ENDBRANCH  14  15
BRANCH  14  19
HETATM   19  C15 UNL     1     -14.195 -37.353  16.726  1.00  0.00     0.153 C 
HETATM   20  C16 UNL     1     -13.196 -37.283  17.852  1.00  0.00     0.042 C 
BRANCH  19  21
HETATM   21  O4  UNL     1     -13.577 -37.657  15.510  1.00  0.00    -0.393 OA
ATOM     22  H4  UNL     1     -13.869 -38.509  15.207  1.00  0.00     0.210 HD
ENDBRANCH  19  21
ENDBRANCH  14  19
ENDBRANCH  11  14
ENDBRANCH   7  10
ENDBRANCH   5   7
BRANCH   1  23
HETATM   23  C7  UNL     1     -19.892 -38.565  13.750  1.00  0.00    -0.024 A 
HETATM   24  C6  UNL     1     -20.714 -38.192  12.685  1.00  0.00     0.013 A 
HETATM   25  C5  UNL     1     -20.310 -38.376  11.361  1.00  0.00     0.018 A 
HETATM   26  C4  UNL     1     -19.085 -38.936  11.082  1.00  0.00     0.032 A 
HETATM   27  C3  UNL     1     -18.648 -39.133   9.770  1.00  0.00     0.130 A 
HETATM   28  C19 UNL     1     -18.252 -39.317  12.115  1.00  0.00     0.048 A 
HETATM   29  N1  UNL     1     -17.443 -39.680   9.541  1.00  0.00    -0.334 N 
HETATM   30  N2  UNL     1     -19.533 -38.723   8.744  1.00  0.00    -0.082 NA
HETATM   31  C2  UNL     1     -16.630 -40.052  10.556  1.00  0.00     0.078 A 
ATOM     32  H1  UNL     1     -17.133 -39.819   8.579  1.00  0.00     0.168 HD
HETATM   33  C1  UNL     1     -15.293 -40.664  10.297  1.00  0.00     0.089 C 
HETATM   34  N5  UNL     1     -17.057 -39.860  11.815  1.00  0.00    -0.345 N 
ATOM     35  H5  UNL     1     -16.445 -40.141  12.582  1.00  0.00     0.167 HD
HETATM   36  C18 UNL     1     -18.680 -39.119  13.410  1.00  0.00     0.042 A 
ENDBRANCH   1  23
TORSDOF 7
ENDMDL
