MODEL 5
REMARK VINA RESULT: -10.296198766      3.462      5.499
REMARK  7 active torsions:
REMARK  status: ('A' for Active; 'I' for Inactive)
REMARK    1  A    between atoms: C7_10  and  C8_11 
REMARK    2  A    between atoms: C12_15  and  S1_16 
REMARK    3  A    between atoms: S1_16  and  N3_19 
REMARK       I    between atoms: N3_19  and  C13_21 
REMARK    4  A    between atoms: C13_21  and  C14_23 
REMARK    5  A    between atoms: C14_23  and  N4_24 
REMARK    6  A    between atoms: C14_23  and  C15_28 
REMARK    7  A    between atoms: C15_28  and  O4_30 
ROOT
HETATM    1  C8  UNL     1     -19.613 -38.350  15.029  1.00  0.00    -0.024 A 
HETATM    2  C9  UNL     1     -20.908 -38.141  15.499  1.00  0.00     0.012 A 
HETATM    3  C10 UNL     1     -21.188 -37.911  16.809  1.00  0.00     0.002 A 
HETATM    4  C11 UNL     1     -20.184 -37.873  17.747  1.00  0.00     0.025 A 
HETATM    5  C12 UNL     1     -18.888 -38.078  17.306  1.00  0.00     0.080 A 
HETATM    6  C17 UNL     1     -18.611 -38.312  15.977  1.00  0.00     0.037 A 
ENDROOT
BRANCH   5   7
HETATM    7  S1  UNL     1     -17.547 -37.997  18.459  1.00  0.00     0.265 S 
HETATM    8  O1  UNL     1     -17.329 -39.278  19.173  1.00  0.00    -0.200 OA
HETATM    9  O2  UNL     1     -17.778 -36.906  19.443  1.00  0.00    -0.200 OA
BRANCH   7  10
HETATM   10  N3  UNL     1     -16.164 -37.552  17.481  1.00  0.00    -0.248 N 
HETATM   11  C13 UNL     1     -14.888 -37.413  18.065  1.00  0.00     0.264 C 
HETATM   12  O3  UNL     1     -14.733 -37.588  19.294  1.00  0.00    -0.270 OA
ATOM     13  H3  UNL     1     -16.283 -37.391  16.480  1.00  0.00     0.182 HD
BRANCH  11  14
HETATM   14  C14 UNL     1     -13.722 -37.062  17.229  1.00  0.00     0.303 C 
BRANCH  14  15
HETATM   15  N4  UNL     1     -12.570 -36.932  18.115  1.00  0.00    -0.064 N 
ATOM     16  H43 UNL     1     -12.799 -36.483  19.002  1.00  0.00     0.275 HD
ATOM     17  H42 UNL     1     -12.257 -37.826  18.494  1.00  0.00     0.275 HD
ATOM     18  H41 UNL     1     -11.839 -36.443  17.599  1.00  0.00     0.275 HD
ENDBRANCH  14  15
BRANCH  14  19
HETATM   19  C15 UNL     1     -13.456 -38.201  16.227  1.00  0.00     0.153 C 
HETATM   20  C16 UNL     1     -12.008 -38.105  15.822  1.00  0.00     0.042 C 
BRANCH  19  21
HETATM   21  O4  UNL     1     -13.742 -39.432  16.825  1.00  0.00    -0.393 OA
ATOM     22  H4  UNL     1     -14.543 -39.788  16.458  1.00  0.00     0.210 HD
ENDBRANCH  19  21
ENDBRANCH  14  19
ENDBRANCH  11  14
ENDBRANCH   7  10
ENDBRANCH   5   7
BRANCH   1  23
HETATM   23  C7  UNL     1     -19.399 -38.558  13.608  1.00  0.00    -0.024 A 
HETATM   24  C6  UNL     1     -20.410 -38.204  12.713  1.00  0.00     0.013 A 
HETATM   25  C5  UNL     1     -20.242 -38.357  11.335  1.00  0.00     0.018 A 
HETATM   26  C4  UNL     1     -19.067 -38.866  10.833  1.00  0.00     0.032 A 
HETATM   27  C3  UNL     1     -18.863 -39.031   9.461  1.00  0.00     0.130 A 
HETATM   28  C19 UNL     1     -18.050 -39.227  11.695  1.00  0.00     0.048 A 
HETATM   29  N1  UNL     1     -17.699 -39.529   9.012  1.00  0.00    -0.334 N 
HETATM   30  N2  UNL     1     -19.931 -38.644   8.615  1.00  0.00    -0.082 NA
HETATM   31  C2  UNL     1     -16.706 -39.880   9.860  1.00  0.00     0.078 A 
ATOM     32  H1  UNL     1     -17.561 -39.644   8.007  1.00  0.00     0.168 HD
HETATM   33  C1  UNL     1     -15.415 -40.438   9.356  1.00  0.00     0.089 C 
HETATM   34  N5  UNL     1     -16.909 -39.720  11.177  1.00  0.00    -0.345 N 
ATOM     35  H5  UNL     1     -16.160 -39.985  11.818  1.00  0.00     0.167 HD
HETATM   36  C18 UNL     1     -18.247 -39.060  13.048  1.00  0.00     0.042 A 
ENDBRANCH   1  23
TORSDOF 7
ENDMDL
