MODEL 1
REMARK VINA RESULT: -12.358746329      0.000      0.000
REMARK  7 active torsions:
REMARK  status: ('A' for Active; 'I' for Inactive)
REMARK    1  A    between atoms: C7_10  and  C8_11 
REMARK    2  A    between atoms: C12_15  and  S1_16 
REMARK    3  A    between atoms: S1_16  and  N3_19 
REMARK       I    between atoms: N3_19  and  C13_21 
REMARK    4  A    between atoms: C13_21  and  C14_23 
REMARK    5  A    between atoms: C14_23  and  N4_24 
REMARK    6  A    between atoms: C14_23  and  C15_28 
REMARK    7  A    between atoms: C15_28  and  O4_30 
ROOT
HETATM    1  C8  UNL     1     -16.835 -37.503  17.899  1.00  0.00    -0.024 A 
HETATM    2  C9  UNL     1     -16.718 -37.171  19.248  1.00  0.00     0.012 A 
HETATM    3  C10 UNL     1     -15.521 -36.947  19.850  1.00  0.00     0.002 A 
HETATM    4  C11 UNL     1     -14.347 -37.040  19.139  1.00  0.00     0.025 A 
HETATM    5  C12 UNL     1     -14.436 -37.369  17.798  1.00  0.00     0.080 A 
HETATM    6  C17 UNL     1     -15.653 -37.596  17.194  1.00  0.00     0.037 A 
ENDROOT
BRANCH   5   7
HETATM    7  S1  UNL     1     -12.964 -37.460  16.819  1.00  0.00     0.265 S 
HETATM    8  O1  UNL     1     -13.212 -37.181  15.384  1.00  0.00    -0.200 OA
HETATM    9  O2  UNL     1     -12.326 -38.795  16.970  1.00  0.00    -0.200 OA
BRANCH   7  10
HETATM   10  N3  UNL     1     -11.895 -36.273  17.539  1.00  0.00    -0.248 N 
HETATM   11  C13 UNL     1     -12.070 -34.899  17.276  1.00  0.00     0.264 C 
HETATM   12  O3  UNL     1     -12.980 -34.512  16.510  1.00  0.00    -0.270 OA
ATOM     13  H3  UNL     1     -11.139 -36.579  18.152  1.00  0.00     0.182 HD
BRANCH  11  14
HETATM   14  C14 UNL     1     -11.181 -33.902  17.906  1.00  0.00     0.303 C 
BRANCH  14  15
HETATM   15  N4  UNL     1     -11.756 -32.583  17.664  1.00  0.00    -0.064 N 
ATOM     16  H43 UNL     1     -11.533 -32.216  16.739  1.00  0.00     0.275 HD
ATOM     17  H42 UNL     1     -12.770 -32.606  17.558  1.00  0.00     0.275 HD
ATOM     18  H41 UNL     1     -11.450 -31.970  18.419  1.00  0.00     0.275 HD
ENDBRANCH  14  15
BRANCH  14  19
HETATM   19  C15 UNL     1     -11.132 -34.155  19.425  1.00  0.00     0.153 C 
HETATM   20  C16 UNL     1     -12.557 -34.265  19.901  1.00  0.00     0.042 C 
BRANCH  19  21
HETATM   21  O4  UNL     1     -10.412 -35.325  19.685  1.00  0.00    -0.393 OA
ATOM     22  H4  UNL     1     -10.221 -35.383  20.614  1.00  0.00     0.210 HD
ENDBRANCH  19  21
ENDBRANCH  14  19
ENDBRANCH  11  14
ENDBRANCH   7  10
ENDBRANCH   5   7
BRANCH   1  23
HETATM   23  C7  UNL     1     -18.156 -37.696  17.328  1.00  0.00    -0.024 A 
HETATM   24  C6  UNL     1     -19.275 -37.568  18.153  1.00  0.00     0.013 A 
HETATM   25  C5  UNL     1     -20.568 -37.714  17.646  1.00  0.00     0.018 A 
HETATM   26  C4  UNL     1     -20.761 -37.993  16.312  1.00  0.00     0.032 A 
HETATM   27  C3  UNL     1     -22.040 -38.143  15.770  1.00  0.00     0.130 A 
HETATM   28  C19 UNL     1     -19.673 -38.127  15.473  1.00  0.00     0.048 A 
HETATM   29  N1  UNL     1     -22.185 -38.411  14.462  1.00  0.00    -0.334 N 
HETATM   30  N2  UNL     1     -23.125 -37.992  16.667  1.00  0.00    -0.082 NA
HETATM   31  C2  UNL     1     -21.116 -38.543  13.644  1.00  0.00     0.078 A 
ATOM     32  H1  UNL     1     -23.124 -38.519  14.076  1.00  0.00     0.168 HD
HETATM   33  C1  UNL     1     -21.283 -38.845  12.191  1.00  0.00     0.089 C 
HETATM   34  N5  UNL     1     -19.891 -38.397  14.171  1.00  0.00    -0.345 N 
ATOM     35  H5  UNL     1     -19.083 -38.495  13.555  1.00  0.00     0.167 HD
HETATM   36  C18 UNL     1     -18.412 -37.974  16.005  1.00  0.00     0.042 A 
ENDBRANCH   1  23
TORSDOF 7
ENDMDL
