MODEL 7
REMARK VINA RESULT: -8.773957997      6.446      9.984
REMARK  7 active torsions:
REMARK  status: ('A' for Active; 'I' for Inactive)
REMARK    1  A    between atoms: C2_2  and  O1_3 
REMARK    2  A    between atoms: C2_2  and  C3_5 
REMARK    3  A    between atoms: C3_5  and  N1_6 
REMARK    4  A    between atoms: C3_5  and  C4_10 
REMARK       I    between atoms: C4_10  and  N2_12 
REMARK    5  A    between atoms: N2_12  and  S1_14 
REMARK    6  A    between atoms: S1_14  and  C5_17 
REMARK    7  A    between atoms: C9_21  and  C10_22 
ROOT
HETATM    1  C5  UNL     1      16.128 -40.577 -16.196  1.00  0.00     0.080 A 
HETATM    2  C6  UNL     1      16.509 -41.892 -16.420  1.00  0.00     0.025 A 
HETATM    3  C7  UNL     1      15.826 -42.894 -15.723  1.00  0.00     0.002 A 
HETATM    4  C8  UNL     1      14.810 -42.576 -14.845  1.00  0.00     0.012 A 
HETATM    5  C9  UNL     1      14.424 -41.295 -14.613  1.00  0.00    -0.024 A 
HETATM    6  C18 UNL     1      15.109 -40.297 -15.311  1.00  0.00     0.037 A 
ENDROOT
BRANCH   1   7
HETATM    7  S1  UNL     1      16.937 -39.264 -17.031  1.00  0.00     0.265 S 
HETATM    8  O3  UNL     1      16.020 -38.056 -16.907  1.00  0.00    -0.200 OA
HETATM    9  O4  UNL     1      16.970 -39.608 -18.494  1.00  0.00    -0.200 OA
BRANCH   7  10
HETATM   10  N2  UNL     1      18.473 -38.911 -16.398  1.00  0.00    -0.248 N 
HETATM   11  C4  UNL     1      19.320 -37.868 -16.863  1.00  0.00     0.264 C 
HETATM   12  O2  UNL     1      18.883 -37.169 -17.811  1.00  0.00    -0.270 OA
ATOM     13  H2  UNL     1      18.813 -39.489 -15.629  1.00  0.00     0.182 HD
BRANCH  11  14
HETATM   14  C3  UNL     1      20.662 -37.620 -16.252  1.00  0.00     0.303 C 
BRANCH  14  15
HETATM   15  C2  UNL     1      21.670 -37.459 -17.364  1.00  0.00     0.153 C 
HETATM   16  C1  UNL     1      23.059 -37.919 -16.933  1.00  0.00     0.042 C 
BRANCH  15  17
HETATM   17  O1  UNL     1      21.262 -38.349 -18.386  1.00  0.00    -0.393 OA
ATOM     18  H1  UNL     1      21.380 -37.880 -19.204  1.00  0.00     0.210 HD
ENDBRANCH  15  17
ENDBRANCH  14  15
BRANCH  14  19
HETATM   19  N1  UNL     1      21.083 -38.732 -15.437  1.00  0.00    -0.064 N 
ATOM     20  H13 UNL     1      21.195 -38.483 -14.454  1.00  0.00     0.275 HD
ATOM     21  H12 UNL     1      20.353 -39.434 -15.316  1.00  0.00     0.275 HD
ATOM     22  H11 UNL     1      21.936 -39.113 -15.849  1.00  0.00     0.275 HD
ENDBRANCH  14  19
ENDBRANCH  11  14
ENDBRANCH   7  10
ENDBRANCH   1   7
BRANCH   5  23
HETATM   23  C10 UNL     1      13.361 -40.953 -13.694  1.00  0.00    -0.024 A 
HETATM   24  C11 UNL     1      12.865 -39.665 -13.633  1.00  0.00     0.013 A 
HETATM   25  C12 UNL     1      11.840 -39.315 -12.752  1.00  0.00     0.018 A 
HETATM   26  C13 UNL     1      11.303 -40.263 -11.923  1.00  0.00     0.032 A 
HETATM   27  C14 UNL     1      10.283 -39.917 -11.046  1.00  0.00     0.131 A 
HETATM   28  C16 UNL     1      11.791 -41.542 -11.977  1.00  0.00     0.048 A 
HETATM   29  N3  UNL     1       9.792 -38.591 -11.001  1.00  0.00    -0.082 NA
HETATM   30  N4  UNL     1       9.791 -40.880 -10.253  1.00  0.00    -0.320 N 
HETATM   31  C15 UNL     1      10.256 -42.129 -10.296  1.00  0.00     0.180 A 
ATOM     32  H4  UNL     1       9.042 -40.652  -9.599  1.00  0.00     0.169 HD
HETATM   33 CL1  UNL     1       9.598 -43.393  -9.244  1.00  0.00    -0.045 Cl
HETATM   34  N5  UNL     1      11.243 -42.441 -11.153  1.00  0.00    -0.332 N 
ATOM     35  H5  UNL     1      11.587 -43.400 -11.174  1.00  0.00     0.168 HD
HETATM   36  C17 UNL     1      12.819 -41.888 -12.863  1.00  0.00     0.042 A 
ENDBRANCH   5  23
TORSDOF 7
ENDMDL
