MODEL 9
REMARK VINA RESULT: -8.724379484      6.128      8.358
REMARK  7 active torsions:
REMARK  status: ('A' for Active; 'I' for Inactive)
REMARK    1  A    between atoms: C2_2  and  O1_3 
REMARK    2  A    between atoms: C2_2  and  C3_5 
REMARK    3  A    between atoms: C3_5  and  N1_6 
REMARK    4  A    between atoms: C3_5  and  C4_10 
REMARK       I    between atoms: C4_10  and  N2_12 
REMARK    5  A    between atoms: N2_12  and  S1_14 
REMARK    6  A    between atoms: S1_14  and  C5_17 
REMARK    7  A    between atoms: C9_21  and  C10_22 
ROOT
HETATM    1  C5  UNL     1      15.457 -39.289 -16.368  1.00  0.00     0.080 A 
HETATM    2  C6  UNL     1      16.349 -40.334 -16.557  1.00  0.00     0.025 A 
HETATM    3  C7  UNL     1      16.196 -41.472 -15.756  1.00  0.00     0.002 A 
HETATM    4  C8  UNL     1      15.190 -41.542 -14.815  1.00  0.00     0.012 A 
HETATM    5  C9  UNL     1      14.309 -40.529 -14.616  1.00  0.00    -0.024 A 
HETATM    6  C18 UNL     1      14.464 -39.395 -15.417  1.00  0.00     0.037 A 
ENDROOT
BRANCH   1   7
HETATM    7  S1  UNL     1      15.584 -37.829 -17.331  1.00  0.00     0.265 S 
HETATM    8  O3  UNL     1      16.595 -38.133 -18.426  1.00  0.00    -0.200 OA
HETATM    9  O4  UNL     1      16.215 -36.771 -16.469  1.00  0.00    -0.200 OA
BRANCH   7  10
HETATM   10  N2  UNL     1      14.104 -37.339 -18.006  1.00  0.00    -0.248 N 
HETATM   11  C4  UNL     1      13.161 -36.493 -17.361  1.00  0.00     0.264 C 
HETATM   12  O2  UNL     1      13.461 -36.091 -16.209  1.00  0.00    -0.270 OA
ATOM     13  H2  UNL     1      13.876 -37.676 -18.941  1.00  0.00     0.182 HD
BRANCH  11  14
HETATM   14  C3  UNL     1      11.877 -36.106 -18.023  1.00  0.00     0.303 C 
BRANCH  14  15
HETATM   15  C2  UNL     1      12.180 -35.088 -19.094  1.00  0.00     0.153 C 
HETATM   16  C1  UNL     1      10.942 -34.759 -19.922  1.00  0.00     0.042 C 
BRANCH  15  17
HETATM   17  O1  UNL     1      12.521 -33.897 -18.409  1.00  0.00    -0.393 OA
ATOM     18  H1  UNL     1      11.843 -33.766 -17.757  1.00  0.00     0.210 HD
ENDBRANCH  15  17
ENDBRANCH  14  15
BRANCH  14  19
HETATM   19  N1  UNL     1      10.965 -35.499 -17.086  1.00  0.00    -0.064 N 
ATOM     20  H13 UNL     1      10.174 -36.100 -16.857  1.00  0.00     0.275 HD
ATOM     21  H12 UNL     1      11.353 -35.423 -16.146  1.00  0.00     0.275 HD
ATOM     22  H11 UNL     1      10.679 -34.598 -17.472  1.00  0.00     0.275 HD
ENDBRANCH  14  19
ENDBRANCH  11  14
ENDBRANCH   7  10
ENDBRANCH   1   7
BRANCH   5  23
HETATM   23  C10 UNL     1      13.252 -40.594 -13.631  1.00  0.00    -0.024 A 
HETATM   24  C11 UNL     1      12.656 -39.442 -13.154  1.00  0.00     0.013 A 
HETATM   25  C12 UNL     1      11.634 -39.484 -12.202  1.00  0.00     0.018 A 
HETATM   26  C13 UNL     1      11.203 -40.691 -11.721  1.00  0.00     0.032 A 
HETATM   27  C14 UNL     1      10.188 -40.735 -10.775  1.00  0.00     0.131 A 
HETATM   28  C16 UNL     1      11.790 -41.838 -12.189  1.00  0.00     0.048 A 
HETATM   29  N3  UNL     1       9.593 -39.542 -10.302  1.00  0.00    -0.082 NA
HETATM   30  N4  UNL     1       9.801 -41.941 -10.334  1.00  0.00    -0.320 N 
HETATM   31  C15 UNL     1      10.363 -43.065 -10.780  1.00  0.00     0.180 A 
ATOM     32  H4  UNL     1       9.057 -42.001  -9.638  1.00  0.00     0.169 HD
HETATM   33 CL1  UNL     1       9.843 -44.652 -10.190  1.00  0.00    -0.045 Cl
HETATM   34  N5  UNL     1      11.343 -42.998 -11.696  1.00  0.00    -0.332 N 
ATOM     35  H5  UNL     1      11.763 -43.866 -12.028  1.00  0.00     0.168 HD
HETATM   36  C17 UNL     1      12.813 -41.790 -13.143  1.00  0.00     0.042 A 
ENDBRANCH   5  23
TORSDOF 7
ENDMDL
