MODEL 5
REMARK VINA RESULT: -8.795813706      5.651      6.897
REMARK  7 active torsions:
REMARK  status: ('A' for Active; 'I' for Inactive)
REMARK    1  A    between atoms: C2_2  and  O1_3 
REMARK    2  A    between atoms: C2_2  and  C3_5 
REMARK    3  A    between atoms: C3_5  and  N1_6 
REMARK    4  A    between atoms: C3_5  and  C4_10 
REMARK       I    between atoms: C4_10  and  N2_12 
REMARK    5  A    between atoms: N2_12  and  S1_14 
REMARK    6  A    between atoms: S1_14  and  C5_17 
REMARK    7  A    between atoms: C9_21  and  C10_22 
ROOT
HETATM    1  C5  UNL     1      13.507 -40.952 -13.423  1.00  0.00     0.080 A 
HETATM    2  C6  UNL     1      13.686 -42.316 -13.241  1.00  0.00     0.025 A 
HETATM    3  C7  UNL     1      14.807 -42.909 -13.831  1.00  0.00     0.002 A 
HETATM    4  C8  UNL     1      15.700 -42.155 -14.564  1.00  0.00     0.012 A 
HETATM    5  C9  UNL     1      15.542 -40.820 -14.752  1.00  0.00    -0.024 A 
HETATM    6  C18 UNL     1      14.421 -40.232 -14.163  1.00  0.00     0.037 A 
ENDROOT
BRANCH   1   7
HETATM    7  S1  UNL     1      12.125 -40.136 -12.717  1.00  0.00     0.265 S 
HETATM    8  O3  UNL     1      10.959 -40.388 -13.662  1.00  0.00    -0.200 OA
HETATM    9  O4  UNL     1      12.391 -38.658 -12.778  1.00  0.00    -0.200 OA
BRANCH   7  10
HETATM   10  N2  UNL     1      11.751 -40.679 -11.152  1.00  0.00    -0.248 N 
HETATM   11  C4  UNL     1      10.647 -40.225 -10.380  1.00  0.00     0.264 C 
HETATM   12  O2  UNL     1       9.907 -39.359 -10.911  1.00  0.00    -0.270 OA
ATOM     13  H2  UNL     1      12.362 -41.382 -10.736  1.00  0.00     0.182 HD
BRANCH  11  14
HETATM   14  C3  UNL     1      10.383 -40.753  -9.006  1.00  0.00     0.303 C 
BRANCH  14  15
HETATM   15  C2  UNL     1       9.637 -42.058  -9.131  1.00  0.00     0.153 C 
HETATM   16  C1  UNL     1       8.367 -42.061  -8.286  1.00  0.00     0.042 C 
BRANCH  15  17
HETATM   17  O1  UNL     1       9.209 -42.131 -10.478  1.00  0.00    -0.393 OA
ATOM     18  H1  UNL     1       9.792 -41.564 -10.970  1.00  0.00     0.210 HD
ENDBRANCH  15  17
ENDBRANCH  14  15
BRANCH  14  19
HETATM   19  N1  UNL     1       9.560 -39.848  -8.244  1.00  0.00    -0.064 N 
ATOM     20  H13 UNL     1      10.057 -39.424  -7.461  1.00  0.00     0.275 HD
ATOM     21  H12 UNL     1       9.344 -38.987  -8.748  1.00  0.00     0.275 HD
ATOM     22  H11 UNL     1       8.725 -40.358  -7.954  1.00  0.00     0.275 HD
ENDBRANCH  14  19
ENDBRANCH  11  14
ENDBRANCH   7  10
ENDBRANCH   1   7
BRANCH   5  23
HETATM   23  C10 UNL     1      16.472 -40.023 -15.520  1.00  0.00    -0.024 A 
HETATM   24  C11 UNL     1      16.102 -39.476 -16.734  1.00  0.00     0.013 A 
HETATM   25  C12 UNL     1      16.987 -38.703 -17.491  1.00  0.00     0.018 A 
HETATM   26  C13 UNL     1      18.255 -38.475 -17.029  1.00  0.00     0.032 A 
HETATM   27  C14 UNL     1      19.136 -37.707 -17.780  1.00  0.00     0.131 A 
HETATM   28  C16 UNL     1      18.629 -39.015 -15.827  1.00  0.00     0.048 A 
HETATM   29  N3  UNL     1      18.734 -37.158 -19.020  1.00  0.00    -0.082 NA
HETATM   30  N4  UNL     1      20.368 -37.512 -17.287  1.00  0.00    -0.320 N 
HETATM   31  C15 UNL     1      20.745 -38.031 -16.118  1.00  0.00     0.180 A 
ATOM     32  H4  UNL     1      21.034 -36.953 -17.819  1.00  0.00     0.169 HD
HETATM   33 CL1  UNL     1      22.374 -37.767 -15.476  1.00  0.00    -0.045 Cl
HETATM   34  N5  UNL     1      19.875 -38.770 -15.409  1.00  0.00    -0.332 N 
ATOM     35  H5  UNL     1      20.178 -39.160 -14.516  1.00  0.00     0.168 HD
HETATM   36  C17 UNL     1      17.739 -39.787 -15.072  1.00  0.00     0.042 A 
ENDBRANCH   5  23
TORSDOF 7
ENDMDL
