MODEL 1
REMARK VINA RESULT: -11.342457882      0.000      0.000
REMARK  7 active torsions:
REMARK  status: ('A' for Active; 'I' for Inactive)
REMARK    1  A    between atoms: C2_2  and  O1_3 
REMARK    2  A    between atoms: C2_2  and  C3_5 
REMARK    3  A    between atoms: C3_5  and  N1_6 
REMARK    4  A    between atoms: C3_5  and  C4_10 
REMARK       I    between atoms: C4_10  and  N2_12 
REMARK    5  A    between atoms: N2_12  and  S1_14 
REMARK    6  A    between atoms: S1_14  and  C5_17 
REMARK    7  A    between atoms: C9_21  and  C10_22 
ROOT
HETATM    1  C5  UNL     1      14.612 -37.522 -17.761  1.00  0.00     0.080 A 
HETATM    2  C6  UNL     1      14.496 -37.089 -19.073  1.00  0.00     0.025 A 
HETATM    3  C7  UNL     1      15.676 -36.841 -19.783  1.00  0.00     0.002 A 
HETATM    4  C8  UNL     1      16.908 -37.024 -19.189  1.00  0.00     0.012 A 
HETATM    5  C9  UNL     1      17.041 -37.447 -17.906  1.00  0.00    -0.024 A 
HETATM    6  C18 UNL     1      15.861 -37.693 -17.201  1.00  0.00     0.037 A 
ENDROOT
BRANCH   1   7
HETATM    7  S1  UNL     1      13.180 -37.852 -16.805  1.00  0.00     0.265 S 
HETATM    8  O3  UNL     1      13.587 -37.656 -15.352  1.00  0.00    -0.200 OA
HETATM    9  O4  UNL     1      12.865 -39.315 -16.950  1.00  0.00    -0.200 OA
BRANCH   7  10
HETATM   10  N2  UNL     1      11.866 -36.850 -17.196  1.00  0.00    -0.248 N 
HETATM   11  C4  UNL     1      11.850 -35.437 -17.037  1.00  0.00     0.264 C 
HETATM   12  O2  UNL     1      12.893 -34.912 -16.572  1.00  0.00    -0.270 OA
ATOM     13  H2  UNL     1      11.027 -37.292 -17.571  1.00  0.00     0.182 HD
BRANCH  11  14
HETATM   14  C3  UNL     1      10.652 -34.621 -17.405  1.00  0.00     0.303 C 
BRANCH  14  15
HETATM   15  C2  UNL     1      10.948 -33.892 -18.692  1.00  0.00     0.153 C 
HETATM   16  C1  UNL     1      10.732 -34.787 -19.907  1.00  0.00     0.042 C 
BRANCH  15  17
HETATM   17  O1  UNL     1       9.978 -32.865 -18.785  1.00  0.00    -0.393 OA
ATOM     18  H1  UNL     1       9.953 -32.449 -17.932  1.00  0.00     0.210 HD
ENDBRANCH  15  17
ENDBRANCH  14  15
BRANCH  14  19
HETATM   19  N1  UNL     1      10.360 -33.632 -16.397  1.00  0.00    -0.064 N 
ATOM     20  H13 UNL     1      11.169 -33.402 -15.822  1.00  0.00     0.275 HD
ATOM     21  H12 UNL     1      10.203 -32.703 -16.788  1.00  0.00     0.275 HD
ATOM     22  H11 UNL     1       9.568 -33.972 -15.850  1.00  0.00     0.275 HD
ENDBRANCH  14  19
ENDBRANCH  11  14
ENDBRANCH   7  10
ENDBRANCH   1   7
BRANCH   5  23
HETATM   23  C10 UNL     1      18.328 -37.641 -17.276  1.00  0.00    -0.024 A 
HETATM   24  C11 UNL     1      18.418 -37.979 -15.939  1.00  0.00     0.013 A 
HETATM   25  C12 UNL     1      19.652 -38.170 -15.312  1.00  0.00     0.018 A 
HETATM   26  C13 UNL     1      20.808 -38.021 -16.030  1.00  0.00     0.032 A 
HETATM   27  C14 UNL     1      22.036 -38.211 -15.408  1.00  0.00     0.131 A 
HETATM   28  C16 UNL     1      20.727 -37.685 -17.356  1.00  0.00     0.048 A 
HETATM   29  N3  UNL     1      22.103 -38.556 -14.038  1.00  0.00    -0.082 NA
HETATM   30  N4  UNL     1      23.141 -38.053 -16.153  1.00  0.00    -0.320 N 
HETATM   31  C15 UNL     1      23.076 -37.726 -17.444  1.00  0.00     0.180 A 
ATOM     32  H4  UNL     1      24.055 -38.185 -15.720  1.00  0.00     0.169 HD
HETATM   33 CL1  UNL     1      24.541 -37.521 -18.417  1.00  0.00    -0.045 Cl
HETATM   34  N5  UNL     1      21.877 -37.549 -18.023  1.00  0.00    -0.332 N 
ATOM     35  H5  UNL     1      21.843 -37.300 -19.012  1.00  0.00     0.168 HD
HETATM   36  C17 UNL     1      19.488 -37.496 -17.979  1.00  0.00     0.042 A 
ENDBRANCH   5  23
TORSDOF 7
ENDMDL
