MODEL 1
REMARK VINA RESULT: -10.277647191      0.000      0.000
REMARK  7 active torsions:
REMARK  status: ('A' for Active; 'I' for Inactive)
REMARK    1  A    between atoms: C2_2  and  O1_3 
REMARK    2  A    between atoms: C2_2  and  C3_5 
REMARK    3  A    between atoms: C3_5  and  N1_6 
REMARK    4  A    between atoms: C3_5  and  C4_10 
REMARK       I    between atoms: C4_10  and  N2_12 
REMARK    5  A    between atoms: N2_12  and  S1_14 
REMARK    6  A    between atoms: S1_14  and  C5_17 
REMARK    7  A    between atoms: C9_21  and  C10_22 
ROOT
HETATM    1  C5  UNL     1       4.780 -26.722 -15.942  1.00  0.00     0.080 A 
HETATM    2  C6  UNL     1       5.392 -25.833 -16.811  1.00  0.00     0.025 A 
HETATM    3  C7  UNL     1       5.299 -25.958 -18.171  1.00  0.00     0.002 A 
HETATM    4  C8  UNL     1       4.569 -27.014 -18.738  1.00  0.00     0.012 A 
HETATM    5  C9  UNL     1       3.973 -27.879 -17.854  1.00  0.00    -0.024 A 
HETATM    6  C17 UNL     1       4.069 -27.744 -16.479  1.00  0.00     0.037 A 
ENDROOT
BRANCH   1   7
HETATM    7  S1  UNL     1       5.073 -26.489 -14.221  1.00  0.00     0.265 S 
HETATM    8  O3  UNL     1       4.478 -25.230 -13.705  1.00  0.00    -0.200 OA
HETATM    9  O4  UNL     1       4.434 -27.700 -13.559  1.00  0.00    -0.200 OA
BRANCH   7  10
HETATM   10  N2  UNL     1       6.775 -26.584 -13.951  1.00  0.00    -0.248 N 
HETATM   11  C4  UNL     1       7.407 -26.711 -12.706  1.00  0.00     0.264 C 
HETATM   12  O2  UNL     1       6.702 -26.775 -11.669  1.00  0.00    -0.270 OA
ATOM     13  H2  UNL     1       7.377 -26.544 -14.774  1.00  0.00     0.182 HD
BRANCH  11  14
HETATM   14  C3  UNL     1       8.905 -26.773 -12.548  1.00  0.00     0.303 C 
BRANCH  14  15
HETATM   15  C2  UNL     1       9.630 -25.692 -13.262  1.00  0.00     0.153 C 
HETATM   16  C1  UNL     1       9.642 -26.101 -14.749  1.00  0.00     0.042 C 
BRANCH  15  17
HETATM   17  O1  UNL     1       9.023 -24.467 -13.101  1.00  0.00    -0.393 OA
ATOM     18  H1  UNL     1       9.467 -23.959 -12.433  1.00  0.00     0.210 HD
ENDBRANCH  15  17
ENDBRANCH  14  15
BRANCH  14  19
HETATM   19  N1  UNL     1       9.369 -28.092 -12.811  1.00  0.00    -0.064 N 
ATOM     20  H13 UNL     1      10.353 -28.070 -13.081  1.00  0.00     0.275 HD
ATOM     21  H12 UNL     1       9.433 -28.621 -11.942  1.00  0.00     0.275 HD
ATOM     22  H11 UNL     1       8.828 -28.614 -13.500  1.00  0.00     0.275 HD
ENDBRANCH  14  19
ENDBRANCH  11  14
ENDBRANCH   7  10
ENDBRANCH   1   7
BRANCH   5  23
HETATM   23  C10 UNL     1       3.252 -29.032 -18.351  1.00  0.00    -0.025 A 
HETATM   24  C11 UNL     1       3.375 -29.521 -19.630  1.00  0.00     0.014 A 
HETATM   25  C12 UNL     1       2.635 -30.591 -20.132  1.00  0.00     0.033 A 
HETATM   26  C13 UNL     1       1.704 -31.215 -19.292  1.00  0.00     0.059 A 
HETATM   27  N3  UNL     1       0.834 -32.241 -19.459  1.00  0.00    -0.300 N 
HETATM   28  C15 UNL     1       1.564 -30.745 -18.011  1.00  0.00     0.010 A 
HETATM   29  N4  UNL     1       0.154 -32.442 -18.352  1.00  0.00    -0.311 N 
ATOM     30  H3  UNL     1       0.724 -32.779 -20.319  1.00  0.00     0.187 HD
HETATM   31  C14 UNL     1       0.572 -31.552 -17.450  1.00  0.00     0.120 A 
ATOM     32  H4  UNL     1      -0.565 -33.151 -18.209  1.00  0.00     0.186 HD
HETATM   33  C16 UNL     1       2.307 -29.691 -17.534  1.00  0.00     0.027 A 
ENDBRANCH   5  23
TORSDOF 7
ENDMDL
