MODEL 10
REMARK VINA RESULT: -8.957085861      4.203      5.915
REMARK  7 active torsions:
REMARK  status: ('A' for Active; 'I' for Inactive)
REMARK    1  A    between atoms: C2_2  and  O1_3 
REMARK    2  A    between atoms: C2_2  and  C3_5 
REMARK    3  A    between atoms: C3_5  and  N1_6 
REMARK    4  A    between atoms: C3_5  and  C4_10 
REMARK       I    between atoms: C4_10  and  N2_12 
REMARK    5  A    between atoms: N2_12  and  S1_14 
REMARK    6  A    between atoms: S1_14  and  C5_17 
REMARK    7  A    between atoms: C9_21  and  C10_22 
ROOT
HETATM    1  C5  UNL     1       4.772 -25.614 -15.543  1.00  0.00     0.080 A 
HETATM    2  C6  UNL     1       5.254 -26.222 -16.691  1.00  0.00     0.025 A 
HETATM    3  C7  UNL     1       4.969 -25.749 -17.943  1.00  0.00     0.002 A 
HETATM    4  C8  UNL     1       4.161 -24.614 -18.106  1.00  0.00     0.012 A 
HETATM    5  C9  UNL     1       3.698 -24.032 -16.951  1.00  0.00    -0.024 A 
HETATM    6  C17 UNL     1       3.994 -24.514 -15.688  1.00  0.00     0.037 A 
ENDROOT
BRANCH   1   7
HETATM    7  S1  UNL     1       5.142 -26.397 -14.008  1.00  0.00     0.265 S 
HETATM    8  O3  UNL     1       4.430 -25.774 -12.863  1.00  0.00    -0.200 OA
HETATM    9  O4  UNL     1       4.698 -27.839 -14.200  1.00  0.00    -0.200 OA
BRANCH   7  10
HETATM   10  N2  UNL     1       6.856 -26.400 -13.810  1.00  0.00    -0.248 N 
HETATM   11  C4  UNL     1       7.551 -26.772 -12.650  1.00  0.00     0.264 C 
HETATM   12  O2  UNL     1       6.900 -27.154 -11.646  1.00  0.00    -0.270 OA
ATOM     13  H2  UNL     1       7.415 -26.103 -14.610  1.00  0.00     0.182 HD
BRANCH  11  14
HETATM   14  C3  UNL     1       9.055 -26.734 -12.547  1.00  0.00     0.303 C 
BRANCH  14  15
HETATM   15  C2  UNL     1       9.685 -25.650 -13.341  1.00  0.00     0.153 C 
HETATM   16  C1  UNL     1       9.582 -26.091 -14.816  1.00  0.00     0.042 C 
BRANCH  15  17
HETATM   17  O1  UNL     1       9.057 -24.439 -13.153  1.00  0.00    -0.393 OA
ATOM     18  H1  UNL     1       9.489 -23.942 -12.468  1.00  0.00     0.210 HD
ENDBRANCH  15  17
ENDBRANCH  14  15
BRANCH  14  19
HETATM   19  N1  UNL     1       9.591 -28.034 -12.761  1.00  0.00    -0.064 N 
ATOM     20  H13 UNL     1      10.357 -27.991 -13.434  1.00  0.00     0.275 HD
ATOM     21  H12 UNL     1      10.098 -28.346 -11.933  1.00  0.00     0.275 HD
ATOM     22  H11 UNL     1       8.915 -28.743 -13.045  1.00  0.00     0.275 HD
ENDBRANCH  14  19
ENDBRANCH  11  14
ENDBRANCH   7  10
ENDBRANCH   1   7
BRANCH   5  23
HETATM   23  C10 UNL     1       2.807 -22.892 -17.027  1.00  0.00    -0.025 A 
HETATM   24  C11 UNL     1       3.166 -21.672 -17.549  1.00  0.00     0.014 A 
HETATM   25  C12 UNL     1       2.331 -20.554 -17.564  1.00  0.00     0.033 A 
HETATM   26  C13 UNL     1       1.047 -20.668 -17.017  1.00  0.00     0.059 A 
HETATM   27  N3  UNL     1       0.017 -19.801 -16.860  1.00  0.00    -0.300 N 
HETATM   28  C15 UNL     1       0.667 -21.877 -16.492  1.00  0.00     0.010 A 
HETATM   29  N4  UNL     1      -0.990 -20.398 -16.263  1.00  0.00    -0.311 N 
ATOM     30  H3  UNL     1       0.023 -18.826 -17.161  1.00  0.00     0.187 HD
HETATM   31  C14 UNL     1      -0.632 -21.662 -16.026  1.00  0.00     0.120 A 
ATOM     32  H4  UNL     1      -1.886 -19.972 -16.025  1.00  0.00     0.186 HD
HETATM   33  C16 UNL     1       1.503 -22.968 -16.489  1.00  0.00     0.027 A 
ENDBRANCH   5  23
TORSDOF 7
ENDMDL
