MODEL 2
REMARK VINA RESULT: -9.732443722      1.083      1.275
REMARK  7 active torsions:
REMARK  status: ('A' for Active; 'I' for Inactive)
REMARK    1  A    between atoms: C2_2  and  O1_3 
REMARK    2  A    between atoms: C2_2  and  C3_5 
REMARK    3  A    between atoms: C3_5  and  N1_6 
REMARK    4  A    between atoms: C3_5  and  C4_10 
REMARK       I    between atoms: C4_10  and  N2_12 
REMARK    5  A    between atoms: N2_12  and  S1_14 
REMARK    6  A    between atoms: S1_14  and  C5_17 
REMARK    7  A    between atoms: C9_21  and  C10_22 
ROOT
HETATM    1  C5  UNL     1       4.362 -26.550 -16.438  1.00  0.00     0.080 A 
HETATM    2  C6  UNL     1       4.776 -25.630 -17.390  1.00  0.00     0.025 A 
HETATM    3  C7  UNL     1       4.555 -25.814 -18.728  1.00  0.00     0.002 A 
HETATM    4  C8  UNL     1       3.894 -26.963 -19.187  1.00  0.00     0.012 A 
HETATM    5  C9  UNL     1       3.494 -27.855 -18.223  1.00  0.00    -0.024 A 
HETATM    6  C17 UNL     1       3.718 -27.661 -16.871  1.00  0.00     0.037 A 
ENDROOT
BRANCH   1   7
HETATM    7  S1  UNL     1       4.806 -26.224 -14.765  1.00  0.00     0.265 S 
HETATM    8  O3  UNL     1       4.265 -24.932 -14.271  1.00  0.00    -0.200 OA
HETATM    9  O4  UNL     1       4.221 -27.390 -13.983  1.00  0.00    -0.200 OA
BRANCH   7  10
HETATM   10  N2  UNL     1       6.525 -26.321 -14.640  1.00  0.00    -0.248 N 
HETATM   11  C4  UNL     1       7.259 -26.447 -13.452  1.00  0.00     0.264 C 
HETATM   12  O2  UNL     1       6.643 -26.510 -12.359  1.00  0.00    -0.270 OA
ATOM     13  H2  UNL     1       7.055 -26.282 -15.510  1.00  0.00     0.182 HD
BRANCH  11  14
HETATM   14  C3  UNL     1       8.765 -26.512 -13.421  1.00  0.00     0.303 C 
BRANCH  14  15
HETATM   15  C2  UNL     1       9.314 -27.142 -12.194  1.00  0.00     0.153 C 
HETATM   16  C1  UNL     1       9.207 -28.665 -12.416  1.00  0.00     0.042 C 
BRANCH  15  17
HETATM   17  O1  UNL     1      10.622 -26.777 -11.965  1.00  0.00    -0.393 OA
ATOM     18  H1  UNL     1      11.011 -27.331 -11.299  1.00  0.00     0.210 HD
ENDBRANCH  15  17
ENDBRANCH  14  15
BRANCH  14  19
HETATM   19  N1  UNL     1       9.314 -25.240 -13.748  1.00  0.00    -0.064 N 
ATOM     20  H13 UNL     1       9.190 -24.593 -12.969  1.00  0.00     0.275 HD
ATOM     21  H12 UNL     1      10.332 -25.295 -13.776  1.00  0.00     0.275 HD
ATOM     22  H11 UNL     1       8.962 -24.823 -14.610  1.00  0.00     0.275 HD
ENDBRANCH  14  19
ENDBRANCH  11  14
ENDBRANCH   7  10
ENDBRANCH   1   7
BRANCH   5  23
HETATM   23  C10 UNL     1       2.859 -29.098 -18.611  1.00  0.00    -0.025 A 
HETATM   24  C11 UNL     1       2.963 -29.653 -19.865  1.00  0.00     0.014 A 
HETATM   25  C12 UNL     1       2.300 -30.814 -20.261  1.00  0.00     0.033 A 
HETATM   26  C13 UNL     1       1.474 -31.464 -19.336  1.00  0.00     0.059 A 
HETATM   27  N3  UNL     1       0.696 -32.572 -19.394  1.00  0.00    -0.300 N 
HETATM   28  C15 UNL     1       1.356 -30.929 -18.079  1.00  0.00     0.010 A 
HETATM   29  N4  UNL     1       0.093 -32.763 -18.242  1.00  0.00    -0.311 N 
ATOM     30  H3  UNL     1       0.592 -33.171 -20.214  1.00  0.00     0.187 HD
HETATM   31  C14 UNL     1       0.472 -31.784 -17.417  1.00  0.00     0.120 A 
ATOM     32  H4  UNL     1      -0.549 -33.523 -18.017  1.00  0.00     0.186 HD
HETATM   33  C16 UNL     1       2.021 -29.785 -17.706  1.00  0.00     0.027 A 
ENDBRANCH   5  23
TORSDOF 7
ENDMDL
