MODEL 3
REMARK VINA RESULT: -9.388682892      1.038      1.721
REMARK  7 active torsions:
REMARK  status: ('A' for Active; 'I' for Inactive)
REMARK    1  A    between atoms: C2_2  and  O1_3 
REMARK    2  A    between atoms: C2_2  and  C3_5 
REMARK    3  A    between atoms: C3_5  and  N1_6 
REMARK    4  A    between atoms: C3_5  and  C4_10 
REMARK       I    between atoms: C4_10  and  N2_12 
REMARK    5  A    between atoms: N2_12  and  S1_14 
REMARK    6  A    between atoms: S1_14  and  C5_17 
REMARK    7  A    between atoms: C9_21  and  C10_22 
ROOT
HETATM    1  C5  UNL     1       4.844 -26.608 -15.472  1.00  0.00     0.080 A 
HETATM    2  C6  UNL     1       5.820 -25.920 -16.176  1.00  0.00     0.025 A 
HETATM    3  C7  UNL     1       5.966 -26.043 -17.531  1.00  0.00     0.002 A 
HETATM    4  C8  UNL     1       5.119 -26.888 -18.263  1.00  0.00     0.012 A 
HETATM    5  C9  UNL     1       4.161 -27.556 -17.540  1.00  0.00    -0.024 A 
HETATM    6  C17 UNL     1       4.016 -27.424 -16.170  1.00  0.00     0.037 A 
ENDROOT
BRANCH   1   7
HETATM    7  S1  UNL     1       4.843 -26.425 -13.719  1.00  0.00     0.265 S 
HETATM    8  O3  UNL     1       4.001 -25.290 -13.264  1.00  0.00    -0.200 OA
HETATM    9  O4  UNL     1       4.297 -27.746 -13.200  1.00  0.00    -0.200 OA
BRANCH   7  10
HETATM   10  N2  UNL     1       6.482 -26.296 -13.195  1.00  0.00    -0.248 N 
HETATM   11  C4  UNL     1       7.364 -27.363 -12.977  1.00  0.00     0.264 C 
HETATM   12  O2  UNL     1       6.964 -28.536 -13.181  1.00  0.00    -0.270 OA
ATOM     13  H2  UNL     1       6.841 -25.356 -13.029  1.00  0.00     0.182 HD
BRANCH  11  14
HETATM   14  C3  UNL     1       8.783 -27.172 -12.503  1.00  0.00     0.303 C 
BRANCH  14  15
HETATM   15  C2  UNL     1       9.448 -25.970 -13.066  1.00  0.00     0.153 C 
HETATM   16  C1  UNL     1       9.421 -26.150 -14.598  1.00  0.00     0.042 C 
BRANCH  15  17
HETATM   17  O1  UNL     1       8.808 -24.806 -12.704  1.00  0.00    -0.393 OA
ATOM     18  H1  UNL     1       9.256 -24.052 -13.067  1.00  0.00     0.210 HD
ENDBRANCH  15  17
ENDBRANCH  14  15
BRANCH  14  19
HETATM   19  N1  UNL     1       9.511 -28.387 -12.638  1.00  0.00    -0.064 N 
ATOM     20  H13 UNL     1      10.510 -28.192 -12.705  1.00  0.00     0.275 HD
ATOM     21  H12 UNL     1       9.488 -28.908 -11.761  1.00  0.00     0.275 HD
ATOM     22  H11 UNL     1       9.217 -28.986 -13.410  1.00  0.00     0.275 HD
ENDBRANCH  14  19
ENDBRANCH  11  14
ENDBRANCH   7  10
ENDBRANCH   1   7
BRANCH   5  23
HETATM   23  C10 UNL     1       3.283 -28.496 -18.205  1.00  0.00    -0.025 A 
HETATM   24  C11 UNL     1       2.547 -29.454 -17.550  1.00  0.00     0.014 A 
HETATM   25  C12 UNL     1       1.751 -30.402 -18.192  1.00  0.00     0.033 A 
HETATM   26  C13 UNL     1       1.689 -30.389 -19.591  1.00  0.00     0.059 A 
HETATM   27  N3  UNL     1       1.045 -31.155 -20.506  1.00  0.00    -0.300 N 
HETATM   28  C15 UNL     1       2.415 -29.441 -20.267  1.00  0.00     0.010 A 
HETATM   29  N4  UNL     1       1.327 -30.740 -21.721  1.00  0.00    -0.311 N 
ATOM     30  H3  UNL     1       0.431 -31.939 -20.283  1.00  0.00     0.187 HD
HETATM   31  C14 UNL     1       2.155 -29.699 -21.615  1.00  0.00     0.120 A 
ATOM     32  H4  UNL     1       0.975 -31.142 -22.590  1.00  0.00     0.186 HD
HETATM   33  C16 UNL     1       3.190 -28.513 -19.615  1.00  0.00     0.027 A 
ENDBRANCH   5  23
TORSDOF 7
ENDMDL
