MODEL 2
REMARK VINA RESULT: -8.113775555      1.835      2.102
REMARK  5 active torsions:
REMARK  status: ('A' for Active; 'I' for Inactive)
REMARK    1  A    between atoms: C2_2  and  C3_3 
REMARK    2  A    between atoms: C5_9  and  S1_10 
REMARK    3  A    between atoms: S1_10  and  C6_11 
REMARK    4  A    between atoms: C14_24  and  N5_25 
REMARK    5  A    between atoms: C17_28  and  N6_29 
ROOT
HETATM    1  C3  UNL     1       5.953  -2.932  -3.564  1.00  0.00     0.033 A 
HETATM    2  N1  UNL     1       6.497  -2.896  -4.789  1.00  0.00    -0.344 N 
ATOM      3  H1  UNL     1       7.119  -3.604  -5.180  1.00  0.00     0.167 HD
HETATM    4  C4  UNL     1       6.093  -1.778  -5.424  1.00  0.00     0.123 A 
HETATM    5  N2  UNL     1       6.365  -1.295  -6.637  1.00  0.00    -0.322 N 
ATOM      6  H2  UNL     1       6.979  -1.810  -7.267  1.00  0.00     0.169 HD
HETATM    7  C5  UNL     1       5.829  -0.136  -7.024  1.00  0.00     0.152 A 
HETATM    8  N4  UNL     1       5.021   0.549  -6.205  1.00  0.00    -0.322 N 
ATOM      9  H4  UNL     1       4.631   1.433  -6.534  1.00  0.00     0.169 HD
HETATM   10  C14 UNL     1       4.693   0.120  -4.946  1.00  0.00     0.121 A 
HETATM   11  C19 UNL     1       5.249  -1.069  -4.561  1.00  0.00     0.076 A 
HETATM   12  C20 UNL     1       5.169  -1.794  -3.408  1.00  0.00     0.074 A 
HETATM   13 CL1  UNL     1       4.279  -1.393  -1.975  1.00  0.00    -0.081 Cl
ENDROOT
BRANCH   7  14
HETATM   14  S1  UNL     1       6.148   0.571  -8.633  1.00  0.00    -0.054 SA
BRANCH  14  15
HETATM   15  C6  UNL     1       7.837   1.157  -8.628  1.00  0.00     0.009 A 
HETATM   16  C7  UNL     1       8.451   1.398  -7.425  1.00  0.00     0.019 A 
HETATM   17  C8  UNL     1       9.750   1.849  -7.405  1.00  0.00     0.011 A 
HETATM   18  C9  UNL     1      10.491   2.078  -8.546  1.00  0.00    -0.025 A 
HETATM   19  C10 UNL     1       9.840   1.824  -9.738  1.00  0.00     0.041 A 
HETATM   20  C13 UNL     1      11.875   2.551  -8.789  1.00  0.00     0.162 A 
HETATM   21  C11 UNL     1       8.539   1.372  -9.789  1.00  0.00     0.036 A 
HETATM   22  C12 UNL     1      10.786   2.125 -10.832  1.00  0.00     0.252 A 
HETATM   23  O1  UNL     1      10.584   2.025 -12.056  1.00  0.00    -0.268 OA
HETATM   24  N3  UNL     1      11.997   2.559 -10.219  1.00  0.00    -0.353 N 
ATOM     25  H3  UNL     1      12.836   2.837 -10.728  1.00  0.00     0.163 HD
ENDBRANCH  14  15
ENDBRANCH   7  14
BRANCH  10  26
HETATM   26  N5  UNL     1       3.813   0.901  -4.192  1.00  0.00    -0.364 N 
HETATM   27  C15 UNL     1       2.367   0.890  -4.215  1.00  0.00     0.126 C 
HETATM   28  C16 UNL     1       2.169   2.435  -4.304  1.00  0.00     0.054 C 
HETATM   29  C17 UNL     1       2.989   2.827  -3.068  1.00  0.00     0.203 C 
HETATM   30  C18 UNL     1       4.213   1.924  -3.231  1.00  0.00     0.157 C 
BRANCH  29  31
HETATM   31  N6  UNL     1       2.254   2.355  -1.913  1.00  0.00    -0.073 N 
ATOM     32  H63 UNL     1       2.733   2.532  -1.031  1.00  0.00     0.274 HD
ATOM     33  H62 UNL     1       1.417   2.904  -1.716  1.00  0.00     0.274 HD
ATOM     34  H61 UNL     1       2.058   1.367  -2.074  1.00  0.00     0.274 HD
ENDBRANCH  29  31
ENDBRANCH  10  26
BRANCH   1  35
HETATM   35  C2  UNL     1       6.148  -3.990  -2.560  1.00  0.00     0.054 C 
HETATM   36  C1  UNL     1       7.302  -3.590  -1.676  1.00  0.00     0.011 C 
ENDBRANCH   1  35
TORSDOF 5
ENDMDL
