MODEL 1
REMARK VINA RESULT: -8.194427896      0.000      0.000
REMARK  5 active torsions:
REMARK  status: ('A' for Active; 'I' for Inactive)
REMARK    1  A    between atoms: C2_2  and  C3_3 
REMARK    2  A    between atoms: C5_9  and  S1_10 
REMARK    3  A    between atoms: S1_10  and  C6_11 
REMARK    4  A    between atoms: C14_24  and  N5_25 
REMARK    5  A    between atoms: C17_28  and  N6_29 
ROOT
HETATM    1  C3  UNL     1       6.633  -3.586  -4.125  1.00  0.00     0.033 A 
HETATM    2  N1  UNL     1       7.291  -2.917  -5.083  1.00  0.00    -0.344 N 
ATOM      3  H1  UNL     1       8.148  -3.229  -5.539  1.00  0.00     0.167 HD
HETATM    4  C4  UNL     1       6.642  -1.766  -5.348  1.00  0.00     0.123 A 
HETATM    5  N2  UNL     1       6.903  -0.773  -6.201  1.00  0.00    -0.322 N 
ATOM      6  H2  UNL     1       7.723  -0.819  -6.804  1.00  0.00     0.169 HD
HETATM    7  C5  UNL     1       6.085   0.280  -6.260  1.00  0.00     0.152 A 
HETATM    8  N4  UNL     1       5.005   0.351  -5.472  1.00  0.00    -0.322 N 
ATOM      9  H4  UNL     1       4.404   1.172  -5.544  1.00  0.00     0.169 HD
HETATM   10  C14 UNL     1       4.670  -0.627  -4.573  1.00  0.00     0.121 A 
HETATM   11  C19 UNL     1       5.516  -1.701  -4.521  1.00  0.00     0.076 A 
HETATM   12  C20 UNL     1       5.519  -2.836  -3.764  1.00  0.00     0.074 A 
HETATM   13 CL1  UNL     1       4.372  -3.290  -2.546  1.00  0.00    -0.081 Cl
ENDROOT
BRANCH   7  14
HETATM   14  S1  UNL     1       6.371   1.645  -7.377  1.00  0.00    -0.054 SA
BRANCH  14  15
HETATM   15  C6  UNL     1       7.970   2.334  -6.971  1.00  0.00     0.009 A 
HETATM   16  C7  UNL     1       8.058   3.251  -5.955  1.00  0.00     0.019 A 
HETATM   17  C8  UNL     1       9.281   3.789  -5.631  1.00  0.00     0.011 A 
HETATM   18  C9  UNL     1      10.452   3.456  -6.280  1.00  0.00    -0.025 A 
HETATM   19  C10 UNL     1      10.325   2.530  -7.297  1.00  0.00     0.041 A 
HETATM   20  C13 UNL     1      11.864   3.883  -6.125  1.00  0.00     0.162 A 
HETATM   21  C11 UNL     1       9.112   1.974  -7.643  1.00  0.00     0.036 A 
HETATM   22  C12 UNL     1      11.671   2.306  -7.863  1.00  0.00     0.252 A 
HETATM   23  O1  UNL     1      11.982   1.544  -8.797  1.00  0.00    -0.268 OA
HETATM   24  N3  UNL     1      12.567   3.137  -7.131  1.00  0.00    -0.353 N 
ATOM     25  H3  UNL     1      13.572   3.195  -7.299  1.00  0.00     0.163 HD
ENDBRANCH  14  15
ENDBRANCH   7  14
BRANCH  10  26
HETATM   26  N5  UNL     1       3.500  -0.462  -3.827  1.00  0.00    -0.364 N 
HETATM   27  C15 UNL     1       2.175  -0.963  -4.121  1.00  0.00     0.126 C 
HETATM   28  C16 UNL     1       1.408   0.370  -3.858  1.00  0.00     0.054 C 
HETATM   29  C17 UNL     1       1.913   0.630  -2.433  1.00  0.00     0.203 C 
HETATM   30  C18 UNL     1       3.399   0.296  -2.584  1.00  0.00     0.157 C 
BRANCH  29  31
HETATM   31  N6  UNL     1       1.325  -0.391  -1.590  1.00  0.00    -0.073 N 
ATOM     32  H63 UNL     1       1.174  -0.082  -0.629  1.00  0.00     0.274 HD
ATOM     33  H62 UNL     1       0.350  -0.586  -1.816  1.00  0.00     0.274 HD
ATOM     34  H61 UNL     1       1.926  -1.211  -1.659  1.00  0.00     0.274 HD
ENDBRANCH  29  31
ENDBRANCH  10  26
BRANCH   1  35
HETATM   35  C2  UNL     1       7.019  -4.887  -3.555  1.00  0.00     0.054 C 
HETATM   36  C1  UNL     1       8.478  -4.820  -3.182  1.00  0.00     0.011 C 
ENDBRANCH   1  35
TORSDOF 5
ENDMDL
