MODEL 3
REMARK VINA RESULT: -8.111568654      4.454      7.903
REMARK  5 active torsions:
REMARK  status: ('A' for Active; 'I' for Inactive)
REMARK    1  A    between atoms: C2_2  and  C3_3 
REMARK    2  A    between atoms: C5_9  and  S1_10 
REMARK    3  A    between atoms: S1_10  and  C6_11 
REMARK    4  A    between atoms: C14_24  and  N5_25 
REMARK    5  A    between atoms: C17_28  and  N6_29 
ROOT
HETATM    1  C3  UNL     1       9.978   1.668  -8.226  1.00  0.00     0.033 A 
HETATM    2  N1  UNL     1       9.661   1.094  -7.056  1.00  0.00    -0.344 N 
ATOM      3  H1  UNL     1      10.159   1.234  -6.175  1.00  0.00     0.167 HD
HETATM    4  C4  UNL     1       8.582   0.304  -7.223  1.00  0.00     0.123 A 
HETATM    5  N2  UNL     1       7.905  -0.470  -6.374  1.00  0.00    -0.322 N 
ATOM      6  H2  UNL     1       8.188  -0.527  -5.396  1.00  0.00     0.169 HD
HETATM    7  C5  UNL     1       6.856  -1.171  -6.810  1.00  0.00     0.152 A 
HETATM    8  N4  UNL     1       6.476  -1.104  -8.092  1.00  0.00    -0.322 N 
ATOM      9  H4  UNL     1       5.671  -1.655  -8.389  1.00  0.00     0.169 HD
HETATM   10  C14 UNL     1       7.119  -0.332  -9.024  1.00  0.00     0.121 A 
HETATM   11  C19 UNL     1       8.193   0.381  -8.565  1.00  0.00     0.076 A 
HETATM   12  C20 UNL     1       9.066   1.229  -9.179  1.00  0.00     0.074 A 
HETATM   13 CL1  UNL     1       9.084   1.689 -10.851  1.00  0.00    -0.081 Cl
ENDROOT
BRANCH   7  14
HETATM   14  S1  UNL     1       5.904  -2.228  -5.730  1.00  0.00    -0.054 SA
BRANCH  14  15
HETATM   15  C6  UNL     1       6.811  -2.375  -4.197  1.00  0.00     0.009 A 
HETATM   16  C7  UNL     1       8.122  -2.775  -4.239  1.00  0.00     0.019 A 
HETATM   17  C8  UNL     1       8.834  -2.892  -3.068  1.00  0.00     0.011 A 
HETATM   18  C9  UNL     1       8.298  -2.624  -1.826  1.00  0.00    -0.025 A 
HETATM   19  C10 UNL     1       6.976  -2.223  -1.823  1.00  0.00     0.041 A 
HETATM   20  C13 UNL     1       8.841  -2.672  -0.446  1.00  0.00     0.162 A 
HETATM   21  C11 UNL     1       6.239  -2.098  -2.980  1.00  0.00     0.036 A 
HETATM   22  C12 UNL     1       6.588  -1.987  -0.417  1.00  0.00     0.252 A 
HETATM   23  O1  UNL     1       5.479  -1.615   0.010  1.00  0.00    -0.268 OA
HETATM   24  N3  UNL     1       7.737  -2.268   0.379  1.00  0.00    -0.353 N 
ATOM     25  H3  UNL     1       7.770  -2.192   1.395  1.00  0.00     0.163 HD
ENDBRANCH  14  15
ENDBRANCH   7  14
BRANCH  10  26
HETATM   26  N5  UNL     1       6.612  -0.314 -10.326  1.00  0.00    -0.364 N 
HETATM   27  C15 UNL     1       5.610   0.568 -10.881  1.00  0.00     0.126 C 
HETATM   28  C16 UNL     1       4.750  -0.536 -11.571  1.00  0.00     0.054 C 
HETATM   29  C17 UNL     1       5.862  -1.181 -12.408  1.00  0.00     0.203 C 
HETATM   30  C18 UNL     1       7.002  -1.235 -11.389  1.00  0.00     0.157 C 
BRANCH  29  31
HETATM   31  N6  UNL     1       6.234  -0.215 -13.422  1.00  0.00    -0.073 N 
ATOM     32  H63 UNL     1       5.480   0.427 -13.663  1.00  0.00     0.274 HD
ATOM     33  H62 UNL     1       6.896   0.484 -13.088  1.00  0.00     0.274 HD
ATOM     34  H61 UNL     1       6.579  -0.747 -14.221  1.00  0.00     0.274 HD
ENDBRANCH  29  31
ENDBRANCH  10  26
BRANCH   1  35
HETATM   35  C2  UNL     1      11.093   2.598  -8.461  1.00  0.00     0.054 C 
HETATM   36  C1  UNL     1      11.802   2.822  -7.149  1.00  0.00     0.011 C 
ENDBRANCH   1  35
TORSDOF 5
ENDMDL
