MODEL 3
REMARK VINA RESULT: -8.340209590      1.022      1.105
REMARK  5 active torsions:
REMARK  status: ('A' for Active; 'I' for Inactive)
REMARK    1  A    between atoms: C2_2  and  C3_3 
REMARK    2  A    between atoms: C5_9  and  S1_10 
REMARK    3  A    between atoms: S1_10  and  C6_11 
REMARK    4  A    between atoms: C13_27  and  N7_28 
REMARK    5  A    between atoms: C16_31  and  N8_32 
ROOT
HETATM    1  C3  UNL     1       8.970  -3.942  -2.543  1.00  0.00     0.033 A 
HETATM    2  N1  UNL     1       9.218  -3.140  -3.571  1.00  0.00    -0.344 N 
ATOM      3  H1  UNL     1      10.153  -2.924  -3.917  1.00  0.00     0.167 HD
HETATM    4  C4  UNL     1       8.093  -2.651  -4.096  1.00  0.00     0.123 A 
HETATM    5  N2  UNL     1       7.806  -1.817  -5.107  1.00  0.00    -0.322 N 
ATOM      6  H2  UNL     1       8.573  -1.427  -5.656  1.00  0.00     0.169 HD
HETATM    7  C5  UNL     1       6.555  -1.479  -5.420  1.00  0.00     0.152 A 
HETATM    8  N6  UNL     1       5.545  -1.988  -4.704  1.00  0.00    -0.322 N 
ATOM      9  H6  UNL     1       4.593  -1.722  -4.953  1.00  0.00     0.169 HD
HETATM   10  C13 UNL     1       5.726  -2.844  -3.659  1.00  0.00     0.121 A 
HETATM   11  C18 UNL     1       7.025  -3.173  -3.359  1.00  0.00     0.076 A 
HETATM   12  C19 UNL     1       7.599  -3.983  -2.383  1.00  0.00     0.074 A 
HETATM   13 CL1  UNL     1       6.772  -4.895  -1.140  1.00  0.00    -0.081 Cl
ENDROOT
BRANCH   7  14
HETATM   14  S1  UNL     1       6.142  -0.374  -6.755  1.00  0.00    -0.053 SA
BRANCH  14  15
HETATM   15  C6  UNL     1       7.592   0.286  -7.543  1.00  0.00     0.026 A 
HETATM   16  C7  UNL     1       7.840  -0.049  -8.855  1.00  0.00     0.108 A 
HETATM   17  N3  UNL     1       8.934   0.427  -9.511  1.00  0.00    -0.349 N 
HETATM   18  C8  UNL     1       9.821   1.243  -8.911  1.00  0.00     0.132 A 
ATOM     19  H3  UNL     1       9.085   0.159 -10.483  1.00  0.00     0.167 HD
HETATM   20  N4  UNL     1      10.899   1.704  -9.580  1.00  0.00    -0.345 N 
HETATM   21  C11 UNL     1       9.612   1.613  -7.578  1.00  0.00     0.081 A 
HETATM   22  C9  UNL     1      11.793   2.519  -8.998  1.00  0.00     0.164 A 
ATOM     23  H4  UNL     1      11.038   1.427 -10.552  1.00  0.00     0.167 HD
HETATM   24  C10 UNL     1      11.569   2.871  -7.683  1.00  0.00     0.261 A 
HETATM   25  O1  UNL     1      12.400   3.640  -7.114  1.00  0.00    -0.267 OA
HETATM   26  N5  UNL     1      10.507   2.424  -7.008  1.00  0.00    -0.319 N 
ATOM     27  H5  UNL     1      10.377   2.708  -6.036  1.00  0.00     0.169 HD
HETATM   28  C12 UNL     1       8.487   1.120  -6.914  1.00  0.00     0.054 A 
ENDBRANCH  14  15
ENDBRANCH   7  14
BRANCH  10  29
HETATM   29  N7  UNL     1       4.622  -3.370  -2.968  1.00  0.00    -0.364 N 
HETATM   30  C14 UNL     1       3.839  -4.535  -3.243  1.00  0.00     0.126 C 
HETATM   31  C15 UNL     1       2.400  -3.974  -3.175  1.00  0.00     0.054 C 
HETATM   32  C16 UNL     1       2.525  -3.088  -1.929  1.00  0.00     0.203 C 
HETATM   33  C17 UNL     1       4.010  -2.771  -1.783  1.00  0.00     0.157 C 
BRANCH  32  34
HETATM   34  N8  UNL     1       2.044  -3.800  -0.763  1.00  0.00    -0.073 N 
ATOM     35  H83 UNL     1       1.046  -4.001  -0.823  1.00  0.00     0.274 HD
ATOM     36  H82 UNL     1       2.388  -4.760  -0.732  1.00  0.00     0.274 HD
ATOM     37  H81 UNL     1       2.279  -3.282   0.084  1.00  0.00     0.274 HD
ENDBRANCH  32  34
ENDBRANCH  10  29
BRANCH   1  38
HETATM   38  C2  UNL     1       9.932  -4.676  -1.692  1.00  0.00     0.054 C 
HETATM   39  C1  UNL     1      10.777  -5.639  -2.496  1.00  0.00     0.011 C 
ENDBRANCH   1  38
TORSDOF 5
ENDMDL
