MODEL 2
REMARK VINA RESULT: -8.340739135      1.253      1.323
REMARK  5 active torsions:
REMARK  status: ('A' for Active; 'I' for Inactive)
REMARK    1  A    between atoms: C2_2  and  C3_3 
REMARK    2  A    between atoms: C5_9  and  S1_10 
REMARK    3  A    between atoms: S1_10  and  C6_11 
REMARK    4  A    between atoms: C13_27  and  N7_28 
REMARK    5  A    between atoms: C16_31  and  N8_32 
ROOT
HETATM    1  C3  UNL     1       7.672  -3.270  -2.081  1.00  0.00     0.033 A 
HETATM    2  N1  UNL     1       8.117  -3.382  -3.327  1.00  0.00    -0.344 N 
ATOM      3  H1  UNL     1       8.950  -3.906  -3.594  1.00  0.00     0.167 HD
HETATM    4  C4  UNL     1       7.337  -2.725  -4.188  1.00  0.00     0.123 A 
HETATM    5  N2  UNL     1       7.352  -2.524  -5.514  1.00  0.00    -0.322 N 
ATOM      6  H2  UNL     1       8.100  -2.944  -6.067  1.00  0.00     0.169 HD
HETATM    7  C5  UNL     1       6.426  -1.795  -6.136  1.00  0.00     0.152 A 
HETATM    8  N6  UNL     1       5.442  -1.241  -5.416  1.00  0.00    -0.322 N 
ATOM      9  H6  UNL     1       4.739  -0.685  -5.904  1.00  0.00     0.169 HD
HETATM   10  C13 UNL     1       5.332  -1.384  -4.066  1.00  0.00     0.121 A 
HETATM   11  C18 UNL     1       6.302  -2.139  -3.452  1.00  0.00     0.076 A 
HETATM   12  C19 UNL     1       6.532  -2.494  -2.126  1.00  0.00     0.074 A 
HETATM   13 CL1  UNL     1       5.584  -2.040  -0.727  1.00  0.00    -0.081 Cl
ENDROOT
BRANCH   7  14
HETATM   14  S1  UNL     1       6.419  -1.509  -7.895  1.00  0.00    -0.053 SA
BRANCH  14  15
HETATM   15  C6  UNL     1       7.779  -0.484  -8.405  1.00  0.00     0.026 A 
HETATM   16  C7  UNL     1       8.097  -0.429  -9.744  1.00  0.00     0.108 A 
HETATM   17  N3  UNL     1       9.127   0.339 -10.193  1.00  0.00    -0.349 N 
HETATM   18  C8  UNL     1       9.881   1.076  -9.356  1.00  0.00     0.132 A 
ATOM     19  H3  UNL     1       9.333   0.357 -11.192  1.00  0.00     0.167 HD
HETATM   20  N4  UNL     1      10.898   1.831  -9.824  1.00  0.00    -0.345 N 
HETATM   21  C11 UNL     1       9.596   1.053  -7.986  1.00  0.00     0.081 A 
HETATM   22  C9  UNL     1      11.659   2.572  -9.004  1.00  0.00     0.164 A 
ATOM     23  H4  UNL     1      11.093   1.839 -10.825  1.00  0.00     0.167 HD
HETATM   24  C10 UNL     1      11.362   2.536  -7.656  1.00  0.00     0.261 A 
HETATM   25  O1  UNL     1      12.067   3.228  -6.864  1.00  0.00    -0.267 OA
HETATM   26  N5  UNL     1      10.359   1.795  -7.178  1.00  0.00    -0.319 N 
ATOM     27  H5  UNL     1      10.172   1.795  -6.175  1.00  0.00     0.169 HD
HETATM   28  C12 UNL     1       8.538   0.263  -7.535  1.00  0.00     0.054 A 
ENDBRANCH  14  15
ENDBRANCH   7  14
BRANCH  10  29
HETATM   29  N7  UNL     1       4.257  -0.805  -3.372  1.00  0.00    -0.364 N 
HETATM   30  C14 UNL     1       2.993  -1.367  -3.007  1.00  0.00     0.126 C 
HETATM   31  C15 UNL     1       2.008  -0.285  -3.505  1.00  0.00     0.054 C 
HETATM   32  C16 UNL     1       2.748   0.975  -3.038  1.00  0.00     0.203 C 
HETATM   33  C17 UNL     1       4.213   0.575  -2.891  1.00  0.00     0.157 C 
BRANCH  32  34
HETATM   34  N8  UNL     1       2.217   1.420  -1.766  1.00  0.00    -0.073 N 
ATOM     35  H83 UNL     1       2.956   1.629  -1.096  1.00  0.00     0.274 HD
ATOM     36  H82 UNL     1       1.804   2.352  -1.830  1.00  0.00     0.274 HD
ATOM     37  H81 UNL     1       1.555   0.734  -1.404  1.00  0.00     0.274 HD
ENDBRANCH  32  34
ENDBRANCH  10  29
BRANCH   1  38
HETATM   38  C2  UNL     1       8.246  -3.842  -0.842  1.00  0.00     0.054 C 
HETATM   39  C1  UNL     1       7.677  -5.209  -0.535  1.00  0.00     0.011 C 
ENDBRANCH   1  38
TORSDOF 5
ENDMDL
