MODEL 1
REMARK VINA RESULT: -8.346300983      0.000      0.000
REMARK  5 active torsions:
REMARK  status: ('A' for Active; 'I' for Inactive)
REMARK    1  A    between atoms: C2_2  and  C3_3 
REMARK    2  A    between atoms: C5_9  and  S1_10 
REMARK    3  A    between atoms: S1_10  and  C6_11 
REMARK    4  A    between atoms: C13_27  and  N7_28 
REMARK    5  A    between atoms: C16_31  and  N8_32 
ROOT
HETATM    1  C3  UNL     1       8.054  -3.701  -2.505  1.00  0.00     0.033 A 
HETATM    2  N1  UNL     1       8.405  -3.163  -3.667  1.00  0.00    -0.344 N 
ATOM      3  H1  UNL     1       9.324  -3.272  -4.095  1.00  0.00     0.167 HD
HETATM    4  C4  UNL     1       7.405  -2.463  -4.205  1.00  0.00     0.123 A 
HETATM    5  N2  UNL     1       7.253  -1.741  -5.326  1.00  0.00    -0.322 N 
ATOM      6  H2  UNL     1       8.037  -1.668  -5.974  1.00  0.00     0.169 HD
HETATM    7  C5  UNL     1       6.113  -1.117  -5.623  1.00  0.00     0.152 A 
HETATM    8  N6  UNL     1       5.080  -1.210  -4.777  1.00  0.00    -0.322 N 
ATOM      9  H6  UNL     1       4.213  -0.728  -5.015  1.00  0.00     0.169 HD
HETATM   10  C13 UNL     1       5.128  -1.917  -3.613  1.00  0.00     0.121 A 
HETATM   11  C18 UNL     1       6.315  -2.549  -3.332  1.00  0.00     0.076 A 
HETATM   12  C19 UNL     1       6.745  -3.333  -2.266  1.00  0.00     0.074 A 
HETATM   13 CL1  UNL     1       5.832  -3.781  -0.843  1.00  0.00    -0.081 Cl
ENDROOT
BRANCH   7  14
HETATM   14  S1  UNL     1       5.879  -0.152  -7.102  1.00  0.00    -0.053 SA
BRANCH  14  15
HETATM   15  C6  UNL     1       7.421   0.449  -7.753  1.00  0.00     0.026 A 
HETATM   16  C7  UNL     1       7.757   0.134  -9.050  1.00  0.00     0.108 A 
HETATM   17  N3  UNL     1       8.923   0.566  -9.602  1.00  0.00    -0.349 N 
HETATM   18  C8  UNL     1       9.801   1.318  -8.910  1.00  0.00     0.132 A 
ATOM     19  H3  UNL     1       9.139   0.315 -10.567  1.00  0.00     0.167 HD
HETATM   20  N4  UNL     1      10.952   1.737  -9.478  1.00  0.00    -0.345 N 
HETATM   21  C11 UNL     1       9.503   1.665  -7.587  1.00  0.00     0.081 A 
HETATM   22  C9  UNL     1      11.836   2.487  -8.803  1.00  0.00     0.164 A 
ATOM     23  H4  UNL     1      11.154   1.477 -10.443  1.00  0.00     0.167 HD
HETATM   24  C10 UNL     1      11.525   2.818  -7.500  1.00  0.00     0.261 A 
HETATM   25  O1  UNL     1      12.346   3.525  -6.844  1.00  0.00    -0.267 OA
HETATM   26  N5  UNL     1      10.390   2.412  -6.924  1.00  0.00    -0.319 N 
ATOM     27  H5  UNL     1      10.197   2.678  -5.958  1.00  0.00     0.169 HD
HETATM   28  C12 UNL     1       8.305   1.217  -7.030  1.00  0.00     0.054 A 
ENDBRANCH  14  15
ENDBRANCH   7  14
BRANCH  10  29
HETATM   29  N7  UNL     1       3.998  -2.004  -2.783  1.00  0.00    -0.364 N 
HETATM   30  C14 UNL     1       2.954  -2.982  -2.756  1.00  0.00     0.126 C 
HETATM   31  C15 UNL     1       1.688  -2.096  -2.772  1.00  0.00     0.054 C 
HETATM   32  C16 UNL     1       2.114  -1.016  -1.770  1.00  0.00     0.203 C 
HETATM   33  C17 UNL     1       3.639  -1.035  -1.749  1.00  0.00     0.157 C 
BRANCH  32  34
HETATM   34  N8  UNL     1       1.587  -1.323  -0.456  1.00  0.00    -0.073 N 
ATOM     35  H83 UNL     1       1.581  -0.504   0.154  1.00  0.00     0.274 HD
ATOM     36  H82 UNL     1       0.583  -1.500  -0.478  1.00  0.00     0.274 HD
ATOM     37  H81 UNL     1       2.103  -2.101  -0.045  1.00  0.00     0.274 HD
ENDBRANCH  32  34
ENDBRANCH  10  29
BRANCH   1  38
HETATM   38  C2  UNL     1       8.864  -4.542  -1.595  1.00  0.00     0.054 C 
HETATM   39  C1  UNL     1       9.518  -5.695  -2.323  1.00  0.00     0.011 C 
ENDBRANCH   1  38
TORSDOF 5
ENDMDL
