MODEL 1
REMARK VINA RESULT: -6.550638103      0.000      0.000
REMARK  7 active torsions:
REMARK  status: ('A' for Active; 'I' for Inactive)
REMARK    1  A    between atoms: C2_2  and  C3_3 
REMARK    2  A    between atoms: C3_3  and  C4_4 
REMARK    3  A    between atoms: C3_3  and  O1_6 
REMARK    4  A    between atoms: O1_6  and  C6_7 
REMARK    5  A    between atoms: C8_9  and  C9_10 
REMARK    6  A    between atoms: C11_14  and  N1_15 
REMARK    7  A    between atoms: C12_19  and  N2_20 
REMARK       I    between atoms: N2_20  and  C13_22 
ROOT
HETATM    1  C6  UNL     1      31.668   7.861 -35.772  1.00  0.00     0.170 C 
HETATM    2  C7  UNL     1      31.963   6.603 -36.497  1.00  0.00     0.021 C 
HETATM    3  C8  UNL     1      31.122   5.919 -37.243  1.00  0.00     0.019 C 
HETATM    4  C10 UNL     1      29.726   6.390 -37.424  1.00  0.00     0.080 C 
HETATM    5  C11 UNL     1      29.329   6.950 -36.050  1.00  0.00     0.213 C 
HETATM    6  C12 UNL     1      30.205   8.208 -35.914  1.00  0.00     0.147 C 
ENDROOT
BRANCH   1   7
HETATM    7  O1  UNL     1      32.403   8.869 -36.330  1.00  0.00    -0.375 OA
BRANCH   7   8
HETATM    8  C3  UNL     1      33.252   9.553 -35.531  1.00  0.00     0.121 C 
BRANCH   8   9
HETATM    9  C2  UNL     1      33.577   8.734 -34.312  1.00  0.00     0.027 C 
HETATM   10  C1  UNL     1      34.894   7.980 -34.449  1.00  0.00     0.007 C 
ENDBRANCH   8   9
BRANCH   8  11
HETATM   11  C4  UNL     1      32.824  10.951 -35.172  1.00  0.00     0.027 C 
HETATM   12  C5  UNL     1      32.298  11.711 -36.380  1.00  0.00     0.007 C 
ENDBRANCH   8  11
ENDBRANCH   7   8
ENDBRANCH   1   7
BRANCH   6  13
HETATM   13  N2  UNL     1      29.711   9.021 -34.825  1.00  0.00    -0.352 N 
HETATM   14  C13 UNL     1      29.055  10.252 -35.086  1.00  0.00     0.214 C 
HETATM   15  C14 UNL     1      28.538  11.111 -34.001  1.00  0.00     0.117 C 
HETATM   16  O4  UNL     1      28.906  10.632 -36.277  1.00  0.00    -0.274 OA
ATOM     17  H2  UNL     1      29.835   8.707 -33.862  1.00  0.00     0.163 HD
ENDBRANCH   6  13
BRANCH   3  18
HETATM   18  C9  UNL     1      31.529   4.695 -37.907  1.00  0.00     0.205 C 
HETATM   19  O2  UNL     1      30.725   3.741 -37.978  1.00  0.00    -0.644 OA
HETATM   20  O3  UNL     1      32.783   4.534 -38.473  1.00  0.00    -0.644 OA
ENDBRANCH   3  18
BRANCH   5  21
HETATM   21  N1  UNL     1      27.968   7.388 -36.152  1.00  0.00    -0.073 N 
ATOM     22  H13 UNL     1      27.826   8.088 -36.881  1.00  0.00     0.274 HD
ATOM     23  H12 UNL     1      27.346   6.675 -36.534  1.00  0.00     0.274 HD
ATOM     24  H11 UNL     1      27.688   7.710 -35.226  1.00  0.00     0.274 HD
ENDBRANCH   5  21
TORSDOF 7
ENDMDL
