MODEL 8
REMARK VINA RESULT: -6.188922293      1.756      4.824
REMARK  7 active torsions:
REMARK  status: ('A' for Active; 'I' for Inactive)
REMARK    1  A    between atoms: C2_2  and  C3_3 
REMARK    2  A    between atoms: C3_3  and  C4_4 
REMARK    3  A    between atoms: C3_3  and  O1_6 
REMARK    4  A    between atoms: O1_6  and  C6_7 
REMARK    5  A    between atoms: C8_9  and  C9_10 
REMARK    6  A    between atoms: C11_14  and  N1_15 
REMARK    7  A    between atoms: C12_19  and  N2_20 
REMARK       I    between atoms: N2_20  and  C13_22 
ROOT
HETATM    1  C6  UNL     1      30.492   8.741 -36.629  1.00  0.00     0.170 C 
HETATM    2  C7  UNL     1      29.827   9.637 -35.655  1.00  0.00     0.021 C 
HETATM    3  C8  UNL     1      29.009   9.270 -34.692  1.00  0.00     0.019 C 
HETATM    4  C10 UNL     1      28.670   7.838 -34.501  1.00  0.00     0.080 C 
HETATM    5  C11 UNL     1      28.560   7.276 -35.927  1.00  0.00     0.213 C 
HETATM    6  C12 UNL     1      30.009   7.323 -36.440  1.00  0.00     0.147 C 
ENDROOT
BRANCH   1   7
HETATM    7  O1  UNL     1      31.840   8.768 -36.398  1.00  0.00    -0.375 OA
BRANCH   7   8
HETATM    8  C3  UNL     1      32.486   9.945 -36.554  1.00  0.00     0.121 C 
BRANCH   8   9
HETATM    9  C2  UNL     1      33.426   9.860 -37.725  1.00  0.00     0.027 C 
HETATM   10  C1  UNL     1      34.092   8.494 -37.841  1.00  0.00     0.007 C 
ENDBRANCH   8   9
BRANCH   8  11
HETATM   11  C4  UNL     1      33.168  10.481 -35.323  1.00  0.00     0.027 C 
HETATM   12  C5  UNL     1      33.100  11.999 -35.252  1.00  0.00     0.007 C 
ENDBRANCH   8  11
ENDBRANCH   7   8
ENDBRANCH   1   7
BRANCH   6  13
HETATM   13  N2  UNL     1      30.119   6.526 -37.641  1.00  0.00    -0.352 N 
HETATM   14  C13 UNL     1      31.154   5.563 -37.774  1.00  0.00     0.214 C 
HETATM   15  C14 UNL     1      31.300   4.730 -38.985  1.00  0.00     0.117 C 
HETATM   16  O4  UNL     1      31.977   5.408 -36.835  1.00  0.00    -0.274 OA
ATOM     17  H2  UNL     1      29.449   6.656 -38.399  1.00  0.00     0.163 HD
ENDBRANCH   6  13
BRANCH   3  18
HETATM   18  C9  UNL     1      28.416  10.244 -33.795  1.00  0.00     0.205 C 
HETATM   19  O2  UNL     1      27.784  11.211 -34.272  1.00  0.00    -0.644 OA
HETATM   20  O3  UNL     1      28.519  10.149 -32.417  1.00  0.00    -0.644 OA
ENDBRANCH   3  18
BRANCH   5  21
HETATM   21  N1  UNL     1      28.195   5.895 -35.807  1.00  0.00    -0.073 N 
ATOM     22  H13 UNL     1      27.693   5.541 -36.622  1.00  0.00     0.274 HD
ATOM     23  H12 UNL     1      28.994   5.263 -35.862  1.00  0.00     0.274 HD
ATOM     24  H11 UNL     1      27.668   5.800 -34.939  1.00  0.00     0.274 HD
ENDBRANCH   5  21
TORSDOF 7
ENDMDL
