MODEL 6
REMARK VINA RESULT: -6.283602997      1.214      1.717
REMARK  7 active torsions:
REMARK  status: ('A' for Active; 'I' for Inactive)
REMARK    1  A    between atoms: C2_2  and  C3_3 
REMARK    2  A    between atoms: C3_3  and  C4_4 
REMARK    3  A    between atoms: C3_3  and  O1_6 
REMARK    4  A    between atoms: O1_6  and  C6_7 
REMARK    5  A    between atoms: C8_9  and  C9_10 
REMARK    6  A    between atoms: C11_14  and  N1_15 
REMARK    7  A    between atoms: C12_19  and  N2_20 
REMARK       I    between atoms: N2_20  and  C13_22 
ROOT
HETATM    1  C6  UNL     1      31.728   8.096 -34.843  1.00  0.00     0.170 C 
HETATM    2  C7  UNL     1      32.191   7.005 -35.733  1.00  0.00     0.021 C 
HETATM    3  C8  UNL     1      31.556   6.538 -36.786  1.00  0.00     0.019 C 
HETATM    4  C10 UNL     1      30.244   7.106 -37.184  1.00  0.00     0.080 C 
HETATM    5  C11 UNL     1      29.527   7.385 -35.854  1.00  0.00     0.213 C 
HETATM    6  C12 UNL     1      30.342   8.539 -35.247  1.00  0.00     0.147 C 
ENDROOT
BRANCH   1   7
HETATM    7  O1  UNL     1      32.575   9.160 -34.980  1.00  0.00    -0.375 OA
BRANCH   7   8
HETATM    8  C3  UNL     1      32.321  10.050 -35.966  1.00  0.00     0.121 C 
BRANCH   8   9
HETATM    9  C2  UNL     1      33.344   9.907 -37.059  1.00  0.00     0.027 C 
HETATM   10  C1  UNL     1      32.709   9.697 -38.429  1.00  0.00     0.007 C 
ENDBRANCH   8   9
BRANCH   8  11
HETATM   11  C4  UNL     1      32.164  11.481 -35.526  1.00  0.00     0.027 C 
HETATM   12  C5  UNL     1      33.508  12.156 -35.301  1.00  0.00     0.007 C 
ENDBRANCH   8  11
ENDBRANCH   7   8
ENDBRANCH   1   7
BRANCH   6  13
HETATM   13  N2  UNL     1      29.600   9.129 -34.155  1.00  0.00    -0.352 N 
HETATM   14  C13 UNL     1      28.876  10.335 -34.346  1.00  0.00     0.214 C 
HETATM   15  C14 UNL     1      28.106  10.969 -33.256  1.00  0.00     0.117 C 
HETATM   16  O4  UNL     1      28.884  10.888 -35.476  1.00  0.00    -0.274 OA
ATOM     17  H2  UNL     1      29.597   8.676 -33.241  1.00  0.00     0.163 HD
ENDBRANCH   6  13
BRANCH   3  18
HETATM   18  C9  UNL     1      32.111   5.461 -37.584  1.00  0.00     0.205 C 
HETATM   19  O2  UNL     1      32.933   5.729 -38.486  1.00  0.00    -0.644 OA
HETATM   20  O3  UNL     1      31.767   4.134 -37.389  1.00  0.00    -0.644 OA
ENDBRANCH   3  18
BRANCH   5  21
HETATM   21  N1  UNL     1      28.230   7.903 -36.176  1.00  0.00    -0.073 N 
ATOM     22  H13 UNL     1      28.204   8.923 -36.215  1.00  0.00     0.274 HD
ATOM     23  H12 UNL     1      27.958   7.730 -37.144  1.00  0.00     0.274 HD
ATOM     24  H11 UNL     1      27.575   7.511 -35.500  1.00  0.00     0.274 HD
ENDBRANCH   5  21
TORSDOF 7
ENDMDL
