MODEL 5
REMARK VINA RESULT: -6.318592521      1.942      4.942
REMARK  7 active torsions:
REMARK  status: ('A' for Active; 'I' for Inactive)
REMARK    1  A    between atoms: C2_2  and  C3_3 
REMARK    2  A    between atoms: C3_3  and  C4_4 
REMARK    3  A    between atoms: C3_3  and  O1_6 
REMARK    4  A    between atoms: O1_6  and  C6_7 
REMARK    5  A    between atoms: C8_9  and  C9_10 
REMARK    6  A    between atoms: C11_14  and  N1_15 
REMARK    7  A    between atoms: C12_19  and  N2_20 
REMARK       I    between atoms: N2_20  and  C13_22 
ROOT
HETATM    1  C6  UNL     1      31.120   8.603 -35.794  1.00  0.00     0.170 C 
HETATM    2  C7  UNL     1      30.513   9.402 -34.704  1.00  0.00     0.021 C 
HETATM    3  C8  UNL     1      29.392   9.131 -34.072  1.00  0.00     0.019 C 
HETATM    4  C10 UNL     1      28.601   7.927 -34.430  1.00  0.00     0.080 C 
HETATM    5  C11 UNL     1      28.722   7.829 -35.958  1.00  0.00     0.213 C 
HETATM    6  C12 UNL     1      30.201   7.466 -36.174  1.00  0.00     0.147 C 
ENDROOT
BRANCH   1   7
HETATM    7  O1  UNL     1      32.296   8.070 -35.344  1.00  0.00    -0.375 OA
BRANCH   7   8
HETATM    8  C3  UNL     1      33.426   8.793 -35.514  1.00  0.00     0.121 C 
BRANCH   8   9
HETATM    9  C2  UNL     1      33.689   8.990 -36.982  1.00  0.00     0.027 C 
HETATM   10  C1  UNL     1      34.416   7.806 -37.609  1.00  0.00     0.007 C 
ENDBRANCH   8   9
BRANCH   8  11
HETATM   11  C4  UNL     1      34.641   8.280 -34.788  1.00  0.00     0.027 C 
HETATM   12  C5  UNL     1      34.305   7.111 -33.875  1.00  0.00     0.007 C 
ENDBRANCH   8  11
ENDBRANCH   7   8
ENDBRANCH   1   7
BRANCH   6  13
HETATM   13  N2  UNL     1      30.393   7.018 -37.535  1.00  0.00    -0.352 N 
HETATM   14  C13 UNL     1      31.213   5.893 -37.815  1.00  0.00     0.214 C 
HETATM   15  C14 UNL     1      31.433   5.406 -39.192  1.00  0.00     0.117 C 
HETATM   16  O4  UNL     1      31.773   5.287 -36.865  1.00  0.00    -0.274 OA
ATOM     17  H2  UNL     1      29.935   7.514 -38.300  1.00  0.00     0.163 HD
ENDBRANCH   6  13
BRANCH   3  18
HETATM   18  C9  UNL     1      28.896   9.993 -33.016  1.00  0.00     0.205 C 
HETATM   19  O2  UNL     1      29.062   9.658 -31.824  1.00  0.00    -0.644 OA
HETATM   20  O3  UNL     1      28.238  11.185 -33.273  1.00  0.00    -0.644 OA
ENDBRANCH   3  18
BRANCH   5  21
HETATM   21  N1  UNL     1      27.942   6.699 -36.370  1.00  0.00    -0.073 N 
ATOM     22  H13 UNL     1      27.894   5.966 -35.663  1.00  0.00     0.274 HD
ATOM     23  H12 UNL     1      26.943   6.898 -36.418  1.00  0.00     0.274 HD
ATOM     24  H11 UNL     1      28.329   6.376 -37.257  1.00  0.00     0.274 HD
ENDBRANCH   5  21
TORSDOF 7
ENDMDL
