MODEL 2
REMARK VINA RESULT: -6.541872121      1.617      4.955
REMARK  7 active torsions:
REMARK  status: ('A' for Active; 'I' for Inactive)
REMARK    1  A    between atoms: C2_2  and  C3_3 
REMARK    2  A    between atoms: C3_3  and  C4_4 
REMARK    3  A    between atoms: C3_3  and  O1_6 
REMARK    4  A    between atoms: O1_6  and  C6_7 
REMARK    5  A    between atoms: C8_9  and  C9_10 
REMARK    6  A    between atoms: C11_14  and  N1_15 
REMARK    7  A    between atoms: C12_19  and  N2_20 
REMARK       I    between atoms: N2_20  and  C13_22 
ROOT
HETATM    1  C6  UNL     1      30.482   8.771 -36.643  1.00  0.00     0.170 C 
HETATM    2  C7  UNL     1      29.832   9.665 -35.657  1.00  0.00     0.021 C 
HETATM    3  C8  UNL     1      29.033   9.295 -34.679  1.00  0.00     0.019 C 
HETATM    4  C10 UNL     1      28.704   7.861 -34.481  1.00  0.00     0.080 C 
HETATM    5  C11 UNL     1      28.569   7.298 -35.904  1.00  0.00     0.213 C 
HETATM    6  C12 UNL     1      30.008   7.351 -36.444  1.00  0.00     0.147 C 
ENDROOT
BRANCH   1   7
HETATM    7  O1  UNL     1      31.833   8.803 -36.438  1.00  0.00    -0.375 OA
BRANCH   7   8
HETATM    8  C3  UNL     1      32.312   9.647 -35.497  1.00  0.00     0.121 C 
BRANCH   8   9
HETATM    9  C2  UNL     1      32.988  10.817 -36.158  1.00  0.00     0.027 C 
HETATM   10  C1  UNL     1      33.066  12.037 -35.247  1.00  0.00     0.007 C 
ENDBRANCH   8   9
BRANCH   8  11
HETATM   11  C4  UNL     1      33.180   9.019 -34.440  1.00  0.00     0.027 C 
HETATM   12  C5  UNL     1      32.355   8.300 -33.383  1.00  0.00     0.007 C 
ENDBRANCH   8  11
ENDBRANCH   7   8
ENDBRANCH   1   7
BRANCH   6  13
HETATM   13  N2  UNL     1      30.098   6.554 -37.647  1.00  0.00    -0.352 N 
HETATM   14  C13 UNL     1      31.108   5.564 -37.781  1.00  0.00     0.214 C 
HETATM   15  C14 UNL     1      31.233   4.730 -38.994  1.00  0.00     0.117 C 
HETATM   16  O4  UNL     1      31.926   5.386 -36.842  1.00  0.00    -0.274 OA
ATOM     17  H2  UNL     1      29.432   6.703 -38.405  1.00  0.00     0.163 HD
ENDBRANCH   6  13
BRANCH   3  18
HETATM   18  C9  UNL     1      28.453  10.267 -33.772  1.00  0.00     0.205 C 
HETATM   19  O2  UNL     1      27.848  11.255 -34.238  1.00  0.00    -0.644 OA
HETATM   20  O3  UNL     1      28.542  10.147 -32.394  1.00  0.00    -0.644 OA
ENDBRANCH   3  18
BRANCH   5  21
HETATM   21  N1  UNL     1      28.212   5.916 -35.777  1.00  0.00    -0.073 N 
ATOM     22  H13 UNL     1      28.183   5.426 -36.671  1.00  0.00     0.274 HD
ATOM     23  H12 UNL     1      28.942   5.352 -35.343  1.00  0.00     0.274 HD
ATOM     24  H11 UNL     1      27.326   5.882 -35.272  1.00  0.00     0.274 HD
ENDBRANCH   5  21
TORSDOF 7
ENDMDL
