MODEL 11
REMARK VINA RESULT: -6.068487073      1.259      1.924
REMARK  7 active torsions:
REMARK  status: ('A' for Active; 'I' for Inactive)
REMARK    1  A    between atoms: C2_2  and  C3_3 
REMARK    2  A    between atoms: C3_3  and  C4_4 
REMARK    3  A    between atoms: C3_3  and  O1_6 
REMARK    4  A    between atoms: O1_6  and  C6_7 
REMARK    5  A    between atoms: C8_9  and  C9_10 
REMARK    6  A    between atoms: C11_14  and  N1_15 
REMARK    7  A    between atoms: C12_19  and  N2_20 
REMARK       I    between atoms: N2_20  and  C13_22 
ROOT
HETATM    1  C6  UNL     1      31.125   8.117 -36.197  1.00  0.00     0.170 C 
HETATM    2  C7  UNL     1      31.370   6.821 -36.872  1.00  0.00     0.021 C 
HETATM    3  C8  UNL     1      30.455   5.951 -37.242  1.00  0.00     0.019 C 
HETATM    4  C10 UNL     1      29.017   6.224 -36.994  1.00  0.00     0.080 C 
HETATM    5  C11 UNL     1      28.987   6.905 -35.617  1.00  0.00     0.213 C 
HETATM    6  C12 UNL     1      29.655   8.265 -35.880  1.00  0.00     0.147 C 
ENDROOT
BRANCH   1   7
HETATM    7  O1  UNL     1      31.483   9.126 -37.047  1.00  0.00    -0.375 OA
BRANCH   7   8
HETATM    8  C3  UNL     1      32.584   9.850 -36.745  1.00  0.00     0.121 C 
BRANCH   8   9
HETATM    9  C2  UNL     1      32.186  11.244 -36.348  1.00  0.00     0.027 C 
HETATM   10  C1  UNL     1      33.084  11.820 -35.259  1.00  0.00     0.007 C 
ENDBRANCH   8   9
BRANCH   8  11
HETATM   11  C4  UNL     1      33.669   9.850 -37.789  1.00  0.00     0.027 C 
HETATM   12  C5  UNL     1      34.518   8.590 -37.725  1.00  0.00     0.007 C 
ENDBRANCH   8  11
ENDBRANCH   7   8
ENDBRANCH   1   7
BRANCH   6  13
HETATM   13  N2  UNL     1      29.407   9.147 -34.762  1.00  0.00    -0.352 N 
HETATM   14  C13 UNL     1      28.873  10.445 -34.973  1.00  0.00     0.214 C 
HETATM   15  C14 UNL     1      28.606  11.375 -33.856  1.00  0.00     0.117 C 
HETATM   16  O4  UNL     1      28.617  10.824 -36.145  1.00  0.00    -0.274 OA
ATOM     17  H2  UNL     1      29.617   8.833 -33.814  1.00  0.00     0.163 HD
ENDBRANCH   6  13
BRANCH   3  18
HETATM   18  C9  UNL     1      30.818   4.709 -37.898  1.00  0.00     0.205 C 
HETATM   19  O2  UNL     1      31.889   4.145 -37.590  1.00  0.00    -0.644 OA
HETATM   20  O3  UNL     1      30.020   4.114 -38.861  1.00  0.00    -0.644 OA
ENDBRANCH   3  18
BRANCH   5  21
HETATM   21  N1  UNL     1      27.612   7.160 -35.304  1.00  0.00    -0.073 N 
ATOM     22  H13 UNL     1      26.970   6.846 -36.033  1.00  0.00     0.274 HD
ATOM     23  H12 UNL     1      27.256   6.567 -34.554  1.00  0.00     0.274 HD
ATOM     24  H11 UNL     1      27.532   8.156 -35.101  1.00  0.00     0.274 HD
ENDBRANCH   5  21
TORSDOF 7
ENDMDL
