MODEL 7
REMARK VINA RESULT: -8.316081051      1.777      2.192
REMARK  8 active torsions:
REMARK  status: ('A' for Active; 'I' for Inactive)
REMARK    1  A    between atoms: N5_13  and  C6_14 
REMARK    2  A    between atoms: C7_16  and  C8_17 
REMARK    3  A    between atoms: C8_17  and  O2_18 
REMARK    4  A    between atoms: O2_18  and  P1_19 
REMARK    5  A    between atoms: P1_19  and  O5_22 
REMARK    6  A    between atoms: O5_22  and  P2_23 
REMARK    7  A    between atoms: C9_27  and  O9_28 
REMARK    8  A    between atoms: C10_30  and  O10_31 
ROOT
HETATM    1  C6  UNL     1       0.023 -40.281   1.133  1.00  0.00     0.262 C 
HETATM    2  O1  UNL     1      -0.372 -39.971  -0.169  1.00  0.00    -0.353 OA
HETATM    3  C7  UNL     1      -0.956 -38.721   0.028  1.00  0.00     0.180 C 
HETATM    4  C9  UNL     1      -0.009 -37.947   0.903  1.00  0.00     0.182 C 
HETATM    5  C10 UNL     1       0.856 -39.072   1.490  1.00  0.00     0.198 C 
ENDROOT
BRANCH   1   6
HETATM    6  N5  UNL     1       0.754 -41.513   1.217  1.00  0.00    -0.297 N 
HETATM    7  C3  UNL     1       0.923 -42.198   2.368  1.00  0.00     0.142 A 
HETATM    8  N3  UNL     1       0.502 -41.948   3.631  1.00  0.00    -0.336 N 
HETATM    9  C4  UNL     1       1.664 -43.333   2.121  1.00  0.00     0.119 A 
HETATM   10  C2  UNL     1       0.780 -42.769   4.662  1.00  0.00     0.183 A 
ATOM     11  H3  UNL     1      -0.047 -41.107   3.809  1.00  0.00     0.168 HD
HETATM   12  N2  UNL     1       1.495 -43.863   4.422  1.00  0.00    -0.339 N 
HETATM   13  C1  UNL     1       1.941 -44.162   3.178  1.00  0.00     0.148 A 
ATOM     14  H2  UNL     1       1.714 -44.493   5.193  1.00  0.00     0.167 HD
HETATM   15  N1  UNL     1       2.690 -45.325   2.973  1.00  0.00    -0.080 NA
HETATM   16  N4  UNL     1       1.929 -43.306   0.803  1.00  0.00    -0.346 N 
HETATM   17  C5  UNL     1       1.374 -42.203   0.268  1.00  0.00     0.188 A 
ATOM     18  H4  UNL     1       2.464 -44.009   0.291  1.00  0.00     0.167 HD
ENDBRANCH   1   6
BRANCH   5  19
HETATM   19  O10 UNL     1       1.038 -38.911   2.843  1.00  0.00    -0.388 OA
ATOM     20  H10 UNL     1       0.351 -38.407   3.261  1.00  0.00     0.210 HD
ENDBRANCH   5  19
BRANCH   3  21
HETATM   21  C8  UNL     1      -1.242 -38.018  -1.279  1.00  0.00     0.216 C 
BRANCH  21  22
HETATM   22  O2  UNL     1      -0.628 -38.711  -2.275  1.00  0.00    -0.287 OA
BRANCH  22  23
HETATM   23  P1  UNL     1       0.703 -38.059  -2.969  1.00  0.00     0.418 P 
HETATM   24  O3  UNL     1       0.335 -36.627  -2.587  1.00  0.00    -0.624 OA
HETATM   25  O4  UNL     1       2.099 -37.900  -1.980  1.00  0.00    -0.624 OA
BRANCH  23  26
HETATM   26  O5  UNL     1       0.801 -37.768  -4.547  1.00  0.00    -0.173 OA
BRANCH  26  27
HETATM   27  P2  UNL     1      -0.553 -37.330  -5.373  1.00  0.00     0.431 P 
HETATM   28  O6  UNL     1      -0.905 -35.770  -5.611  1.00  0.00    -0.616 OA
HETATM   29  O7  UNL     1      -1.684 -38.526  -5.756  1.00  0.00    -0.616 OA
HETATM   30  O8  UNL     1       0.134 -37.603  -6.711  1.00  0.00    -0.616 OA
ENDBRANCH  26  27
ENDBRANCH  23  26
ENDBRANCH  22  23
ENDBRANCH  21  22
ENDBRANCH   3  21
BRANCH   4  31
HETATM   31  O9  UNL     1      -0.687 -37.386   1.995  1.00  0.00    -0.390 OA
ATOM     32  H9  UNL     1      -0.101 -36.850   2.515  1.00  0.00     0.210 HD
ENDBRANCH   4  31
TORSDOF 8
ENDMDL
