MODEL 20
REMARK VINA RESULT: -8.090815666      3.455      5.794
REMARK  8 active torsions:
REMARK  status: ('A' for Active; 'I' for Inactive)
REMARK    1  A    between atoms: N5_13  and  C6_14 
REMARK    2  A    between atoms: C7_16  and  C8_17 
REMARK    3  A    between atoms: C8_17  and  O2_18 
REMARK    4  A    between atoms: O2_18  and  P1_19 
REMARK    5  A    between atoms: P1_19  and  O5_22 
REMARK    6  A    between atoms: O5_22  and  P2_23 
REMARK    7  A    between atoms: C9_27  and  O9_28 
REMARK    8  A    between atoms: C10_30  and  O10_31 
ROOT
HETATM    1  C6  UNL     1       0.469 -39.693  -0.279  1.00  0.00     0.262 C 
HETATM    2  O1  UNL     1       1.862 -39.689  -0.349  1.00  0.00    -0.353 OA
HETATM    3  C7  UNL     1       2.052 -39.595  -1.727  1.00  0.00     0.180 C 
HETATM    4  C9  UNL     1       1.110 -38.527  -2.211  1.00  0.00     0.182 C 
HETATM    5  C10 UNL     1       0.126 -38.431  -1.037  1.00  0.00     0.198 C 
ENDROOT
BRANCH   1   6
HETATM    6  N5  UNL     1      -0.024 -39.693   1.069  1.00  0.00    -0.297 N 
HETATM    7  C3  UNL     1       0.269 -40.658   1.966  1.00  0.00     0.142 A 
HETATM    8  N3  UNL     1       1.025 -41.778   1.865  1.00  0.00    -0.336 N 
HETATM    9  C4  UNL     1      -0.349 -40.374   3.164  1.00  0.00     0.119 A 
HETATM   10  C2  UNL     1       1.197 -42.630   2.893  1.00  0.00     0.183 A 
ATOM     11  H3  UNL     1       1.482 -41.984   0.976  1.00  0.00     0.168 HD
HETATM   12  N2  UNL     1       0.599 -42.354   4.047  1.00  0.00    -0.339 N 
HETATM   13  C1  UNL     1      -0.167 -41.249   4.205  1.00  0.00     0.148 A 
ATOM     14  H2  UNL     1       0.720 -42.991   4.835  1.00  0.00     0.167 HD
HETATM   15  N1  UNL     1      -0.776 -40.999   5.438  1.00  0.00    -0.080 NA
HETATM   16  N4  UNL     1      -1.013 -39.222   2.958  1.00  0.00    -0.346 N 
HETATM   17  C5  UNL     1      -0.808 -38.821   1.689  1.00  0.00     0.188 A 
ATOM     18  H4  UNL     1      -1.579 -38.732   3.651  1.00  0.00     0.167 HD
ENDBRANCH   1   6
BRANCH   5  19
HETATM   19  O10 UNL     1      -1.177 -38.391  -1.475  1.00  0.00    -0.388 OA
ATOM     20  H10 UNL     1      -1.532 -37.512  -1.528  1.00  0.00     0.210 HD
ENDBRANCH   5  19
BRANCH   3  21
HETATM   21  C8  UNL     1       3.492 -39.302  -2.082  1.00  0.00     0.216 C 
BRANCH  21  22
HETATM   22  O2  UNL     1       4.288 -40.013  -1.238  1.00  0.00    -0.287 OA
BRANCH  22  23
HETATM   23  P1  UNL     1       4.943 -41.411  -1.781  1.00  0.00     0.418 P 
HETATM   24  O3  UNL     1       4.808 -41.029  -3.254  1.00  0.00    -0.624 OA
HETATM   25  O4  UNL     1       6.646 -41.438  -2.007  1.00  0.00    -0.624 OA
BRANCH  23  26
HETATM   26  O5  UNL     1       4.096 -42.772  -1.907  1.00  0.00    -0.173 OA
BRANCH  26  27
HETATM   27  P2  UNL     1       3.544 -43.508  -0.543  1.00  0.00     0.431 P 
HETATM   28  O6  UNL     1       4.530 -44.417   0.359  1.00  0.00    -0.616 OA
HETATM   29  O7  UNL     1       1.882 -43.489  -0.234  1.00  0.00    -0.616 OA
HETATM   30  O8  UNL     1       3.668 -42.205   0.250  1.00  0.00    -0.616 OA
ENDBRANCH  26  27
ENDBRANCH  23  26
ENDBRANCH  22  23
ENDBRANCH  21  22
ENDBRANCH   3  21
BRANCH   4  31
HETATM   31  O9  UNL     1       0.355 -38.987  -3.299  1.00  0.00    -0.390 OA
ATOM     32  H9  UNL     1       0.904 -39.098  -4.066  1.00  0.00     0.210 HD
ENDBRANCH   4  31
TORSDOF 8
ENDMDL
