MODEL 19
REMARK VINA RESULT: -8.093637342      5.097      7.634
REMARK  8 active torsions:
REMARK  status: ('A' for Active; 'I' for Inactive)
REMARK    1  A    between atoms: N5_13  and  C6_14 
REMARK    2  A    between atoms: C7_16  and  C8_17 
REMARK    3  A    between atoms: C8_17  and  O2_18 
REMARK    4  A    between atoms: O2_18  and  P1_19 
REMARK    5  A    between atoms: P1_19  and  O5_22 
REMARK    6  A    between atoms: O5_22  and  P2_23 
REMARK    7  A    between atoms: C9_27  and  O9_28 
REMARK    8  A    between atoms: C10_30  and  O10_31 
ROOT
HETATM    1  C6  UNL     1       1.521 -38.784   0.655  1.00  0.00     0.262 C 
HETATM    2  O1  UNL     1       0.840 -39.890   1.163  1.00  0.00    -0.353 OA
HETATM    3  C7  UNL     1       0.135 -39.301   2.212  1.00  0.00     0.180 C 
HETATM    4  C9  UNL     1      -0.461 -38.035   1.660  1.00  0.00     0.182 C 
HETATM    5  C10 UNL     1       0.384 -37.822   0.397  1.00  0.00     0.198 C 
ENDROOT
BRANCH   1   6
HETATM    6  N5  UNL     1       2.281 -39.088  -0.524  1.00  0.00    -0.297 N 
HETATM    7  C3  UNL     1       3.136 -40.129  -0.607  1.00  0.00     0.142 A 
HETATM    8  N3  UNL     1       3.486 -41.078   0.295  1.00  0.00    -0.336 N 
HETATM    9  C4  UNL     1       3.708 -40.153  -1.861  1.00  0.00     0.119 A 
HETATM   10  C2  UNL     1       4.374 -42.051   0.014  1.00  0.00     0.183 A 
ATOM     11  H3  UNL     1       3.060 -41.056   1.221  1.00  0.00     0.168 HD
HETATM   12  N2  UNL     1       4.924 -42.071  -1.195  1.00  0.00    -0.339 N 
HETATM   13  C1  UNL     1       4.611 -41.148  -2.136  1.00  0.00     0.148 A 
ATOM     14  H2  UNL     1       5.600 -42.802  -1.422  1.00  0.00     0.167 HD
HETATM   15  N1  UNL     1       5.215 -41.211  -3.395  1.00  0.00    -0.080 NA
HETATM   16  N4  UNL     1       3.173 -39.108  -2.517  1.00  0.00    -0.346 N 
HETATM   17  C5  UNL     1       2.314 -38.473  -1.699  1.00  0.00     0.188 A 
ATOM     18  H4  UNL     1       3.386 -38.840  -3.478  1.00  0.00     0.167 HD
ENDBRANCH   1   6
BRANCH   5  19
HETATM   19  O10 UNL     1       0.788 -36.514   0.277  1.00  0.00    -0.388 OA
ATOM     20  H10 UNL     1       0.599 -35.987   1.044  1.00  0.00     0.210 HD
ENDBRANCH   5  19
BRANCH   3  21
HETATM   21  C8  UNL     1      -0.909 -40.231   2.785  1.00  0.00     0.216 C 
BRANCH  21  22
HETATM   22  O2  UNL     1      -0.452 -41.506   2.663  1.00  0.00    -0.287 OA
BRANCH  22  23
HETATM   23  P1  UNL     1      -0.119 -42.346   4.028  1.00  0.00     0.418 P 
HETATM   24  O3  UNL     1       0.115 -41.095   4.872  1.00  0.00    -0.624 OA
HETATM   25  O4  UNL     1      -1.443 -42.720   5.057  1.00  0.00    -0.624 OA
BRANCH  23  26
HETATM   26  O5  UNL     1       1.327 -42.987   4.317  1.00  0.00    -0.173 OA
BRANCH  26  27
HETATM   27  P2  UNL     1       2.082 -43.843   3.132  1.00  0.00     0.431 P 
HETATM   28  O6  UNL     1       3.289 -44.858   3.489  1.00  0.00    -0.616 OA
HETATM   29  O7  UNL     1       1.735 -43.466   1.521  1.00  0.00    -0.616 OA
HETATM   30  O8  UNL     1       0.945 -44.865   3.100  1.00  0.00    -0.616 OA
ENDBRANCH  26  27
ENDBRANCH  23  26
ENDBRANCH  22  23
ENDBRANCH  21  22
ENDBRANCH   3  21
BRANCH   4  31
HETATM   31  O9  UNL     1      -0.172 -36.945   2.494  1.00  0.00    -0.390 OA
ATOM     32  H9  UNL     1       0.759 -36.900   2.676  1.00  0.00     0.210 HD
ENDBRANCH   4  31
TORSDOF 8
ENDMDL
