MODEL 14
REMARK VINA RESULT: -8.247435948      2.043      3.212
REMARK  8 active torsions:
REMARK  status: ('A' for Active; 'I' for Inactive)
REMARK    1  A    between atoms: N5_13  and  C6_14 
REMARK    2  A    between atoms: C7_16  and  C8_17 
REMARK    3  A    between atoms: C8_17  and  O2_18 
REMARK    4  A    between atoms: O2_18  and  P1_19 
REMARK    5  A    between atoms: P1_19  and  O5_22 
REMARK    6  A    between atoms: O5_22  and  P2_23 
REMARK    7  A    between atoms: C9_27  and  O9_28 
REMARK    8  A    between atoms: C10_30  and  O10_31 
ROOT
HETATM    1  C6  UNL     1      -0.341 -40.726   1.602  1.00  0.00     0.262 C 
HETATM    2  O1  UNL     1       0.490 -39.926   0.818  1.00  0.00    -0.353 OA
HETATM    3  C7  UNL     1      -0.401 -38.925   0.434  1.00  0.00     0.180 C 
HETATM    4  C9  UNL     1      -1.146 -38.525   1.678  1.00  0.00     0.182 C 
HETATM    5  C10 UNL     1      -0.873 -39.722   2.598  1.00  0.00     0.198 C 
ENDROOT
BRANCH   1   6
HETATM    6  N5  UNL     1       0.355 -41.819   2.220  1.00  0.00    -0.297 N 
HETATM    7  C3  UNL     1       1.383 -42.470   1.634  1.00  0.00     0.142 A 
HETATM    8  N3  UNL     1       1.985 -42.300   0.432  1.00  0.00    -0.336 N 
HETATM    9  C4  UNL     1       1.836 -43.462   2.476  1.00  0.00     0.119 A 
HETATM   10  C2  UNL     1       3.014 -43.066   0.024  1.00  0.00     0.183 A 
ATOM     11  H3  UNL     1       1.646 -41.564  -0.187  1.00  0.00     0.168 HD
HETATM   12  N2  UNL     1       3.449 -44.023   0.837  1.00  0.00    -0.339 N 
HETATM   13  C1  UNL     1       2.885 -44.237   2.050  1.00  0.00     0.148 A 
ATOM     14  H2  UNL     1       4.227 -44.612   0.540  1.00  0.00     0.167 HD
HETATM   15  N1  UNL     1       3.377 -45.255   2.872  1.00  0.00    -0.080 NA
HETATM   16  N4  UNL     1       1.057 -43.385   3.569  1.00  0.00    -0.346 N 
HETATM   17  C5  UNL     1       0.167 -42.390   3.403  1.00  0.00     0.188 A 
ATOM     18  H4  UNL     1       1.129 -43.985   4.392  1.00  0.00     0.167 HD
ENDBRANCH   1   6
BRANCH   5  19
HETATM   19  O10 UNL     1      -2.018 -40.137   3.237  1.00  0.00    -0.388 OA
ATOM     20  H10 UNL     1      -2.611 -39.426   3.451  1.00  0.00     0.210 HD
ENDBRANCH   5  19
BRANCH   3  21
HETATM   21  C8  UNL     1       0.305 -37.758  -0.219  1.00  0.00     0.216 C 
BRANCH  21  22
HETATM   22  O2  UNL     1       0.139 -37.864  -1.564  1.00  0.00    -0.287 OA
BRANCH  22  23
HETATM   23  P1  UNL     1       1.341 -38.539  -2.445  1.00  0.00     0.418 P 
HETATM   24  O3  UNL     1       2.449 -38.035  -1.522  1.00  0.00    -0.624 OA
HETATM   25  O4  UNL     1       1.807 -40.140  -2.032  1.00  0.00    -0.624 OA
BRANCH  23  26
HETATM   26  O5  UNL     1       1.934 -37.849  -3.772  1.00  0.00    -0.173 OA
BRANCH  26  27
HETATM   27  P2  UNL     1       1.018 -36.754  -4.590  1.00  0.00     0.431 P 
HETATM   28  O6  UNL     1       1.138 -35.175  -4.268  1.00  0.00    -0.616 OA
HETATM   29  O7  UNL     1      -0.213 -37.327  -5.597  1.00  0.00    -0.616 OA
HETATM   30  O8  UNL     1       1.970 -36.803  -5.786  1.00  0.00    -0.616 OA
ENDBRANCH  26  27
ENDBRANCH  23  26
ENDBRANCH  22  23
ENDBRANCH  21  22
ENDBRANCH   3  21
BRANCH   4  31
HETATM   31  O9  UNL     1      -2.530 -38.532   1.452  1.00  0.00    -0.390 OA
ATOM     32  H9  UNL     1      -3.005 -38.472   2.272  1.00  0.00     0.210 HD
ENDBRANCH   4  31
TORSDOF 8
ENDMDL
