MODEL 6
REMARK VINA RESULT: -9.541679432      1.492      1.887
REMARK  5 active torsions:
REMARK  status: ('A' for Active; 'I' for Inactive)
REMARK       I    between atoms: C1_2  and  N3_6 
REMARK    1  A    between atoms: N3_6  and  C2_8 
REMARK    2  A    between atoms: C2_8  and  C3_9 
REMARK    3  A    between atoms: C11_17  and  N4_18 
REMARK       I    between atoms: N4_18  and  C12_20 
REMARK    4  A    between atoms: C12_20  and  C13_22 
REMARK       I    between atoms: C13_22  and  N5_24 
REMARK    5  A    between atoms: N5_24  and  C14_26 
ROOT
HETATM    1  C3  UNL     1     -19.637  -0.285  19.275  1.00  0.00     0.035 C 
HETATM    2  C4  UNL     1     -18.359  -0.520  20.037  1.00  0.00     0.047 C 
HETATM    3  C5  UNL     1     -18.722  -0.011  21.409  1.00  0.00    -0.049 A 
HETATM    4  C6  UNL     1     -17.939   0.452  22.465  1.00  0.00     0.007 A 
HETATM    5  C7  UNL     1     -18.502   0.882  23.652  1.00  0.00     0.001 A 
HETATM    6  C8  UNL     1     -19.882   0.846  23.784  1.00  0.00     0.001 A 
HETATM    7  C9  UNL     1     -20.663   0.388  22.741  1.00  0.00     0.010 A 
HETATM    8  C10 UNL     1     -20.087  -0.040  21.555  1.00  0.00    -0.029 A 
HETATM    9  C11 UNL     1     -20.671  -0.564  20.330  1.00  0.00     0.124 C 
ENDROOT
BRANCH   9  10
HETATM   10  N4  UNL     1     -21.035  -1.954  20.398  1.00  0.00    -0.344 N 
HETATM   11  C12 UNL     1     -22.347  -2.367  20.689  1.00  0.00     0.310 C 
HETATM   12  O1  UNL     1     -23.285  -1.566  20.908  1.00  0.00    -0.262 OA
ATOM     13  H4  UNL     1     -20.321  -2.662  20.230  1.00  0.00     0.163 HD
BRANCH  11  14
HETATM   14  C13 UNL     1     -22.622  -3.821  20.737  1.00  0.00     0.313 C 
HETATM   15  O2  UNL     1     -22.185  -4.480  21.701  1.00  0.00    -0.262 OA
HETATM   16  N5  UNL     1     -23.358  -4.455  19.726  1.00  0.00    -0.319 N 
ATOM     17  H5  UNL     1     -23.694  -3.864  18.964  1.00  0.00     0.169 HD
BRANCH  16  18
HETATM   18  C14 UNL     1     -23.681  -5.821  19.653  1.00  0.00     0.038 A 
HETATM   19  C15 UNL     1     -24.176  -6.443  18.548  1.00  0.00     0.031 A 
HETATM   20  C16 UNL     1     -24.458  -7.821  18.551  1.00  0.00     0.029 A 
HETATM   21  C17 UNL     1     -24.229  -8.540  19.684  1.00  0.00     0.072 A 
HETATM   22 CL1  UNL     1     -24.578 -10.250  19.691  1.00  0.00    -0.081 Cl
HETATM   23  C18 UNL     1     -23.729  -7.911  20.806  1.00  0.00     0.140 A 
HETATM   24  F1  UNL     1     -23.493  -8.617  21.953  1.00  0.00    -0.204 F 
HETATM   25  C19 UNL     1     -23.446  -6.576  20.829  1.00  0.00     0.073 A 
ENDBRANCH  16  18
ENDBRANCH  11  14
ENDBRANCH   9  10
BRANCH   1  26
HETATM   26  C2  UNL     1     -19.811   1.100  18.772  1.00  0.00     0.129 C 
BRANCH  26  27
HETATM   27  N3  UNL     1     -18.627   1.711  18.255  1.00  0.00    -0.364 N 
HETATM   28  C1  UNL     1     -18.106   2.856  18.912  1.00  0.00     0.181 C 
HETATM   29  N1  UNL     1     -16.945   3.468  18.416  1.00  0.00    -0.064 NA
HETATM   30  N2  UNL     1     -18.708   3.334  19.971  1.00  0.00    -0.374 N 
ATOM     31  H22 UNL     1     -18.334   4.157  20.443  1.00  0.00     0.158 HD
ATOM     32  H21 UNL     1     -19.552   2.889  20.332  1.00  0.00     0.158 HD
ATOM     33  H3  UNL     1     -18.164   1.330  17.429  1.00  0.00     0.162 HD
ENDBRANCH  26  27
ENDBRANCH   1  26
TORSDOF 5
ENDMDL
