MODEL 2
REMARK VINA RESULT: -10.107522084      0.959      1.304
REMARK  5 active torsions:
REMARK  status: ('A' for Active; 'I' for Inactive)
REMARK       I    between atoms: C1_2  and  N3_6 
REMARK    1  A    between atoms: N3_6  and  C2_8 
REMARK    2  A    between atoms: C2_8  and  C3_9 
REMARK    3  A    between atoms: C11_17  and  N4_18 
REMARK       I    between atoms: N4_18  and  C12_20 
REMARK    4  A    between atoms: C12_20  and  C13_22 
REMARK       I    between atoms: C13_22  and  N5_24 
REMARK    5  A    between atoms: N5_24  and  C14_26 
ROOT
HETATM    1  C3  UNL     1     -20.070  -0.101  19.227  1.00  0.00     0.035 C 
HETATM    2  C4  UNL     1     -18.607  -0.373  19.459  1.00  0.00     0.047 C 
HETATM    3  C5  UNL     1     -18.433   0.077  20.888  1.00  0.00    -0.049 A 
HETATM    4  C6  UNL     1     -17.310   0.490  21.601  1.00  0.00     0.007 A 
HETATM    5  C7  UNL     1     -17.392   0.870  22.928  1.00  0.00     0.001 A 
HETATM    6  C8  UNL     1     -18.629   0.835  23.554  1.00  0.00     0.001 A 
HETATM    7  C9  UNL     1     -19.745   0.426  22.851  1.00  0.00     0.010 A 
HETATM    8  C10 UNL     1     -19.651   0.047  21.521  1.00  0.00    -0.029 A 
HETATM    9  C11 UNL     1     -20.653  -0.420  20.575  1.00  0.00     0.124 C 
ENDROOT
BRANCH   9  10
HETATM   10  N4  UNL     1     -20.994  -1.811  20.718  1.00  0.00    -0.344 N 
HETATM   11  C12 UNL     1     -22.314  -2.271  20.576  1.00  0.00     0.310 C 
HETATM   12  O1  UNL     1     -23.280  -1.517  20.318  1.00  0.00    -0.262 OA
ATOM     13  H4  UNL     1     -20.257  -2.482  20.928  1.00  0.00     0.163 HD
BRANCH  11  14
HETATM   14  C13 UNL     1     -22.565  -3.722  20.741  1.00  0.00     0.313 C 
HETATM   15  O2  UNL     1     -22.103  -4.297  21.746  1.00  0.00    -0.262 OA
HETATM   16  N5  UNL     1     -23.305  -4.444  19.794  1.00  0.00    -0.319 N 
ATOM     17  H5  UNL     1     -23.662  -3.919  18.995  1.00  0.00     0.169 HD
BRANCH  16  18
HETATM   18  C14 UNL     1     -23.606  -5.816  19.834  1.00  0.00     0.038 A 
HETATM   19  C15 UNL     1     -23.733  -6.550  20.974  1.00  0.00     0.031 A 
HETATM   20  C16 UNL     1     -24.054  -7.919  20.929  1.00  0.00     0.029 A 
HETATM   21  C17 UNL     1     -24.240  -8.514  19.719  1.00  0.00     0.072 A 
HETATM   22 CL1  UNL     1     -24.639 -10.212  19.660  1.00  0.00    -0.081 Cl
HETATM   23  C18 UNL     1     -24.112  -7.773  18.562  1.00  0.00     0.140 A 
HETATM   24  F1  UNL     1     -24.295  -8.354  17.338  1.00  0.00    -0.204 F 
HETATM   25  C19 UNL     1     -23.801  -6.443  18.579  1.00  0.00     0.073 A 
ENDBRANCH  16  18
ENDBRANCH  11  14
ENDBRANCH   9  10
BRANCH   1  26
HETATM   26  C2  UNL     1     -20.388   1.306  18.877  1.00  0.00     0.129 C 
BRANCH  26  27
HETATM   27  N3  UNL     1     -21.121   1.478  17.662  1.00  0.00    -0.364 N 
HETATM   28  C1  UNL     1     -22.538   1.512  17.718  1.00  0.00     0.181 C 
HETATM   29  N1  UNL     1     -23.273   1.678  16.534  1.00  0.00    -0.064 NA
HETATM   30  N2  UNL     1     -23.152   1.389  18.868  1.00  0.00    -0.374 N 
ATOM     31  H22 UNL     1     -24.171   1.414  18.908  1.00  0.00     0.158 HD
ATOM     32  H21 UNL     1     -22.618   1.269  19.729  1.00  0.00     0.158 HD
ATOM     33  H3  UNL     1     -20.634   1.573  16.771  1.00  0.00     0.162 HD
ENDBRANCH  26  27
ENDBRANCH   1  26
TORSDOF 5
ENDMDL
