MODEL 8
REMARK VINA RESULT: -9.355426959      1.207      1.583
REMARK  5 active torsions:
REMARK  status: ('A' for Active; 'I' for Inactive)
REMARK       I    between atoms: C1_2  and  N3_6 
REMARK    1  A    between atoms: N3_6  and  C2_8 
REMARK    2  A    between atoms: C2_8  and  C3_9 
REMARK    3  A    between atoms: C11_17  and  N4_18 
REMARK       I    between atoms: N4_18  and  C12_20 
REMARK    4  A    between atoms: C12_20  and  C13_22 
REMARK       I    between atoms: C13_22  and  N5_24 
REMARK    5  A    between atoms: N5_24  and  C14_26 
ROOT
HETATM    1  C3  UNL     1     -20.508   0.065  19.063  1.00  0.00     0.035 C 
HETATM    2  C4  UNL     1     -19.047  -0.237  18.865  1.00  0.00     0.047 C 
HETATM    3  C5  UNL     1     -18.482   0.064  20.230  1.00  0.00    -0.049 A 
HETATM    4  C6  UNL     1     -17.196   0.397  20.651  1.00  0.00     0.007 A 
HETATM    5  C7  UNL     1     -16.908   0.641  21.981  1.00  0.00     0.001 A 
HETATM    6  C8  UNL     1     -17.933   0.548  22.910  1.00  0.00     0.001 A 
HETATM    7  C9  UNL     1     -19.210   0.218  22.499  1.00  0.00     0.010 A 
HETATM    8  C10 UNL     1     -19.487  -0.024  21.162  1.00  0.00    -0.029 A 
HETATM    9  C11 UNL     1     -20.720  -0.388  20.481  1.00  0.00     0.124 C 
ENDROOT
BRANCH   9  10
HETATM   10  N4  UNL     1     -21.055  -1.784  20.575  1.00  0.00    -0.344 N 
HETATM   11  C12 UNL     1     -22.387  -2.232  20.554  1.00  0.00     0.310 C 
HETATM   12  O1  UNL     1     -23.369  -1.461  20.453  1.00  0.00    -0.262 OA
ATOM     13  H4  UNL     1     -20.304  -2.468  20.660  1.00  0.00     0.163 HD
BRANCH  11  14
HETATM   14  C13 UNL     1     -22.630  -3.689  20.657  1.00  0.00     0.313 C 
HETATM   15  O2  UNL     1     -22.152  -4.307  21.629  1.00  0.00    -0.262 OA
HETATM   16  N5  UNL     1     -23.380  -4.371  19.689  1.00  0.00    -0.319 N 
ATOM     17  H5  UNL     1     -23.750  -3.812  18.919  1.00  0.00     0.169 HD
BRANCH  16  18
HETATM   18  C14 UNL     1     -23.676  -5.745  19.670  1.00  0.00     0.038 A 
HETATM   19  C15 UNL     1     -24.195  -6.412  18.603  1.00  0.00     0.031 A 
HETATM   20  C16 UNL     1     -24.448  -7.795  18.658  1.00  0.00     0.029 A 
HETATM   21  C17 UNL     1     -24.165  -8.472  19.805  1.00  0.00     0.072 A 
HETATM   22 CL1  UNL     1     -24.476 -10.188  19.877  1.00  0.00    -0.081 Cl
HETATM   23  C18 UNL     1     -23.639  -7.798  20.888  1.00  0.00     0.140 A 
HETATM   24  F1  UNL     1     -23.349  -8.462  22.048  1.00  0.00    -0.204 F 
HETATM   25  C19 UNL     1     -23.385  -6.457  20.859  1.00  0.00     0.073 A 
ENDBRANCH  16  18
ENDBRANCH  11  14
ENDBRANCH   9  10
BRANCH   1  26
HETATM   26  C2  UNL     1     -20.863   1.502  18.949  1.00  0.00     0.129 C 
BRANCH  26  27
HETATM   27  N3  UNL     1     -21.895   1.943  19.833  1.00  0.00    -0.364 N 
HETATM   28  C1  UNL     1     -21.608   2.984  20.753  1.00  0.00     0.181 C 
HETATM   29  N1  UNL     1     -22.610   3.428  21.630  1.00  0.00    -0.064 NA
HETATM   30  N2  UNL     1     -20.415   3.524  20.781  1.00  0.00    -0.374 N 
ATOM     31  H22 UNL     1     -20.209   4.272  21.442  1.00  0.00     0.158 HD
ATOM     32  H21 UNL     1     -19.687   3.201  20.143  1.00  0.00     0.158 HD
ATOM     33  H3  UNL     1     -22.822   1.517  19.804  1.00  0.00     0.162 HD
ENDBRANCH  26  27
ENDBRANCH   1  26
TORSDOF 5
ENDMDL
