MODEL 20
REMARK VINA RESULT: -8.244897713      2.541      4.462
REMARK  5 active torsions:
REMARK  status: ('A' for Active; 'I' for Inactive)
REMARK       I    between atoms: C1_2  and  N3_6 
REMARK    1  A    between atoms: N3_6  and  C2_8 
REMARK    2  A    between atoms: C2_8  and  C3_9 
REMARK    3  A    between atoms: C11_17  and  N4_18 
REMARK       I    between atoms: N4_18  and  C12_20 
REMARK    4  A    between atoms: C12_20  and  C13_22 
REMARK       I    between atoms: C13_22  and  N5_24 
REMARK    5  A    between atoms: N5_24  and  C14_26 
ROOT
HETATM    1  C3  UNL     1     -21.689   0.803  22.900  1.00  0.00     0.035 C 
HETATM    2  C4  UNL     1     -22.967   1.477  22.477  1.00  0.00     0.047 C 
HETATM    3  C5  UNL     1     -22.754   1.637  20.993  1.00  0.00    -0.049 A 
HETATM    4  C6  UNL     1     -23.310   2.514  20.064  1.00  0.00     0.007 A 
HETATM    5  C7  UNL     1     -22.952   2.480  18.729  1.00  0.00     0.001 A 
HETATM    6  C8  UNL     1     -22.014   1.545  18.316  1.00  0.00     0.001 A 
HETATM    7  C9  UNL     1     -21.459   0.674  19.233  1.00  0.00     0.010 A 
HETATM    8  C10 UNL     1     -21.826   0.717  20.569  1.00  0.00    -0.029 A 
HETATM    9  C11 UNL     1     -21.406  -0.076  21.714  1.00  0.00     0.124 C 
ENDROOT
BRANCH   9  10
HETATM   10  N4  UNL     1     -22.046  -1.361  21.808  1.00  0.00    -0.344 N 
HETATM   11  C12 UNL     1     -21.701  -2.429  20.962  1.00  0.00     0.310 C 
HETATM   12  O1  UNL     1     -20.821  -2.344  20.075  1.00  0.00    -0.262 OA
ATOM     13  H4  UNL     1     -22.773  -1.501  22.509  1.00  0.00     0.163 HD
BRANCH  11  14
HETATM   14  C13 UNL     1     -22.419  -3.712  21.136  1.00  0.00     0.313 C 
HETATM   15  O2  UNL     1     -22.667  -4.105  22.293  1.00  0.00    -0.262 OA
HETATM   16  N5  UNL     1     -22.816  -4.478  20.031  1.00  0.00    -0.319 N 
ATOM     17  H5  UNL     1     -22.589  -4.104  19.109  1.00  0.00     0.169 HD
BRANCH  16  18
HETATM   18  C14 UNL     1     -23.495  -5.708  20.063  1.00  0.00     0.038 A 
HETATM   19  C15 UNL     1     -23.112  -6.786  20.802  1.00  0.00     0.031 A 
HETATM   20  C16 UNL     1     -23.858  -7.979  20.793  1.00  0.00     0.029 A 
HETATM   21  C17 UNL     1     -24.982  -8.049  20.028  1.00  0.00     0.072 A 
HETATM   22 CL1  UNL     1     -25.909  -9.528  20.015  1.00  0.00    -0.081 Cl
HETATM   23  C18 UNL     1     -25.371  -6.959  19.279  1.00  0.00     0.140 A 
HETATM   24  F1  UNL     1     -26.497  -7.011  18.505  1.00  0.00    -0.204 F 
HETATM   25  C19 UNL     1     -24.666  -5.790  19.270  1.00  0.00     0.073 A 
ENDBRANCH  16  18
ENDBRANCH  11  14
ENDBRANCH   9  10
BRANCH   1  26
HETATM   26  C2  UNL     1     -20.545   1.724  23.112  1.00  0.00     0.129 C 
BRANCH  26  27
HETATM   27  N3  UNL     1     -19.282   1.086  23.315  1.00  0.00    -0.364 N 
HETATM   28  C1  UNL     1     -18.929   0.671  24.625  1.00  0.00     0.181 C 
HETATM   29  N1  UNL     1     -17.693   0.044  24.842  1.00  0.00    -0.064 NA
HETATM   30  N2  UNL     1     -19.754   0.874  25.621  1.00  0.00    -0.374 N 
ATOM     31  H22 UNL     1     -19.501   0.575  26.563  1.00  0.00     0.158 HD
ATOM     32  H21 UNL     1     -20.654   1.329  25.463  1.00  0.00     0.158 HD
ATOM     33  H3  UNL     1     -18.646   0.932  22.532  1.00  0.00     0.162 HD
ENDBRANCH  26  27
ENDBRANCH   1  26
TORSDOF 5
ENDMDL
