MODEL 1
REMARK VINA RESULT: -10.361242212      0.000      0.000
REMARK  5 active torsions:
REMARK  status: ('A' for Active; 'I' for Inactive)
REMARK       I    between atoms: C1_2  and  N3_6 
REMARK    1  A    between atoms: N3_6  and  C2_8 
REMARK    2  A    between atoms: C2_8  and  C3_9 
REMARK    3  A    between atoms: C11_17  and  N4_18 
REMARK       I    between atoms: N4_18  and  C12_20 
REMARK    4  A    between atoms: C12_20  and  C13_22 
REMARK       I    between atoms: C13_22  and  N5_24 
REMARK    5  A    between atoms: N5_24  and  C14_26 
ROOT
HETATM    1  C3  UNL     1     -20.009  -0.249  19.019  1.00  0.00     0.035 C 
HETATM    2  C4  UNL     1     -18.598  -0.510  19.475  1.00  0.00     0.047 C 
HETATM    3  C5  UNL     1     -18.650  -0.060  20.913  1.00  0.00    -0.049 A 
HETATM    4  C6  UNL     1     -17.653   0.361  21.790  1.00  0.00     0.007 A 
HETATM    5  C7  UNL     1     -17.942   0.740  23.089  1.00  0.00     0.001 A 
HETATM    6  C8  UNL     1     -19.261   0.695  23.516  1.00  0.00     0.001 A 
HETATM    7  C9  UNL     1     -20.252   0.278  22.650  1.00  0.00     0.010 A 
HETATM    8  C10 UNL     1     -19.951  -0.100  21.351  1.00  0.00    -0.029 A 
HETATM    9  C11 UNL     1     -20.791  -0.574  20.262  1.00  0.00     0.124 C 
ENDROOT
BRANCH   9  10
HETATM   10  N4  UNL     1     -21.140  -1.967  20.350  1.00  0.00    -0.344 N 
HETATM   11  C12 UNL     1     -22.448  -2.390  20.643  1.00  0.00     0.310 C 
HETATM   12  O1  UNL     1     -23.396  -1.597  20.844  1.00  0.00    -0.262 OA
ATOM     13  H4  UNL     1     -20.416  -2.669  20.197  1.00  0.00     0.163 HD
BRANCH  11  14
HETATM   14  C13 UNL     1     -22.707  -3.846  20.713  1.00  0.00     0.313 C 
HETATM   15  O2  UNL     1     -22.303  -4.477  21.709  1.00  0.00    -0.262 OA
HETATM   16  N5  UNL     1     -23.391  -4.512  19.686  1.00  0.00    -0.319 N 
ATOM     17  H5  UNL     1     -23.701  -3.943  18.898  1.00  0.00     0.169 HD
BRANCH  16  18
HETATM   18  C14 UNL     1     -23.693  -5.884  19.632  1.00  0.00     0.038 A 
HETATM   19  C15 UNL     1     -24.170  -6.530  18.532  1.00  0.00     0.031 A 
HETATM   20  C16 UNL     1     -24.432  -7.912  18.553  1.00  0.00     0.029 A 
HETATM   21  C17 UNL     1     -24.203  -8.610  19.700  1.00  0.00     0.072 A 
HETATM   22 CL1  UNL     1     -24.526 -10.325  19.730  1.00  0.00    -0.081 Cl
HETATM   23  C18 UNL     1     -23.720  -7.957  20.815  1.00  0.00     0.140 A 
HETATM   24  F1  UNL     1     -23.483  -8.642  21.975  1.00  0.00    -0.204 F 
HETATM   25  C19 UNL     1     -23.457  -6.617  20.820  1.00  0.00     0.073 A 
ENDBRANCH  16  18
ENDBRANCH  11  14
ENDBRANCH   9  10
BRANCH   1  26
HETATM   26  C2  UNL     1     -20.281   1.156  18.623  1.00  0.00     0.129 C 
BRANCH  26  27
HETATM   27  N3  UNL     1     -21.115   1.311  17.474  1.00  0.00    -0.364 N 
HETATM   28  C1  UNL     1     -22.468   1.698  17.659  1.00  0.00     0.181 C 
HETATM   29  N1  UNL     1     -23.301   1.853  16.540  1.00  0.00    -0.064 NA
HETATM   30  N2  UNL     1     -22.931   1.907  18.865  1.00  0.00    -0.374 N 
ATOM     31  H22 UNL     1     -23.903   2.185  18.998  1.00  0.00     0.158 HD
ATOM     32  H21 UNL     1     -22.324   1.794  19.678  1.00  0.00     0.158 HD
ATOM     33  H3  UNL     1     -20.745   1.146  16.537  1.00  0.00     0.162 HD
ENDBRANCH  26  27
ENDBRANCH   1  26
TORSDOF 5
ENDMDL
