MODEL 19
REMARK VINA RESULT: -8.416326866      2.482      4.450
REMARK  5 active torsions:
REMARK  status: ('A' for Active; 'I' for Inactive)
REMARK       I    between atoms: C1_2  and  N3_6 
REMARK    1  A    between atoms: N3_6  and  C2_8 
REMARK    2  A    between atoms: C2_8  and  C3_9 
REMARK    3  A    between atoms: C11_17  and  N4_18 
REMARK       I    between atoms: N4_18  and  C12_20 
REMARK    4  A    between atoms: C12_20  and  C13_22 
REMARK       I    between atoms: C13_22  and  N5_24 
REMARK    5  A    between atoms: N5_24  and  C14_26 
ROOT
HETATM    1  C3  UNL     1     -21.680   1.227  20.495  1.00  0.00     0.035 C 
HETATM    2  C4  UNL     1     -22.956   1.988  20.742  1.00  0.00     0.047 C 
HETATM    3  C5  UNL     1     -23.473   2.184  19.340  1.00  0.00    -0.049 A 
HETATM    4  C6  UNL     1     -24.349   3.122  18.796  1.00  0.00     0.007 A 
HETATM    5  C7  UNL     1     -24.681   3.112  17.454  1.00  0.00     0.001 A 
HETATM    6  C8  UNL     1     -24.122   2.139  16.639  1.00  0.00     0.001 A 
HETATM    7  C9  UNL     1     -23.254   1.208  17.172  1.00  0.00     0.010 A 
HETATM    8  C10 UNL     1     -22.928   1.227  18.520  1.00  0.00    -0.029 A 
HETATM    9  C11 UNL     1     -22.062   0.374  19.318  1.00  0.00     0.124 C 
ENDROOT
BRANCH   9  10
HETATM   10  N4  UNL     1     -22.662  -0.874  19.708  1.00  0.00    -0.344 N 
HETATM   11  C12 UNL     1     -21.895  -1.953  20.181  1.00  0.00     0.310 C 
HETATM   12  O1  UNL     1     -20.649  -1.910  20.297  1.00  0.00    -0.262 OA
ATOM     13  H4  UNL     1     -23.674  -0.980  19.639  1.00  0.00     0.163 HD
BRANCH  11  14
HETATM   14  C13 UNL     1     -22.606  -3.197  20.557  1.00  0.00     0.313 C 
HETATM   15  O2  UNL     1     -22.982  -3.337  21.737  1.00  0.00    -0.262 OA
HETATM   16  N5  UNL     1     -22.857  -4.204  19.613  1.00  0.00    -0.319 N 
ATOM     17  H5  UNL     1     -22.529  -4.032  18.662  1.00  0.00     0.169 HD
BRANCH  16  18
HETATM   18  C14 UNL     1     -23.513  -5.425  19.844  1.00  0.00     0.038 A 
HETATM   19  C15 UNL     1     -23.140  -6.341  20.780  1.00  0.00     0.031 A 
HETATM   20  C16 UNL     1     -23.862  -7.535  20.961  1.00  0.00     0.029 A 
HETATM   21  C17 UNL     1     -24.952  -7.772  20.181  1.00  0.00     0.072 A 
HETATM   22 CL1  UNL     1     -25.850  -9.253  20.403  1.00  0.00    -0.081 Cl
HETATM   23  C18 UNL     1     -25.331  -6.846  19.231  1.00  0.00     0.140 A 
HETATM   24  F1  UNL     1     -26.423  -7.068  18.438  1.00  0.00    -0.204 F 
HETATM   25  C19 UNL     1     -24.648  -5.680  19.036  1.00  0.00     0.073 A 
ENDBRANCH  16  18
ENDBRANCH  11  14
ENDBRANCH   9  10
BRANCH   1  26
HETATM   26  C2  UNL     1     -20.517   2.074  20.129  1.00  0.00     0.129 C 
BRANCH  26  27
HETATM   27  N3  UNL     1     -19.311   1.788  20.841  1.00  0.00    -0.364 N 
HETATM   28  C1  UNL     1     -18.969   2.594  21.957  1.00  0.00     0.181 C 
HETATM   29  N1  UNL     1     -17.788   2.327  22.666  1.00  0.00    -0.064 NA
HETATM   30  N2  UNL     1     -19.752   3.578  22.320  1.00  0.00    -0.374 N 
ATOM     31  H22 UNL     1     -19.507   4.157  23.122  1.00  0.00     0.158 HD
ATOM     32  H21 UNL     1     -20.611   3.771  21.804  1.00  0.00     0.158 HD
ATOM     33  H3  UNL     1     -18.707   1.018  20.551  1.00  0.00     0.162 HD
ENDBRANCH  26  27
ENDBRANCH   1  26
TORSDOF 5
ENDMDL
