MODEL 5
REMARK VINA RESULT: -9.643383172      0.940      1.349
REMARK  5 active torsions:
REMARK  status: ('A' for Active; 'I' for Inactive)
REMARK       I    between atoms: C1_2  and  N3_6 
REMARK    1  A    between atoms: N3_6  and  C2_8 
REMARK    2  A    between atoms: C2_8  and  C3_9 
REMARK    3  A    between atoms: C11_17  and  N4_18 
REMARK       I    between atoms: N4_18  and  C12_20 
REMARK    4  A    between atoms: C12_20  and  C13_22 
REMARK       I    between atoms: C13_22  and  N5_24 
REMARK    5  A    between atoms: N5_24  and  C14_26 
ROOT
HETATM    1  C3  UNL     1     -19.683   0.037  20.412  1.00  0.00     0.035 C 
HETATM    2  C4  UNL     1     -18.547  -0.165  21.381  1.00  0.00     0.047 C 
HETATM    3  C5  UNL     1     -19.129   0.387  22.657  1.00  0.00    -0.049 A 
HETATM    4  C6  UNL     1     -18.529   0.889  23.810  1.00  0.00     0.007 A 
HETATM    5  C7  UNL     1     -19.278   1.355  24.874  1.00  0.00     0.001 A 
HETATM    6  C8  UNL     1     -20.661   1.317  24.780  1.00  0.00     0.001 A 
HETATM    7  C9  UNL     1     -21.261   0.821  23.639  1.00  0.00     0.010 A 
HETATM    8  C10 UNL     1     -20.499   0.356  22.579  1.00  0.00    -0.029 A 
HETATM    9  C11 UNL     1     -20.876  -0.211  21.293  1.00  0.00     0.124 C 
ENDROOT
BRANCH   9  10
HETATM   10  N4  UNL     1     -21.247  -1.600  21.347  1.00  0.00    -0.344 N 
HETATM   11  C12 UNL     1     -22.289  -2.124  20.563  1.00  0.00     0.310 C 
HETATM   12  O1  UNL     1     -22.964  -1.430  19.768  1.00  0.00    -0.262 OA
ATOM     13  H4  UNL     1     -20.739  -2.224  21.974  1.00  0.00     0.163 HD
BRANCH  11  14
HETATM   14  C13 UNL     1     -22.596  -3.567  20.691  1.00  0.00     0.313 C 
HETATM   15  O2  UNL     1     -22.246  -4.162  21.728  1.00  0.00    -0.262 OA
HETATM   16  N5  UNL     1     -23.266  -4.260  19.672  1.00  0.00    -0.319 N 
ATOM     17  H5  UNL     1     -23.531  -3.719  18.848  1.00  0.00     0.169 HD
BRANCH  16  18
HETATM   18  C14 UNL     1     -23.609  -5.623  19.670  1.00  0.00     0.038 A 
HETATM   19  C15 UNL     1     -24.208  -6.270  18.633  1.00  0.00     0.031 A 
HETATM   20  C16 UNL     1     -24.504  -7.644  18.702  1.00  0.00     0.029 A 
HETATM   21  C17 UNL     1     -24.184  -8.331  19.833  1.00  0.00     0.072 A 
HETATM   22 CL1  UNL     1     -24.550 -10.036  19.922  1.00  0.00    -0.081 Cl
HETATM   23  C18 UNL     1     -23.578  -7.678  20.886  1.00  0.00     0.140 A 
HETATM   24  F1  UNL     1     -23.249  -8.353  22.029  1.00  0.00    -0.204 F 
HETATM   25  C19 UNL     1     -23.280  -6.346  20.843  1.00  0.00     0.073 A 
ENDBRANCH  16  18
ENDBRANCH  11  14
ENDBRANCH   9  10
BRANCH   1  26
HETATM   26  C2  UNL     1     -19.771   1.404  19.841  1.00  0.00     0.129 C 
BRANCH  26  27
HETATM   27  N3  UNL     1     -21.054   1.763  19.324  1.00  0.00    -0.364 N 
HETATM   28  C1  UNL     1     -21.373   1.414  17.985  1.00  0.00     0.181 C 
HETATM   29  N1  UNL     1     -22.628   1.760  17.461  1.00  0.00    -0.064 NA
HETATM   30  N2  UNL     1     -20.500   0.775  17.249  1.00  0.00    -0.374 N 
ATOM     31  H22 UNL     1     -20.729   0.524  16.287  1.00  0.00     0.158 HD
ATOM     32  H21 UNL     1     -19.587   0.523  17.630  1.00  0.00     0.158 HD
ATOM     33  H3  UNL     1     -21.729   2.260  19.906  1.00  0.00     0.162 HD
ENDBRANCH  26  27
ENDBRANCH   1  26
TORSDOF 5
ENDMDL
