MODEL 2
REMARK VINA RESULT: -9.818394952      0.911      1.276
REMARK  5 active torsions:
REMARK  status: ('A' for Active; 'I' for Inactive)
REMARK       I    between atoms: C1_2  and  N3_6 
REMARK    1  A    between atoms: N3_6  and  C2_8 
REMARK    2  A    between atoms: C2_8  and  C3_9 
REMARK    3  A    between atoms: C11_17  and  N4_18 
REMARK       I    between atoms: N4_18  and  C12_20 
REMARK    4  A    between atoms: C12_20  and  C13_22 
REMARK       I    between atoms: C13_22  and  N5_24 
REMARK    5  A    between atoms: N5_24  and  C14_26 
ROOT
HETATM    1  C3  UNL     1      -2.224 -14.242 -12.309  1.00  0.00     0.035 C 
HETATM    2  C4  UNL     1      -3.120 -13.449 -13.224  1.00  0.00     0.047 C 
HETATM    3  C5  UNL     1      -4.001 -14.527 -13.803  1.00  0.00    -0.049 A 
HETATM    4  C6  UNL     1      -4.746 -14.585 -14.979  1.00  0.00     0.007 A 
HETATM    5  C7  UNL     1      -5.489 -15.703 -15.313  1.00  0.00     0.001 A 
HETATM    6  C8  UNL     1      -5.485 -16.786 -14.446  1.00  0.00     0.001 A 
HETATM    7  C9  UNL     1      -4.749 -16.733 -13.279  1.00  0.00     0.010 A 
HETATM    8  C10 UNL     1      -4.007 -15.607 -12.955  1.00  0.00    -0.029 A 
HETATM    9  C11 UNL     1      -3.168 -15.299 -11.808  1.00  0.00     0.124 C 
ENDROOT
BRANCH   9  10
HETATM   10  N4  UNL     1      -3.896 -14.885 -10.639  1.00  0.00    -0.344 N 
HETATM   11  C12 UNL     1      -3.866 -15.622  -9.442  1.00  0.00     0.310 C 
HETATM   12  O1  UNL     1      -3.210 -16.680  -9.305  1.00  0.00    -0.262 OA
ATOM     13  H4  UNL     1      -4.452 -14.031 -10.679  1.00  0.00     0.163 HD
BRANCH  11  14
HETATM   14  C13 UNL     1      -4.650 -15.113  -8.294  1.00  0.00     0.313 C 
HETATM   15  O2  UNL     1      -5.727 -14.527  -8.519  1.00  0.00    -0.262 OA
HETATM   16  N5  UNL     1      -4.202 -15.282  -6.976  1.00  0.00    -0.319 N 
ATOM     17  H5  UNL     1      -3.316 -15.773  -6.853  1.00  0.00     0.169 HD
BRANCH  16  18
HETATM   18  C14 UNL     1      -4.848 -14.844  -5.807  1.00  0.00     0.038 A 
HETATM   19  C15 UNL     1      -6.182 -14.968  -5.566  1.00  0.00     0.031 A 
HETATM   20  C16 UNL     1      -6.751 -14.519  -4.360  1.00  0.00     0.029 A 
HETATM   21  C17 UNL     1      -5.945 -13.949  -3.422  1.00  0.00     0.072 A 
HETATM   22 CL1  UNL     1      -6.647 -13.390  -1.925  1.00  0.00    -0.081 Cl
HETATM   23  C18 UNL     1      -4.593 -13.821  -3.665  1.00  0.00     0.140 A 
HETATM   24  F1  UNL     1      -3.768 -13.251  -2.734  1.00  0.00    -0.204 F 
HETATM   25  C19 UNL     1      -4.017 -14.250  -4.826  1.00  0.00     0.073 A 
ENDBRANCH  16  18
ENDBRANCH  11  14
ENDBRANCH   9  10
BRANCH   1  26
HETATM   26  C2  UNL     1      -1.073 -14.892 -12.984  1.00  0.00     0.129 C 
BRANCH  26  27
HETATM   27  N3  UNL     1       0.181 -14.749 -12.314  1.00  0.00    -0.364 N 
HETATM   28  C1  UNL     1       0.693 -15.850 -11.579  1.00  0.00     0.181 C 
HETATM   29  N1  UNL     1       1.922 -15.725 -10.914  1.00  0.00    -0.064 NA
HETATM   30  N2  UNL     1       0.018 -16.970 -11.523  1.00  0.00    -0.374 N 
ATOM     31  H22 UNL     1       0.386 -17.762 -10.994  1.00  0.00     0.158 HD
ATOM     32  H21 UNL     1      -0.876 -17.061 -12.006  1.00  0.00     0.158 HD
ATOM     33  H3  UNL     1       0.700 -13.872 -12.364  1.00  0.00     0.162 HD
ENDBRANCH  26  27
ENDBRANCH   1  26
TORSDOF 5
ENDMDL
