MODEL 1
REMARK VINA RESULT: -9.927177296      0.000      0.000
REMARK  5 active torsions:
REMARK  status: ('A' for Active; 'I' for Inactive)
REMARK       I    between atoms: C1_2  and  N3_6 
REMARK    1  A    between atoms: N3_6  and  C2_8 
REMARK    2  A    between atoms: C2_8  and  C3_9 
REMARK    3  A    between atoms: C11_17  and  N4_18 
REMARK       I    between atoms: N4_18  and  C12_20 
REMARK    4  A    between atoms: C12_20  and  C13_22 
REMARK       I    between atoms: C13_22  and  N5_24 
REMARK    5  A    between atoms: N5_24  and  C14_26 
ROOT
HETATM    1  C3  UNL     1      -2.196 -14.320 -12.277  1.00  0.00     0.035 C 
HETATM    2  C4  UNL     1      -3.090 -13.478 -13.149  1.00  0.00     0.047 C 
HETATM    3  C5  UNL     1      -4.015 -14.515 -13.734  1.00  0.00    -0.049 A 
HETATM    4  C6  UNL     1      -4.788 -14.521 -14.893  1.00  0.00     0.007 A 
HETATM    5  C7  UNL     1      -5.570 -15.608 -15.238  1.00  0.00     0.001 A 
HETATM    6  C8  UNL     1      -5.577 -16.714 -14.400  1.00  0.00     0.001 A 
HETATM    7  C9  UNL     1      -4.813 -16.712 -13.250  1.00  0.00     0.010 A 
HETATM    8  C10 UNL     1      -4.032 -15.617 -12.915  1.00  0.00    -0.029 A 
HETATM    9  C11 UNL     1      -3.157 -15.364 -11.780  1.00  0.00     0.124 C 
ENDROOT
BRANCH   9  10
HETATM   10  N4  UNL     1      -3.847 -14.960 -10.584  1.00  0.00    -0.344 N 
HETATM   11  C12 UNL     1      -3.721 -15.670  -9.377  1.00  0.00     0.310 C 
HETATM   12  O1  UNL     1      -3.009 -16.693  -9.254  1.00  0.00    -0.262 OA
ATOM     13  H4  UNL     1      -4.445 -14.135 -10.612  1.00  0.00     0.163 HD
BRANCH  11  14
HETATM   14  C13 UNL     1      -4.472 -15.175  -8.200  1.00  0.00     0.313 C 
HETATM   15  O2  UNL     1      -5.604 -14.685  -8.376  1.00  0.00    -0.262 OA
HETATM   16  N5  UNL     1      -3.930 -15.252  -6.909  1.00  0.00    -0.319 N 
ATOM     17  H5  UNL     1      -3.001 -15.667  -6.825  1.00  0.00     0.169 HD
BRANCH  16  18
HETATM   18  C14 UNL     1      -4.536 -14.816  -5.718  1.00  0.00     0.038 A 
HETATM   19  C15 UNL     1      -3.861 -14.361  -4.627  1.00  0.00     0.031 A 
HETATM   20  C16 UNL     1      -4.543 -13.924  -3.476  1.00  0.00     0.029 A 
HETATM   21  C17 UNL     1      -5.904 -13.962  -3.461  1.00  0.00     0.072 A 
HETATM   22 CL1  UNL     1      -6.753 -13.422  -2.035  1.00  0.00    -0.081 Cl
HETATM   23  C18 UNL     1      -6.589 -14.424  -4.565  1.00  0.00     0.140 A 
HETATM   24  F1  UNL     1      -7.956 -14.469  -4.568  1.00  0.00    -0.204 F 
HETATM   25  C19 UNL     1      -5.951 -14.852  -5.694  1.00  0.00     0.073 A 
ENDBRANCH  16  18
ENDBRANCH  11  14
ENDBRANCH   9  10
BRANCH   1  26
HETATM   26  C2  UNL     1      -1.080 -14.984 -12.996  1.00  0.00     0.129 C 
BRANCH  26  27
HETATM   27  N3  UNL     1       0.207 -14.824 -12.396  1.00  0.00    -0.364 N 
HETATM   28  C1  UNL     1       0.749 -15.899 -11.644  1.00  0.00     0.181 C 
HETATM   29  N1  UNL     1       2.011 -15.758 -11.047  1.00  0.00    -0.064 NA
HETATM   30  N2  UNL     1       0.072 -17.012 -11.510  1.00  0.00    -0.374 N 
ATOM     31  H22 UNL     1       0.461 -17.784 -10.969  1.00  0.00     0.158 HD
ATOM     32  H21 UNL     1      -0.846 -17.114 -11.944  1.00  0.00     0.158 HD
ATOM     33  H3  UNL     1       0.727 -13.954 -12.507  1.00  0.00     0.162 HD
ENDBRANCH  26  27
ENDBRANCH   1  26
TORSDOF 5
ENDMDL
