MODEL 13
REMARK VINA RESULT: -9.200164954      1.362      1.795
REMARK  5 active torsions:
REMARK  status: ('A' for Active; 'I' for Inactive)
REMARK       I    between atoms: C1_2  and  N3_6 
REMARK    1  A    between atoms: N3_6  and  C2_8 
REMARK    2  A    between atoms: C2_8  and  C3_9 
REMARK    3  A    between atoms: C11_17  and  N4_18 
REMARK       I    between atoms: N4_18  and  C12_20 
REMARK    4  A    between atoms: C12_20  and  C13_22 
REMARK       I    between atoms: C13_22  and  N5_24 
REMARK    5  A    between atoms: N5_24  and  C14_26 
ROOT
HETATM    1  C3  UNL     1      -2.078 -13.844 -12.377  1.00  0.00     0.035 C 
HETATM    2  C4  UNL     1      -3.082 -13.101 -13.219  1.00  0.00     0.047 C 
HETATM    3  C5  UNL     1      -3.932 -14.226 -13.751  1.00  0.00    -0.049 A 
HETATM    4  C6  UNL     1      -4.750 -14.321 -14.875  1.00  0.00     0.007 A 
HETATM    5  C7  UNL     1      -5.444 -15.480 -15.172  1.00  0.00     0.001 A 
HETATM    6  C8  UNL     1      -5.314 -16.568 -14.322  1.00  0.00     0.001 A 
HETATM    7  C9  UNL     1      -4.505 -16.479 -13.206  1.00  0.00     0.010 A 
HETATM    8  C10 UNL     1      -3.814 -15.312 -12.919  1.00  0.00    -0.029 A 
HETATM    9  C11 UNL     1      -2.918 -14.962 -11.827  1.00  0.00     0.124 C 
ENDROOT
BRANCH   9  10
HETATM   10  N4  UNL     1      -3.590 -14.604 -10.606  1.00  0.00    -0.344 N 
HETATM   11  C12 UNL     1      -3.859 -15.548  -9.600  1.00  0.00     0.310 C 
HETATM   12  O1  UNL     1      -3.539 -16.755  -9.689  1.00  0.00    -0.262 OA
ATOM     13  H4  UNL     1      -3.880 -13.637 -10.466  1.00  0.00     0.163 HD
BRANCH  11  14
HETATM   14  C13 UNL     1      -4.556 -15.081  -8.380  1.00  0.00     0.313 C 
HETATM   15  O2  UNL     1      -5.657 -14.510  -8.502  1.00  0.00    -0.262 OA
HETATM   16  N5  UNL     1      -3.999 -15.272  -7.107  1.00  0.00    -0.319 N 
ATOM     17  H5  UNL     1      -3.098 -15.750  -7.068  1.00  0.00     0.169 HD
BRANCH  16  18
HETATM   18  C14 UNL     1      -4.555 -14.874  -5.879  1.00  0.00     0.038 A 
HETATM   19  C15 UNL     1      -3.835 -14.464  -4.799  1.00  0.00     0.031 A 
HETATM   20  C16 UNL     1      -4.469 -14.063  -3.608  1.00  0.00     0.029 A 
HETATM   21  C17 UNL     1      -5.829 -14.090  -3.543  1.00  0.00     0.072 A 
HETATM   22 CL1  UNL     1      -6.618 -13.593  -2.068  1.00  0.00    -0.081 Cl
HETATM   23  C18 UNL     1      -6.560 -14.506  -4.636  1.00  0.00     0.140 A 
HETATM   24  F1  UNL     1      -7.927 -14.539  -4.589  1.00  0.00    -0.204 F 
HETATM   25  C19 UNL     1      -5.969 -14.899  -5.803  1.00  0.00     0.073 A 
ENDBRANCH  16  18
ENDBRANCH  11  14
ENDBRANCH   9  10
BRANCH   1  26
HETATM   26  C2  UNL     1      -0.938 -14.416 -13.136  1.00  0.00     0.129 C 
BRANCH  26  27
HETATM   27  N3  UNL     1      -0.253 -13.494 -13.986  1.00  0.00    -0.364 N 
HETATM   28  C1  UNL     1      -0.265 -13.718 -15.388  1.00  0.00     0.181 C 
HETATM   29  N1  UNL     1       0.404 -12.823 -16.237  1.00  0.00    -0.064 NA
HETATM   30  N2  UNL     1      -0.897 -14.753 -15.880  1.00  0.00    -0.374 N 
ATOM     31  H22 UNL     1      -0.906 -14.914 -16.888  1.00  0.00     0.158 HD
ATOM     32  H21 UNL     1      -1.384 -15.403 -15.263  1.00  0.00     0.158 HD
ATOM     33  H3  UNL     1       0.237 -12.690 -13.593  1.00  0.00     0.162 HD
ENDBRANCH  26  27
ENDBRANCH   1  26
TORSDOF 5
ENDMDL
