MODEL 3
REMARK VINA RESULT: -9.699576369      0.916      1.241
REMARK  5 active torsions:
REMARK  status: ('A' for Active; 'I' for Inactive)
REMARK       I    between atoms: C1_2  and  N3_6 
REMARK    1  A    between atoms: N3_6  and  C2_8 
REMARK    2  A    between atoms: C2_8  and  C3_9 
REMARK    3  A    between atoms: C11_17  and  N4_18 
REMARK       I    between atoms: N4_18  and  C12_20 
REMARK    4  A    between atoms: C12_20  and  C13_22 
REMARK       I    between atoms: C13_22  and  N5_24 
REMARK    5  A    between atoms: N5_24  and  C14_26 
ROOT
HETATM    1  C3  UNL     1      -0.990 -14.764 -11.447  1.00  0.00     0.035 C 
HETATM    2  C4  UNL     1      -1.303 -13.487 -12.181  1.00  0.00     0.047 C 
HETATM    3  C5  UNL     1      -2.440 -13.915 -13.073  1.00  0.00    -0.049 A 
HETATM    4  C6  UNL     1      -2.928 -13.394 -14.270  1.00  0.00     0.007 A 
HETATM    5  C7  UNL     1      -4.001 -13.968 -14.928  1.00  0.00     0.001 A 
HETATM    6  C8  UNL     1      -4.597 -15.090 -14.372  1.00  0.00     0.001 A 
HETATM    7  C9  UNL     1      -4.117 -15.610 -13.186  1.00  0.00     0.010 A 
HETATM    8  C10 UNL     1      -3.041 -15.026 -12.536  1.00  0.00    -0.029 A 
HETATM    9  C11 UNL     1      -2.359 -15.367 -11.296  1.00  0.00     0.124 C 
ENDROOT
BRANCH   9  10
HETATM   10  N4  UNL     1      -3.036 -14.918 -10.109  1.00  0.00    -0.344 N 
HETATM   11  C12 UNL     1      -4.001 -15.708  -9.459  1.00  0.00     0.310 C 
HETATM   12  O1  UNL     1      -4.338 -16.846  -9.859  1.00  0.00    -0.262 OA
ATOM     13  H4  UNL     1      -2.811 -14.000  -9.727  1.00  0.00     0.163 HD
BRANCH  11  14
HETATM   14  C13 UNL     1      -4.643 -15.158  -8.243  1.00  0.00     0.313 C 
HETATM   15  O2  UNL     1      -5.704 -14.516  -8.367  1.00  0.00    -0.262 OA
HETATM   16  N5  UNL     1      -4.078 -15.348  -6.974  1.00  0.00    -0.319 N 
ATOM     17  H5  UNL     1      -3.211 -15.885  -6.935  1.00  0.00     0.169 HD
BRANCH  16  18
HETATM   18  C14 UNL     1      -4.584 -14.876  -5.751  1.00  0.00     0.038 A 
HETATM   19  C15 UNL     1      -3.823 -14.378  -4.738  1.00  0.00     0.031 A 
HETATM   20  C16 UNL     1      -4.409 -13.908  -3.548  1.00  0.00     0.029 A 
HETATM   21  C17 UNL     1      -5.763 -13.955  -3.415  1.00  0.00     0.072 A 
HETATM   22 CL1  UNL     1      -6.493 -13.372  -1.941  1.00  0.00    -0.081 Cl
HETATM   23  C18 UNL     1      -6.536 -14.459  -4.440  1.00  0.00     0.140 A 
HETATM   24  F1  UNL     1      -7.898 -14.515  -4.325  1.00  0.00    -0.204 F 
HETATM   25  C19 UNL     1      -5.992 -14.922  -5.605  1.00  0.00     0.073 A 
ENDBRANCH  16  18
ENDBRANCH  11  14
ENDBRANCH   9  10
BRANCH   1  26
HETATM   26  C2  UNL     1      -0.119 -15.707 -12.191  1.00  0.00     0.129 C 
BRANCH  26  27
HETATM   27  N3  UNL     1       1.244 -15.739 -11.763  1.00  0.00    -0.364 N 
HETATM   28  C1  UNL     1       1.814 -16.984 -11.389  1.00  0.00     0.181 C 
HETATM   29  N1  UNL     1       3.150 -17.033 -10.964  1.00  0.00    -0.064 NA
HETATM   30  N2  UNL     1       1.093 -18.076 -11.440  1.00  0.00    -0.374 N 
ATOM     31  H22 UNL     1       1.502 -18.971 -11.171  1.00  0.00     0.158 HD
ATOM     32  H21 UNL     1       0.121 -18.040 -11.749  1.00  0.00     0.158 HD
ATOM     33  H3  UNL     1       1.798 -14.883 -11.727  1.00  0.00     0.162 HD
ENDBRANCH  26  27
ENDBRANCH   1  26
TORSDOF 5
ENDMDL
