MODEL 12
REMARK VINA RESULT: -8.459603540      4.435      7.086
REMARK  2 active torsions:
REMARK  status: ('A' for Active; 'I' for Inactive)
REMARK    1  A    between atoms: C2_3  and  C3_4 
REMARK       I    between atoms: C3_4  and  N2_6 
REMARK    2  A    between atoms: C7_10  and  N3_11 
ROOT
HETATM    1  N1  UNL     1      16.460  15.641   4.533  1.00  0.00    -0.197 NA
HETATM    2  C1  UNL     1      16.976  14.670   4.184  1.00  0.00     0.068 C 
HETATM    3  C2  UNL     1      17.614  13.436   3.750  1.00  0.00     0.226 C 
ENDROOT
BRANCH   3   4
HETATM    4  C3  UNL     1      16.660  12.338   3.582  1.00  0.00     0.233 C 
HETATM    5  O1  UNL     1      15.675  12.294   4.376  1.00  0.00    -0.272 OA
HETATM    6  N2  UNL     1      16.754  11.341   2.616  1.00  0.00    -0.346 N 
HETATM    7  C4  UNL     1      17.821  11.238   1.622  1.00  0.00     0.126 C 
HETATM    8  C15 UNL     1      15.755  10.254   2.495  1.00  0.00     0.180 C 
HETATM    9  C5  UNL     1      17.685   9.958   0.820  1.00  0.00     0.026 C 
HETATM   10  C6  UNL     1      16.337   9.870   0.111  1.00  0.00     0.058 C 
HETATM   11  C7  UNL     1      15.286  10.252   1.078  1.00  0.00     0.032 C 
BRANCH  11  12
HETATM   12  N3  UNL     1      13.940   9.823   0.838  1.00  0.00    -0.245 N 
HETATM   13  N4  UNL     1      12.933  10.636   0.421  1.00  0.00    -0.235 N 
HETATM   14  N5  UNL     1      11.811   9.989   0.290  1.00  0.00    -0.282 N 
ATOM     15  H4  UNL     1      13.044  11.633   0.234  1.00  0.00     0.209 HD
HETATM   16  C8  UNL     1      12.011   8.704   0.613  1.00  0.00     0.094 A 
ATOM     17  H5  UNL     1      10.925  10.395  -0.011  1.00  0.00     0.188 HD
HETATM   18  C9  UNL     1      11.235   7.580   0.669  1.00  0.00     0.123 A 
HETATM   19  C14 UNL     1      13.367   8.622   0.956  1.00  0.00     0.101 A 
HETATM   20  N6  UNL     1      11.723   6.385   1.044  1.00  0.00    -0.349 N 
HETATM   21  C10 UNL     1      13.027   6.297   1.376  1.00  0.00     0.117 A 
ATOM     22  H6  UNL     1      11.120   5.563   1.076  1.00  0.00     0.167 HD
HETATM   23  N7  UNL     1      13.795   5.242   1.785  1.00  0.00    -0.352 N 
HETATM   24  C13 UNL     1      13.880   7.392   1.344  1.00  0.00     0.040 A 
HETATM   25  C11 UNL     1      15.054   5.663   1.995  1.00  0.00     0.090 A 
ATOM     26  H7  UNL     1      13.464   4.286   1.910  1.00  0.00     0.166 HD
HETATM   27  C12 UNL     1      15.142   7.015   1.726  1.00  0.00     0.034 A 
ENDBRANCH  11  12
ENDBRANCH   3   4
TORSDOF 2
ENDMDL
