MODEL 7
REMARK VINA RESULT: -8.806663090      2.177      7.115
REMARK  2 active torsions:
REMARK  status: ('A' for Active; 'I' for Inactive)
REMARK    1  A    between atoms: C2_3  and  C3_4 
REMARK       I    between atoms: C3_4  and  N2_6 
REMARK    2  A    between atoms: C7_10  and  N3_11 
ROOT
HETATM    1  N1  UNL     1      17.742   1.728   1.490  1.00  0.00    -0.197 NA
HETATM    2  C1  UNL     1      17.148   2.436   0.800  1.00  0.00     0.068 C 
HETATM    3  C2  UNL     1      16.386   3.329  -0.060  1.00  0.00     0.226 C 
ENDROOT
BRANCH   3   4
HETATM    4  C3  UNL     1      15.363   4.078   0.672  1.00  0.00     0.233 C 
HETATM    5  O1  UNL     1      15.733   4.719   1.700  1.00  0.00    -0.272 OA
HETATM    6  N2  UNL     1      14.017   4.140   0.324  1.00  0.00    -0.346 N 
HETATM    7  C4  UNL     1      13.420   3.465  -0.827  1.00  0.00     0.126 C 
HETATM    8  C15 UNL     1      13.028   4.917   1.106  1.00  0.00     0.180 C 
HETATM    9  C5  UNL     1      11.913   3.636  -0.827  1.00  0.00     0.026 C 
HETATM   10  C6  UNL     1      11.506   5.106  -0.848  1.00  0.00     0.058 C 
HETATM   11  C7  UNL     1      12.333   5.824   0.146  1.00  0.00     0.032 C 
BRANCH  11  12
HETATM   12  N3  UNL     1      11.861   7.076   0.658  1.00  0.00    -0.245 N 
HETATM   13  N4  UNL     1      10.589   7.308   1.080  1.00  0.00    -0.235 N 
HETATM   14  N5  UNL     1      10.429   8.533   1.488  1.00  0.00    -0.282 N 
ATOM     15  H4  UNL     1       9.849   6.606   1.077  1.00  0.00     0.209 HD
HETATM   16  C8  UNL     1      11.592   9.188   1.360  1.00  0.00     0.094 A 
ATOM     17  H5  UNL     1       9.561   8.931   1.846  1.00  0.00     0.188 HD
HETATM   18  C9  UNL     1      12.030  10.458   1.614  1.00  0.00     0.123 A 
HETATM   19  C14 UNL     1      12.483   8.245   0.833  1.00  0.00     0.101 A 
HETATM   20  N6  UNL     1      13.294  10.845   1.377  1.00  0.00    -0.349 N 
HETATM   21  C10 UNL     1      14.160   9.943   0.869  1.00  0.00     0.117 A 
ATOM     22  H6  UNL     1      13.593  11.800   1.575  1.00  0.00     0.167 HD
HETATM   23  N7  UNL     1      15.482  10.038   0.533  1.00  0.00    -0.352 N 
HETATM   24  C13 UNL     1      13.792   8.636   0.585  1.00  0.00     0.040 A 
HETATM   25  C11 UNL     1      15.908   8.852   0.065  1.00  0.00     0.090 A 
ATOM     26  H7  UNL     1      16.055  10.877   0.623  1.00  0.00     0.166 HD
HETATM   27  C12 UNL     1      14.866   7.944   0.085  1.00  0.00     0.034 A 
ENDBRANCH  11  12
ENDBRANCH   3   4
TORSDOF 2
ENDMDL
