MODEL 3
REMARK VINA RESULT: -9.122917331      1.134      1.328
REMARK  2 active torsions:
REMARK  status: ('A' for Active; 'I' for Inactive)
REMARK    1  A    between atoms: C2_3  and  C3_4 
REMARK       I    between atoms: C3_4  and  N2_6 
REMARK    2  A    between atoms: C7_10  and  N3_11 
ROOT
HETATM    1  N1  UNL     1       8.635   8.426   1.507  1.00  0.00    -0.197 NA
HETATM    2  C1  UNL     1       9.490   8.062   0.823  1.00  0.00     0.068 C 
HETATM    3  C2  UNL     1      10.580   7.604  -0.026  1.00  0.00     0.226 C 
ENDROOT
BRANCH   3   4
HETATM    4  C3  UNL     1      11.632   6.920   0.728  1.00  0.00     0.233 C 
HETATM    5  O1  UNL     1      11.399   5.738   1.115  1.00  0.00    -0.272 OA
HETATM    6  N2  UNL     1      12.869   7.471   1.050  1.00  0.00    -0.346 N 
HETATM    7  C4  UNL     1      13.305   8.818   0.684  1.00  0.00     0.126 C 
HETATM    8  C15 UNL     1      13.895   6.728   1.818  1.00  0.00     0.180 C 
HETATM    9  C5  UNL     1      14.647   9.136   1.314  1.00  0.00     0.026 C 
HETATM   10  C6  UNL     1      15.723   8.137   0.899  1.00  0.00     0.058 C 
HETATM   11  C7  UNL     1      15.154   6.777   1.017  1.00  0.00     0.032 C 
BRANCH  11  12
HETATM   12  N3  UNL     1      16.049   5.666   1.141  1.00  0.00    -0.245 N 
HETATM   13  N4  UNL     1      17.256   5.712   1.767  1.00  0.00    -0.235 N 
HETATM   14  N5  UNL     1      17.868   4.564   1.726  1.00  0.00    -0.282 N 
ATOM     15  H4  UNL     1      17.636   6.546   2.214  1.00  0.00     0.209 HD
HETATM   16  C8  UNL     1      17.097   3.686   1.068  1.00  0.00     0.094 A 
ATOM     17  H5  UNL     1      18.783   4.365   2.129  1.00  0.00     0.188 HD
HETATM   18  C9  UNL     1      17.201   2.368   0.717  1.00  0.00     0.123 A 
HETATM   19  C14 UNL     1      15.951   4.406   0.708  1.00  0.00     0.101 A 
HETATM   20  N6  UNL     1      16.239   1.727   0.032  1.00  0.00    -0.349 N 
HETATM   21  C10 UNL     1      15.132   2.413  -0.319  1.00  0.00     0.117 A 
ATOM     22  H6  UNL     1      16.343   0.744  -0.217  1.00  0.00     0.167 HD
HETATM   23  N7  UNL     1      14.006   2.041  -1.000  1.00  0.00    -0.352 N 
HETATM   24  C13 UNL     1      14.952   3.752   0.001  1.00  0.00     0.040 A 
HETATM   25  C11 UNL     1      13.176   3.093  -1.097  1.00  0.00     0.090 A 
ATOM     26  H7  UNL     1      13.825   1.110  -1.376  1.00  0.00     0.166 HD
HETATM   27  C12 UNL     1      13.742   4.190  -0.475  1.00  0.00     0.034 A 
ENDBRANCH  11  12
ENDBRANCH   3   4
TORSDOF 2
ENDMDL
