MODEL 1
REMARK VINA RESULT: -9.157634395      0.000      0.000
REMARK  4 active torsions:
REMARK  status: ('A' for Active; 'I' for Inactive)
REMARK    1  A    between atoms: C2_2  and  C3_3 
REMARK    2  A    between atoms: C8_12  and  N3_13 
REMARK    3  A    between atoms: C11_18  and  C12_19 
REMARK    4  A    between atoms: N7_28  and  C16_29 
ROOT
HETATM    1  C3  UNL     1      13.397   6.598   9.899  1.00  0.00     0.178 C 
HETATM    2  C4  UNL     1      13.511   5.196  10.309  1.00  0.00     0.247 C 
HETATM    3  O1  UNL     1      14.656   4.766  10.614  1.00  0.00    -0.271 OA
HETATM    4  N1  UNL     1      12.424   4.297  10.384  1.00  0.00    -0.316 N 
HETATM    5  C5  UNL     1      12.604   2.875  10.509  1.00  0.00     0.159 C 
HETATM    6  C6  UNL     1      11.132   4.855  10.331  1.00  0.00     0.098 A 
HETATM    7  C7  UNL     1      10.016   4.056  10.401  1.00  0.00     0.139 A 
HETATM    8  N2  UNL     1       8.790   4.591  10.354  1.00  0.00    -0.199 N 
ATOM      9  H2  UNL     1       7.969   3.987  10.407  1.00  0.00     0.183 HD
HETATM   10  C8  UNL     1       8.636   5.916  10.238  1.00  0.00     0.691 A 
HETATM   11  N6  UNL     1       9.735   6.677  10.172  1.00  0.00    -0.174 N 
ATOM     12  H6  UNL     1       9.605   7.685  10.084  1.00  0.00     0.186 HD
HETATM   13  C15 UNL     1      10.992   6.218  10.212  1.00  0.00     0.148 A 
HETATM   14  N7  UNL     1      12.068   7.145  10.134  1.00  0.00    -0.347 N 
ENDROOT
BRANCH  10  15
HETATM   15  N3  UNL     1       7.318   6.486  10.189  1.00  0.00    -0.139 N 
HETATM   16  C9  UNL     1       6.357   6.214   9.318  1.00  0.00     0.134 A 
HETATM   17  C10 UNL     1       5.226   6.985   9.618  1.00  0.00     0.108 A 
HETATM   18  N4  UNL     1       5.568   7.715  10.696  1.00  0.00    -0.348 N 
HETATM   19  C11 UNL     1       6.825   7.411  11.035  1.00  0.00     0.155 A 
ATOM     20  H4  UNL     1       4.968   8.387  11.175  1.00  0.00     0.167 HD
BRANCH  19  21
HETATM   21  C12 UNL     1       7.537   8.032  12.190  1.00  0.00     0.084 A 
HETATM   22  C13 UNL     1       7.481   9.383  12.433  1.00  0.00     0.084 A 
HETATM   23  S1  UNL     1       8.449   9.527  13.838  1.00  0.00    -0.094 SA
HETATM   24  C14 UNL     1       8.862   7.885  14.030  1.00  0.00     0.138 A 
HETATM   25  N5  UNL     1       8.241   7.315  13.017  1.00  0.00    -0.357 N 
ATOM     26  H5  UNL     1       8.314   6.307  12.880  1.00  0.00     0.166 HD
ENDBRANCH  19  21
ENDBRANCH  10  15
BRANCH  14  27
HETATM   27  C16 UNL     1      12.001   8.548  10.272  1.00  0.00     0.087 C 
HETATM   28  C17 UNL     1      13.365   9.092  10.668  1.00  0.00     0.025 C 
HETATM   29  C18 UNL     1      13.186   9.724  12.029  1.00  0.00     0.002 C 
HETATM   30  C19 UNL     1      11.756   9.475  12.451  1.00  0.00     0.002 C 
HETATM   31  C20 UNL     1      11.008   9.186  11.135  1.00  0.00     0.025 C 
ENDBRANCH  14  27
BRANCH   1  32
HETATM   32  C2  UNL     1      13.700   6.743   8.409  1.00  0.00     0.030 C 
HETATM   33  C1  UNL     1      12.521   6.315   7.574  1.00  0.00     0.007 C 
ENDBRANCH   1  32
TORSDOF 4
ENDMDL
