MODEL 2
REMARK VINA RESULT: -8.662184314      2.671      5.310
REMARK  4 active torsions:
REMARK  status: ('A' for Active; 'I' for Inactive)
REMARK    1  A    between atoms: C2_2  and  C3_3 
REMARK    2  A    between atoms: C8_12  and  N3_13 
REMARK    3  A    between atoms: C11_18  and  C12_19 
REMARK    4  A    between atoms: N7_28  and  C16_29 
ROOT
HETATM    1  C3  UNL     1      10.614   5.048   9.836  1.00  0.00     0.178 C 
HETATM    2  C4  UNL     1      11.698   5.445   8.934  1.00  0.00     0.247 C 
HETATM    3  O1  UNL     1      11.913   4.724   7.923  1.00  0.00    -0.271 OA
HETATM    4  N1  UNL     1      12.516   6.581   9.123  1.00  0.00    -0.316 N 
HETATM    5  C5  UNL     1      13.739   6.784   8.392  1.00  0.00     0.159 C 
HETATM    6  C6  UNL     1      12.083   7.526  10.073  1.00  0.00     0.098 A 
HETATM    7  C7  UNL     1      12.813   8.663  10.320  1.00  0.00     0.139 A 
HETATM    8  N2  UNL     1      12.395   9.561  11.220  1.00  0.00    -0.199 N 
ATOM      9  H2  UNL     1      12.947  10.402  11.395  1.00  0.00     0.183 HD
HETATM   10  C8  UNL     1      11.255   9.360  11.894  1.00  0.00     0.691 A 
HETATM   11  N6  UNL     1      10.558   8.247  11.639  1.00  0.00    -0.174 N 
ATOM     12  H6  UNL     1       9.692   8.106  12.158  1.00  0.00     0.186 HD
HETATM   13  C15 UNL     1      10.910   7.305  10.756  1.00  0.00     0.148 A 
HETATM   14  N7  UNL     1      10.068   6.170  10.585  1.00  0.00    -0.347 N 
ENDROOT
BRANCH  10  15
HETATM   15  N3  UNL     1      10.811  10.327  12.859  1.00  0.00    -0.139 N 
HETATM   16  C9  UNL     1       9.716  11.071  12.807  1.00  0.00     0.134 A 
HETATM   17  C10 UNL     1       9.651  11.884  13.946  1.00  0.00     0.108 A 
HETATM   18  N4  UNL     1      10.751  11.583  14.662  1.00  0.00    -0.348 N 
HETATM   19  C11 UNL     1      11.443  10.647  14.005  1.00  0.00     0.155 A 
ATOM     20  H4  UNL     1      11.011  11.999  15.557  1.00  0.00     0.167 HD
BRANCH  19  21
HETATM   21  C12 UNL     1      12.725  10.071  14.507  1.00  0.00     0.084 A 
HETATM   22  C13 UNL     1      12.761   8.904  15.230  1.00  0.00     0.084 A 
HETATM   23  S1  UNL     1      14.436   8.728  15.531  1.00  0.00    -0.094 SA
HETATM   24  C14 UNL     1      14.986  10.129  14.731  1.00  0.00     0.138 A 
HETATM   25  N5  UNL     1      13.866  10.655  14.278  1.00  0.00    -0.357 N 
ATOM     26  H5  UNL     1      13.893  11.524  13.745  1.00  0.00     0.166 HD
ENDBRANCH  19  21
ENDBRANCH  10  15
BRANCH  14  27
HETATM   27  C16 UNL     1       8.746   6.008  11.051  1.00  0.00     0.087 C 
HETATM   28  C17 UNL     1       7.908   5.311   9.990  1.00  0.00     0.025 C 
HETATM   29  C18 UNL     1       6.827   6.291   9.596  1.00  0.00     0.002 C 
HETATM   30  C19 UNL     1       7.087   7.570  10.360  1.00  0.00     0.002 C 
HETATM   31  C20 UNL     1       7.965   7.139  11.550  1.00  0.00     0.025 C 
ENDBRANCH  14  27
BRANCH   1  32
HETATM   32  C2  UNL     1      11.113   4.017  10.846  1.00  0.00     0.030 C 
HETATM   33  C1  UNL     1      10.578   2.645  10.528  1.00  0.00     0.007 C 
ENDBRANCH   1  32
TORSDOF 4
ENDMDL
