MODEL 5
REMARK VINA RESULT: -8.320909238      2.852      6.074
REMARK  4 active torsions:
REMARK  status: ('A' for Active; 'I' for Inactive)
REMARK    1  A    between atoms: C2_2  and  C3_3 
REMARK    2  A    between atoms: C8_12  and  N3_13 
REMARK    3  A    between atoms: C11_18  and  C12_19 
REMARK    4  A    between atoms: N7_28  and  C16_29 
ROOT
HETATM    1  C3  UNL     1      10.078  10.383  13.263  1.00  0.00     0.178 C 
HETATM    2  C4  UNL     1      11.055   9.959  14.268  1.00  0.00     0.247 C 
HETATM    3  O1  UNL     1      10.834  10.272  15.469  1.00  0.00    -0.271 OA
HETATM    4  N1  UNL     1      12.227   9.224  13.980  1.00  0.00    -0.316 N 
HETATM    5  C5  UNL     1      13.297   9.073  14.929  1.00  0.00     0.159 C 
HETATM    6  C6  UNL     1      12.311   8.634  12.704  1.00  0.00     0.098 A 
HETATM    7  C7  UNL     1      13.412   7.899  12.338  1.00  0.00     0.139 A 
HETATM    8  N2  UNL     1      13.485   7.336  11.126  1.00  0.00    -0.199 N 
ATOM      9  H2  UNL     1      14.308   6.792  10.866  1.00  0.00     0.183 HD
HETATM   10  C8  UNL     1      12.481   7.485  10.252  1.00  0.00     0.691 A 
HETATM   11  N6  UNL     1      11.418   8.205  10.627  1.00  0.00    -0.174 N 
ATOM     12  H6  UNL     1      10.659   8.310   9.953  1.00  0.00     0.186 HD
HETATM   13  C15 UNL     1      11.271   8.797  11.818  1.00  0.00     0.148 A 
HETATM   14  N7  UNL     1      10.081   9.531  12.082  1.00  0.00    -0.347 N 
ENDROOT
BRANCH  10  15
HETATM   15  N3  UNL     1      12.564   6.879   8.952  1.00  0.00    -0.139 N 
HETATM   16  C9  UNL     1      13.147   7.374   7.869  1.00  0.00     0.134 A 
HETATM   17  C10 UNL     1      13.003   6.470   6.809  1.00  0.00     0.108 A 
HETATM   18  N4  UNL     1      12.315   5.431   7.317  1.00  0.00    -0.348 N 
HETATM   19  C11 UNL     1      12.054   5.682   8.604  1.00  0.00     0.155 A 
ATOM     20  H4  UNL     1      12.040   4.592   6.806  1.00  0.00     0.167 HD
BRANCH  19  21
HETATM   21  C12 UNL     1      11.304   4.742   9.487  1.00  0.00     0.084 A 
HETATM   22  C13 UNL     1      11.850   3.556   9.913  1.00  0.00     0.084 A 
HETATM   23  S1  UNL     1      10.585   2.908  10.867  1.00  0.00    -0.094 SA
HETATM   24  C14 UNL     1       9.451   4.166  10.671  1.00  0.00     0.138 A 
HETATM   25  N5  UNL     1      10.096   5.010   9.891  1.00  0.00    -0.357 N 
ATOM     26  H5  UNL     1       9.645   5.878   9.602  1.00  0.00     0.166 HD
ENDBRANCH  19  21
ENDBRANCH  10  15
BRANCH  14  27
HETATM   27  C16 UNL     1       8.885   9.521  11.333  1.00  0.00     0.087 C 
HETATM   28  C17 UNL     1       7.690   9.600  12.271  1.00  0.00     0.025 C 
HETATM   29  C18 UNL     1       6.916   8.316  12.074  1.00  0.00     0.002 C 
HETATM   30  C19 UNL     1       7.699   7.470  11.096  1.00  0.00     0.002 C 
HETATM   31  C20 UNL     1       8.604   8.472  10.354  1.00  0.00     0.025 C 
ENDBRANCH  14  27
BRANCH   1  32
HETATM   32  C2  UNL     1      10.372  11.810  12.804  1.00  0.00     0.030 C 
HETATM   33  C1  UNL     1       9.394  12.784  13.408  1.00  0.00     0.007 C 
ENDBRANCH   1  32
TORSDOF 4
ENDMDL
