MODEL 3
REMARK VINA RESULT: -8.645447843      3.224      6.895
REMARK  4 active torsions:
REMARK  status: ('A' for Active; 'I' for Inactive)
REMARK    1  A    between atoms: C2_2  and  C3_3 
REMARK    2  A    between atoms: C8_12  and  N3_13 
REMARK    3  A    between atoms: C11_18  and  C12_19 
REMARK    4  A    between atoms: N7_28  and  C16_29 
ROOT
HETATM    1  C3  UNL     1       6.967   9.913  12.360  1.00  0.00     0.178 C 
HETATM    2  C4  UNL     1       7.736  10.958  13.041  1.00  0.00     0.247 C 
HETATM    3  O1  UNL     1       7.185  11.557  14.003  1.00  0.00    -0.271 OA
HETATM    4  N1  UNL     1       9.051  11.337  12.690  1.00  0.00    -0.316 N 
HETATM    5  C5  UNL     1       9.664  12.543  13.180  1.00  0.00     0.159 C 
HETATM    6  C6  UNL     1       9.752  10.475  11.825  1.00  0.00     0.098 A 
HETATM    7  C7  UNL     1      11.038  10.762  11.433  1.00  0.00     0.139 A 
HETATM    8  N2  UNL     1      11.702   9.937  10.615  1.00  0.00    -0.199 N 
ATOM      9  H2  UNL     1      12.656  10.162  10.331  1.00  0.00     0.183 HD
HETATM   10  C8  UNL     1      11.119   8.818  10.166  1.00  0.00     0.691 A 
HETATM   11  N6  UNL     1       9.867   8.556  10.559  1.00  0.00    -0.174 N 
ATOM     12  H6  UNL     1       9.434   7.701  10.212  1.00  0.00     0.186 HD
HETATM   13  C15 UNL     1       9.139   9.330  11.374  1.00  0.00     0.148 A 
HETATM   14  N7  UNL     1       7.817   8.924  11.711  1.00  0.00    -0.347 N 
ENDROOT
BRANCH  10  15
HETATM   15  N3  UNL     1      11.836   7.936   9.288  1.00  0.00    -0.139 N 
HETATM   16  C9  UNL     1      11.387   7.363   8.180  1.00  0.00     0.134 A 
HETATM   17  C10 UNL     1      12.401   6.577   7.619  1.00  0.00     0.108 A 
HETATM   18  N4  UNL     1      13.457   6.715   8.443  1.00  0.00    -0.348 N 
HETATM   19  C11 UNL     1      13.112   7.532   9.444  1.00  0.00     0.155 A 
ATOM     20  H4  UNL     1      14.368   6.271   8.323  1.00  0.00     0.167 HD
BRANCH  19  21
HETATM   21  C12 UNL     1      14.039   7.912  10.549  1.00  0.00     0.084 A 
HETATM   22  C13 UNL     1      15.070   8.799  10.357  1.00  0.00     0.084 A 
HETATM   23  S1  UNL     1      15.778   8.857  11.914  1.00  0.00    -0.094 SA
HETATM   24  C14 UNL     1      14.737   7.765  12.707  1.00  0.00     0.138 A 
HETATM   25  N5  UNL     1      13.907   7.415  11.745  1.00  0.00    -0.357 N 
ATOM     26  H5  UNL     1      13.156   6.752  11.939  1.00  0.00     0.166 HD
ENDBRANCH  19  21
ENDBRANCH  10  15
BRANCH  14  27
HETATM   27  C16 UNL     1       7.230   7.659  11.500  1.00  0.00     0.087 C 
HETATM   28  C17 UNL     1       7.994   6.600  12.280  1.00  0.00     0.025 C 
HETATM   29  C18 UNL     1       8.563   5.649  11.251  1.00  0.00     0.002 C 
HETATM   30  C19 UNL     1       8.201   6.199   9.890  1.00  0.00     0.002 C 
HETATM   31  C20 UNL     1       7.005   7.134  10.154  1.00  0.00     0.025 C 
ENDBRANCH  14  27
BRANCH   1  32
HETATM   32  C2  UNL     1       6.070  10.526  11.287  1.00  0.00     0.030 C 
HETATM   33  C1  UNL     1       4.615  10.344  11.632  1.00  0.00     0.007 C 
ENDBRANCH   1  32
TORSDOF 4
ENDMDL
