MODEL 8
REMARK VINA RESULT: -5.938117080     10.318     11.672
REMARK  5 active torsions:
REMARK  status: ('A' for Active; 'I' for Inactive)
REMARK    1  A    between atoms: C4_9  and  C5_10 
REMARK    2  A    between atoms: C7_13  and  O1_14 
REMARK    3  A    between atoms: C8_16  and  O2_17 
REMARK    4  A    between atoms: C9_19  and  C10_20 
REMARK    5  A    between atoms: C10_20  and  O3_21 
ROOT
HETATM    1  N1  UNL     1       3.129  17.582  31.194  1.00  0.00    -0.080 NA
HETATM    2  C1  UNL     1       1.834  18.128  31.181  1.00  0.00     0.146 A 
HETATM    3  N2  UNL     1       0.727  17.397  31.450  1.00  0.00    -0.339 N 
ATOM      4  H2  UNL     1       0.776  16.392  31.617  1.00  0.00     0.167 HD
HETATM    5  C2  UNL     1      -0.457  18.073  31.489  1.00  0.00     0.182 A 
HETATM    6  N3  UNL     1      -0.516  19.356  31.262  1.00  0.00    -0.350 N 
ATOM      7  H3  UNL     1      -1.430  19.809  31.290  1.00  0.00     0.166 HD
HETATM    8  C3  UNL     1       0.555  20.107  30.996  1.00  0.00     0.076 A 
HETATM    9  C4  UNL     1       0.739  21.493  30.787  1.00  0.00     0.024 A 
HETATM   10  C11 UNL     1       2.054  21.612  30.637  1.00  0.00     0.103 A 
HETATM   11  N5  UNL     1       2.710  20.439  30.716  1.00  0.00    -0.360 N 
ATOM     12  H5  UNL     1       3.714  20.294  30.617  1.00  0.00     0.165 HD
HETATM   13  C12 UNL     1       1.777  19.494  30.952  1.00  0.00     0.101 A 
ENDROOT
BRANCH   9  14
HETATM   14  C5  UNL     1      -0.381  22.387  30.976  1.00  0.00     0.101 C 
HETATM   15  N4  UNL     1      -0.615  23.497  30.228  1.00  0.00    -0.377 N 
HETATM   16  C6  UNL     1      -1.360  24.528  30.969  1.00  0.00     0.157 C 
HETATM   17  C9  UNL     1       0.283  24.244  29.461  1.00  0.00     0.138 C 
HETATM   18  C7  UNL     1      -1.281  25.790  30.109  1.00  0.00     0.166 C 
HETATM   19  C8  UNL     1      -0.633  25.271  28.842  1.00  0.00     0.173 C 
BRANCH  18  20
HETATM   20  O1  UNL     1      -2.509  26.363  29.846  1.00  0.00    -0.391 OA
ATOM     21  H1  UNL     1      -2.766  27.027  30.475  1.00  0.00     0.210 HD
ENDBRANCH  18  20
BRANCH  19  22
HETATM   22  O2  UNL     1      -1.615  24.598  28.116  1.00  0.00    -0.391 OA
ATOM     23  H2  UNL     1      -1.298  24.508  27.225  1.00  0.00     0.210 HD
ENDBRANCH  19  22
BRANCH  17  24
HETATM   24  C10 UNL     1       1.393  24.836  30.286  1.00  0.00     0.192 C 
BRANCH  24  25
HETATM   25  O3  UNL     1       2.230  25.661  29.560  1.00  0.00    -0.399 OA
ATOM     26  H3  UNL     1       1.809  26.462  29.271  1.00  0.00     0.209 HD
ENDBRANCH  24  25
ENDBRANCH  17  24
ENDBRANCH   9  14
TORSDOF 5
ENDMDL
