MODEL 5
REMARK VINA RESULT: -6.487966447      5.306      8.457
REMARK  5 active torsions:
REMARK  status: ('A' for Active; 'I' for Inactive)
REMARK    1  A    between atoms: C4_9  and  C5_10 
REMARK    2  A    between atoms: C7_13  and  O1_14 
REMARK    3  A    between atoms: C8_16  and  O2_17 
REMARK    4  A    between atoms: C9_19  and  C10_20 
REMARK    5  A    between atoms: C10_20  and  O3_21 
ROOT
HETATM    1  N1  UNL     1       4.774  21.076  22.205  1.00  0.00    -0.080 NA
HETATM    2  C1  UNL     1       3.619  21.249  22.986  1.00  0.00     0.146 A 
HETATM    3  N2  UNL     1       2.510  21.874  22.528  1.00  0.00    -0.339 N 
ATOM      4  H2  UNL     1       2.482  22.308  21.605  1.00  0.00     0.167 HD
HETATM    5  C2  UNL     1       1.431  21.894  23.362  1.00  0.00     0.182 A 
HETATM    6  N3  UNL     1       1.475  21.350  24.546  1.00  0.00    -0.350 N 
ATOM      7  H3  UNL     1       0.644  21.406  25.135  1.00  0.00     0.166 HD
HETATM    8  C3  UNL     1       2.551  20.724  25.029  1.00  0.00     0.076 A 
HETATM    9  C4  UNL     1       2.805  20.018  26.227  1.00  0.00     0.024 A 
HETATM   10  C11 UNL     1       4.050  19.578  26.069  1.00  0.00     0.103 A 
HETATM   11  N5  UNL     1       4.604  19.949  24.901  1.00  0.00    -0.360 N 
ATOM     12  H5  UNL     1       5.548  19.736  24.580  1.00  0.00     0.165 HD
HETATM   13  C12 UNL     1       3.666  20.658  24.240  1.00  0.00     0.101 A 
ENDROOT
BRANCH   9  14
HETATM   14  C5  UNL     1       1.716  19.780  27.147  1.00  0.00     0.101 C 
HETATM   15  N4  UNL     1       1.782  19.983  28.489  1.00  0.00    -0.377 N 
HETATM   16  C6  UNL     1       0.865  19.109  29.237  1.00  0.00     0.157 C 
HETATM   17  C9  UNL     1       2.910  20.042  29.313  1.00  0.00     0.138 C 
HETATM   18  C7  UNL     1       1.269  19.250  30.706  1.00  0.00     0.166 C 
HETATM   19  C8  UNL     1       2.288  20.368  30.649  1.00  0.00     0.173 C 
BRANCH  18  20
HETATM   20  O1  UNL     1       0.219  19.569  31.543  1.00  0.00    -0.391 OA
ATOM     21  H1  UNL     1       0.478  20.065  32.312  1.00  0.00     0.210 HD
ENDBRANCH  18  20
BRANCH  19  22
HETATM   22  O2  UNL     1       1.586  21.567  30.521  1.00  0.00    -0.391 OA
ATOM     23  H2  UNL     1       1.723  21.883  29.635  1.00  0.00     0.210 HD
ENDBRANCH  19  22
BRANCH  17  24
HETATM   24  C10 UNL     1       3.696  18.759  29.306  1.00  0.00     0.192 C 
BRANCH  24  25
HETATM   25  O3  UNL     1       4.681  18.719  30.273  1.00  0.00    -0.399 OA
ATOM     26  H3  UNL     1       5.261  17.972  30.186  1.00  0.00     0.209 HD
ENDBRANCH  24  25
ENDBRANCH  17  24
ENDBRANCH   9  14
TORSDOF 5
ENDMDL
