MODEL 7
REMARK VINA RESULT: -6.051470548      3.767      6.098
REMARK  5 active torsions:
REMARK  status: ('A' for Active; 'I' for Inactive)
REMARK    1  A    between atoms: C4_9  and  C5_10 
REMARK    2  A    between atoms: C7_13  and  O1_14 
REMARK    3  A    between atoms: C8_16  and  O2_17 
REMARK    4  A    between atoms: C9_19  and  C10_20 
REMARK    5  A    between atoms: C10_20  and  O3_21 
ROOT
HETATM    1  N1  UNL     1       6.569  18.109  19.871  1.00  0.00    -0.080 NA
HETATM    2  C1  UNL     1       5.806  18.963  20.686  1.00  0.00     0.146 A 
HETATM    3  N2  UNL     1       5.575  18.714  21.996  1.00  0.00    -0.339 N 
ATOM      4  H2  UNL     1       5.894  17.855  22.443  1.00  0.00     0.167 HD
HETATM    5  C2  UNL     1       4.892  19.670  22.688  1.00  0.00     0.182 A 
HETATM    6  N3  UNL     1       4.473  20.762  22.110  1.00  0.00    -0.350 N 
ATOM      7  H3  UNL     1       3.955  21.437  22.671  1.00  0.00     0.166 HD
HETATM    8  C3  UNL     1       4.686  21.040  20.822  1.00  0.00     0.076 A 
HETATM    9  C4  UNL     1       4.392  22.161  20.011  1.00  0.00     0.024 A 
HETATM   10  C11 UNL     1       4.926  21.842  18.836  1.00  0.00     0.103 A 
HETATM   11  N5  UNL     1       5.511  20.630  18.826  1.00  0.00    -0.360 N 
ATOM     12  H5  UNL     1       5.968  20.180  18.033  1.00  0.00     0.165 HD
HETATM   13  C12 UNL     1       5.373  20.127  20.070  1.00  0.00     0.101 A 
ENDROOT
BRANCH   9  14
HETATM   14  C5  UNL     1       3.835  23.345  20.625  1.00  0.00     0.101 C 
HETATM   15  N4  UNL     1       2.552  23.456  21.060  1.00  0.00    -0.377 N 
HETATM   16  C6  UNL     1       2.065  24.845  21.027  1.00  0.00     0.157 C 
HETATM   17  C9  UNL     1       1.429  22.716  20.681  1.00  0.00     0.138 C 
HETATM   18  C7  UNL     1       0.556  24.757  21.257  1.00  0.00     0.166 C 
HETATM   19  C8  UNL     1       0.370  23.291  21.590  1.00  0.00     0.173 C 
BRANCH  18  20
HETATM   20  O1  UNL     1       0.100  25.565  22.279  1.00  0.00    -0.391 OA
ATOM     21  H1  UNL     1      -0.639  26.110  22.037  1.00  0.00     0.210 HD
ENDBRANCH  18  20
BRANCH  19  22
HETATM   22  O2  UNL     1       0.783  23.107  22.909  1.00  0.00    -0.391 OA
ATOM     23  H2  UNL     1       1.092  23.946  23.230  1.00  0.00     0.210 HD
ENDBRANCH  19  22
BRANCH  17  24
HETATM   24  C10 UNL     1       1.115  22.855  19.216  1.00  0.00     0.192 C 
BRANCH  24  25
HETATM   25  O3  UNL     1      -0.240  22.843  18.947  1.00  0.00    -0.399 OA
ATOM     26  H3  UNL     1      -0.440  22.964  18.026  1.00  0.00     0.209 HD
ENDBRANCH  24  25
ENDBRANCH  17  24
ENDBRANCH   9  14
TORSDOF 5
ENDMDL
