MODEL 1
REMARK VINA RESULT: -8.892496353      0.000      0.000
REMARK  5 active torsions:
REMARK  status: ('A' for Active; 'I' for Inactive)
REMARK    1  A    between atoms: C4_9  and  C5_10 
REMARK    2  A    between atoms: C7_13  and  O1_14 
REMARK    3  A    between atoms: C8_16  and  O2_17 
REMARK    4  A    between atoms: C9_19  and  C10_20 
REMARK    5  A    between atoms: C10_20  and  O3_21 
ROOT
HETATM    1  N1  UNL     1       0.917  21.666  23.782  1.00  0.00    -0.080 NA
HETATM    2  C1  UNL     1       2.290  21.377  23.705  1.00  0.00     0.146 A 
HETATM    3  N2  UNL     1       2.932  20.617  24.622  1.00  0.00    -0.339 N 
ATOM      4  H2  UNL     1       2.458  20.266  25.453  1.00  0.00     0.167 HD
HETATM    5  C2  UNL     1       4.246  20.344  24.377  1.00  0.00     0.182 A 
HETATM    6  N3  UNL     1       4.853  20.807  23.319  1.00  0.00    -0.350 N 
ATOM      7  H3  UNL     1       5.840  20.584  23.193  1.00  0.00     0.166 HD
HETATM    8  C3  UNL     1       4.249  21.557  22.394  1.00  0.00     0.076 A 
HETATM    9  C4  UNL     1       4.675  22.103  21.161  1.00  0.00     0.024 A 
HETATM   10  C11 UNL     1       3.580  22.690  20.689  1.00  0.00     0.103 A 
HETATM   11  N5  UNL     1       2.518  22.580  21.507  1.00  0.00    -0.360 N 
ATOM     12  H5  UNL     1       1.586  22.963  21.352  1.00  0.00     0.165 HD
HETATM   13  C12 UNL     1       2.928  21.861  22.572  1.00  0.00     0.101 A 
ENDROOT
BRANCH   9  14
HETATM   14  C5  UNL     1       5.984  21.759  20.655  1.00  0.00     0.101 C 
HETATM   15  N4  UNL     1       6.283  20.594  20.023  1.00  0.00    -0.377 N 
HETATM   16  C6  UNL     1       7.694  20.209  20.189  1.00  0.00     0.157 C 
HETATM   17  C9  UNL     1       5.611  19.369  20.074  1.00  0.00     0.138 C 
HETATM   18  C7  UNL     1       7.790  18.769  19.684  1.00  0.00     0.166 C 
HETATM   19  C8  UNL     1       6.413  18.546  19.095  1.00  0.00     0.173 C 
BRANCH  18  20
HETATM   20  O1  UNL     1       8.777  18.574  18.739  1.00  0.00    -0.391 OA
ATOM     21  H1  UNL     1       9.606  18.983  18.960  1.00  0.00     0.210 HD
ENDBRANCH  18  20
BRANCH  19  22
HETATM   22  O2  UNL     1       6.379  19.188  17.857  1.00  0.00    -0.391 OA
ATOM     23  H2  UNL     1       5.485  19.471  17.708  1.00  0.00     0.210 HD
ENDBRANCH  19  22
BRANCH  17  24
HETATM   24  C10 UNL     1       5.570  18.793  21.463  1.00  0.00     0.192 C 
BRANCH  24  25
HETATM   25  O3  UNL     1       5.499  17.413  21.478  1.00  0.00    -0.399 OA
ATOM     26  H3  UNL     1       6.307  16.993  21.210  1.00  0.00     0.209 HD
ENDBRANCH  24  25
ENDBRANCH  17  24
ENDBRANCH   9  14
TORSDOF 5
ENDMDL
