MODEL 4
REMARK VINA RESULT: -6.889206599      1.614      2.344
REMARK  5 active torsions:
REMARK  status: ('A' for Active; 'I' for Inactive)
REMARK    1  A    between atoms: C4_9  and  C5_10 
REMARK    2  A    between atoms: C7_13  and  O1_14 
REMARK    3  A    between atoms: C8_16  and  O2_17 
REMARK    4  A    between atoms: C9_19  and  C10_20 
REMARK    5  A    between atoms: C10_20  and  O3_21 
ROOT
HETATM    1  N1  UNL     1       0.848  22.015  25.308  1.00  0.00    -0.080 NA
HETATM    2  C1  UNL     1       1.943  21.138  25.213  1.00  0.00     0.146 A 
HETATM    3  N2  UNL     1       2.274  20.271  26.197  1.00  0.00    -0.339 N 
ATOM      4  H2  UNL     1       1.778  20.255  27.088  1.00  0.00     0.167 HD
HETATM    5  C2  UNL     1       3.307  19.418  25.936  1.00  0.00     0.182 A 
HETATM    6  N3  UNL     1       3.948  19.451  24.801  1.00  0.00    -0.350 N 
ATOM      7  H3  UNL     1       4.721  18.800  24.665  1.00  0.00     0.166 HD
HETATM    8  C3  UNL     1       3.646  20.292  23.810  1.00  0.00     0.076 A 
HETATM    9  C4  UNL     1       4.144  20.462  22.498  1.00  0.00     0.024 A 
HETATM   10  C11 UNL     1       3.375  21.423  21.996  1.00  0.00     0.103 A 
HETATM   11  N5  UNL     1       2.457  21.882  22.866  1.00  0.00    -0.360 N 
ATOM     12  H5  UNL     1       1.776  22.622  22.700  1.00  0.00     0.165 HD
HETATM   13  C12 UNL     1       2.614  21.169  24.000  1.00  0.00     0.101 A 
ENDROOT
BRANCH   9  14
HETATM   14  C5  UNL     1       5.115  19.521  21.988  1.00  0.00     0.101 C 
HETATM   15  N4  UNL     1       6.079  19.824  21.079  1.00  0.00    -0.377 N 
HETATM   16  C6  UNL     1       6.478  18.660  20.271  1.00  0.00     0.157 C 
HETATM   17  C9  UNL     1       6.119  20.877  20.160  1.00  0.00     0.138 C 
HETATM   18  C7  UNL     1       7.329  19.223  19.131  1.00  0.00     0.166 C 
HETATM   19  C8  UNL     1       7.476  20.676  19.532  1.00  0.00     0.173 C 
BRANCH  18  20
HETATM   20  O1  UNL     1       8.559  18.611  18.999  1.00  0.00    -0.391 OA
ATOM     21  H1  UNL     1       9.101  18.667  19.777  1.00  0.00     0.210 HD
ENDBRANCH  18  20
BRANCH  19  22
HETATM   22  O2  UNL     1       8.436  20.735  20.542  1.00  0.00    -0.391 OA
ATOM     23  H2  UNL     1       8.045  20.370  21.327  1.00  0.00     0.210 HD
ENDBRANCH  19  22
BRANCH  17  24
HETATM   24  C10 UNL     1       4.981  20.828  19.178  1.00  0.00     0.192 C 
BRANCH  24  25
HETATM   25  O3  UNL     1       5.113  21.737  18.146  1.00  0.00    -0.399 OA
ATOM     26  H3  UNL     1       4.404  22.367  18.108  1.00  0.00     0.209 HD
ENDBRANCH  24  25
ENDBRANCH  17  24
ENDBRANCH   9  14
TORSDOF 5
ENDMDL
