MODEL 2
REMARK VINA RESULT: -8.251829741      3.402      6.129
REMARK  5 active torsions:
REMARK  status: ('A' for Active; 'I' for Inactive)
REMARK    1  A    between atoms: C4_9  and  C5_10 
REMARK    2  A    between atoms: C6_14  and  C7_15 
REMARK    3  A    between atoms: C7_15  and  O1_16 
REMARK    4  A    between atoms: C8_18  and  O2_19 
REMARK    5  A    between atoms: C9_21  and  O3_22 
ROOT
HETATM    1  C5  UNL     1      20.123  42.833  12.152  1.00  0.00     0.254 C 
HETATM    2  N4  UNL     1      19.322  41.600  11.874  1.00  0.00    -0.055 N 
ATOM      3  H41 UNL     1      19.425  41.229  10.929  1.00  0.00     0.278 HD
ATOM      4  H42 UNL     1      18.314  41.750  11.816  1.00  0.00     0.278 HD
HETATM    5  C6  UNL     1      19.733  40.708  12.913  1.00  0.00     0.241 C 
HETATM    6  C8  UNL     1      19.918  41.542  14.159  1.00  0.00     0.182 C 
HETATM    7  C9  UNL     1      19.773  42.938  13.649  1.00  0.00     0.184 C 
ENDROOT
BRANCH   1   8
HETATM    8  C4  UNL     1      19.432  43.950  11.450  1.00  0.00     0.019 A 
HETATM    9  C3  UNL     1      20.028  45.193  11.134  1.00  0.00     0.073 A 
HETATM   10  N3  UNL     1      21.198  45.697  11.608  1.00  0.00    -0.350 N 
HETATM   11  C11 UNL     1      19.160  45.854  10.338  1.00  0.00     0.101 A 
HETATM   12  C2  UNL     1      21.500  46.962  11.245  1.00  0.00     0.182 A 
ATOM     13  H3  UNL     1      21.816  45.150  12.208  1.00  0.00     0.166 HD
HETATM   14  N2  UNL     1      20.658  47.631  10.455  1.00  0.00    -0.339 N 
HETATM   15  C1  UNL     1      19.508  47.150   9.978  1.00  0.00     0.146 A 
ATOM     16  H2  UNL     1      20.913  48.584  10.195  1.00  0.00     0.167 HD
HETATM   17  N1  UNL     1      18.618  47.877   9.137  1.00  0.00    -0.080 NA
HETATM   18  N5  UNL     1      18.072  45.083  10.138  1.00  0.00    -0.361 N 
HETATM   19  C10 UNL     1      18.231  43.903  10.824  1.00  0.00     0.100 A 
ATOM     20  H5  UNL     1      17.263  45.335   9.570  1.00  0.00     0.165 HD
ENDBRANCH   1   8
BRANCH   7  21
HETATM   21  O3  UNL     1      20.830  43.747  14.202  1.00  0.00    -0.390 OA
ATOM     22  H3  UNL     1      21.021  43.339  15.038  1.00  0.00     0.210 HD
ENDBRANCH   7  21
BRANCH   5  23
HETATM   23  C7  UNL     1      18.637  39.658  13.210  1.00  0.00     0.199 C 
BRANCH  23  24
HETATM   24  O1  UNL     1      18.348  38.951  12.053  1.00  0.00    -0.399 OA
ATOM     25  H1  UNL     1      17.664  39.399  11.570  1.00  0.00     0.209 HD
ENDBRANCH  23  24
ENDBRANCH   5  23
BRANCH   6  26
HETATM   26  O2  UNL     1      21.195  41.355  14.630  1.00  0.00    -0.391 OA
ATOM     27  H2  UNL     1      21.259  41.736  15.499  1.00  0.00     0.210 HD
ENDBRANCH   6  26
TORSDOF 5
ENDMDL
