MODEL 6
REMARK VINA RESULT: -6.739568283      1.588      2.762
REMARK  5 active torsions:
REMARK  status: ('A' for Active; 'I' for Inactive)
REMARK    1  A    between atoms: C4_9  and  C5_10 
REMARK    2  A    between atoms: C6_14  and  C7_15 
REMARK    3  A    between atoms: C7_15  and  O1_16 
REMARK    4  A    between atoms: C8_18  and  O2_19 
REMARK    5  A    between atoms: C9_21  and  O3_22 
ROOT
HETATM    1  C5  UNL     1      19.621  44.672  10.497  1.00  0.00     0.254 C 
HETATM    2  N4  UNL     1      20.240  46.029  10.376  1.00  0.00    -0.055 N 
ATOM      3  H41 UNL     1      21.244  46.025  10.196  1.00  0.00     0.278 HD
ATOM      4  H42 UNL     1      20.294  46.553  11.251  1.00  0.00     0.278 HD
HETATM    5  C6  UNL     1      19.453  46.652   9.357  1.00  0.00     0.241 C 
HETATM    6  C8  UNL     1      18.027  46.198   9.565  1.00  0.00     0.182 C 
HETATM    7  C9  UNL     1      18.162  45.153  10.623  1.00  0.00     0.184 C 
ENDROOT
BRANCH   1   8
HETATM    8  C4  UNL     1      20.035  44.139  11.825  1.00  0.00     0.019 A 
HETATM    9  C3  UNL     1      19.859  42.801  12.246  1.00  0.00     0.073 A 
HETATM   10  N3  UNL     1      19.086  41.843  11.667  1.00  0.00    -0.350 N 
HETATM   11  C11 UNL     1      20.528  42.663  13.410  1.00  0.00     0.101 A 
HETATM   12  C2  UNL     1      18.991  40.668  12.323  1.00  0.00     0.182 A 
ATOM     13  H3  UNL     1      18.603  42.005  10.783  1.00  0.00     0.166 HD
HETATM   14  N2  UNL     1      19.648  40.510  13.474  1.00  0.00    -0.339 N 
HETATM   15  C1  UNL     1      20.412  41.437  14.054  1.00  0.00     0.146 A 
ATOM     16  H2  UNL     1      19.560  39.611  13.947  1.00  0.00     0.167 HD
HETATM   17  N1  UNL     1      21.107  41.255  15.284  1.00  0.00    -0.080 NA
HETATM   18  N5  UNL     1      21.114  43.837  13.722  1.00  0.00    -0.361 N 
HETATM   19  C10 UNL     1      20.813  44.757  12.748  1.00  0.00     0.100 A 
ATOM     20  H5  UNL     1      21.687  44.012  14.548  1.00  0.00     0.165 HD
ENDBRANCH   1   8
BRANCH   7  21
HETATM   21  O3  UNL     1      17.380  44.003  10.245  1.00  0.00    -0.390 OA
ATOM     22  H3  UNL     1      16.602  44.063  10.787  1.00  0.00     0.210 HD
ENDBRANCH   7  21
BRANCH   5  23
HETATM   23  C7  UNL     1      19.479  48.192   9.497  1.00  0.00     0.199 C 
BRANCH  23  24
HETATM   24  O1  UNL     1      18.184  48.684   9.436  1.00  0.00    -0.399 OA
ATOM     25  H1  UNL     1      18.113  49.457   9.982  1.00  0.00     0.209 HD
ENDBRANCH  23  24
ENDBRANCH   5  23
BRANCH   6  26
HETATM   26  O2  UNL     1      17.573  45.620   8.404  1.00  0.00    -0.391 OA
ATOM     27  H2  UNL     1      17.474  46.297   7.745  1.00  0.00     0.210 HD
ENDBRANCH   6  26
TORSDOF 5
ENDMDL
