MODEL 8
REMARK VINA RESULT: -5.676885637      3.200      6.138
REMARK  5 active torsions:
REMARK  status: ('A' for Active; 'I' for Inactive)
REMARK    1  A    between atoms: C4_9  and  C5_10 
REMARK    2  A    between atoms: C6_14  and  C7_15 
REMARK    3  A    between atoms: C7_15  and  O1_16 
REMARK    4  A    between atoms: C8_18  and  O2_19 
REMARK    5  A    between atoms: C9_21  and  O3_22 
ROOT
HETATM    1  C5  UNL     1      20.983  43.877  12.203  1.00  0.00     0.254 C 
HETATM    2  N4  UNL     1      20.003  42.903  11.629  1.00  0.00    -0.055 N 
ATOM      3  H41 UNL     1      20.220  42.588  10.683  1.00  0.00     0.278 HD
ATOM      4  H42 UNL     1      19.092  43.300  11.398  1.00  0.00     0.278 HD
HETATM    5  C6  UNL     1      19.970  41.863  12.611  1.00  0.00     0.241 C 
HETATM    6  C8  UNL     1      20.068  42.533  13.961  1.00  0.00     0.182 C 
HETATM    7  C9  UNL     1      20.353  43.956  13.607  1.00  0.00     0.184 C 
ENDROOT
BRANCH   1   8
HETATM    8  C4  UNL     1      20.728  45.178  11.523  1.00  0.00     0.019 A 
HETATM    9  C3  UNL     1      19.547  45.498  10.815  1.00  0.00     0.073 A 
HETATM   10  N3  UNL     1      18.568  44.648  10.405  1.00  0.00    -0.350 N 
HETATM   11  C11 UNL     1      19.611  46.813  10.518  1.00  0.00     0.101 A 
HETATM   12  C2  UNL     1      17.590  45.179   9.641  1.00  0.00     0.182 A 
ATOM     13  H3  UNL     1      18.572  43.661  10.662  1.00  0.00     0.166 HD
HETATM   14  N2  UNL     1      17.633  46.479   9.340  1.00  0.00    -0.339 N 
HETATM   15  C1  UNL     1      18.584  47.327   9.735  1.00  0.00     0.146 A 
ATOM     16  H2  UNL     1      16.880  46.853   8.762  1.00  0.00     0.167 HD
HETATM   17  N1  UNL     1      18.617  48.712   9.404  1.00  0.00    -0.080 NA
HETATM   18  N5  UNL     1      20.758  47.322  11.013  1.00  0.00    -0.361 N 
HETATM   19  C10 UNL     1      21.456  46.316  11.636  1.00  0.00     0.100 A 
ATOM     20  H5  UNL     1      21.057  48.294  10.938  1.00  0.00     0.165 HD
ENDBRANCH   1   8
BRANCH   7  21
HETATM   21  O3  UNL     1      21.421  44.438  14.445  1.00  0.00    -0.390 OA
ATOM     22  H3  UNL     1      21.009  45.098  14.990  1.00  0.00     0.210 HD
ENDBRANCH   7  21
BRANCH   5  23
HETATM   23  C7  UNL     1      18.629  41.096  12.563  1.00  0.00     0.199 C 
BRANCH  23  24
HETATM   24  O1  UNL     1      18.847  39.809  12.095  1.00  0.00    -0.399 OA
ATOM     25  H1  UNL     1      18.027  39.437  11.796  1.00  0.00     0.209 HD
ENDBRANCH  23  24
ENDBRANCH   5  23
BRANCH   6  26
HETATM   26  O2  UNL     1      21.138  42.005  14.641  1.00  0.00    -0.391 OA
ATOM     27  H2  UNL     1      21.904  42.542  14.470  1.00  0.00     0.210 HD
ENDBRANCH   6  26
TORSDOF 5
ENDMDL
