MODEL 9
REMARK VINA RESULT: -5.541966294      6.608      9.187
REMARK  5 active torsions:
REMARK  status: ('A' for Active; 'I' for Inactive)
REMARK    1  A    between atoms: C4_9  and  C5_10 
REMARK    2  A    between atoms: C6_14  and  C7_15 
REMARK    3  A    between atoms: C7_15  and  O1_16 
REMARK    4  A    between atoms: C8_18  and  O2_19 
REMARK    5  A    between atoms: C9_21  and  O3_22 
ROOT
HETATM    1  C5  UNL     1      19.848  37.695  14.957  1.00  0.00     0.254 C 
HETATM    2  N4  UNL     1      20.852  38.435  15.783  1.00  0.00    -0.055 N 
ATOM      3  H41 UNL     1      20.453  39.110  16.436  1.00  0.00     0.278 HD
ATOM      4  H42 UNL     1      21.413  39.113  15.266  1.00  0.00     0.278 HD
HETATM    5  C6  UNL     1      21.602  37.383  16.396  1.00  0.00     0.241 C 
HETATM    6  C8  UNL     1      21.740  36.286  15.367  1.00  0.00     0.182 C 
HETATM    7  C9  UNL     1      20.849  36.751  14.263  1.00  0.00     0.184 C 
ENDROOT
BRANCH   1   8
HETATM    8  C4  UNL     1      19.354  38.658  13.933  1.00  0.00     0.019 A 
HETATM    9  C3  UNL     1      19.781  40.001  13.820  1.00  0.00     0.073 A 
HETATM   10  N3  UNL     1      20.489  40.727  14.727  1.00  0.00    -0.350 N 
HETATM   11  C11 UNL     1      19.263  40.483  12.671  1.00  0.00     0.101 A 
HETATM   12  C2  UNL     1      20.678  42.032  14.437  1.00  0.00     0.182 A 
ATOM     13  H3  UNL     1      20.857  40.308  15.580  1.00  0.00     0.166 HD
HETATM   14  N2  UNL     1      20.177  42.527  13.304  1.00  0.00    -0.339 N 
HETATM   15  C1  UNL     1      19.484  41.829  12.403  1.00  0.00     0.146 A 
ATOM     16  H2  UNL     1      20.337  43.516  13.110  1.00  0.00     0.167 HD
HETATM   17  N1  UNL     1      18.954  42.371  11.197  1.00  0.00    -0.080 NA
HETATM   18  N5  UNL     1      18.553  39.509  12.066  1.00  0.00    -0.361 N 
HETATM   19  C10 UNL     1      18.602  38.377  12.841  1.00  0.00     0.100 A 
ATOM     20  H5  UNL     1      18.059  39.600  11.178  1.00  0.00     0.165 HD
ENDBRANCH   1   8
BRANCH   7  21
HETATM   21  O3  UNL     1      20.040  35.644  13.820  1.00  0.00    -0.390 OA
ATOM     22  H3  UNL     1      20.672  34.980  13.570  1.00  0.00     0.210 HD
ENDBRANCH   7  21
BRANCH   5  23
HETATM   23  C7  UNL     1      23.026  37.859  16.767  1.00  0.00     0.199 C 
BRANCH  23  24
HETATM   24  O1  UNL     1      23.959  36.964  16.266  1.00  0.00    -0.399 OA
ATOM     25  H1  UNL     1      24.778  37.064  16.735  1.00  0.00     0.209 HD
ENDBRANCH  23  24
ENDBRANCH   5  23
BRANCH   6  26
HETATM   26  O2  UNL     1      21.245  35.119  15.896  1.00  0.00    -0.391 OA
ATOM     27  H2  UNL     1      20.487  35.323  16.431  1.00  0.00     0.210 HD
ENDBRANCH   6  26
TORSDOF 5
ENDMDL
