MODEL 4
REMARK VINA RESULT: -7.521199052      1.078      2.258
REMARK  5 active torsions:
REMARK  status: ('A' for Active; 'I' for Inactive)
REMARK    1  A    between atoms: C4_9  and  C5_10 
REMARK    2  A    between atoms: C6_14  and  C7_15 
REMARK    3  A    between atoms: C7_15  and  O1_16 
REMARK    4  A    between atoms: C8_18  and  O2_19 
REMARK    5  A    between atoms: C9_21  and  O3_22 
ROOT
HETATM    1  C5  UNL     1      20.145  45.657  10.412  1.00  0.00     0.254 C 
HETATM    2  N4  UNL     1      20.720  47.034  10.525  1.00  0.00    -0.055 N 
ATOM      3  H41 UNL     1      21.739  47.074  10.485  1.00  0.00     0.278 HD
ATOM      4  H42 UNL     1      20.637  47.456  11.450  1.00  0.00     0.278 HD
HETATM    5  C6  UNL     1      20.053  47.748   9.481  1.00  0.00     0.241 C 
HETATM    6  C8  UNL     1      18.631  47.239   9.441  1.00  0.00     0.182 C 
HETATM    7  C9  UNL     1      18.664  46.085  10.388  1.00  0.00     0.184 C 
ENDROOT
BRANCH   1   8
HETATM    8  C4  UNL     1      20.397  44.988  11.719  1.00  0.00     0.019 A 
HETATM    9  C3  UNL     1      20.108  43.632  11.999  1.00  0.00     0.073 A 
HETATM   10  N3  UNL     1      19.344  42.779  11.267  1.00  0.00    -0.350 N 
HETATM   11  C11 UNL     1      20.652  43.355  13.202  1.00  0.00     0.101 A 
HETATM   12  C2  UNL     1      19.121  41.560  11.803  1.00  0.00     0.182 A 
ATOM     13  H3  UNL     1      18.958  43.044  10.361  1.00  0.00     0.166 HD
HETATM   14  N2  UNL     1      19.654  41.264  12.990  1.00  0.00    -0.339 N 
HETATM   15  C1  UNL     1      20.408  42.088  13.719  1.00  0.00     0.146 A 
ATOM     16  H2  UNL     1      19.470  40.335  13.370  1.00  0.00     0.167 HD
HETATM   17  N1  UNL     1      20.968  41.758  14.987  1.00  0.00    -0.080 NA
HETATM   18  N5  UNL     1      21.269  44.458  13.672  1.00  0.00    -0.361 N 
HETATM   19  C10 UNL     1      21.115  45.474  12.761  1.00  0.00     0.100 A 
ATOM     20  H5  UNL     1      21.768  44.526  14.559  1.00  0.00     0.165 HD
ENDBRANCH   1   8
BRANCH   7  21
HETATM   21  O3  UNL     1      17.985  44.967   9.783  1.00  0.00    -0.390 OA
ATOM     22  H3  UNL     1      17.236  45.358   9.349  1.00  0.00     0.210 HD
ENDBRANCH   7  21
BRANCH   5  23
HETATM   23  C7  UNL     1      20.000  49.262   9.789  1.00  0.00     0.199 C 
BRANCH  23  24
HETATM   24  O1  UNL     1      20.410  49.483  11.095  1.00  0.00    -0.399 OA
ATOM     25  H1  UNL     1      19.788  49.089  11.694  1.00  0.00     0.209 HD
ENDBRANCH  23  24
ENDBRANCH   5  23
BRANCH   6  26
HETATM   26  O2  UNL     1      18.360  46.785   8.173  1.00  0.00    -0.391 OA
ATOM     27  H2  UNL     1      17.570  47.209   7.859  1.00  0.00     0.210 HD
ENDBRANCH   6  26
TORSDOF 5
ENDMDL
