MODEL 2
REMARK VINA RESULT: -8.968128044      1.250      1.371
REMARK  6 active torsions:
REMARK  status: ('A' for Active; 'I' for Inactive)
REMARK    1  A    between atoms: C4_9  and  C5_10 
REMARK    2  A    between atoms: C5_10  and  N3_11 
REMARK    3  A    between atoms: C7_13  and  O2_14 
REMARK    4  A    between atoms: C8_16  and  O3_17 
REMARK    5  A    between atoms: C9_19  and  C10_20 
REMARK    6  A    between atoms: C10_20  and  O4_21 
ROOT
HETATM    1  C5  UNL     1     -24.084 -18.960 -20.590  1.00  0.00     0.074 C 
ENDROOT
BRANCH   1   2
HETATM    2  C4  UNL     1     -25.454 -19.183 -21.214  1.00  0.00     0.009 A 
HETATM    3  C3  UNL     1     -25.737 -18.823 -22.474  1.00  0.00     0.067 A 
HETATM    4  N2  UNL     1     -24.878 -18.092 -23.299  1.00  0.00    -0.350 N 
HETATM    5  C12 UNL     1     -26.926 -19.132 -23.023  1.00  0.00     0.100 A 
HETATM    6  C2  UNL     1     -25.264 -17.748 -24.503  1.00  0.00     0.184 A 
ATOM      7  H2  UNL     1     -23.952 -17.827 -22.964  1.00  0.00     0.166 HD
HETATM    8  N1  UNL     1     -26.425 -18.032 -25.073  1.00  0.00    -0.319 N 
HETATM    9  C1  UNL     1     -27.297 -18.745 -24.315  1.00  0.00     0.265 A 
ATOM     10  H1  UNL     1     -26.651 -17.734 -26.022  1.00  0.00     0.169 HD
HETATM   11  O1  UNL     1     -28.424 -19.075 -24.739  1.00  0.00    -0.267 OA
HETATM   12  S1  UNL     1     -27.690 -19.949 -21.743  1.00  0.00    -0.093 SA
HETATM   13  C11 UNL     1     -26.440 -19.871 -20.546  1.00  0.00     0.065 A 
ENDBRANCH   1   2
BRANCH   1  14
HETATM   14  N3  UNL     1     -23.668 -17.650 -20.543  1.00  0.00    -0.280 NA
HETATM   15  C6  UNL     1     -24.548 -16.564 -20.359  1.00  0.00     0.130 C 
HETATM   16  C7  UNL     1     -23.558 -15.447 -19.886  1.00  0.00     0.162 C 
HETATM   17  C8  UNL     1     -22.891 -16.258 -18.797  1.00  0.00     0.168 C 
HETATM   18  C9  UNL     1     -22.542 -17.470 -19.624  1.00  0.00     0.117 C 
BRANCH  16  19
HETATM   19  O2  UNL     1     -22.648 -15.281 -20.900  1.00  0.00    -0.392 OA
ATOM     20  H2  UNL     1     -21.816 -15.596 -20.568  1.00  0.00     0.210 HD
ENDBRANCH  16  19
BRANCH  17  21
HETATM   21  O3  UNL     1     -21.772 -15.640 -18.247  1.00  0.00    -0.391 OA
ATOM     22  H3  UNL     1     -21.963 -15.122 -17.475  1.00  0.00     0.210 HD
ENDBRANCH  17  21
BRANCH  18  23
HETATM   23  C10 UNL     1     -22.239 -18.668 -18.813  1.00  0.00     0.186 C 
BRANCH  23  24
HETATM   24  O4  UNL     1     -22.582 -18.546 -17.477  1.00  0.00    -0.399 OA
ATOM     25  H4  UNL     1     -22.871 -17.675 -17.230  1.00  0.00     0.209 HD
ENDBRANCH  23  24
ENDBRANCH  18  23
ENDBRANCH   1  14
TORSDOF 6
ENDMDL
