MODEL 11
REMARK VINA RESULT: -5.655847847      2.151      6.199
REMARK  6 active torsions:
REMARK  status: ('A' for Active; 'I' for Inactive)
REMARK    1  A    between atoms: C4_9  and  C5_10 
REMARK    2  A    between atoms: C5_10  and  N3_11 
REMARK    3  A    between atoms: C7_13  and  O2_14 
REMARK    4  A    between atoms: C8_16  and  O3_17 
REMARK    5  A    between atoms: C9_19  and  C10_20 
REMARK    6  A    between atoms: C10_20  and  O4_21 
ROOT
HETATM    1  C5  UNL     1     -24.949 -19.666 -20.617  1.00  0.00     0.074 C 
ENDROOT
BRANCH   1   2
HETATM    2  C4  UNL     1     -24.496 -18.920 -19.371  1.00  0.00     0.009 A 
HETATM    3  C3  UNL     1     -23.493 -18.031 -19.390  1.00  0.00     0.067 A 
HETATM    4  N2  UNL     1     -22.672 -17.790 -20.496  1.00  0.00    -0.350 N 
HETATM    5  C12 UNL     1     -23.192 -17.315 -18.292  1.00  0.00     0.100 A 
HETATM    6  C2  UNL     1     -21.687 -16.931 -20.402  1.00  0.00     0.184 A 
ATOM      7  H2  UNL     1     -22.839 -18.282 -21.373  1.00  0.00     0.166 HD
HETATM    8  N1  UNL     1     -21.361 -16.214 -19.338  1.00  0.00    -0.319 N 
HETATM    9  C1  UNL     1     -22.131 -16.407 -18.236  1.00  0.00     0.265 A 
ATOM     10  H1  UNL     1     -20.581 -15.557 -19.345  1.00  0.00     0.169 HD
HETATM   11  O1  UNL     1     -21.924 -15.790 -17.170  1.00  0.00    -0.267 OA
HETATM   12  S1  UNL     1     -24.337 -17.901 -17.180  1.00  0.00    -0.093 SA
HETATM   13  C11 UNL     1     -25.172 -19.043 -18.180  1.00  0.00     0.065 A 
ENDBRANCH   1   2
BRANCH   1  14
HETATM   14  N3  UNL     1     -25.448 -18.874 -21.626  1.00  0.00    -0.280 NA
HETATM   15  C6  UNL     1     -24.787 -18.679 -22.856  1.00  0.00     0.130 C 
HETATM   16  C7  UNL     1     -25.961 -18.166 -23.754  1.00  0.00     0.162 C 
HETATM   17  C8  UNL     1     -26.931 -19.278 -23.421  1.00  0.00     0.168 C 
HETATM   18  C9  UNL     1     -26.848 -19.184 -21.918  1.00  0.00     0.117 C 
BRANCH  16  19
HETATM   19  O2  UNL     1     -26.426 -17.016 -23.165  1.00  0.00    -0.392 OA
ATOM     20  H2  UNL     1     -27.374 -17.050 -23.223  1.00  0.00     0.210 HD
ENDBRANCH  16  19
BRANCH  17  21
HETATM   21  O3  UNL     1     -28.218 -19.060 -23.905  1.00  0.00    -0.391 OA
ATOM     22  H3  UNL     1     -28.549 -19.770 -24.443  1.00  0.00     0.210 HD
ENDBRANCH  17  21
BRANCH  18  23
HETATM   23  C10 UNL     1     -27.348 -20.389 -21.225  1.00  0.00     0.186 C 
BRANCH  23  24
HETATM   24  O4  UNL     1     -28.548 -20.201 -20.560  1.00  0.00    -0.399 OA
ATOM     25  H4  UNL     1     -28.528 -20.457 -19.646  1.00  0.00     0.209 HD
ENDBRANCH  23  24
ENDBRANCH  18  23
ENDBRANCH   1  14
TORSDOF 6
ENDMDL
