MODEL 1
REMARK VINA RESULT: -9.554716853      0.000      0.000
REMARK  6 active torsions:
REMARK  status: ('A' for Active; 'I' for Inactive)
REMARK    1  A    between atoms: C4_9  and  C5_10 
REMARK    2  A    between atoms: C5_10  and  N3_11 
REMARK    3  A    between atoms: C7_13  and  O2_14 
REMARK    4  A    between atoms: C8_16  and  O3_17 
REMARK    5  A    between atoms: C9_19  and  C10_20 
REMARK    6  A    between atoms: C10_20  and  O4_21 
ROOT
HETATM    1  C5  UNL     1     -23.983 -18.670 -20.484  1.00  0.00     0.074 C 
ENDROOT
BRANCH   1   2
HETATM    2  C4  UNL     1     -25.339 -19.018 -21.081  1.00  0.00     0.009 A 
HETATM    3  C3  UNL     1     -25.666 -18.719 -22.346  1.00  0.00     0.067 A 
HETATM    4  N2  UNL     1     -24.877 -17.947 -23.204  1.00  0.00    -0.350 N 
HETATM    5  C12 UNL     1     -26.834 -19.136 -22.868  1.00  0.00     0.100 A 
HETATM    6  C2  UNL     1     -25.306 -17.671 -24.411  1.00  0.00     0.184 A 
ATOM      7  H2  UNL     1     -23.971 -17.600 -22.891  1.00  0.00     0.166 HD
HETATM    8  N1  UNL     1     -26.448 -18.061 -24.955  1.00  0.00    -0.319 N 
HETATM    9  C1  UNL     1     -27.251 -18.818 -24.164  1.00  0.00     0.265 A 
ATOM     10  H1  UNL     1     -26.708 -17.810 -25.909  1.00  0.00     0.169 HD
HETATM   11  O1  UNL     1     -28.354 -19.247 -24.561  1.00  0.00    -0.267 OA
HETATM   12  S1  UNL     1     -27.514 -19.972 -21.553  1.00  0.00    -0.093 SA
HETATM   13  C11 UNL     1     -26.259 -19.761 -20.378  1.00  0.00     0.065 A 
ENDBRANCH   1   2
BRANCH   1  14
HETATM   14  N3  UNL     1     -23.952 -17.520 -19.730  1.00  0.00    -0.280 NA
HETATM   15  C6  UNL     1     -24.451 -17.444 -18.413  1.00  0.00     0.130 C 
HETATM   16  C7  UNL     1     -23.731 -16.157 -17.890  1.00  0.00     0.162 C 
HETATM   17  C8  UNL     1     -22.332 -16.563 -18.299  1.00  0.00     0.168 C 
HETATM   18  C9  UNL     1     -22.627 -16.899 -19.739  1.00  0.00     0.117 C 
BRANCH  16  19
HETATM   19  O2  UNL     1     -24.125 -15.130 -18.711  1.00  0.00    -0.392 OA
ATOM     20  H2  UNL     1     -23.813 -14.329 -18.308  1.00  0.00     0.210 HD
ENDBRANCH  16  19
BRANCH  17  21
HETATM   21  O3  UNL     1     -21.393 -15.545 -18.163  1.00  0.00    -0.391 OA
ATOM     22  H3  UNL     1     -20.540 -15.848 -17.876  1.00  0.00     0.210 HD
ENDBRANCH  17  21
BRANCH  18  23
HETATM   23  C10 UNL     1     -21.584 -17.733 -20.373  1.00  0.00     0.186 C 
BRANCH  23  24
HETATM   24  O4  UNL     1     -20.322 -17.163 -20.361  1.00  0.00    -0.399 OA
ATOM     25  H4  UNL     1     -20.105 -16.685 -21.152  1.00  0.00     0.209 HD
ENDBRANCH  23  24
ENDBRANCH  18  23
ENDBRANCH   1  14
TORSDOF 6
ENDMDL
