MODEL 10
REMARK VINA RESULT: -5.863070529      2.001      6.146
REMARK  6 active torsions:
REMARK  status: ('A' for Active; 'I' for Inactive)
REMARK    1  A    between atoms: C4_9  and  C5_10 
REMARK    2  A    between atoms: C5_10  and  N3_11 
REMARK    3  A    between atoms: C7_13  and  O2_14 
REMARK    4  A    between atoms: C8_16  and  O3_17 
REMARK    5  A    between atoms: C9_19  and  C10_20 
REMARK    6  A    between atoms: C10_20  and  O4_21 
ROOT
HETATM    1  C5  UNL     1     -25.781 -19.047 -21.206  1.00  0.00     0.074 C 
ENDROOT
BRANCH   1   2
HETATM    2  C4  UNL     1     -24.748 -18.807 -20.115  1.00  0.00     0.009 A 
HETATM    3  C3  UNL     1     -24.191 -17.606 -19.903  1.00  0.00     0.067 A 
HETATM    4  N2  UNL     1     -24.381 -16.492 -20.726  1.00  0.00    -0.350 N 
HETATM    5  C12 UNL     1     -23.361 -17.410 -18.863  1.00  0.00     0.100 A 
HETATM    6  C2  UNL     1     -23.756 -15.371 -20.460  1.00  0.00     0.184 A 
ATOM      7  H2  UNL     1     -25.004 -16.551 -21.530  1.00  0.00     0.166 HD
HETATM    8  N1  UNL     1     -22.932 -15.144 -19.449  1.00  0.00    -0.319 N 
HETATM    9  C1  UNL     1     -22.716 -16.195 -18.616  1.00  0.00     0.265 A 
ATOM     10  H1  UNL     1     -22.487 -14.238 -19.304  1.00  0.00     0.169 HD
HETATM   11  O1  UNL     1     -21.959 -16.107 -17.626  1.00  0.00    -0.267 OA
HETATM   12  S1  UNL     1     -23.342 -18.952 -18.149  1.00  0.00    -0.093 SA
HETATM   13  C11 UNL     1     -24.416 -19.793 -19.216  1.00  0.00     0.065 A 
ENDBRANCH   1   2
BRANCH   1  14
HETATM   14  N3  UNL     1     -25.575 -18.348 -22.372  1.00  0.00    -0.280 NA
HETATM   15  C6  UNL     1     -24.469 -18.564 -23.220  1.00  0.00     0.130 C 
HETATM   16  C7  UNL     1     -24.980 -17.928 -24.555  1.00  0.00     0.162 C 
HETATM   17  C8  UNL     1     -26.304 -18.659 -24.600  1.00  0.00     0.168 C 
HETATM   18  C9  UNL     1     -26.776 -18.319 -23.208  1.00  0.00     0.117 C 
BRANCH  16  19
HETATM   19  O2  UNL     1     -25.241 -16.608 -24.281  1.00  0.00    -0.392 OA
ATOM     20  H2  UNL     1     -24.634 -16.351 -23.596  1.00  0.00     0.210 HD
ENDBRANCH  16  19
BRANCH  17  21
HETATM   21  O3  UNL     1     -27.164 -18.197 -25.590  1.00  0.00    -0.391 OA
ATOM     22  H3  UNL     1     -27.936 -18.738 -25.709  1.00  0.00     0.210 HD
ENDBRANCH  17  21
BRANCH  18  23
HETATM   23  C10 UNL     1     -27.859 -19.199 -22.723  1.00  0.00     0.186 C 
BRANCH  23  24
HETATM   24  O4  UNL     1     -28.278 -20.140 -23.649  1.00  0.00    -0.399 OA
ATOM     25  H4  UNL     1     -27.583 -20.700 -23.974  1.00  0.00     0.209 HD
ENDBRANCH  23  24
ENDBRANCH  18  23
ENDBRANCH   1  14
TORSDOF 6
ENDMDL
