MODEL 9
REMARK VINA RESULT: -5.954225086      2.116      6.382
REMARK  6 active torsions:
REMARK  status: ('A' for Active; 'I' for Inactive)
REMARK    1  A    between atoms: C4_9  and  C5_10 
REMARK    2  A    between atoms: C5_10  and  N3_11 
REMARK    3  A    between atoms: C7_13  and  O2_14 
REMARK    4  A    between atoms: C8_16  and  O3_17 
REMARK    5  A    between atoms: C9_19  and  C10_20 
REMARK    6  A    between atoms: C10_20  and  O4_21 
ROOT
HETATM    1  C5  UNL     1     -25.171 -17.869 -22.875  1.00  0.00     0.074 C 
ENDROOT
BRANCH   1   2
HETATM    2  C4  UNL     1     -25.053 -18.313 -21.424  1.00  0.00     0.009 A 
HETATM    3  C3  UNL     1     -24.562 -17.515 -20.465  1.00  0.00     0.067 A 
HETATM    4  N2  UNL     1     -23.984 -16.264 -20.699  1.00  0.00    -0.350 N 
HETATM    5  C12 UNL     1     -24.572 -17.906 -19.178  1.00  0.00     0.100 A 
HETATM    6  C2  UNL     1     -23.490 -15.577 -19.698  1.00  0.00     0.184 A 
ATOM      7  H2  UNL     1     -23.946 -15.887 -21.645  1.00  0.00     0.166 HD
HETATM    8  N1  UNL     1     -23.480 -15.931 -18.422  1.00  0.00    -0.319 N 
HETATM    9  C1  UNL     1     -24.035 -17.138 -18.140  1.00  0.00     0.265 A 
ATOM     10  H1  UNL     1     -23.082 -15.335 -17.697  1.00  0.00     0.169 HD
HETATM   11  O1  UNL     1     -24.086 -17.585 -16.975  1.00  0.00    -0.267 OA
HETATM   12  S1  UNL     1     -25.283 -19.445 -19.296  1.00  0.00    -0.093 SA
HETATM   13  C11 UNL     1     -25.552 -19.524 -21.006  1.00  0.00     0.065 A 
ENDBRANCH   1   2
BRANCH   1  14
HETATM   14  N3  UNL     1     -26.153 -18.499 -23.603  1.00  0.00    -0.280 NA
HETATM   15  C6  UNL     1     -27.526 -18.400 -23.300  1.00  0.00     0.130 C 
HETATM   16  C7  UNL     1     -28.169 -18.839 -24.657  1.00  0.00     0.162 C 
HETATM   17  C8  UNL     1     -27.373 -17.901 -25.537  1.00  0.00     0.168 C 
HETATM   18  C9  UNL     1     -25.997 -18.267 -25.040  1.00  0.00     0.117 C 
BRANCH  16  19
HETATM   19  O2  UNL     1     -27.728 -20.116 -24.901  1.00  0.00    -0.392 OA
ATOM     20  H2  UNL     1     -28.394 -20.700 -24.557  1.00  0.00     0.210 HD
ENDBRANCH  16  19
BRANCH  17  21
HETATM   21  O3  UNL     1     -27.536 -18.139 -26.899  1.00  0.00    -0.391 OA
ATOM     22  H3  UNL     1     -28.226 -18.761 -27.097  1.00  0.00     0.210 HD
ENDBRANCH  17  21
BRANCH  18  23
HETATM   23  C10 UNL     1     -24.965 -17.263 -25.372  1.00  0.00     0.186 C 
BRANCH  23  24
HETATM   24  O4  UNL     1     -25.280 -16.470 -26.463  1.00  0.00    -0.399 OA
ATOM     25  H4  UNL     1     -26.129 -16.048 -26.402  1.00  0.00     0.209 HD
ENDBRANCH  23  24
ENDBRANCH  18  23
ENDBRANCH   1  14
TORSDOF 6
ENDMDL
