MODEL 4
REMARK VINA RESULT: -6.304534765      2.098      2.952
REMARK  3 active torsions:
REMARK  status: ('A' for Active; 'I' for Inactive)
REMARK    1  A    between atoms: C2_2  and  O1_3 
REMARK    2  A    between atoms: C2_2  and  C3_8 
REMARK    3  A    between atoms: O1_3  and  P1_4 
ROOT
HETATM    1  C1  UNL     1      15.881 -34.277 -20.835  1.00  0.00     0.059 C 
HETATM    2  C2  UNL     1      15.967 -34.904 -21.983  1.00  0.00     0.149 C 
ENDROOT
BRANCH   2   3
HETATM    3  O1  UNL     1      15.654 -34.294 -23.199  1.00  0.00    -0.234 OA
BRANCH   3   4
HETATM    4  P1  UNL     1      16.000 -32.648 -23.509  1.00  0.00     0.427 P 
HETATM    5  O2  UNL     1      17.335 -32.345 -22.867  1.00  0.00    -0.617 OA
HETATM    6  O3  UNL     1      14.837 -31.618 -22.858  1.00  0.00    -0.617 OA
HETATM    7  O4  UNL     1      16.119 -32.369 -25.189  1.00  0.00    -0.617 OA
ENDBRANCH   3   4
ENDBRANCH   2   3
BRANCH   2   8
HETATM    8  C3  UNL     1      16.408 -36.293 -21.984  1.00  0.00     0.233 C 
HETATM    9  O5  UNL     1      16.545 -36.961 -20.925  1.00  0.00    -0.642 OA
HETATM   10  O6  UNL     1      16.693 -36.921 -23.171  1.00  0.00    -0.642 OA
ENDBRANCH   2   8
TORSDOF 3
ENDMDL
