MODEL 2
REMARK VINA RESULT: -6.466467945      2.023      2.803
REMARK  3 active torsions:
REMARK  status: ('A' for Active; 'I' for Inactive)
REMARK    1  A    between atoms: C2_2  and  O1_3 
REMARK    2  A    between atoms: C2_2  and  C3_8 
REMARK    3  A    between atoms: O1_3  and  P1_4 
ROOT
HETATM    1  C1  UNL     1      16.023 -34.107 -20.983  1.00  0.00     0.059 C 
HETATM    2  C2  UNL     1      16.020 -34.762 -22.118  1.00  0.00     0.149 C 
ENDROOT
BRANCH   2   3
HETATM    3  O1  UNL     1      15.675 -34.164 -23.332  1.00  0.00    -0.234 OA
BRANCH   3   4
HETATM    4  P1  UNL     1      15.958 -32.506 -23.643  1.00  0.00     0.427 P 
HETATM    5  O2  UNL     1      15.629 -32.263 -25.099  1.00  0.00    -0.617 OA
HETATM    6  O3  UNL     1      17.561 -32.069 -23.367  1.00  0.00    -0.617 OA
HETATM    7  O4  UNL     1      14.938 -31.535 -22.677  1.00  0.00    -0.617 OA
ENDBRANCH   3   4
ENDBRANCH   2   3
BRANCH   2   8
HETATM    8  C3  UNL     1      16.393 -36.171 -22.108  1.00  0.00     0.233 C 
HETATM    9  O5  UNL     1      16.502 -36.835 -21.044  1.00  0.00    -0.642 OA
HETATM   10  O6  UNL     1      16.642 -36.823 -23.291  1.00  0.00    -0.642 OA
ENDBRANCH   2   8
TORSDOF 3
ENDMDL
