MODEL 9
REMARK VINA RESULT: -6.174224494      2.038      3.141
REMARK  3 active torsions:
REMARK  status: ('A' for Active; 'I' for Inactive)
REMARK    1  A    between atoms: C2_2  and  O1_3 
REMARK    2  A    between atoms: C2_2  and  C3_8 
REMARK    3  A    between atoms: O1_3  and  P1_4 
ROOT
HETATM    1  C1  UNL     1      16.581 -34.098 -20.896  1.00  0.00     0.059 C 
HETATM    2  C2  UNL     1      16.168 -34.753 -21.953  1.00  0.00     0.149 C 
ENDROOT
BRANCH   2   3
HETATM    3  O1  UNL     1      15.486 -34.136 -23.004  1.00  0.00    -0.234 OA
BRANCH   3   4
HETATM    4  P1  UNL     1      15.748 -32.499 -23.422  1.00  0.00     0.427 P 
HETATM    5  O2  UNL     1      15.025 -31.655 -22.396  1.00  0.00    -0.617 OA
HETATM    6  O3  UNL     1      15.150 -32.126 -24.951  1.00  0.00    -0.617 OA
HETATM    7  O4  UNL     1      17.414 -32.127 -23.366  1.00  0.00    -0.617 OA
ENDBRANCH   3   4
ENDBRANCH   2   3
BRANCH   2   8
HETATM    8  C3  UNL     1      16.436 -36.184 -22.031  1.00  0.00     0.233 C 
HETATM    9  O5  UNL     1      16.518 -36.915 -21.009  1.00  0.00    -0.642 OA
HETATM   10  O6  UNL     1      16.610 -36.783 -23.255  1.00  0.00    -0.642 OA
ENDBRANCH   2   8
TORSDOF 3
ENDMDL
