MODEL 5
REMARK VINA RESULT: -6.280300968      1.286      1.852
REMARK  3 active torsions:
REMARK  status: ('A' for Active; 'I' for Inactive)
REMARK    1  A    between atoms: C2_2  and  O1_3 
REMARK    2  A    between atoms: C2_2  and  C3_8 
REMARK    3  A    between atoms: O1_3  and  P1_4 
ROOT
HETATM    1  C1  UNL     1      14.999 -32.844 -21.512  1.00  0.00     0.059 C 
HETATM    2  C2  UNL     1      16.028 -33.390 -22.113  1.00  0.00     0.149 C 
ENDROOT
BRANCH   2   3
HETATM    3  O1  UNL     1      17.059 -32.635 -22.677  1.00  0.00    -0.234 OA
BRANCH   3   4
HETATM    4  P1  UNL     1      16.918 -31.909 -24.218  1.00  0.00     0.427 P 
HETATM    5  O2  UNL     1      17.165 -32.992 -25.245  1.00  0.00    -0.617 OA
HETATM    6  O3  UNL     1      18.041 -30.676 -24.449  1.00  0.00    -0.617 OA
HETATM    7  O4  UNL     1      15.345 -31.284 -24.443  1.00  0.00    -0.617 OA
ENDBRANCH   3   4
ENDBRANCH   2   3
BRANCH   2   8
HETATM    8  C3  UNL     1      16.095 -34.844 -22.192  1.00  0.00     0.233 C 
HETATM    9  O5  UNL     1      15.947 -35.471 -23.274  1.00  0.00    -0.642 OA
HETATM   10  O6  UNL     1      16.326 -35.582 -21.058  1.00  0.00    -0.642 OA
ENDBRANCH   2   8
TORSDOF 3
ENDMDL
