MODEL 11
REMARK VINA RESULT: -6.106273058      1.223      2.351
REMARK  3 active torsions:
REMARK  status: ('A' for Active; 'I' for Inactive)
REMARK    1  A    between atoms: C2_2  and  O1_3 
REMARK    2  A    between atoms: C2_2  and  C3_8 
REMARK    3  A    between atoms: O1_3  and  P1_4 
ROOT
HETATM    1  C1  UNL     1      15.061 -32.989 -21.390  1.00  0.00     0.059 C 
HETATM    2  C2  UNL     1      16.024 -33.519 -22.105  1.00  0.00     0.149 C 
ENDROOT
BRANCH   2   3
HETATM    3  O1  UNL     1      16.944 -32.750 -22.819  1.00  0.00    -0.234 OA
BRANCH   3   4
HETATM    4  P1  UNL     1      16.618 -32.171 -24.394  1.00  0.00     0.427 P 
HETATM    5  O2  UNL     1      17.064 -30.726 -24.441  1.00  0.00    -0.617 OA
HETATM    6  O3  UNL     1      14.979 -32.246 -24.777  1.00  0.00    -0.617 OA
HETATM    7  O4  UNL     1      17.505 -33.059 -25.552  1.00  0.00    -0.617 OA
ENDBRANCH   3   4
ENDBRANCH   2   3
BRANCH   2   8
HETATM    8  C3  UNL     1      16.134 -34.972 -22.151  1.00  0.00     0.233 C 
HETATM    9  O5  UNL     1      16.106 -35.619 -23.231  1.00  0.00    -0.642 OA
HETATM   10  O6  UNL     1      16.273 -35.687 -20.987  1.00  0.00    -0.642 OA
ENDBRANCH   2   8
TORSDOF 3
ENDMDL
