MODEL 5
REMARK VINA RESULT: -5.617339927      0.382      1.961
REMARK  0 active torsions:
REMARK  status: ('A' for Active; 'I' for Inactive)
ROOT
HETATM    1  C1  UNL     1       1.621   9.451   2.033  1.00  0.00     0.000 A 
HETATM    2  C2  UNL     1       2.622  10.402   1.953  1.00  0.00     0.000 A 
HETATM    3  C3  UNL     1       3.756  10.201   1.191  1.00  0.00     0.000 A 
HETATM    4  C4  UNL     1       3.870   8.999   0.497  1.00  0.00     0.000 A 
HETATM    5  C5  UNL     1       2.870   8.060   0.583  1.00  0.00     0.000 A 
HETATM    6  C6  UNL     1       1.733   8.263   1.346  1.00  0.00     0.000 A 
ENDROOT
TORSDOF 0
ENDMDL
