MODEL 1
REMARK VINA RESULT: -5.648895935      0.000      0.000
REMARK  0 active torsions:
REMARK  status: ('A' for Active; 'I' for Inactive)
ROOT
HETATM    1  C1  UNL     1       1.818   9.789   2.128  1.00  0.00     0.000 A 
HETATM    2  C2  UNL     1       1.594   8.554   1.546  1.00  0.00     0.000 A 
HETATM    3  C3  UNL     1       2.502   7.987   0.674  1.00  0.00     0.000 A 
HETATM    4  C4  UNL     1       3.664   8.699   0.389  1.00  0.00     0.000 A 
HETATM    5  C5  UNL     1       3.877   9.926   0.972  1.00  0.00     0.000 A 
HETATM    6  C6  UNL     1       2.966  10.493   1.847  1.00  0.00     0.000 A 
ENDROOT
TORSDOF 0
ENDMDL
