MODEL 3
REMARK VINA RESULT: -5.621511649      0.407      2.167
REMARK  0 active torsions:
REMARK  status: ('A' for Active; 'I' for Inactive)
ROOT
HETATM    1  C1  UNL     1       3.775  10.201   1.218  1.00  0.00     0.000 A 
HETATM    2  C2  UNL     1       2.631  10.410   1.967  1.00  0.00     0.000 A 
HETATM    3  C3  UNL     1       1.618   9.474   2.022  1.00  0.00     0.000 A 
HETATM    4  C4  UNL     1       1.777   8.298   1.294  1.00  0.00     0.000 A 
HETATM    5  C5  UNL     1       2.918   8.100   0.553  1.00  0.00     0.000 A 
HETATM    6  C6  UNL     1       3.934   9.038   0.499  1.00  0.00     0.000 A 
ENDROOT
TORSDOF 0
ENDMDL
