MODEL 4
REMARK VINA RESULT: -5.620346881      0.440      2.581
REMARK  0 active torsions:
REMARK  status: ('A' for Active; 'I' for Inactive)
ROOT
HETATM    1  C1  UNL     1       2.942   8.134   0.543  1.00  0.00     0.000 A 
HETATM    2  C2  UNL     1       3.913   9.120   0.524  1.00  0.00     0.000 A 
HETATM    3  C3  UNL     1       3.781  10.285   1.253  1.00  0.00     0.000 A 
HETATM    4  C4  UNL     1       2.629  10.447   2.018  1.00  0.00     0.000 A 
HETATM    5  C5  UNL     1       1.670   9.462   2.031  1.00  0.00     0.000 A 
HETATM    6  C6  UNL     1       1.804   8.294   1.301  1.00  0.00     0.000 A 
ENDROOT
TORSDOF 0
ENDMDL
