MODEL 2
REMARK VINA RESULT: -5.648015429      0.104      1.955
REMARK  0 active torsions:
REMARK  status: ('A' for Active; 'I' for Inactive)
ROOT
HETATM    1  C1  UNL     1       3.753   8.655   0.409  1.00  0.00     0.000 A 
HETATM    2  C2  UNL     1       2.579   7.994   0.724  1.00  0.00     0.000 A 
HETATM    3  C3  UNL     1       1.631   8.554   1.557  1.00  0.00     0.000 A 
HETATM    4  C4  UNL     1       1.889   9.818   2.081  1.00  0.00     0.000 A 
HETATM    5  C5  UNL     1       3.059  10.467   1.763  1.00  0.00     0.000 A 
HETATM    6  C6  UNL     1       4.009   9.905   0.927  1.00  0.00     0.000 A 
ENDROOT
TORSDOF 0
ENDMDL
