MODEL 2
REMARK VINA RESULT: -6.489614028      0.038      1.784
REMARK  0 active torsions:
REMARK  status: ('A' for Active; 'I' for Inactive)
ROOT
HETATM    1  C1  UNL     1       4.992  10.893   0.691  1.00  0.00     0.048 C 
HETATM    2  C2  UNL     1       3.793  10.089   1.049  1.00  0.00    -0.062 A 
HETATM    3  C3  UNL     1       2.901  10.557   1.991  1.00  0.00     0.007 A 
HETATM    4  C4  UNL     1       1.770   9.830   2.349  1.00  0.00     0.001 A 
HETATM    5  C5  UNL     1       1.504   8.608   1.766  1.00  0.00     0.000 A 
HETATM    6  C6  UNL     1       2.400   8.146   0.824  1.00  0.00     0.001 A 
HETATM    7  C7  UNL     1       3.530   8.868   0.463  1.00  0.00     0.007 A 
ENDROOT
TORSDOF 0
ENDMDL
