MODEL 1
REMARK VINA RESULT: -6.495788287      0.000      0.000
REMARK  0 active torsions:
REMARK  status: ('A' for Active; 'I' for Inactive)
ROOT
HETATM    1  C1  UNL     1       4.986  10.906   0.713  1.00  0.00     0.048 C 
HETATM    2  C2  UNL     1       3.777  10.123   1.083  1.00  0.00    -0.062 A 
HETATM    3  C3  UNL     1       3.522   8.913   0.472  1.00  0.00     0.007 A 
HETATM    4  C4  UNL     1       2.400   8.155   0.795  1.00  0.00     0.001 A 
HETATM    5  C5  UNL     1       1.502   8.595   1.746  1.00  0.00     0.000 A 
HETATM    6  C6  UNL     1       1.764   9.807   2.353  1.00  0.00     0.001 A 
HETATM    7  C7  UNL     1       2.882  10.566   2.034  1.00  0.00     0.007 A 
ENDROOT
TORSDOF 0
ENDMDL
