MODEL 3
REMARK VINA RESULT: -5.852623261      0.624      1.555
REMARK  0 active torsions:
REMARK  status: ('A' for Active; 'I' for Inactive)
ROOT
HETATM    1  C1  UNL     1       4.683   8.494  -0.258  1.00  0.00     0.048 C 
HETATM    2  C2  UNL     1       3.618   8.976   0.660  1.00  0.00    -0.062 A 
HETATM    3  C3  UNL     1       2.506   8.196   0.903  1.00  0.00     0.007 A 
HETATM    4  C4  UNL     1       1.491   8.618   1.756  1.00  0.00     0.001 A 
HETATM    5  C5  UNL     1       1.567   9.841   2.392  1.00  0.00     0.000 A 
HETATM    6  C6  UNL     1       2.682  10.616   2.144  1.00  0.00     0.001 A 
HETATM    7  C7  UNL     1       3.698  10.199   1.294  1.00  0.00     0.007 A 
ENDROOT
TORSDOF 0
ENDMDL
