MODEL 4
REMARK VINA RESULT: -5.829795963      0.865      1.925
REMARK  0 active torsions:
REMARK  status: ('A' for Active; 'I' for Inactive)
ROOT
HETATM    1  C1  UNL     1       5.001   9.240   0.050  1.00  0.00     0.048 C 
HETATM    2  C2  UNL     1       3.717   9.268   0.798  1.00  0.00    -0.062 A 
HETATM    3  C3  UNL     1       3.404  10.347   1.599  1.00  0.00     0.007 A 
HETATM    4  C4  UNL     1       2.211  10.405   2.312  1.00  0.00     0.001 A 
HETATM    5  C5  UNL     1       1.295   9.374   2.240  1.00  0.00     0.000 A 
HETATM    6  C6  UNL     1       1.615   8.298   1.437  1.00  0.00     0.001 A 
HETATM    7  C7  UNL     1       2.804   8.236   0.723  1.00  0.00     0.007 A 
ENDROOT
TORSDOF 0
ENDMDL
