MODEL 11
REMARK VINA RESULT: -5.382547308      0.616      1.565
REMARK  0 active torsions:
REMARK  status: ('A' for Active; 'I' for Inactive)
ROOT
HETATM    1  C1  UNL     1       3.541  11.748   2.597  1.00  0.00     0.048 C 
HETATM    2  C2  UNL     1       3.143  10.498   1.895  1.00  0.00    -0.062 A 
HETATM    3  C3  UNL     1       3.988   9.923   0.970  1.00  0.00     0.007 A 
HETATM    4  C4  UNL     1       3.646   8.754   0.296  1.00  0.00     0.001 A 
HETATM    5  C5  UNL     1       2.438   8.130   0.536  1.00  0.00     0.000 A 
HETATM    6  C6  UNL     1       1.597   8.712   1.463  1.00  0.00     0.001 A 
HETATM    7  C7  UNL     1       1.935   9.877   2.138  1.00  0.00     0.007 A 
ENDROOT
TORSDOF 0
ENDMDL
