MODEL 1
REMARK VINA RESULT: -6.069217497      0.000      0.000
REMARK  1 active torsions:
REMARK  status: ('A' for Active; 'I' for Inactive)
REMARK    1  A    between atoms: O1_1  and  C1_3 
ROOT
HETATM    1  C1  UNL     1       3.714  10.673   1.241  1.00  0.00     0.065 A 
HETATM    2  C2  UNL     1       3.665   9.496   0.521  1.00  0.00     0.036 A 
HETATM    3  C3  UNL     1       2.545   8.692   0.666  1.00  0.00     0.003 A 
HETATM    4  C4  UNL     1       1.535   9.104   1.518  1.00  0.00     0.000 A 
HETATM    5  C5  UNL     1       1.609  10.271   2.218  1.00  0.00     0.003 A 
HETATM    6  C6  UNL     1       2.723  11.088   2.086  1.00  0.00     0.036 A 
ENDROOT
BRANCH   1   7
HETATM    7  O1  UNL     1       4.834  11.478   1.098  1.00  0.00    -0.361 OA
ATOM      8  H1  UNL     1       5.532  11.388   1.736  1.00  0.00     0.217 HD
ENDBRANCH   1   7
TORSDOF 1
ENDMDL
