MODEL 3
REMARK VINA RESULT: -5.954559635      0.850      1.982
REMARK  1 active torsions:
REMARK  status: ('A' for Active; 'I' for Inactive)
REMARK    1  A    between atoms: O1_1  and  C1_3 
ROOT
HETATM    1  C1  UNL     1       3.196  10.934   1.989  1.00  0.00     0.065 A 
HETATM    2  C2  UNL     1       1.938  10.453   2.287  1.00  0.00     0.036 A 
HETATM    3  C3  UNL     1       1.490   9.335   1.599  1.00  0.00     0.003 A 
HETATM    4  C4  UNL     1       2.321   8.758   0.654  1.00  0.00     0.000 A 
HETATM    5  C5  UNL     1       3.560   9.255   0.379  1.00  0.00     0.003 A 
HETATM    6  C6  UNL     1       4.024  10.374   1.057  1.00  0.00     0.036 A 
ENDROOT
BRANCH   1   7
HETATM    7  O1  UNL     1       3.645  12.053   2.675  1.00  0.00    -0.361 OA
ATOM      8  H1  UNL     1       3.531  12.903   2.266  1.00  0.00     0.217 HD
ENDBRANCH   1   7
TORSDOF 1
ENDMDL
