MODEL 7
REMARK VINA RESULT: -5.496660134      1.029      2.085
REMARK  1 active torsions:
REMARK  status: ('A' for Active; 'I' for Inactive)
REMARK    1  A    between atoms: O1_1  and  C1_3 
ROOT
HETATM    1  C1  UNL     1       3.574   9.460   0.734  1.00  0.00     0.065 A 
HETATM    2  C2  UNL     1       3.648  10.700   1.336  1.00  0.00     0.036 A 
HETATM    3  C3  UNL     1       2.564  11.121   2.092  1.00  0.00     0.003 A 
HETATM    4  C4  UNL     1       1.468  10.284   2.207  1.00  0.00     0.000 A 
HETATM    5  C5  UNL     1       1.421   9.064   1.601  1.00  0.00     0.003 A 
HETATM    6  C6  UNL     1       2.497   8.627   0.840  1.00  0.00     0.036 A 
ENDROOT
BRANCH   1   7
HETATM    7  O1  UNL     1       4.657   9.038  -0.024  1.00  0.00    -0.361 OA
ATOM      8  H1  UNL     1       4.489   8.717  -0.902  1.00  0.00     0.217 HD
ENDBRANCH   1   7
TORSDOF 1
ENDMDL
