MODEL 6
REMARK VINA RESULT: -5.507748764      1.036      1.641
REMARK  1 active torsions:
REMARK  status: ('A' for Active; 'I' for Inactive)
REMARK    1  A    between atoms: O1_1  and  C1_3 
ROOT
HETATM    1  C1  UNL     1       3.574   9.453   0.752  1.00  0.00     0.065 A 
HETATM    2  C2  UNL     1       2.485   8.614   0.875  1.00  0.00     0.036 A 
HETATM    3  C3  UNL     1       1.407   9.055   1.628  1.00  0.00     0.003 A 
HETATM    4  C4  UNL     1       1.472  10.306   2.216  1.00  0.00     0.000 A 
HETATM    5  C5  UNL     1       2.560  11.115   2.079  1.00  0.00     0.003 A 
HETATM    6  C6  UNL     1       3.649  10.690   1.330  1.00  0.00     0.036 A 
ENDROOT
BRANCH   1   7
HETATM    7  O1  UNL     1       4.654   9.014   0.001  1.00  0.00    -0.361 OA
ATOM      8  H1  UNL     1       4.475   8.520  -0.790  1.00  0.00     0.217 HD
ENDBRANCH   1   7
TORSDOF 1
ENDMDL
