MODEL 2
REMARK VINA RESULT: -6.063337194      0.037      1.824
REMARK  1 active torsions:
REMARK  status: ('A' for Active; 'I' for Inactive)
REMARK    1  A    between atoms: O1_1  and  C1_3 
ROOT
HETATM    1  C1  UNL     1       3.699  10.663   1.244  1.00  0.00     0.065 A 
HETATM    2  C2  UNL     1       2.683  11.071   2.084  1.00  0.00     0.036 A 
HETATM    3  C3  UNL     1       1.578  10.243   2.218  1.00  0.00     0.003 A 
HETATM    4  C4  UNL     1       1.547   9.054   1.510  1.00  0.00     0.000 A 
HETATM    5  C5  UNL     1       2.565   8.675   0.687  1.00  0.00     0.003 A 
HETATM    6  C6  UNL     1       3.677   9.492   0.539  1.00  0.00     0.036 A 
ENDROOT
BRANCH   1   7
HETATM    7  O1  UNL     1       4.803  11.491   1.107  1.00  0.00    -0.361 OA
ATOM      8  H1  UNL     1       5.096  11.701   0.228  1.00  0.00     0.217 HD
ENDBRANCH   1   7
TORSDOF 1
ENDMDL
