MODEL 3
REMARK VINA RESULT: -5.084666087      1.087      1.185
REMARK  3 active torsions:
REMARK  status: ('A' for Active; 'I' for Inactive)
REMARK    1  A    between atoms: C2_2  and  C3_3 
REMARK    2  A    between atoms: C3_3  and  C4_4 
REMARK    3  A    between atoms: C9_9  and  O1_10 
ROOT
HETATM    1  C4  UNL     1       3.239   8.462   0.474  1.00  0.00    -0.025 A 
HETATM    2  C5  UNL     1       3.671   7.216   0.050  1.00  0.00     0.010 A 
HETATM    3  C6  UNL     1       3.055   6.049   0.442  1.00  0.00     0.001 A 
HETATM    4  C7  UNL     1       1.958   6.073   1.289  1.00  0.00     0.003 A 
HETATM    5  C8  UNL     1       1.516   7.299   1.716  1.00  0.00     0.037 A 
HETATM    6  C9  UNL     1       2.148   8.484   1.314  1.00  0.00     0.071 A 
ENDROOT
BRANCH   1   7
HETATM    7  C3  UNL     1       3.969   9.690   0.034  1.00  0.00     0.041 C 
BRANCH   7   8
HETATM    8  C2  UNL     1       5.434   9.482   0.324  1.00  0.00     0.000 C 
HETATM    9  C1  UNL     1       6.322  10.352  -0.505  1.00  0.00     0.005 C 
ENDBRANCH   7   8
ENDBRANCH   1   7
BRANCH   6  10
HETATM   10  O1  UNL     1       1.670   9.705   1.764  1.00  0.00    -0.360 OA
ATOM     11  H1  UNL     1       2.175  10.188   2.408  1.00  0.00     0.217 HD
ENDBRANCH   6  10
TORSDOF 3
ENDMDL
