MODEL 18
REMARK VINA RESULT: -3.477053613      1.208      1.446
REMARK  3 active torsions:
REMARK  status: ('A' for Active; 'I' for Inactive)
REMARK    1  A    between atoms: C2_2  and  C3_3 
REMARK    2  A    between atoms: C3_3  and  C4_4 
REMARK    3  A    between atoms: C9_9  and  O1_10 
ROOT
HETATM    1  C4  UNL     1       4.150   8.728  -0.072  1.00  0.00    -0.025 A 
HETATM    2  C5  UNL     1       4.160   7.565  -0.825  1.00  0.00     0.010 A 
HETATM    3  C6  UNL     1       3.604   6.389  -0.373  1.00  0.00     0.001 A 
HETATM    4  C7  UNL     1       3.001   6.319   0.872  1.00  0.00     0.003 A 
HETATM    5  C8  UNL     1       2.981   7.463   1.630  1.00  0.00     0.037 A 
HETATM    6  C9  UNL     1       3.548   8.657   1.165  1.00  0.00     0.071 A 
ENDROOT
BRANCH   1   7
HETATM    7  C3  UNL     1       4.795   9.964  -0.608  1.00  0.00     0.041 C 
BRANCH   7   8
HETATM    8  C2  UNL     1       6.205  10.016  -0.074  1.00  0.00     0.000 C 
HETATM    9  C1  UNL     1       7.086  10.945  -0.843  1.00  0.00     0.005 C 
ENDBRANCH   7   8
ENDBRANCH   1   7
BRANCH   6  10
HETATM   10  O1  UNL     1       3.505   9.794   1.957  1.00  0.00    -0.360 OA
ATOM     11  H1  UNL     1       2.719  10.326   1.957  1.00  0.00     0.217 HD
ENDBRANCH   6  10
TORSDOF 3
ENDMDL
