MODEL 6
REMARK VINA RESULT: -4.439323999      1.013      1.542
REMARK  3 active torsions:
REMARK  status: ('A' for Active; 'I' for Inactive)
REMARK    1  A    between atoms: C2_2  and  C3_3 
REMARK    2  A    between atoms: C3_3  and  C4_4 
REMARK    3  A    between atoms: C9_9  and  O1_10 
ROOT
HETATM    1  C4  UNL     1       2.961   8.488   0.557  1.00  0.00    -0.025 A 
HETATM    2  C5  UNL     1       2.368   7.434  -0.118  1.00  0.00     0.010 A 
HETATM    3  C6  UNL     1       1.429   6.616   0.470  1.00  0.00     0.001 A 
HETATM    4  C7  UNL     1       1.031   6.818   1.782  1.00  0.00     0.003 A 
HETATM    5  C8  UNL     1       1.609   7.858   2.464  1.00  0.00     0.037 A 
HETATM    6  C9  UNL     1       2.564   8.687   1.860  1.00  0.00     0.071 A 
ENDROOT
BRANCH   1   7
HETATM    7  C3  UNL     1       3.995   9.321  -0.130  1.00  0.00     0.041 C 
BRANCH   7   8
HETATM    8  C2  UNL     1       5.348   8.746   0.209  1.00  0.00     0.000 C 
HETATM    9  C1  UNL     1       5.322   7.264   0.397  1.00  0.00     0.005 C 
ENDBRANCH   7   8
ENDBRANCH   1   7
BRANCH   6  10
HETATM   10  O1  UNL     1       3.123   9.731   2.581  1.00  0.00    -0.360 OA
ATOM     11  H1  UNL     1       3.064   9.721   3.529  1.00  0.00     0.217 HD
ENDBRANCH   6  10
TORSDOF 3
ENDMDL
