MODEL 1
REMARK VINA RESULT: -6.779118021      0.000      0.000
REMARK  3 active torsions:
REMARK  status: ('A' for Active; 'I' for Inactive)
REMARK    1  A    between atoms: C2_2  and  C3_3 
REMARK    2  A    between atoms: C3_3  and  C4_4 
REMARK    3  A    between atoms: C9_9  and  O1_10 
ROOT
HETATM    1  C4  UNL     1       3.640   8.488   0.725  1.00  0.00    -0.025 A 
HETATM    2  C5  UNL     1       3.234   7.414  -0.050  1.00  0.00     0.010 A 
HETATM    3  C6  UNL     1       2.126   6.658   0.261  1.00  0.00     0.001 A 
HETATM    4  C7  UNL     1       1.358   6.946   1.377  1.00  0.00     0.003 A 
HETATM    5  C8  UNL     1       1.746   8.007   2.155  1.00  0.00     0.037 A 
HETATM    6  C9  UNL     1       2.875   8.774   1.833  1.00  0.00     0.071 A 
ENDROOT
BRANCH   1   7
HETATM    7  C3  UNL     1       4.869   9.252   0.349  1.00  0.00     0.041 C 
BRANCH   7   8
HETATM    8  C2  UNL     1       4.743   9.640  -1.103  1.00  0.00     0.000 C 
HETATM    9  C1  UNL     1       5.118  11.064  -1.360  1.00  0.00     0.005 C 
ENDBRANCH   7   8
ENDBRANCH   1   7
BRANCH   6  10
HETATM   10  O1  UNL     1       3.233   9.842   2.641  1.00  0.00    -0.360 OA
ATOM     11  H1  UNL     1       2.781   9.967   3.467  1.00  0.00     0.217 HD
ENDBRANCH   6  10
TORSDOF 3
ENDMDL
