MODEL 11
REMARK VINA RESULT: -1.419938031      2.458      3.089
REMARK  0 active torsions:
REMARK  status: ('A' for Active; 'I' for Inactive)
ROOT
HETATM    1 BR1  UNL     1       3.194   6.553   0.837  1.00  0.00    -0.030 Br
HETATM    2  C1  UNL     1       3.840   8.335   0.657  1.00  0.00     0.096 A 
HETATM    3  C2  UNL     1       5.095   8.703   0.226  1.00  0.00     0.126 A 
HETATM    4  N1  UNL     1       5.106  10.033   0.257  1.00  0.00    -0.359 N 
ATOM      5  H1  UNL     1       5.907  10.606  -0.008  1.00  0.00     0.166 HD
HETATM    6  C3  UNL     1       3.945  10.522   0.676  1.00  0.00     0.181 A 
HETATM    7  N2  UNL     1       3.149   9.470   0.927  1.00  0.00    -0.345 N 
ATOM      8  H2  UNL     1       2.187   9.516   1.265  1.00  0.00     0.167 HD
ENDROOT
TORSDOF 0
ENDMDL
