MODEL 9
REMARK VINA RESULT: -2.561813456      2.391      3.106
REMARK  0 active torsions:
REMARK  status: ('A' for Active; 'I' for Inactive)
ROOT
HETATM    1 BR1  UNL     1       1.861   7.668  -0.054  1.00  0.00    -0.030 Br
HETATM    2  C1  UNL     1       3.107   8.798   0.839  1.00  0.00     0.096 A 
HETATM    3  C2  UNL     1       2.836   9.612   1.916  1.00  0.00     0.126 A 
HETATM    4  N1  UNL     1       3.988  10.212   2.208  1.00  0.00    -0.359 N 
ATOM      5  H1  UNL     1       4.109  10.882   2.966  1.00  0.00     0.166 HD
HETATM    6  C3  UNL     1       4.959   9.828   1.388  1.00  0.00     0.181 A 
HETATM    7  N2  UNL     1       4.419   8.946   0.531  1.00  0.00    -0.345 N 
ATOM      8  H2  UNL     1       4.912   8.468  -0.224  1.00  0.00     0.167 HD
ENDROOT
TORSDOF 0
ENDMDL
