MODEL 3
REMARK VINA RESULT: -3.614305457      2.384      2.896
REMARK  0 active torsions:
REMARK  status: ('A' for Active; 'I' for Inactive)
ROOT
HETATM    1 BR1  UNL     1       1.399   7.659   1.754  1.00  0.00    -0.030 Br
HETATM    2  C1  UNL     1       3.017   8.559   1.309  1.00  0.00     0.096 A 
HETATM    3  C2  UNL     1       3.969   8.122   0.415  1.00  0.00     0.126 A 
HETATM    4  N1  UNL     1       4.917   9.056   0.420  1.00  0.00    -0.359 N 
ATOM      5  H1  UNL     1       5.763   9.015  -0.146  1.00  0.00     0.166 HD
HETATM    6  C3  UNL     1       4.623  10.046   1.254  1.00  0.00     0.181 A 
HETATM    7  N2  UNL     1       3.439   9.745   1.813  1.00  0.00    -0.345 N 
ATOM      8  H2  UNL     1       2.942  10.311   2.501  1.00  0.00     0.167 HD
ENDROOT
TORSDOF 0
ENDMDL
