MODEL 4
REMARK VINA RESULT: -3.527355662      2.435      3.249
REMARK  0 active torsions:
REMARK  status: ('A' for Active; 'I' for Inactive)
ROOT
HETATM    1 BR1  UNL     1       1.399   7.628   1.732  1.00  0.00    -0.030 Br
HETATM    2  C1  UNL     1       2.987   8.588   1.306  1.00  0.00     0.096 A 
HETATM    3  C2  UNL     1       3.384   9.785   1.858  1.00  0.00     0.126 A 
HETATM    4  N1  UNL     1       4.540  10.082   1.271  1.00  0.00    -0.359 N 
ATOM      5  H1  UNL     1       5.087  10.918   1.472  1.00  0.00     0.166 HD
HETATM    6  C3  UNL     1       4.894   9.153   0.390  1.00  0.00     0.181 A 
HETATM    7  N2  UNL     1       3.930   8.217   0.405  1.00  0.00    -0.345 N 
ATOM      8  H2  UNL     1       3.911   7.371  -0.164  1.00  0.00     0.167 HD
ENDROOT
TORSDOF 0
ENDMDL
