MODEL 6
REMARK VINA RESULT: -2.980875176      2.403      3.131
REMARK  0 active torsions:
REMARK  status: ('A' for Active; 'I' for Inactive)
ROOT
HETATM    1 BR1  UNL     1       1.586   9.430   2.353  1.00  0.00    -0.030 Br
HETATM    2  C1  UNL     1       3.198   9.100   1.394  1.00  0.00     0.096 A 
HETATM    3  C2  UNL     1       4.298   9.927   1.347  1.00  0.00     0.126 A 
HETATM    4  N1  UNL     1       5.178   9.304   0.568  1.00  0.00    -0.359 N 
ATOM      5  H1  UNL     1       6.101   9.671   0.339  1.00  0.00     0.166 HD
HETATM    6  C3  UNL     1       4.706   8.145   0.127  1.00  0.00     0.181 A 
HETATM    7  N2  UNL     1       3.471   8.009   0.637  1.00  0.00    -0.345 N 
ATOM      8  H2  UNL     1       2.844   7.219   0.482  1.00  0.00     0.167 HD
ENDROOT
TORSDOF 0
ENDMDL
