MODEL 4
REMARK VINA RESULT: -9.262918883      2.240      4.428
REMARK  16 active torsions:
REMARK  status: ('A' for Active; 'I' for Inactive)
REMARK    1  A    between atoms: C2_2  and  C4_4 
REMARK    2  A    between atoms: C4_4  and  N1_5 
REMARK    3  A    between atoms: N1_5  and  C5_6 
REMARK    4  A    between atoms: N1_5  and  S1_33 
REMARK    5  A    between atoms: C5_6  and  C6_7 
REMARK    6  A    between atoms: C6_7  and  O1_8 
REMARK    7  A    between atoms: C6_7  and  C7_10 
REMARK    8  A    between atoms: C7_10  and  C8_11 
REMARK    9  A    between atoms: C7_10  and  N2_18 
REMARK   10  A    between atoms: C8_11  and  C9_12 
REMARK   11  A    between atoms: N2_18  and  C15_21 
REMARK   12  A    between atoms: C15_21  and  O2_22 
REMARK   13  A    between atoms: C15_21  and  O3_24 
REMARK   14  A    between atoms: O3_24  and  C16_25 
REMARK   15  A    between atoms: S1_33  and  C22_36 
REMARK   16  A    between atoms: C25_39  and  C26_40 
ROOT
HETATM    1  C7  UNL     1       8.682  17.276   1.472  1.00  0.00     0.229 C 
ENDROOT
BRANCH   1   2
HETATM    2  C6  UNL     1      10.115  17.501   1.144  1.00  0.00     0.189 C 
BRANCH   2   3
HETATM    3  C5  UNL     1      10.522  17.006  -0.255  1.00  0.00     0.115 C 
BRANCH   3   4
HETATM    4  N1  UNL     1      10.769  15.651  -0.385  1.00  0.00    -0.263 N 
BRANCH   4   5
HETATM    5  C4  UNL     1      11.599  15.084   0.593  1.00  0.00     0.085 C 
BRANCH   5   6
HETATM    6  C2  UNL     1      12.978  14.679   0.206  1.00  0.00     0.017 C 
HETATM    7  C1  UNL     1      13.276  14.701  -1.271  1.00  0.00     0.015 C 
HETATM    8  C3  UNL     1      13.199  13.218   0.635  1.00  0.00     0.015 C 
ENDBRANCH   5   6
ENDBRANCH   4   5
BRANCH   4   9
HETATM    9  S1  UNL     1       9.719  14.658  -1.232  1.00  0.00     0.267 S 
HETATM   10  O6  UNL     1      10.157  13.224  -1.098  1.00  0.00    -0.200 OA
HETATM   11  O7  UNL     1       8.366  14.715  -0.522  1.00  0.00    -0.200 OA
BRANCH   9  12
HETATM   12  C22 UNL     1       9.532  14.980  -2.918  1.00  0.00     0.080 A 
HETATM   13  C23 UNL     1      10.095  14.182  -3.909  1.00  0.00     0.026 A 
HETATM   14  C24 UNL     1       9.911  14.467  -5.247  1.00  0.00     0.020 A 
HETATM   15  C25 UNL     1       9.170  15.547  -5.661  1.00  0.00     0.040 A 
HETATM   16  C27 UNL     1       8.606  16.346  -4.689  1.00  0.00     0.020 A 
HETATM   17  C28 UNL     1       8.788  16.061  -3.342  1.00  0.00     0.026 A 
BRANCH  15  18
HETATM   18  C26 UNL     1       8.976  15.852  -7.091  1.00  0.00     0.209 C 
HETATM   19  O8  UNL     1       9.630  15.222  -7.955  1.00  0.00    -0.644 OA
HETATM   20  O9  UNL     1       8.092  16.813  -7.510  1.00  0.00    -0.644 OA
ENDBRANCH  15  18
ENDBRANCH   9  12
ENDBRANCH   4   9
ENDBRANCH   3   4
ENDBRANCH   2   3
BRANCH   2  21
HETATM   21  O1  UNL     1      10.248  18.917   0.986  1.00  0.00    -0.388 OA
ATOM     22  H1  UNL     1      10.220  19.205   1.890  1.00  0.00     0.210 HD
ENDBRANCH   2  21
ENDBRANCH   1   2
BRANCH   1  23
HETATM   23  C8  UNL     1       7.707  18.072   0.700  1.00  0.00     0.074 C 
BRANCH  23  24
HETATM   24  C9  UNL     1       6.296  17.836   0.833  1.00  0.00    -0.056 A 
HETATM   25  C10 UNL     1       5.697  16.820   0.119  1.00  0.00     0.007 A 
HETATM   26  C11 UNL     1       4.324  16.559   0.235  1.00  0.00     0.001 A 
HETATM   27  C12 UNL     1       3.540  17.316   1.073  1.00  0.00     0.000 A 
HETATM   28  C13 UNL     1       4.108  18.321   1.786  1.00  0.00     0.001 A 
HETATM   29  C14 UNL     1       5.461  18.558   1.655  1.00  0.00     0.007 A 
ENDBRANCH  23  24
ENDBRANCH   1  23
BRANCH   1  30
HETATM   30  N2  UNL     1       8.351  17.326   2.876  1.00  0.00    -0.018 N 
ATOM     31  H22 UNL     1       9.146  17.663   3.420  1.00  0.00     0.283 HD
ATOM     32  H21 UNL     1       7.686  18.077   3.061  1.00  0.00     0.283 HD
BRANCH  30  33
HETATM   33  C15 UNL     1       7.864  16.070   3.409  1.00  0.00     0.467 C 
BRANCH  33  34
HETATM   34  O2  UNL     1       8.338  15.025   2.571  1.00  0.00    -0.350 OA
ATOM     35  H2  UNL     1       7.585  14.595   2.183  1.00  0.00     0.214 HD
ENDBRANCH  33  34
BRANCH  33  36
HETATM   36  O3  UNL     1       8.416  15.770   4.672  1.00  0.00    -0.331 OA
BRANCH  36  37
HETATM   37  C16 UNL     1       7.720  16.332   5.712  1.00  0.00     0.159 C 
HETATM   38  C17 UNL     1       7.102  15.173   6.515  1.00  0.00     0.203 C 
HETATM   39  O4  UNL     1       6.927  15.738   7.753  1.00  0.00    -0.358 OA
HETATM   40  C18 UNL     1       8.009  16.528   8.036  1.00  0.00     0.266 C 
HETATM   41  O5  UNL     1       8.950  15.960   8.855  1.00  0.00    -0.361 OA
HETATM   42  C21 UNL     1       8.680  16.890   6.731  1.00  0.00     0.074 C 
HETATM   43  C19 UNL     1       9.916  15.369   8.078  1.00  0.00     0.171 C 
HETATM   44  C20 UNL     1       9.947  16.099   6.757  1.00  0.00     0.038 C 
ENDBRANCH  36  37
ENDBRANCH  33  36
ENDBRANCH  30  33
ENDBRANCH   1  30
TORSDOF 16
ENDMDL
