MODEL 6
REMARK VINA RESULT: -9.235556732      2.613     10.687
REMARK  16 active torsions:
REMARK  status: ('A' for Active; 'I' for Inactive)
REMARK    1  A    between atoms: C2_2  and  C4_4 
REMARK    2  A    between atoms: C4_4  and  N1_5 
REMARK    3  A    between atoms: N1_5  and  C5_6 
REMARK    4  A    between atoms: N1_5  and  S1_33 
REMARK    5  A    between atoms: C5_6  and  C6_7 
REMARK    6  A    between atoms: C6_7  and  O1_8 
REMARK    7  A    between atoms: C6_7  and  C7_10 
REMARK    8  A    between atoms: C7_10  and  C8_11 
REMARK    9  A    between atoms: C7_10  and  N2_18 
REMARK   10  A    between atoms: C8_11  and  C9_12 
REMARK   11  A    between atoms: N2_18  and  C15_21 
REMARK   12  A    between atoms: C15_21  and  O2_22 
REMARK   13  A    between atoms: C15_21  and  O3_24 
REMARK   14  A    between atoms: O3_24  and  C16_25 
REMARK   15  A    between atoms: S1_33  and  C22_36 
REMARK   16  A    between atoms: C25_39  and  C26_40 
ROOT
HETATM    1  C7  UNL     1       9.322  15.438  -2.302  1.00  0.00     0.229 C 
ENDROOT
BRANCH   1   2
HETATM    2  C6  UNL     1       8.164  16.004  -1.560  1.00  0.00     0.189 C 
BRANCH   2   3
HETATM    3  C5  UNL     1       7.850  15.275  -0.242  1.00  0.00     0.115 C 
BRANCH   3   4
HETATM    4  N1  UNL     1       7.828  16.049   0.905  1.00  0.00    -0.263 N 
BRANCH   4   5
HETATM    5  C4  UNL     1       6.565  16.263   1.475  1.00  0.00     0.085 C 
BRANCH   5   6
HETATM    6  C2  UNL     1       5.610  17.159   0.770  1.00  0.00     0.017 C 
HETATM    7  C1  UNL     1       5.855  18.636   0.936  1.00  0.00     0.015 C 
HETATM    8  C3  UNL     1       4.201  16.922   1.343  1.00  0.00     0.015 C 
ENDBRANCH   5   6
ENDBRANCH   4   5
BRANCH   4   9
HETATM    9  S1  UNL     1       9.190  16.203   1.868  1.00  0.00     0.267 S 
HETATM   10  O6  UNL     1      10.097  15.019   1.658  1.00  0.00    -0.200 OA
HETATM   11  O7  UNL     1       9.988  17.397   1.342  1.00  0.00    -0.200 OA
BRANCH   9  12
HETATM   12  C22 UNL     1       8.929  16.351   3.569  1.00  0.00     0.080 A 
HETATM   13  C23 UNL     1       8.098  17.317   4.127  1.00  0.00     0.026 A 
HETATM   14  C24 UNL     1       7.907  17.394   5.492  1.00  0.00     0.020 A 
HETATM   15  C25 UNL     1       8.525  16.526   6.358  1.00  0.00     0.040 A 
HETATM   16  C27 UNL     1       9.351  15.563   5.818  1.00  0.00     0.020 A 
HETATM   17  C28 UNL     1       9.545  15.482   4.445  1.00  0.00     0.026 A 
BRANCH  15  18
HETATM   18  C26 UNL     1       8.322  16.610   7.817  1.00  0.00     0.209 C 
HETATM   19  O8  UNL     1       8.090  17.722   8.349  1.00  0.00    -0.644 OA
HETATM   20  O9  UNL     1       8.378  15.499   8.617  1.00  0.00    -0.644 OA
ENDBRANCH  15  18
ENDBRANCH   9  12
ENDBRANCH   4   9
ENDBRANCH   3   4
ENDBRANCH   2   3
BRANCH   2  21
HETATM   21  O1  UNL     1       8.613  17.272  -1.073  1.00  0.00    -0.388 OA
ATOM     22  H1  UNL     1       9.222  17.525  -1.756  1.00  0.00     0.210 HD
ENDBRANCH   2  21
ENDBRANCH   1   2
BRANCH   1  23
HETATM   23  C8  UNL     1       8.993  14.532  -3.422  1.00  0.00     0.074 C 
BRANCH  23  24
HETATM   24  C9  UNL     1       9.046  14.996  -4.782  1.00  0.00    -0.056 A 
HETATM   25  C10 UNL     1       8.395  16.158  -5.138  1.00  0.00     0.007 A 
HETATM   26  C11 UNL     1       8.436  16.643  -6.453  1.00  0.00     0.001 A 
HETATM   27  C12 UNL     1       9.133  15.962  -7.424  1.00  0.00     0.000 A 
HETATM   28  C13 UNL     1       9.782  14.816  -7.096  1.00  0.00     0.001 A 
HETATM   29  C14 UNL     1       9.727  14.361  -5.794  1.00  0.00     0.007 A 
ENDBRANCH  23  24
ENDBRANCH   1  23
BRANCH   1  30
HETATM   30  N2  UNL     1      10.355  14.849  -1.485  1.00  0.00    -0.018 N 
ATOM     31  H22 UNL     1      10.085  14.860  -0.502  1.00  0.00     0.283 HD
ATOM     32  H21 UNL     1      10.404  13.842  -1.639  1.00  0.00     0.283 HD
BRANCH  30  33
HETATM   33  C15 UNL     1      11.659  15.455  -1.663  1.00  0.00     0.467 C 
BRANCH  33  34
HETATM   34  O2  UNL     1      12.135  15.857  -0.386  1.00  0.00    -0.350 OA
ATOM     35  H2  UNL     1      12.566  16.698  -0.485  1.00  0.00     0.214 HD
ENDBRANCH  33  34
BRANCH  33  36
HETATM   36  O3  UNL     1      12.627  14.531  -2.110  1.00  0.00    -0.331 OA
BRANCH  36  37
HETATM   37  C16 UNL     1      12.590  14.326  -3.466  1.00  0.00     0.159 C 
HETATM   38  C17 UNL     1      13.992  14.658  -4.008  1.00  0.00     0.203 C 
HETATM   39  O4  UNL     1      14.034  13.935  -5.173  1.00  0.00    -0.358 OA
HETATM   40  C18 UNL     1      13.436  12.722  -4.962  1.00  0.00     0.266 C 
HETATM   41  O5  UNL     1      14.295  11.677  -4.737  1.00  0.00    -0.361 OA
HETATM   42  C21 UNL     1      12.527  12.849  -3.762  1.00  0.00     0.074 C 
HETATM   43  C19 UNL     1      14.469  11.531  -3.382  1.00  0.00     0.171 C 
HETATM   44  C20 UNL     1      13.231  12.064  -2.704  1.00  0.00     0.038 C 
ENDBRANCH  36  37
ENDBRANCH  33  36
ENDBRANCH  30  33
ENDBRANCH   1  30
TORSDOF 16
ENDMDL
