MODEL 8
REMARK VINA RESULT: -9.106296909      2.756     10.606
REMARK  16 active torsions:
REMARK  status: ('A' for Active; 'I' for Inactive)
REMARK    1  A    between atoms: C2_2  and  C4_4 
REMARK    2  A    between atoms: C4_4  and  N1_5 
REMARK    3  A    between atoms: N1_5  and  C5_6 
REMARK    4  A    between atoms: N1_5  and  S1_33 
REMARK    5  A    between atoms: C5_6  and  C6_7 
REMARK    6  A    between atoms: C6_7  and  O1_8 
REMARK    7  A    between atoms: C6_7  and  C7_10 
REMARK    8  A    between atoms: C7_10  and  C8_11 
REMARK    9  A    between atoms: C7_10  and  N2_18 
REMARK   10  A    between atoms: C8_11  and  C9_12 
REMARK   11  A    between atoms: N2_18  and  C15_21 
REMARK   12  A    between atoms: C15_21  and  O2_22 
REMARK   13  A    between atoms: C15_21  and  O3_24 
REMARK   14  A    between atoms: O3_24  and  C16_25 
REMARK   15  A    between atoms: S1_33  and  C22_36 
REMARK   16  A    between atoms: C25_39  and  C26_40 
ROOT
HETATM    1  C7  UNL     1      10.410  15.861  -1.949  1.00  0.00     0.229 C 
ENDROOT
BRANCH   1   2
HETATM    2  C6  UNL     1       9.963  17.108  -1.274  1.00  0.00     0.189 C 
BRANCH   2   3
HETATM    3  C5  UNL     1       9.908  17.004   0.260  1.00  0.00     0.115 C 
BRANCH   3   4
HETATM    4  N1  UNL     1       8.751  16.476   0.804  1.00  0.00    -0.263 N 
BRANCH   4   5
HETATM    5  C4  UNL     1       7.573  16.701   0.076  1.00  0.00     0.085 C 
BRANCH   5   6
HETATM    6  C2  UNL     1       6.381  17.222   0.797  1.00  0.00     0.017 C 
HETATM    7  C1  UNL     1       5.047  16.738   0.289  1.00  0.00     0.015 C 
HETATM    8  C3  UNL     1       6.338  18.751   0.634  1.00  0.00     0.015 C 
ENDBRANCH   5   6
ENDBRANCH   4   5
BRANCH   4   9
HETATM    9  S1  UNL     1       8.809  15.187   1.873  1.00  0.00     0.267 S 
HETATM   10  O6  UNL     1       7.658  14.253   1.604  1.00  0.00    -0.200 OA
HETATM   11  O7  UNL     1      10.055  14.369   1.532  1.00  0.00    -0.200 OA
BRANCH   9  12
HETATM   12  C22 UNL     1       8.776  15.568   3.556  1.00  0.00     0.080 A 
HETATM   13  C23 UNL     1       9.337  14.749   4.530  1.00  0.00     0.026 A 
HETATM   14  C24 UNL     1       9.299  15.096   5.866  1.00  0.00     0.020 A 
HETATM   15  C25 UNL     1       8.708  16.259   6.293  1.00  0.00     0.040 A 
HETATM   16  C27 UNL     1       8.148  17.080   5.338  1.00  0.00     0.020 A 
HETATM   17  C28 UNL     1       8.185  16.734   3.994  1.00  0.00     0.026 A 
BRANCH  15  18
HETATM   18  C26 UNL     1       8.667  16.629   7.721  1.00  0.00     0.209 C 
HETATM   19  O8  UNL     1       8.200  17.743   8.061  1.00  0.00    -0.644 OA
HETATM   20  O9  UNL     1       9.127  15.786   8.698  1.00  0.00    -0.644 OA
ENDBRANCH  15  18
ENDBRANCH   9  12
ENDBRANCH   4   9
ENDBRANCH   3   4
ENDBRANCH   2   3
BRANCH   2  21
HETATM   21  O1  UNL     1      11.037  18.037  -1.449  1.00  0.00    -0.388 OA
ATOM     22  H1  UNL     1      11.070  18.101  -2.396  1.00  0.00     0.210 HD
ENDBRANCH   2  21
ENDBRANCH   1   2
BRANCH   1  23
HETATM   23  C8  UNL     1       9.442  15.244  -2.878  1.00  0.00     0.074 C 
BRANCH  23  24
HETATM   24  C9  UNL     1       9.451  15.576  -4.276  1.00  0.00    -0.056 A 
HETATM   25  C10 UNL     1       8.308  16.062  -4.875  1.00  0.00     0.007 A 
HETATM   26  C11 UNL     1       8.287  16.405  -6.235  1.00  0.00     0.001 A 
HETATM   27  C12 UNL     1       9.418  16.264  -7.006  1.00  0.00     0.000 A 
HETATM   28  C13 UNL     1      10.554  15.789  -6.437  1.00  0.00     0.001 A 
HETATM   29  C14 UNL     1      10.549  15.459  -5.096  1.00  0.00     0.007 A 
ENDBRANCH  23  24
ENDBRANCH   1  23
BRANCH   1  30
HETATM   30  N2  UNL     1      10.966  14.851  -1.080  1.00  0.00    -0.018 N 
ATOM     31  H22 UNL     1      10.580  14.935  -0.140  1.00  0.00     0.283 HD
ATOM     32  H21 UNL     1      10.611  13.928  -1.330  1.00  0.00     0.283 HD
BRANCH  30  33
HETATM   33  C15 UNL     1      12.414  14.846  -1.040  1.00  0.00     0.467 C 
BRANCH  33  34
HETATM   34  O2  UNL     1      12.815  14.716   0.317  1.00  0.00    -0.350 OA
ATOM     35  H2  UNL     1      13.507  14.066   0.358  1.00  0.00     0.214 HD
ENDBRANCH  33  34
BRANCH  33  36
HETATM   36  O3  UNL     1      12.967  13.710  -1.667  1.00  0.00    -0.331 OA
BRANCH  36  37
HETATM   37  C16 UNL     1      12.738  13.677  -3.020  1.00  0.00     0.159 C 
HETATM   38  C17 UNL     1      14.001  14.232  -3.703  1.00  0.00     0.203 C 
HETATM   39  O4  UNL     1      13.926  13.673  -4.953  1.00  0.00    -0.358 OA
HETATM   40  C18 UNL     1      13.484  12.382  -4.835  1.00  0.00     0.266 C 
HETATM   41  O5  UNL     1      14.461  11.422  -4.885  1.00  0.00    -0.361 OA
HETATM   42  C21 UNL     1      12.767  12.252  -3.511  1.00  0.00     0.074 C 
HETATM   43  C19 UNL     1      14.859  11.126  -3.605  1.00  0.00     0.171 C 
HETATM   44  C20 UNL     1      13.698  11.424  -2.687  1.00  0.00     0.038 C 
ENDBRANCH  36  37
ENDBRANCH  33  36
ENDBRANCH  30  33
ENDBRANCH   1  30
TORSDOF 16
ENDMDL
