MODEL 10
REMARK VINA RESULT: -9.005218558      2.322      4.397
REMARK  16 active torsions:
REMARK  status: ('A' for Active; 'I' for Inactive)
REMARK    1  A    between atoms: C2_2  and  C4_4 
REMARK    2  A    between atoms: C4_4  and  N1_5 
REMARK    3  A    between atoms: N1_5  and  C5_6 
REMARK    4  A    between atoms: N1_5  and  S1_33 
REMARK    5  A    between atoms: C5_6  and  C6_7 
REMARK    6  A    between atoms: C6_7  and  O1_8 
REMARK    7  A    between atoms: C6_7  and  C7_10 
REMARK    8  A    between atoms: C7_10  and  C8_11 
REMARK    9  A    between atoms: C7_10  and  N2_18 
REMARK   10  A    between atoms: C8_11  and  C9_12 
REMARK   11  A    between atoms: N2_18  and  C15_21 
REMARK   12  A    between atoms: C15_21  and  O2_22 
REMARK   13  A    between atoms: C15_21  and  O3_24 
REMARK   14  A    between atoms: O3_24  and  C16_25 
REMARK   15  A    between atoms: S1_33  and  C22_36 
REMARK   16  A    between atoms: C25_39  and  C26_40 
ROOT
HETATM    1  C7  UNL     1       8.685  17.131   1.226  1.00  0.00     0.229 C 
ENDROOT
BRANCH   1   2
HETATM    2  C6  UNL     1      10.110  17.366   0.875  1.00  0.00     0.189 C 
BRANCH   2   3
HETATM    3  C5  UNL     1      10.443  17.097  -0.603  1.00  0.00     0.115 C 
BRANCH   3   4
HETATM    4  N1  UNL     1      10.480  15.772  -0.998  1.00  0.00    -0.263 N 
BRANCH   4   5
HETATM    5  C4  UNL     1      11.132  14.890  -0.123  1.00  0.00     0.085 C 
BRANCH   5   6
HETATM    6  C2  UNL     1      12.450  14.332  -0.528  1.00  0.00     0.017 C 
HETATM    7  C1  UNL     1      12.661  12.870  -0.227  1.00  0.00     0.015 C 
HETATM    8  C3  UNL     1      13.554  15.063   0.255  1.00  0.00     0.015 C 
ENDBRANCH   5   6
ENDBRANCH   4   5
BRANCH   4   9
HETATM    9  S1  UNL     1       9.353  15.159  -2.076  1.00  0.00     0.267 S 
HETATM   10  O6  UNL     1       8.585  14.040  -1.424  1.00  0.00    -0.200 OA
HETATM   11  O7  UNL     1       8.311  16.252  -2.314  1.00  0.00    -0.200 OA
BRANCH   9  12
HETATM   12  C22 UNL     1       9.957  14.559  -3.578  1.00  0.00     0.080 A 
HETATM   13  C23 UNL     1      11.311  14.532  -3.894  1.00  0.00     0.026 A 
HETATM   14  C24 UNL     1      11.754  14.033  -5.103  1.00  0.00     0.020 A 
HETATM   15  C25 UNL     1      10.883  13.543  -6.045  1.00  0.00     0.040 A 
HETATM   16  C27 UNL     1       9.537  13.564  -5.744  1.00  0.00     0.020 A 
HETATM   17  C28 UNL     1       9.089  14.065  -4.529  1.00  0.00     0.026 A 
BRANCH  15  18
HETATM   18  C26 UNL     1      11.356  13.011  -7.336  1.00  0.00     0.209 C 
HETATM   19  O8  UNL     1      11.019  11.857  -7.694  1.00  0.00    -0.644 OA
HETATM   20  O9  UNL     1      12.160  13.746  -8.168  1.00  0.00    -0.644 OA
ENDBRANCH  15  18
ENDBRANCH   9  12
ENDBRANCH   4   9
ENDBRANCH   3   4
ENDBRANCH   2   3
BRANCH   2  21
HETATM   21  O1  UNL     1      10.286  18.784   0.943  1.00  0.00    -0.388 OA
ATOM     22  H1  UNL     1      10.916  18.924   0.247  1.00  0.00     0.210 HD
ENDBRANCH   2  21
ENDBRANCH   1   2
BRANCH   1  23
HETATM   23  C8  UNL     1       7.698  17.996   0.547  1.00  0.00     0.074 C 
BRANCH  23  24
HETATM   24  C9  UNL     1       6.288  17.790   0.735  1.00  0.00    -0.056 A 
HETATM   25  C10 UNL     1       5.643  16.781   0.052  1.00  0.00     0.007 A 
HETATM   26  C11 UNL     1       4.270  16.549   0.222  1.00  0.00     0.001 A 
HETATM   27  C12 UNL     1       3.533  17.328   1.082  1.00  0.00     0.000 A 
HETATM   28  C13 UNL     1       4.148  18.327   1.766  1.00  0.00     0.001 A 
HETATM   29  C14 UNL     1       5.500  18.535   1.581  1.00  0.00     0.007 A 
ENDBRANCH  23  24
ENDBRANCH   1  23
BRANCH   1  30
HETATM   30  N2  UNL     1       8.394  17.073   2.638  1.00  0.00    -0.018 N 
ATOM     31  H22 UNL     1       9.202  17.377   3.183  1.00  0.00     0.283 HD
ATOM     32  H21 UNL     1       7.728  17.801   2.898  1.00  0.00     0.283 HD
BRANCH  30  33
HETATM   33  C15 UNL     1       7.934  15.776   3.089  1.00  0.00     0.467 C 
BRANCH  33  34
HETATM   34  O2  UNL     1       9.007  14.855   2.948  1.00  0.00    -0.350 OA
ATOM     35  H2  UNL     1       8.985  14.511   2.062  1.00  0.00     0.214 HD
ENDBRANCH  33  34
BRANCH  33  36
HETATM   36  O3  UNL     1       7.649  15.755   4.471  1.00  0.00    -0.331 OA
BRANCH  36  37
HETATM   37  C16 UNL     1       8.099  16.871   5.131  1.00  0.00     0.159 C 
HETATM   38  C17 UNL     1       6.950  17.352   6.034  1.00  0.00     0.203 C 
HETATM   39  O4  UNL     1       7.616  18.058   7.003  1.00  0.00    -0.358 OA
HETATM   40  C18 UNL     1       8.768  17.390   7.324  1.00  0.00     0.266 C 
HETATM   41  O5  UNL     1       8.707  16.630   8.464  1.00  0.00    -0.361 OA
HETATM   42  C21 UNL     1       9.117  16.478   6.171  1.00  0.00     0.074 C 
HETATM   43  C19 UNL     1       8.367  15.344   8.121  1.00  0.00     0.171 C 
HETATM   44  C20 UNL     1       8.832  15.112   6.704  1.00  0.00     0.038 C 
ENDBRANCH  36  37
ENDBRANCH  33  36
ENDBRANCH  30  33
ENDBRANCH   1  30
TORSDOF 16
ENDMDL
