MODEL 9
REMARK VINA RESULT: -9.058852323      2.922     10.742
REMARK  16 active torsions:
REMARK  status: ('A' for Active; 'I' for Inactive)
REMARK    1  A    between atoms: C2_2  and  C4_4 
REMARK    2  A    between atoms: C4_4  and  N1_5 
REMARK    3  A    between atoms: N1_5  and  C5_6 
REMARK    4  A    between atoms: N1_5  and  S1_33 
REMARK    5  A    between atoms: C5_6  and  C6_7 
REMARK    6  A    between atoms: C6_7  and  O1_8 
REMARK    7  A    between atoms: C6_7  and  C7_10 
REMARK    8  A    between atoms: C7_10  and  C8_11 
REMARK    9  A    between atoms: C7_10  and  N2_18 
REMARK   10  A    between atoms: C8_11  and  C9_12 
REMARK   11  A    between atoms: N2_18  and  C15_21 
REMARK   12  A    between atoms: C15_21  and  O2_22 
REMARK   13  A    between atoms: C15_21  and  O3_24 
REMARK   14  A    between atoms: O3_24  and  C16_25 
REMARK   15  A    between atoms: S1_33  and  C22_36 
REMARK   16  A    between atoms: C25_39  and  C26_40 
ROOT
HETATM    1  C7  UNL     1      10.135  15.955  -2.018  1.00  0.00     0.229 C 
ENDROOT
BRANCH   1   2
HETATM    2  C6  UNL     1       9.860  17.217  -1.282  1.00  0.00     0.189 C 
BRANCH   2   3
HETATM    3  C5  UNL     1       9.865  17.061   0.249  1.00  0.00     0.115 C 
BRANCH   3   4
HETATM    4  N1  UNL     1       8.714  16.553   0.823  1.00  0.00    -0.263 N 
BRANCH   4   5
HETATM    5  C4  UNL     1       7.525  16.775   0.114  1.00  0.00     0.085 C 
BRANCH   5   6
HETATM    6  C2  UNL     1       6.336  17.270   0.857  1.00  0.00     0.017 C 
HETATM    7  C1  UNL     1       5.004  16.743   0.387  1.00  0.00     0.015 C 
HETATM    8  C3  UNL     1       6.245  18.796   0.678  1.00  0.00     0.015 C 
ENDBRANCH   5   6
ENDBRANCH   4   5
BRANCH   4   9
HETATM    9  S1  UNL     1       8.782  15.282   1.914  1.00  0.00     0.267 S 
HETATM   10  O6  UNL     1       7.638  14.336   1.661  1.00  0.00    -0.200 OA
HETATM   11  O7  UNL     1      10.034  14.468   1.586  1.00  0.00    -0.200 OA
BRANCH   9  12
HETATM   12  C22 UNL     1       8.746  15.691   3.591  1.00  0.00     0.080 A 
HETATM   13  C23 UNL     1       8.146  16.849   4.076  1.00  0.00     0.026 A 
HETATM   14  C24 UNL     1       8.130  17.134   5.426  1.00  0.00     0.020 A 
HETATM   15  C25 UNL     1       8.702  16.294   6.349  1.00  0.00     0.040 A 
HETATM   16  C27 UNL     1       9.300  15.143   5.882  1.00  0.00     0.020 A 
HETATM   17  C28 UNL     1       9.317  14.852   4.524  1.00  0.00     0.026 A 
BRANCH  15  18
HETATM   18  C26 UNL     1       8.685  16.599   7.792  1.00  0.00     0.209 C 
HETATM   19  O8  UNL     1       8.228  17.698   8.189  1.00  0.00    -0.644 OA
HETATM   20  O9  UNL     1       9.156  15.711   8.723  1.00  0.00    -0.644 OA
ENDBRANCH  15  18
ENDBRANCH   9  12
ENDBRANCH   4   9
ENDBRANCH   3   4
ENDBRANCH   2   3
BRANCH   2  21
HETATM   21  O1  UNL     1      11.020  18.030  -1.481  1.00  0.00    -0.388 OA
ATOM     22  H1  UNL     1      11.072  18.046  -2.429  1.00  0.00     0.210 HD
ENDBRANCH   2  21
ENDBRANCH   1   2
BRANCH   1  23
HETATM   23  C8  UNL     1       9.090  15.516  -2.966  1.00  0.00     0.074 C 
BRANCH  23  24
HETATM   24  C9  UNL     1       9.232  15.750  -4.377  1.00  0.00    -0.056 A 
HETATM   25  C10 UNL     1      10.447  15.534  -4.991  1.00  0.00     0.007 A 
HETATM   26  C11 UNL     1      10.615  15.743  -6.368  1.00  0.00     0.001 A 
HETATM   27  C12 UNL     1       9.561  16.171  -7.141  1.00  0.00     0.000 A 
HETATM   28  C13 UNL     1       8.356  16.389  -6.557  1.00  0.00     0.001 A 
HETATM   29  C14 UNL     1       8.216  16.176  -5.201  1.00  0.00     0.007 A 
ENDBRANCH  23  24
ENDBRANCH   1  23
BRANCH   1  30
HETATM   30  N2  UNL     1      10.555  14.840  -1.204  1.00  0.00    -0.018 N 
ATOM     31  H22 UNL     1      10.417  15.046  -0.215  1.00  0.00     0.283 HD
ATOM     32  H21 UNL     1       9.910  14.056  -1.308  1.00  0.00     0.283 HD
BRANCH  30  33
HETATM   33  C15 UNL     1      11.918  14.415  -1.451  1.00  0.00     0.467 C 
BRANCH  33  34
HETATM   34  O2  UNL     1      12.441  13.890  -0.239  1.00  0.00    -0.350 OA
ATOM     35  H2  UNL     1      12.065  13.028  -0.105  1.00  0.00     0.214 HD
ENDBRANCH  33  34
BRANCH  33  36
HETATM   36  O3  UNL     1      11.989  13.329  -2.349  1.00  0.00    -0.331 OA
BRANCH  36  37
HETATM   37  C16 UNL     1      13.145  12.600  -2.222  1.00  0.00     0.159 C 
HETATM   38  C17 UNL     1      12.776  11.127  -2.477  1.00  0.00     0.203 C 
HETATM   39  O4  UNL     1      13.976  10.591  -2.871  1.00  0.00    -0.358 OA
HETATM   40  C18 UNL     1      14.618  11.490  -3.679  1.00  0.00     0.266 C 
HETATM   41  O5  UNL     1      14.509  11.251  -5.025  1.00  0.00    -0.361 OA
HETATM   42  C21 UNL     1      14.050  12.862  -3.399  1.00  0.00     0.074 C 
HETATM   43  C19 UNL     1      13.445  11.967  -5.517  1.00  0.00     0.171 C 
HETATM   44  C20 UNL     1      13.253  13.169  -4.625  1.00  0.00     0.038 C 
ENDBRANCH  36  37
ENDBRANCH  33  36
ENDBRANCH  30  33
ENDBRANCH   1  30
TORSDOF 16
ENDMDL
