MODEL 19
REMARK VINA RESULT: -8.800388423      2.218      4.218
REMARK  16 active torsions:
REMARK  status: ('A' for Active; 'I' for Inactive)
REMARK    1  A    between atoms: C2_2  and  C4_4 
REMARK    2  A    between atoms: C4_4  and  N1_5 
REMARK    3  A    between atoms: N1_5  and  C5_6 
REMARK    4  A    between atoms: N1_5  and  S1_33 
REMARK    5  A    between atoms: C5_6  and  C6_7 
REMARK    6  A    between atoms: C6_7  and  O1_8 
REMARK    7  A    between atoms: C6_7  and  C7_10 
REMARK    8  A    between atoms: C7_10  and  C8_11 
REMARK    9  A    between atoms: C7_10  and  N2_18 
REMARK   10  A    between atoms: C8_11  and  C9_12 
REMARK   11  A    between atoms: N2_18  and  C15_21 
REMARK   12  A    between atoms: C15_21  and  O2_22 
REMARK   13  A    between atoms: C15_21  and  O3_24 
REMARK   14  A    between atoms: O3_24  and  C16_25 
REMARK   15  A    between atoms: S1_33  and  C22_36 
REMARK   16  A    between atoms: C25_39  and  C26_40 
ROOT
HETATM    1  C7  UNL     1       8.466  16.612   2.105  1.00  0.00     0.229 C 
ENDROOT
BRANCH   1   2
HETATM    2  C6  UNL     1       9.633  15.807   1.659  1.00  0.00     0.189 C 
BRANCH   2   3
HETATM    3  C5  UNL     1       9.325  14.852   0.492  1.00  0.00     0.115 C 
BRANCH   3   4
HETATM    4  N1  UNL     1      10.219  14.854  -0.564  1.00  0.00    -0.263 N 
BRANCH   4   5
HETATM    5  C4  UNL     1      11.090  13.757  -0.631  1.00  0.00     0.085 C 
BRANCH   5   6
HETATM    6  C2  UNL     1      12.358  13.808   0.145  1.00  0.00     0.017 C 
HETATM    7  C1  UNL     1      13.260  14.979  -0.152  1.00  0.00     0.015 C 
HETATM    8  C3  UNL     1      13.195  12.564  -0.200  1.00  0.00     0.015 C 
ENDBRANCH   5   6
ENDBRANCH   4   5
BRANCH   4   9
HETATM    9  S1  UNL     1       9.905  15.728  -1.959  1.00  0.00     0.267 S 
HETATM   10  O6  UNL     1       8.442  16.079  -2.019  1.00  0.00    -0.200 OA
HETATM   11  O7  UNL     1      10.619  17.073  -1.823  1.00  0.00    -0.200 OA
BRANCH   9  12
HETATM   12  C22 UNL     1      10.312  14.974  -3.458  1.00  0.00     0.080 A 
HETATM   13  C23 UNL     1       9.366  14.389  -4.293  1.00  0.00     0.026 A 
HETATM   14  C24 UNL     1       9.732  13.807  -5.490  1.00  0.00     0.020 A 
HETATM   15  C25 UNL     1      11.039  13.776  -5.910  1.00  0.00     0.040 A 
HETATM   16  C27 UNL     1      11.987  14.353  -5.091  1.00  0.00     0.020 A 
HETATM   17  C28 UNL     1      11.622  14.941  -3.887  1.00  0.00     0.026 A 
BRANCH  15  18
HETATM   18  C26 UNL     1      11.429  13.153  -7.188  1.00  0.00     0.209 C 
HETATM   19  O8  UNL     1      11.044  11.989  -7.455  1.00  0.00    -0.644 OA
HETATM   20  O9  UNL     1      12.208  13.812  -8.103  1.00  0.00    -0.644 OA
ENDBRANCH  15  18
ENDBRANCH   9  12
ENDBRANCH   4   9
ENDBRANCH   3   4
ENDBRANCH   2   3
BRANCH   2  21
HETATM   21  O1  UNL     1      10.515  16.740   1.026  1.00  0.00    -0.388 OA
ATOM     22  H1  UNL     1      11.022  16.162   0.469  1.00  0.00     0.210 HD
ENDBRANCH   2  21
ENDBRANCH   1   2
BRANCH   1  23
HETATM   23  C8  UNL     1       7.840  17.471   1.080  1.00  0.00     0.074 C 
BRANCH  23  24
HETATM   24  C9  UNL     1       6.412  17.506   0.922  1.00  0.00    -0.056 A 
HETATM   25  C10 UNL     1       5.787  16.586   0.107  1.00  0.00     0.007 A 
HETATM   26  C11 UNL     1       4.394  16.588  -0.060  1.00  0.00     0.001 A 
HETATM   27  C12 UNL     1       3.616  17.514   0.594  1.00  0.00     0.000 A 
HETATM   28  C13 UNL     1       4.210  18.428   1.402  1.00  0.00     0.001 A 
HETATM   29  C14 UNL     1       5.582  18.405   1.550  1.00  0.00     0.007 A 
ENDBRANCH  23  24
ENDBRANCH   1  23
BRANCH   1  30
HETATM   30  N2  UNL     1       8.659  17.365   3.321  1.00  0.00    -0.018 N 
ATOM     31  H22 UNL     1       9.650  17.418   3.556  1.00  0.00     0.283 HD
ATOM     32  H21 UNL     1       8.466  18.354   3.165  1.00  0.00     0.283 HD
BRANCH  30  33
HETATM   33  C15 UNL     1       7.894  16.866   4.446  1.00  0.00     0.467 C 
BRANCH  33  34
HETATM   34  O2  UNL     1       6.775  16.155   3.936  1.00  0.00    -0.350 OA
ATOM     35  H2  UNL     1       6.520  15.506   4.581  1.00  0.00     0.214 HD
ENDBRANCH  33  34
BRANCH  33  36
HETATM   36  O3  UNL     1       8.600  15.898   5.191  1.00  0.00    -0.331 OA
BRANCH  36  37
HETATM   37  C16 UNL     1       8.948  16.332   6.446  1.00  0.00     0.159 C 
HETATM   38  C17 UNL     1       8.201  17.656   6.686  1.00  0.00     0.203 C 
HETATM   39  O4  UNL     1       8.150  17.718   8.055  1.00  0.00    -0.358 OA
HETATM   40  C18 UNL     1       7.899  16.465   8.546  1.00  0.00     0.266 C 
HETATM   41  O5  UNL     1       6.595  16.222   8.893  1.00  0.00    -0.361 OA
HETATM   42  C21 UNL     1       8.298  15.460   7.490  1.00  0.00     0.074 C 
HETATM   43  C19 UNL     1       5.952  15.647   7.825  1.00  0.00     0.171 C 
HETATM   44  C20 UNL     1       6.991  14.928   7.000  1.00  0.00     0.038 C 
ENDBRANCH  36  37
ENDBRANCH  33  36
ENDBRANCH  30  33
ENDBRANCH   1  30
TORSDOF 16
ENDMDL
