MODEL 15
REMARK VINA RESULT: -8.860237802      2.313      4.514
REMARK  16 active torsions:
REMARK  status: ('A' for Active; 'I' for Inactive)
REMARK    1  A    between atoms: C2_2  and  C4_4 
REMARK    2  A    between atoms: C4_4  and  N1_5 
REMARK    3  A    between atoms: N1_5  and  C5_6 
REMARK    4  A    between atoms: N1_5  and  S1_33 
REMARK    5  A    between atoms: C5_6  and  C6_7 
REMARK    6  A    between atoms: C6_7  and  O1_8 
REMARK    7  A    between atoms: C6_7  and  C7_10 
REMARK    8  A    between atoms: C7_10  and  C8_11 
REMARK    9  A    between atoms: C7_10  and  N2_18 
REMARK   10  A    between atoms: C8_11  and  C9_12 
REMARK   11  A    between atoms: N2_18  and  C15_21 
REMARK   12  A    between atoms: C15_21  and  O2_22 
REMARK   13  A    between atoms: C15_21  and  O3_24 
REMARK   14  A    between atoms: O3_24  and  C16_25 
REMARK   15  A    between atoms: S1_33  and  C22_36 
REMARK   16  A    between atoms: C25_39  and  C26_40 
ROOT
HETATM    1  C7  UNL     1       8.629  17.320   1.572  1.00  0.00     0.229 C 
ENDROOT
BRANCH   1   2
HETATM    2  C6  UNL     1      10.050  17.487   1.169  1.00  0.00     0.189 C 
BRANCH   2   3
HETATM    3  C5  UNL     1      10.353  17.017  -0.264  1.00  0.00     0.115 C 
BRANCH   3   4
HETATM    4  N1  UNL     1      10.304  15.654  -0.493  1.00  0.00    -0.263 N 
BRANCH   4   5
HETATM    5  C4  UNL     1      10.790  14.841   0.542  1.00  0.00     0.085 C 
BRANCH   5   6
HETATM    6  C2  UNL     1      12.149  14.253   0.405  1.00  0.00     0.017 C 
HETATM    7  C1  UNL     1      13.152  15.092  -0.346  1.00  0.00     0.015 C 
HETATM    8  C3  UNL     1      12.040  12.947  -0.401  1.00  0.00     0.015 C 
ENDBRANCH   5   6
ENDBRANCH   4   5
BRANCH   4   9
HETATM    9  S1  UNL     1       9.226  15.001  -1.597  1.00  0.00     0.267 S 
HETATM   10  O6  UNL     1       8.620  13.743  -1.031  1.00  0.00    -0.200 OA
HETATM   11  O7  UNL     1       8.052  15.973  -1.716  1.00  0.00    -0.200 OA
BRANCH   9  12
HETATM   12  C22 UNL     1       9.850  14.610  -3.158  1.00  0.00     0.080 A 
HETATM   13  C23 UNL     1       9.054  14.139  -4.197  1.00  0.00     0.026 A 
HETATM   14  C24 UNL     1       9.592  13.849  -5.435  1.00  0.00     0.020 A 
HETATM   15  C25 UNL     1      10.930  14.009  -5.698  1.00  0.00     0.040 A 
HETATM   16  C27 UNL     1      11.730  14.475  -4.676  1.00  0.00     0.020 A 
HETATM   17  C28 UNL     1      11.193  14.770  -3.430  1.00  0.00     0.026 A 
BRANCH  15  18
HETATM   18  C26 UNL     1      11.504  13.698  -7.020  1.00  0.00     0.209 C 
HETATM   19  O8  UNL     1      10.748  13.585  -8.015  1.00  0.00    -0.644 OA
HETATM   20  O9  UNL     1      12.852  13.527  -7.199  1.00  0.00    -0.644 OA
ENDBRANCH  15  18
ENDBRANCH   9  12
ENDBRANCH   4   9
ENDBRANCH   3   4
ENDBRANCH   2   3
BRANCH   2  21
HETATM   21  O1  UNL     1      10.242  18.900   1.042  1.00  0.00    -0.388 OA
ATOM     22  H1  UNL     1      10.265  19.163   1.954  1.00  0.00     0.210 HD
ENDBRANCH   2  21
ENDBRANCH   1   2
BRANCH   1  23
HETATM   23  C8  UNL     1       7.645  18.138   0.835  1.00  0.00     0.074 C 
BRANCH  23  24
HETATM   24  C9  UNL     1       6.237  17.867   0.940  1.00  0.00    -0.056 A 
HETATM   25  C10 UNL     1       5.449  18.632   1.774  1.00  0.00     0.007 A 
HETATM   26  C11 UNL     1       4.071  18.399   1.890  1.00  0.00     0.001 A 
HETATM   27  C12 UNL     1       3.471  17.395   1.167  1.00  0.00     0.000 A 
HETATM   28  C13 UNL     1       4.227  16.630   0.340  1.00  0.00     0.001 A 
HETATM   29  C14 UNL     1       5.581  16.879   0.243  1.00  0.00     0.007 A 
ENDBRANCH  23  24
ENDBRANCH   1  23
BRANCH   1  30
HETATM   30  N2  UNL     1       8.371  17.405   2.990  1.00  0.00    -0.018 N 
ATOM     31  H22 UNL     1       9.224  17.648   3.495  1.00  0.00     0.283 HD
ATOM     32  H21 UNL     1       7.805  18.226   3.203  1.00  0.00     0.283 HD
BRANCH  30  33
HETATM   33  C15 UNL     1       7.770  16.212   3.549  1.00  0.00     0.467 C 
BRANCH  33  34
HETATM   34  O2  UNL     1       8.104  15.116   2.708  1.00  0.00    -0.350 OA
ATOM     35  H2  UNL     1       7.906  14.314   3.178  1.00  0.00     0.214 HD
ENDBRANCH  33  34
BRANCH  33  36
HETATM   36  O3  UNL     1       8.325  15.862   4.797  1.00  0.00    -0.331 OA
BRANCH  36  37
HETATM   37  C16 UNL     1       7.699  16.472   5.855  1.00  0.00     0.159 C 
HETATM   38  C17 UNL     1       7.012  15.362   6.671  1.00  0.00     0.203 C 
HETATM   39  O4  UNL     1       6.911  15.934   7.914  1.00  0.00    -0.358 OA
HETATM   40  C18 UNL     1       8.057  16.636   8.173  1.00  0.00     0.266 C 
HETATM   41  O5  UNL     1       8.971  15.993   8.968  1.00  0.00    -0.361 OA
HETATM   42  C21 UNL     1       8.723  16.950   6.853  1.00  0.00     0.074 C 
HETATM   43  C19 UNL     1       9.869  15.332   8.166  1.00  0.00     0.171 C 
HETATM   44  C20 UNL     1       9.925  16.063   6.847  1.00  0.00     0.038 C 
ENDBRANCH  36  37
ENDBRANCH  33  36
ENDBRANCH  30  33
ENDBRANCH   1  30
TORSDOF 16
ENDMDL
