MODEL 3
REMARK VINA RESULT: -6.288148412      1.586      2.463
REMARK  2 active torsions:
REMARK  status: ('A' for Active; 'I' for Inactive)
REMARK    1  A    between atoms: C1_2  and  C2_4 
REMARK    2  A    between atoms: C5_7  and  C6_8 
ROOT
HETATM    1  C2  UNL     1      11.009  13.022  47.407  1.00  0.00     0.056 A 
HETATM    2  C3  UNL     1      11.707  11.924  46.965  1.00  0.00     0.022 A 
HETATM    3  C4  UNL     1      12.033  11.784  45.628  1.00  0.00     0.031 A 
HETATM    4  C5  UNL     1      11.672  12.730  44.715  1.00  0.00     0.042 A 
HETATM    5  N1  UNL     1      10.981  13.813  45.163  1.00  0.00    -0.364 N 
ATOM      6  H1  UNL     1      10.699  14.535  44.499  1.00  0.00     0.165 HD
HETATM    7  C12 UNL     1      10.668  13.950  46.443  1.00  0.00     0.106 A 
ENDROOT
BRANCH   4   8
HETATM    8  C6  UNL     1      12.002  12.608  43.302  1.00  0.00    -0.009 A 
HETATM    9  C7  UNL     1      12.845  11.583  42.858  1.00  0.00     0.013 A 
HETATM   10  C8  UNL     1      13.194  11.414  41.542  1.00  0.00     0.001 A 
HETATM   11  C9  UNL     1      12.682  12.303  40.623  1.00  0.00     0.000 A 
HETATM   12  C10 UNL     1      11.847  13.334  40.987  1.00  0.00     0.001 A 
HETATM   13  C11 UNL     1      11.523  13.462  42.346  1.00  0.00     0.013 A 
ENDBRANCH   4   8
BRANCH   1  14
HETATM   14  C1  UNL     1      10.644  13.210  48.806  1.00  0.00     0.210 C 
HETATM   15  O1  UNL     1      10.781  14.337  49.343  1.00  0.00    -0.644 OA
HETATM   16  O2  UNL     1      10.143  12.186  49.592  1.00  0.00    -0.644 OA
ENDBRANCH   1  14
TORSDOF 2
ENDMDL
