MODEL 8
REMARK VINA RESULT: -6.108722313      3.918      5.903
REMARK  2 active torsions:
REMARK  status: ('A' for Active; 'I' for Inactive)
REMARK    1  A    between atoms: C1_2  and  C2_4 
REMARK    2  A    between atoms: C5_7  and  C6_8 
ROOT
HETATM    1  C2  UNL     1      10.474  14.894  45.603  1.00  0.00     0.056 A 
HETATM    2  C3  UNL     1      11.602  14.166  45.309  1.00  0.00     0.022 A 
HETATM    3  C4  UNL     1      11.794  12.908  45.853  1.00  0.00     0.031 A 
HETATM    4  C5  UNL     1      10.871  12.358  46.692  1.00  0.00     0.042 A 
HETATM    5  N1  UNL     1       9.757  13.088  46.977  1.00  0.00    -0.364 N 
ATOM      6  H1  UNL     1       9.052  12.699  47.603  1.00  0.00     0.165 HD
HETATM    7  C12 UNL     1       9.571  14.292  46.458  1.00  0.00     0.106 A 
ENDROOT
BRANCH   4   8
HETATM    8  C6  UNL     1      11.047  11.037  47.278  1.00  0.00    -0.009 A 
HETATM    9  C7  UNL     1      11.118   9.903  46.460  1.00  0.00     0.013 A 
HETATM   10  C8  UNL     1      11.283   8.633  46.949  1.00  0.00     0.001 A 
HETATM   11  C9  UNL     1      11.382   8.479  48.314  1.00  0.00     0.000 A 
HETATM   12  C10 UNL     1      11.321   9.546  49.179  1.00  0.00     0.001 A 
HETATM   13  C11 UNL     1      11.151  10.825  48.627  1.00  0.00     0.013 A 
ENDBRANCH   4   8
BRANCH   1  14
HETATM   14  C1  UNL     1      10.232  16.222  45.054  1.00  0.00     0.210 C 
HETATM   15  O1  UNL     1      10.935  17.193  45.428  1.00  0.00    -0.644 OA
HETATM   16  O2  UNL     1       9.242  16.476  44.120  1.00  0.00    -0.644 OA
ENDBRANCH   1  14
TORSDOF 2
ENDMDL
