MODEL 4
REMARK VINA RESULT: -6.287559405      1.575      2.141
REMARK  2 active torsions:
REMARK  status: ('A' for Active; 'I' for Inactive)
REMARK    1  A    between atoms: C1_2  and  C2_4 
REMARK    2  A    between atoms: C5_7  and  C6_8 
ROOT
HETATM    1  C2  UNL     1      11.011  13.008  47.419  1.00  0.00     0.056 A 
HETATM    2  C3  UNL     1      11.693  11.896  46.986  1.00  0.00     0.022 A 
HETATM    3  C4  UNL     1      12.030  11.748  45.651  1.00  0.00     0.031 A 
HETATM    4  C5  UNL     1      11.696  12.699  44.733  1.00  0.00     0.042 A 
HETATM    5  N1  UNL     1      11.020  13.796  45.173  1.00  0.00    -0.364 N 
ATOM      6  H1  UNL     1      10.758  14.522  44.506  1.00  0.00     0.165 HD
HETATM    7  C12 UNL     1      10.697  13.941  46.450  1.00  0.00     0.106 A 
ENDROOT
BRANCH   4   8
HETATM    8  C6  UNL     1      12.037  12.569  43.325  1.00  0.00    -0.009 A 
HETATM    9  C7  UNL     1      11.535  13.480  42.387  1.00  0.00     0.013 A 
HETATM   10  C8  UNL     1      11.819  13.412  41.047  1.00  0.00     0.001 A 
HETATM   11  C9  UNL     1      12.640  12.394  40.616  1.00  0.00     0.000 A 
HETATM   12  C10 UNL     1      13.171  11.463  41.479  1.00  0.00     0.001 A 
HETATM   13  C11 UNL     1      12.848  11.578  42.840  1.00  0.00     0.013 A 
ENDBRANCH   4   8
BRANCH   1  14
HETATM   14  C1  UNL     1      10.636  13.205  48.814  1.00  0.00     0.210 C 
HETATM   15  O1  UNL     1      10.782  14.332  49.348  1.00  0.00    -0.644 OA
HETATM   16  O2  UNL     1      10.115  12.190  49.598  1.00  0.00    -0.644 OA
ENDBRANCH   1  14
TORSDOF 2
ENDMDL
