MODEL 15
REMARK VINA RESULT: -5.612022748      1.617      2.081
REMARK  2 active torsions:
REMARK  status: ('A' for Active; 'I' for Inactive)
REMARK    1  A    between atoms: C1_2  and  C2_4 
REMARK    2  A    between atoms: C5_7  and  C6_8 
ROOT
HETATM    1  C2  UNL     1      10.950  12.887  47.177  1.00  0.00     0.056 A 
HETATM    2  C3  UNL     1      11.585  11.818  46.592  1.00  0.00     0.022 A 
HETATM    3  C4  UNL     1      11.842  11.805  45.232  1.00  0.00     0.031 A 
HETATM    4  C5  UNL     1      11.473  12.850  44.438  1.00  0.00     0.042 A 
HETATM    5  N1  UNL     1      10.844  13.904  45.027  1.00  0.00    -0.364 N 
ATOM      6  H1  UNL     1      10.558  14.698  44.454  1.00  0.00     0.165 HD
HETATM    7  C12 UNL     1      10.598  13.920  46.328  1.00  0.00     0.106 A 
ENDROOT
BRANCH   4   8
HETATM    8  C6  UNL     1      11.730  12.862  43.005  1.00  0.00    -0.009 A 
HETATM    9  C7  UNL     1      11.649  14.058  42.281  1.00  0.00     0.013 A 
HETATM   10  C8  UNL     1      11.879  14.136  40.932  1.00  0.00     0.001 A 
HETATM   11  C9  UNL     1      12.207  12.974  40.268  1.00  0.00     0.000 A 
HETATM   12  C10 UNL     1      12.305  11.763  40.913  1.00  0.00     0.001 A 
HETATM   13  C11 UNL     1      12.059  11.739  42.294  1.00  0.00     0.013 A 
ENDBRANCH   4   8
BRANCH   1  14
HETATM   14  C1  UNL     1      10.660  12.944  48.604  1.00  0.00     0.210 C 
HETATM   15  O1  UNL     1      10.349  11.895  49.221  1.00  0.00    -0.644 OA
HETATM   16  O2  UNL     1      10.708  14.121  49.331  1.00  0.00    -0.644 OA
ENDBRANCH   1  14
TORSDOF 2
ENDMDL
