MODEL 7
REMARK VINA RESULT: -6.200671833      2.789      3.656
REMARK  2 active torsions:
REMARK  status: ('A' for Active; 'I' for Inactive)
REMARK    1  A    between atoms: C1_2  and  C2_4 
REMARK    2  A    between atoms: C5_7  and  C6_8 
ROOT
HETATM    1  C2  UNL     1      11.196   9.739  47.476  1.00  0.00     0.056 A 
HETATM    2  C3  UNL     1      10.848  10.722  48.372  1.00  0.00     0.022 A 
HETATM    3  C4  UNL     1      10.713  12.037  47.962  1.00  0.00     0.031 A 
HETATM    4  C5  UNL     1      10.920  12.391  46.662  1.00  0.00     0.042 A 
HETATM    5  N1  UNL     1      11.264  11.410  45.783  1.00  0.00    -0.364 N 
ATOM      6  H1  UNL     1      11.425  11.650  44.805  1.00  0.00     0.165 HD
HETATM    7  C12 UNL     1      11.394  10.150  46.172  1.00  0.00     0.106 A 
ENDROOT
BRANCH   4   8
HETATM    8  C6  UNL     1      10.785  13.766  46.204  1.00  0.00    -0.009 A 
HETATM    9  C7  UNL     1      11.707  14.305  45.298  1.00  0.00     0.013 A 
HETATM   10  C8  UNL     1      11.636  15.591  44.828  1.00  0.00     0.001 A 
HETATM   11  C9  UNL     1      10.601  16.382  45.277  1.00  0.00     0.000 A 
HETATM   12  C10 UNL     1       9.658  15.921  46.167  1.00  0.00     0.001 A 
HETATM   13  C11 UNL     1       9.778  14.597  46.616  1.00  0.00     0.013 A 
ENDBRANCH   4   8
BRANCH   1  14
HETATM   14  C1  UNL     1      11.349   8.342  47.864  1.00  0.00     0.210 C 
HETATM   15  O1  UNL     1      10.575   7.473  47.393  1.00  0.00    -0.644 OA
HETATM   16  O2  UNL     1      12.326   7.914  48.746  1.00  0.00    -0.644 OA
ENDBRANCH   1  14
TORSDOF 2
ENDMDL
