MODEL 5
REMARK VINA RESULT: -6.234784916      2.777      3.508
REMARK  2 active torsions:
REMARK  status: ('A' for Active; 'I' for Inactive)
REMARK    1  A    between atoms: C1_2  and  C2_4 
REMARK    2  A    between atoms: C5_7  and  C6_8 
ROOT
HETATM    1  C2  UNL     1      11.221   9.738  47.458  1.00  0.00     0.056 A 
HETATM    2  C3  UNL     1      10.907  10.735  48.350  1.00  0.00     0.022 A 
HETATM    3  C4  UNL     1      10.788  12.049  47.930  1.00  0.00     0.031 A 
HETATM    4  C5  UNL     1      10.977  12.387  46.623  1.00  0.00     0.042 A 
HETATM    5  N1  UNL     1      11.287  11.391  45.748  1.00  0.00    -0.364 N 
ATOM      6  H1  UNL     1      11.434  11.619  44.764  1.00  0.00     0.165 HD
HETATM    7  C12 UNL     1      11.402  10.133  46.147  1.00  0.00     0.106 A 
ENDROOT
BRANCH   4   8
HETATM    8  C6  UNL     1      10.858  13.760  46.154  1.00  0.00    -0.009 A 
HETATM    9  C7  UNL     1       9.803  14.569  46.591  1.00  0.00     0.013 A 
HETATM   10  C8  UNL     1       9.635  15.868  46.187  1.00  0.00     0.001 A 
HETATM   11  C9  UNL     1      10.557  16.391  45.308  1.00  0.00     0.000 A 
HETATM   12  C10 UNL     1      11.620  15.656  44.835  1.00  0.00     0.001 A 
HETATM   13  C11 UNL     1      11.745  14.331  45.280  1.00  0.00     0.013 A 
ENDBRANCH   4   8
BRANCH   1  14
HETATM   14  C1  UNL     1      11.356   8.342  47.857  1.00  0.00     0.210 C 
HETATM   15  O1  UNL     1      10.577   7.478  47.385  1.00  0.00    -0.644 OA
HETATM   16  O2  UNL     1      12.321   7.910  48.750  1.00  0.00    -0.644 OA
ENDBRANCH   1  14
TORSDOF 2
ENDMDL
