MODEL 1
REMARK VINA RESULT: -10.349271550      0.000      0.000
REMARK  14 active torsions:
REMARK  status: ('A' for Active; 'I' for Inactive)
REMARK    1  A    between atoms: C2_2  and  C4_4 
REMARK    2  A    between atoms: C4_4  and  N1_5 
REMARK    3  A    between atoms: N1_5  and  C5_6 
REMARK    4  A    between atoms: N1_5  and  S1_31 
REMARK    5  A    between atoms: C5_6  and  C6_7 
REMARK    6  A    between atoms: C6_7  and  O1_8 
REMARK    7  A    between atoms: C6_7  and  C7_10 
REMARK    8  A    between atoms: C7_10  and  C8_11 
REMARK    9  A    between atoms: C7_10  and  N2_18 
REMARK   10  A    between atoms: C8_11  and  C9_12 
REMARK       I    between atoms: N2_18  and  C15_20 
REMARK   11  A    between atoms: C15_20  and  O3_22 
REMARK   12  A    between atoms: O3_22  and  C16_23 
REMARK   13  A    between atoms: S1_31  and  C22_34 
REMARK   14  A    between atoms: C25_37  and  C26_38 
ROOT
HETATM    1  C6  UNL     1     -19.522  -0.502   0.203  1.00  0.00     0.155 C 
ENDROOT
BRANCH   1   2
HETATM    2  C5  UNL     1     -19.263  -1.908   0.601  1.00  0.00     0.141 C 
BRANCH   2   3
HETATM    3  N1  UNL     1     -18.891  -2.826  -0.420  1.00  0.00    -0.204 NA
BRANCH   3   4
HETATM    4  C4  UNL     1     -18.781  -4.184   0.071  1.00  0.00     0.111 C 
BRANCH   4   5
HETATM    5  C2  UNL     1     -18.502  -4.391   1.497  1.00  0.00    -0.009 C 
HETATM    6  C1  UNL     1     -19.224  -5.477   2.215  1.00  0.00     0.011 C 
HETATM    7  C3  UNL     1     -16.996  -4.785   1.595  1.00  0.00     0.011 C 
ENDBRANCH   4   5
ENDBRANCH   3   4
BRANCH   3   8
HETATM    8  S1  UNL     1     -17.396  -2.408  -1.183  1.00  0.00     0.243 S 
HETATM    9  O6  UNL     1     -16.435  -1.715  -0.300  1.00  0.00    -0.206 OA
HETATM   10  O7  UNL     1     -16.764  -3.676  -1.713  1.00  0.00    -0.206 OA
BRANCH   8  11
HETATM   11  C22 UNL     1     -17.667  -1.366  -2.596  1.00  0.00     0.074 A 
HETATM   12  C23 UNL     1     -18.488  -1.768  -3.621  1.00  0.00     0.026 A 
HETATM   13  C24 UNL     1     -18.698  -0.972  -4.721  1.00  0.00     0.018 A 
HETATM   14  C25 UNL     1     -18.097   0.250  -4.835  1.00  0.00     0.029 A 
HETATM   15  C27 UNL     1     -17.273   0.660  -3.814  1.00  0.00     0.018 A 
HETATM   16  C28 UNL     1     -17.058  -0.142  -2.700  1.00  0.00     0.026 A 
BRANCH  14  17
HETATM   17  C26 UNL     1     -18.306   1.112  -5.992  1.00  0.00     0.264 C 
HETATM   18  N3  UNL     1     -19.248   0.803  -6.995  1.00  0.00    -0.057 NA
HETATM   19  O8  UNL     1     -17.609   2.166  -6.078  1.00  0.00    -0.271 OA
ENDBRANCH  14  17
ENDBRANCH   8  11
ENDBRANCH   3   8
ENDBRANCH   2   3
ENDBRANCH   1   2
BRANCH   1  20
HETATM   20  O1  UNL     1     -20.865  -0.225   0.132  1.00  0.00    -0.392 OA
ATOM     21  H1  UNL     1     -21.371  -0.744   0.745  1.00  0.00     0.210 HD
ENDBRANCH   1  20
BRANCH   1  22
HETATM   22  C7  UNL     1     -18.741   0.552   0.905  1.00  0.00     0.120 C 
BRANCH  22  23
HETATM   23  C8  UNL     1     -19.238   0.729   2.330  1.00  0.00     0.066 C 
BRANCH  23  24
HETATM   24  C9  UNL     1     -18.253   0.260   3.341  1.00  0.00    -0.056 A 
HETATM   25  C10 UNL     1     -17.109  -0.429   3.070  1.00  0.00     0.007 A 
HETATM   26  C11 UNL     1     -16.234  -0.858   4.080  1.00  0.00     0.001 A 
HETATM   27  C12 UNL     1     -16.503  -0.595   5.399  1.00  0.00     0.000 A 
HETATM   28  C13 UNL     1     -17.657   0.101   5.677  1.00  0.00     0.001 A 
HETATM   29  C14 UNL     1     -18.522   0.527   4.696  1.00  0.00     0.007 A 
ENDBRANCH  23  24
ENDBRANCH  22  23
BRANCH  22  30
HETATM   30  N2  UNL     1     -18.631   1.776   0.191  1.00  0.00    -0.329 N 
HETATM   31  C15 UNL     1     -17.482   2.493  -0.176  1.00  0.00     0.361 C 
HETATM   32  O2  UNL     1     -16.360   2.099   0.119  1.00  0.00    -0.238 OA
ATOM     33  H2  UNL     1     -19.516   2.193  -0.097  1.00  0.00     0.165 HD
BRANCH  31  34
HETATM   34  O3  UNL     1     -17.542   3.702  -0.898  1.00  0.00    -0.296 OA
BRANCH  34  35
HETATM   35  C16 UNL     1     -18.451   3.900  -1.947  1.00  0.00     0.166 C 
HETATM   36  C17 UNL     1     -19.238   5.139  -1.668  1.00  0.00     0.204 C 
HETATM   37  O4  UNL     1     -19.502   5.772  -2.848  1.00  0.00    -0.358 OA
HETATM   38  C18 UNL     1     -18.773   5.204  -3.853  1.00  0.00     0.266 C 
HETATM   39  O5  UNL     1     -18.068   6.181  -4.516  1.00  0.00    -0.361 OA
HETATM   40  C21 UNL     1     -17.774   4.246  -3.252  1.00  0.00     0.075 C 
HETATM   41  C19 UNL     1     -16.812   6.263  -3.981  1.00  0.00     0.171 C 
HETATM   42  C20 UNL     1     -16.567   5.102  -3.082  1.00  0.00     0.038 C 
ENDBRANCH  34  35
ENDBRANCH  31  34
ENDBRANCH  22  30
ENDBRANCH   1  22
TORSDOF 14
ENDMDL
