MODEL 2
REMARK VINA RESULT: -10.324606084      2.377      6.342
REMARK  14 active torsions:
REMARK  status: ('A' for Active; 'I' for Inactive)
REMARK    1  A    between atoms: C2_2  and  C4_4 
REMARK    2  A    between atoms: C4_4  and  N1_5 
REMARK    3  A    between atoms: N1_5  and  C5_6 
REMARK    4  A    between atoms: N1_5  and  S1_31 
REMARK    5  A    between atoms: C5_6  and  C6_7 
REMARK    6  A    between atoms: C6_7  and  O1_8 
REMARK    7  A    between atoms: C6_7  and  C7_10 
REMARK    8  A    between atoms: C7_10  and  C8_11 
REMARK    9  A    between atoms: C7_10  and  N2_18 
REMARK   10  A    between atoms: C8_11  and  C9_12 
REMARK       I    between atoms: N2_18  and  C15_20 
REMARK   11  A    between atoms: C15_20  and  O3_22 
REMARK   12  A    between atoms: O3_22  and  C16_23 
REMARK   13  A    between atoms: S1_31  and  C22_34 
REMARK   14  A    between atoms: C25_37  and  C26_38 
ROOT
HETATM    1  C6  UNL     1     -19.527  -0.612   0.493  1.00  0.00     0.155 C 
ENDROOT
BRANCH   1   2
HETATM    2  C5  UNL     1     -19.146  -2.011   0.809  1.00  0.00     0.141 C 
BRANCH   2   3
HETATM    3  N1  UNL     1     -18.912  -2.894  -0.282  1.00  0.00    -0.204 NA
BRANCH   3   4
HETATM    4  C4  UNL     1     -18.874  -4.282   0.128  1.00  0.00     0.111 C 
BRANCH   4   5
HETATM    5  C2  UNL     1     -18.447  -4.594   1.498  1.00  0.00    -0.009 C 
HETATM    6  C1  UNL     1     -19.244  -5.571   2.289  1.00  0.00     0.011 C 
HETATM    7  C3  UNL     1     -17.033  -5.243   1.377  1.00  0.00     0.011 C 
ENDBRANCH   4   5
ENDBRANCH   3   4
BRANCH   3   8
HETATM    8  S1  UNL     1     -17.441  -2.543  -1.121  1.00  0.00     0.243 S 
HETATM    9  O6  UNL     1     -16.357  -2.026  -0.260  1.00  0.00    -0.206 OA
HETATM   10  O7  UNL     1     -16.974  -3.806  -1.810  1.00  0.00    -0.206 OA
BRANCH   8  11
HETATM   11  C22 UNL     1     -17.708  -1.351  -2.412  1.00  0.00     0.074 A 
HETATM   12  C23 UNL     1     -18.623  -1.585  -3.410  1.00  0.00     0.026 A 
HETATM   13  C24 UNL     1     -18.832  -0.673  -4.415  1.00  0.00     0.018 A 
HETATM   14  C25 UNL     1     -18.136   0.502  -4.459  1.00  0.00     0.029 A 
HETATM   15  C27 UNL     1     -17.218   0.745  -3.465  1.00  0.00     0.018 A 
HETATM   16  C28 UNL     1     -17.004  -0.175  -2.447  1.00  0.00     0.026 A 
BRANCH  14  17
HETATM   17  C26 UNL     1     -18.342   1.486  -5.516  1.00  0.00     0.264 C 
HETATM   18  N3  UNL     1     -19.015   1.167  -6.714  1.00  0.00    -0.057 NA
HETATM   19  O8  UNL     1     -17.893   2.656  -5.331  1.00  0.00    -0.271 OA
ENDBRANCH  14  17
ENDBRANCH   8  11
ENDBRANCH   3   8
ENDBRANCH   2   3
ENDBRANCH   1   2
BRANCH   1  20
HETATM   20  O1  UNL     1     -20.878  -0.477   0.289  1.00  0.00    -0.392 OA
ATOM     21  H1  UNL     1     -21.201   0.367   0.580  1.00  0.00     0.210 HD
ENDBRANCH   1  20
BRANCH   1  22
HETATM   22  C7  UNL     1     -18.954   0.453   1.359  1.00  0.00     0.120 C 
BRANCH  22  23
HETATM   23  C8  UNL     1     -17.712   1.054   0.721  1.00  0.00     0.066 C 
BRANCH  23  24
HETATM   24  C9  UNL     1     -17.956   2.409   0.159  1.00  0.00    -0.056 A 
HETATM   25  C10 UNL     1     -18.924   2.728  -0.745  1.00  0.00     0.007 A 
HETATM   26  C11 UNL     1     -19.083   4.028  -1.249  1.00  0.00     0.001 A 
HETATM   27  C12 UNL     1     -18.255   5.043  -0.841  1.00  0.00     0.000 A 
HETATM   28  C13 UNL     1     -17.277   4.726   0.074  1.00  0.00     0.001 A 
HETATM   29  C14 UNL     1     -17.111   3.455   0.574  1.00  0.00     0.007 A 
ENDBRANCH  23  24
ENDBRANCH  22  23
BRANCH  22  30
HETATM   30  N2  UNL     1     -18.761   0.070   2.714  1.00  0.00    -0.329 N 
HETATM   31  C15 UNL     1     -18.655   0.872   3.860  1.00  0.00     0.361 C 
HETATM   32  O2  UNL     1     -18.717   2.094   3.795  1.00  0.00    -0.238 OA
ATOM     33  H2  UNL     1     -18.689  -0.934   2.876  1.00  0.00     0.165 HD
BRANCH  31  34
HETATM   34  O3  UNL     1     -18.471   0.332   5.149  1.00  0.00    -0.296 OA
BRANCH  34  35
HETATM   35  C16 UNL     1     -17.930  -0.946   5.352  1.00  0.00     0.166 C 
HETATM   36  C17 UNL     1     -16.447  -0.820   5.477  1.00  0.00     0.204 C 
HETATM   37  O4  UNL     1     -15.998  -1.742   6.379  1.00  0.00    -0.358 OA
HETATM   38  C18 UNL     1     -17.056  -2.305   7.033  1.00  0.00     0.266 C 
HETATM   39  O5  UNL     1     -16.863  -2.201   8.391  1.00  0.00    -0.361 OA
HETATM   40  C21 UNL     1     -18.309  -1.537   6.689  1.00  0.00     0.075 C 
HETATM   41  C19 UNL     1     -17.493  -1.076   8.844  1.00  0.00     0.171 C 
HETATM   42  C20 UNL     1     -18.379  -0.527   7.782  1.00  0.00     0.038 C 
ENDBRANCH  34  35
ENDBRANCH  31  34
ENDBRANCH  22  30
ENDBRANCH   1  22
TORSDOF 14
ENDMDL
