MODEL 3
REMARK VINA RESULT: -10.062401159      2.336      6.953
REMARK  14 active torsions:
REMARK  status: ('A' for Active; 'I' for Inactive)
REMARK    1  A    between atoms: C2_2  and  C4_4 
REMARK    2  A    between atoms: C4_4  and  N1_5 
REMARK    3  A    between atoms: N1_5  and  C5_6 
REMARK    4  A    between atoms: N1_5  and  S1_31 
REMARK    5  A    between atoms: C5_6  and  C6_7 
REMARK    6  A    between atoms: C6_7  and  O1_8 
REMARK    7  A    between atoms: C6_7  and  C7_10 
REMARK    8  A    between atoms: C7_10  and  C8_11 
REMARK    9  A    between atoms: C7_10  and  N2_18 
REMARK   10  A    between atoms: C8_11  and  C9_12 
REMARK       I    between atoms: N2_18  and  C15_20 
REMARK   11  A    between atoms: C15_20  and  O3_22 
REMARK   12  A    between atoms: O3_22  and  C16_23 
REMARK   13  A    between atoms: S1_31  and  C22_34 
REMARK   14  A    between atoms: C25_37  and  C26_38 
ROOT
HETATM    1  C6  UNL     1     -19.568   0.540  -1.171  1.00  0.00     0.155 C 
ENDROOT
BRANCH   1   2
HETATM    2  C5  UNL     1     -19.167   1.949  -1.403  1.00  0.00     0.141 C 
BRANCH   2   3
HETATM    3  N1  UNL     1     -18.937   2.766  -0.261  1.00  0.00    -0.204 NA
BRANCH   3   4
HETATM    4  C4  UNL     1     -18.906   4.177  -0.588  1.00  0.00     0.111 C 
BRANCH   4   5
HETATM    5  C2  UNL     1     -18.435   4.576  -1.920  1.00  0.00    -0.009 C 
HETATM    6  C1  UNL     1     -19.233   5.566  -2.692  1.00  0.00     0.011 C 
HETATM    7  C3  UNL     1     -17.051   5.262  -1.706  1.00  0.00     0.011 C 
ENDBRANCH   4   5
ENDBRANCH   3   4
BRANCH   3   8
HETATM    8  S1  UNL     1     -17.464   2.373   0.556  1.00  0.00     0.243 S 
HETATM    9  O6  UNL     1     -16.333   2.061  -0.343  1.00  0.00    -0.206 OA
HETATM   10  O7  UNL     1     -17.090   3.538   1.445  1.00  0.00    -0.206 OA
BRANCH   8  11
HETATM   11  C22 UNL     1     -17.683   0.981   1.638  1.00  0.00     0.074 A 
HETATM   12  C23 UNL     1     -18.872   0.780   2.296  1.00  0.00     0.026 A 
HETATM   13  C24 UNL     1     -19.049  -0.290   3.139  1.00  0.00     0.018 A 
HETATM   14  C25 UNL     1     -18.047  -1.194   3.354  1.00  0.00     0.029 A 
HETATM   15  C27 UNL     1     -16.853  -1.000   2.701  1.00  0.00     0.018 A 
HETATM   16  C28 UNL     1     -16.671   0.081   1.847  1.00  0.00     0.026 A 
BRANCH  14  17
HETATM   17  C26 UNL     1     -18.212  -2.337   4.244  1.00  0.00     0.264 C 
HETATM   18  N3  UNL     1     -19.008  -2.272   5.406  1.00  0.00    -0.057 NA
HETATM   19  O8  UNL     1     -17.611  -3.412   3.944  1.00  0.00    -0.271 OA
ENDBRANCH  14  17
ENDBRANCH   8  11
ENDBRANCH   3   8
ENDBRANCH   2   3
ENDBRANCH   1   2
BRANCH   1  20
HETATM   20  O1  UNL     1     -20.928   0.405  -1.034  1.00  0.00    -0.392 OA
ATOM     21  H1  UNL     1     -21.371   0.384  -1.874  1.00  0.00     0.210 HD
ENDBRANCH   1  20
BRANCH   1  22
HETATM   22  C7  UNL     1     -18.963  -0.488  -2.061  1.00  0.00     0.120 C 
BRANCH  22  23
HETATM   23  C8  UNL     1     -17.685  -1.039  -1.451  1.00  0.00     0.066 C 
BRANCH  23  24
HETATM   24  C9  UNL     1     -17.913  -2.288  -0.676  1.00  0.00    -0.056 A 
HETATM   25  C10 UNL     1     -19.056  -2.604  -0.005  1.00  0.00     0.007 A 
HETATM   26  C11 UNL     1     -19.194  -3.795   0.724  1.00  0.00     0.001 A 
HETATM   27  C12 UNL     1     -18.165  -4.700   0.789  1.00  0.00     0.000 A 
HETATM   28  C13 UNL     1     -17.009  -4.385   0.112  1.00  0.00     0.001 A 
HETATM   29  C14 UNL     1     -16.862  -3.221  -0.606  1.00  0.00     0.007 A 
ENDBRANCH  23  24
ENDBRANCH  22  23
BRANCH  22  30
HETATM   30  N2  UNL     1     -18.810  -0.079  -3.414  1.00  0.00    -0.329 N 
HETATM   31  C15 UNL     1     -18.665  -0.861  -4.569  1.00  0.00     0.361 C 
HETATM   32  O2  UNL     1     -18.647  -2.085  -4.516  1.00  0.00    -0.238 OA
ATOM     33  H2  UNL     1     -18.806   0.929  -3.566  1.00  0.00     0.165 HD
BRANCH  31  34
HETATM   34  O3  UNL     1     -18.531  -0.297  -5.854  1.00  0.00    -0.296 OA
BRANCH  34  35
HETATM   35  C16 UNL     1     -18.057   1.007  -6.050  1.00  0.00     0.166 C 
HETATM   36  C17 UNL     1     -16.566   0.962  -6.146  1.00  0.00     0.204 C 
HETATM   37  O4  UNL     1     -16.150   1.905  -7.041  1.00  0.00    -0.358 OA
HETATM   38  C18 UNL     1     -17.224   2.409  -7.717  1.00  0.00     0.266 C 
HETATM   39  O5  UNL     1     -16.998   2.313  -9.071  1.00  0.00    -0.361 OA
HETATM   40  C21 UNL     1     -18.440   1.575  -7.396  1.00  0.00     0.075 C 
HETATM   41  C19 UNL     1     -17.557   1.154  -9.533  1.00  0.00     0.171 C 
HETATM   42  C20 UNL     1     -18.434   0.561  -8.487  1.00  0.00     0.038 C 
ENDBRANCH  34  35
ENDBRANCH  31  34
ENDBRANCH  22  30
ENDBRANCH   1  22
TORSDOF 14
ENDMDL
