MODEL 7
REMARK VINA RESULT: -9.426677804      2.596      7.123
REMARK  14 active torsions:
REMARK  status: ('A' for Active; 'I' for Inactive)
REMARK    1  A    between atoms: C2_2  and  C4_4 
REMARK    2  A    between atoms: C4_4  and  N1_5 
REMARK    3  A    between atoms: N1_5  and  C5_6 
REMARK    4  A    between atoms: N1_5  and  S1_31 
REMARK    5  A    between atoms: C5_6  and  C6_7 
REMARK    6  A    between atoms: C6_7  and  O1_8 
REMARK    7  A    between atoms: C6_7  and  C7_10 
REMARK    8  A    between atoms: C7_10  and  C8_11 
REMARK    9  A    between atoms: C7_10  and  N2_18 
REMARK   10  A    between atoms: C8_11  and  C9_12 
REMARK       I    between atoms: N2_18  and  C15_20 
REMARK   11  A    between atoms: C15_20  and  O3_22 
REMARK   12  A    between atoms: O3_22  and  C16_23 
REMARK   13  A    between atoms: S1_31  and  C22_34 
REMARK   14  A    between atoms: C25_37  and  C26_38 
ROOT
HETATM    1  C6  UNL     1     -19.846   0.563  -1.215  1.00  0.00     0.155 C 
ENDROOT
BRANCH   1   2
HETATM    2  C5  UNL     1     -19.281   0.040   0.054  1.00  0.00     0.141 C 
BRANCH   2   3
HETATM    3  N1  UNL     1     -17.981  -0.536   0.010  1.00  0.00    -0.204 NA
BRANCH   3   4
HETATM    4  C4  UNL     1     -17.993  -1.952   0.316  1.00  0.00     0.111 C 
BRANCH   4   5
HETATM    5  C2  UNL     1     -17.947  -2.908  -0.797  1.00  0.00    -0.009 C 
HETATM    6  C1  UNL     1     -17.729  -2.389  -2.174  1.00  0.00     0.011 C 
HETATM    7  C3  UNL     1     -16.724  -3.836  -0.524  1.00  0.00     0.011 C 
ENDBRANCH   4   5
ENDBRANCH   3   4
BRANCH   3   8
HETATM    8  S1  UNL     1     -16.871   0.236   1.088  1.00  0.00     0.243 S 
HETATM    9  O6  UNL     1     -15.464  -0.183   0.917  1.00  0.00    -0.206 OA
HETATM   10  O7  UNL     1     -16.977   1.731   0.887  1.00  0.00    -0.206 OA
BRANCH   8  11
HETATM   11  C22 UNL     1     -17.312  -0.063   2.784  1.00  0.00     0.074 A 
HETATM   12  C23 UNL     1     -18.288   0.681   3.400  1.00  0.00     0.026 A 
HETATM   13  C24 UNL     1     -18.631   0.461   4.711  1.00  0.00     0.018 A 
HETATM   14  C25 UNL     1     -18.012  -0.506   5.452  1.00  0.00     0.029 A 
HETATM   15  C27 UNL     1     -17.033  -1.255   4.844  1.00  0.00     0.018 A 
HETATM   16  C28 UNL     1     -16.683  -1.036   3.517  1.00  0.00     0.026 A 
BRANCH  14  17
HETATM   17  C26 UNL     1     -18.360  -0.757   6.846  1.00  0.00     0.264 C 
HETATM   18  N3  UNL     1     -17.414  -0.644   7.885  1.00  0.00    -0.057 NA
HETATM   19  O8  UNL     1     -19.555  -1.086   7.107  1.00  0.00    -0.271 OA
ENDBRANCH  14  17
ENDBRANCH   8  11
ENDBRANCH   3   8
ENDBRANCH   2   3
ENDBRANCH   1   2
BRANCH   1  20
HETATM   20  O1  UNL     1     -21.180   0.867  -1.100  1.00  0.00    -0.392 OA
ATOM     21  H1  UNL     1     -21.321   1.784  -0.896  1.00  0.00     0.210 HD
ENDBRANCH   1  20
BRANCH   1  22
HETATM   22  C7  UNL     1     -19.062   1.613  -1.919  1.00  0.00     0.120 C 
BRANCH  22  23
HETATM   23  C8  UNL     1     -19.239   2.961  -1.239  1.00  0.00     0.066 C 
BRANCH  23  24
HETATM   24  C9  UNL     1     -18.426   4.033  -1.874  1.00  0.00    -0.056 A 
HETATM   25  C10 UNL     1     -18.919   5.066  -2.612  1.00  0.00     0.007 A 
HETATM   26  C11 UNL     1     -18.088   6.032  -3.201  1.00  0.00     0.001 A 
HETATM   27  C12 UNL     1     -16.726   5.970  -3.051  1.00  0.00     0.000 A 
HETATM   28  C13 UNL     1     -16.224   4.928  -2.305  1.00  0.00     0.001 A 
HETATM   29  C14 UNL     1     -17.028   3.975  -1.723  1.00  0.00     0.007 A 
ENDBRANCH  23  24
ENDBRANCH  22  23
BRANCH  22  30
HETATM   30  N2  UNL     1     -19.269   1.660  -3.324  1.00  0.00    -0.329 N 
HETATM   31  C15 UNL     1     -18.331   1.605  -4.365  1.00  0.00     0.361 C 
HETATM   32  O2  UNL     1     -17.130   1.509  -4.141  1.00  0.00    -0.238 OA
ATOM     33  H2  UNL     1     -20.242   1.746  -3.617  1.00  0.00     0.165 HD
BRANCH  31  34
HETATM   34  O3  UNL     1     -18.703   1.655  -5.724  1.00  0.00    -0.296 OA
BRANCH  34  35
HETATM   35  C16 UNL     1     -17.968   1.005  -6.724  1.00  0.00     0.166 C 
HETATM   36  C17 UNL     1     -18.916   0.248  -7.597  1.00  0.00     0.204 C 
HETATM   37  O4  UNL     1     -18.457   0.279  -8.882  1.00  0.00    -0.358 OA
HETATM   38  C18 UNL     1     -17.429   1.172  -8.986  1.00  0.00     0.266 C 
HETATM   39  O5  UNL     1     -17.693   2.057 -10.005  1.00  0.00    -0.361 OA
HETATM   40  C21 UNL     1     -17.335   1.963  -7.705  1.00  0.00     0.075 C 
HETATM   41  C19 UNL     1     -18.287   3.172  -9.481  1.00  0.00     0.171 C 
HETATM   42  C20 UNL     1     -18.183   3.153  -7.997  1.00  0.00     0.038 C 
ENDBRANCH  34  35
ENDBRANCH  31  34
ENDBRANCH  22  30
ENDBRANCH   1  22
TORSDOF 14
ENDMDL
