MODEL 1
REMARK VINA RESULT: -6.085495903      0.000      0.000
REMARK  6 active torsions:
REMARK  status: ('A' for Active; 'I' for Inactive)
REMARK    1  A    between atoms: O1_2  and  C2_3 
REMARK    2  A    between atoms: C7_9  and  N1_10 
REMARK       I    between atoms: N1_10  and  C8_12 
REMARK    3  A    between atoms: C8_12  and  C9_14 
REMARK    4  A    between atoms: C9_14  and  S1_15 
REMARK    5  A    between atoms: S1_15  and  C10_16 
REMARK    6  A    between atoms: C13_19  and  C14_20 
ROOT
HETATM    1  N1  UNL     1      11.745  13.659  30.768  1.00  0.00    -0.324 N 
ATOM      2  H1  UNL     1      10.899  13.333  31.235  1.00  0.00     0.169 HD
HETATM    3  C8  UNL     1      11.993  15.041  30.686  1.00  0.00     0.231 C 
HETATM    4  O2  UNL     1      13.010  15.550  30.141  1.00  0.00    -0.272 OA
ENDROOT
BRANCH   3   5
HETATM    5  C9  UNL     1      10.988  16.001  31.291  1.00  0.00     0.184 C 
BRANCH   5   6
HETATM    6  S1  UNL     1      11.950  17.210  32.186  1.00  0.00    -0.103 SA
BRANCH   6   7
HETATM    7  C10 UNL     1      12.912  16.622  33.535  1.00  0.00     0.070 A 
HETATM    8  C11 UNL     1      14.227  16.875  33.809  1.00  0.00     0.038 A 
HETATM    9  C12 UNL     1      14.846  16.283  34.865  1.00  0.00     0.022 A 
HETATM   10  C13 UNL     1      14.164  15.412  35.681  1.00  0.00     0.056 A 
HETATM   11  C15 UNL     1      12.842  15.166  35.400  1.00  0.00     0.107 A 
HETATM   12  N2  UNL     1      12.259  15.748  34.377  1.00  0.00    -0.360 N 
ATOM     13  H2  UNL     1      11.276  15.544  34.197  1.00  0.00     0.166 HD
BRANCH  10  14
HETATM   14  C14 UNL     1      14.764  14.720  36.828  1.00  0.00     0.210 C 
HETATM   15  O3  UNL     1      14.219  14.746  37.945  1.00  0.00    -0.644 OA
HETATM   16  O4  UNL     1      15.969  14.002  36.712  1.00  0.00    -0.644 OA
ENDBRANCH  10  14
ENDBRANCH   6   7
ENDBRANCH   5   6
ENDBRANCH   3   5
BRANCH   1  17
HETATM   17  C7  UNL     1      12.638  12.713  30.221  1.00  0.00     0.070 A 
HETATM   18  C2  UNL     1      13.602  12.149  31.059  1.00  0.00     0.095 A 
HETATM   19  C3  UNL     1      14.460  11.207  30.588  1.00  0.00     0.041 A 
HETATM   20  C4  UNL     1      14.404  10.775  29.257  1.00  0.00     0.026 A 
HETATM   21  C5  UNL     1      13.468  11.303  28.402  1.00  0.00     0.036 A 
HETATM   22 CL1  UNL     1      13.347  10.811  26.722  1.00  0.00    -0.084 Cl
HETATM   23  C6  UNL     1      12.605  12.274  28.940  1.00  0.00     0.056 A 
BRANCH  18  24
HETATM   24  O1  UNL     1      13.655  12.575  32.360  1.00  0.00    -0.354 OA
HETATM   25  C1  UNL     1      14.804  13.122  32.911  1.00  0.00     0.210 C 
ENDBRANCH  18  24
ENDBRANCH   1  17
TORSDOF 6
ENDMDL
