MODEL 5
REMARK VINA RESULT: -6.564577610      0.895      2.009
REMARK  8 active torsions:
REMARK  status: ('A' for Active; 'I' for Inactive)
REMARK    1  A    between atoms: C6_6  and  C7_7 
REMARK    2  A    between atoms: C8_8  and  C9_9 
REMARK    3  A    between atoms: C9_9  and  O1_10 
REMARK    4  A    between atoms: C9_9  and  C10_12 
REMARK    5  A    between atoms: C14_17  and  O2_18 
REMARK    6  A    between atoms: N1_22  and  C16_23 
REMARK    7  A    between atoms: C19_26  and  C20_27 
REMARK    8  A    between atoms: C20_27  and  C21_28 
ROOT
HETATM    1  C7  UNL     1       2.699  20.966   0.412  1.00  0.00     0.166 A 
HETATM    2  C8  UNL     1       3.901  20.131   0.844  1.00  0.00     0.043 A 
HETATM    3  C14 UNL     1       3.689  18.903   0.452  1.00  0.00     0.146 A 
HETATM    4  C15 UNL     1       2.384  18.830  -0.251  1.00  0.00     0.283 A 
HETATM    5  O3  UNL     1       1.917  17.750  -0.741  1.00  0.00    -0.265 OA
HETATM    6  N1  UNL     1       1.820  20.111  -0.255  1.00  0.00    -0.298 N 
ENDROOT
BRANCH   6   7
HETATM    7  C16 UNL     1       0.568  20.425  -0.859  1.00  0.00     0.038 A 
HETATM    8  C17 UNL     1       0.477  21.015  -2.102  1.00  0.00     0.030 A 
HETATM    9  C18 UNL     1      -0.750  21.298  -2.657  1.00  0.00     0.010 A 
HETATM   10  C19 UNL     1      -1.932  21.014  -2.013  1.00  0.00    -0.048 A 
HETATM   11  C22 UNL     1      -1.861  20.426  -0.770  1.00  0.00     0.010 A 
HETATM   12  C23 UNL     1      -0.633  20.143  -0.217  1.00  0.00     0.030 A 
BRANCH  10  13
HETATM   13  C20 UNL     1      -3.230  21.344  -2.665  1.00  0.00     0.151 C 
BRANCH  13  14
HETATM   14  C21 UNL     1      -3.911  20.116  -3.167  1.00  0.00     0.176 C 
HETATM   15  O4  UNL     1      -3.700  19.596  -4.271  1.00  0.00    -0.648 OA
HETATM   16  O5  UNL     1      -4.845  19.535  -2.321  1.00  0.00    -0.648 OA
ENDBRANCH  13  14
ENDBRANCH  10  13
ENDBRANCH   6   7
BRANCH   1  17
HETATM   17  C6  UNL     1       2.149  21.780   1.483  1.00  0.00    -0.024 A 
HETATM   18  C4  UNL     1       1.626  21.275   2.641  1.00  0.00    -0.053 A 
HETATM   19  C3  UNL     1       1.159  22.175   3.594  1.00  0.00     0.014 A 
HETATM   20  C5  UNL     1       1.508  19.819   2.914  1.00  0.00     0.049 C 
HETATM   21  C2  UNL     1       1.198  23.537   3.429  1.00  0.00    -0.056 A 
HETATM   22  C1  UNL     1       0.689  24.482   4.471  1.00  0.00     0.049 C 
HETATM   23  C25 UNL     1       1.724  24.055   2.261  1.00  0.00    -0.056 A 
HETATM   24  C24 UNL     1       2.183  23.164   1.325  1.00  0.00     0.017 A 
HETATM   25  C26 UNL     1       1.761  25.521   2.095  1.00  0.00     0.049 C 
ENDBRANCH   1  17
BRANCH   2  26
HETATM   26  C9  UNL     1       4.962  20.830   1.512  1.00  0.00     0.094 C 
BRANCH  26  27
HETATM   27  O1  UNL     1       5.407  21.893   0.866  1.00  0.00    -0.359 OA
ATOM     28  H1  UNL     1       5.472  21.781  -0.076  1.00  0.00     0.217 HD
ENDBRANCH  26  27
BRANCH  26  29
HETATM   29  C10 UNL     1       5.626  20.581   2.755  1.00  0.00     0.038 A 
HETATM   30  C11 UNL     1       6.637  21.126   3.461  1.00  0.00     0.022 A 
HETATM   31  C12 UNL     1       6.999  20.568   4.647  1.00  0.00     0.008 A 
HETATM   32  C13 UNL     1       6.310  19.474   5.063  1.00  0.00     0.050 A 
HETATM   33  S1  UNL     1       5.188  19.235   3.829  1.00  0.00    -0.099 SA
ENDBRANCH  26  29
ENDBRANCH   2  26
BRANCH   3  34
HETATM   34  O2  UNL     1       4.505  17.795   0.625  1.00  0.00    -0.355 OA
ATOM     35  H2  UNL     1       4.254  16.914   0.878  1.00  0.00     0.218 HD
ENDBRANCH   3  34
TORSDOF 8
ENDMDL
