MODEL 3
REMARK VINA RESULT: -6.707304680      2.744      6.108
REMARK  8 active torsions:
REMARK  status: ('A' for Active; 'I' for Inactive)
REMARK    1  A    between atoms: C6_6  and  C7_7 
REMARK    2  A    between atoms: C8_8  and  C9_9 
REMARK    3  A    between atoms: C9_9  and  O1_10 
REMARK    4  A    between atoms: C9_9  and  C10_12 
REMARK    5  A    between atoms: C14_17  and  O2_18 
REMARK    6  A    between atoms: N1_22  and  C16_23 
REMARK    7  A    between atoms: C19_26  and  C20_27 
REMARK    8  A    between atoms: C20_27  and  C21_28 
ROOT
HETATM    1  C7  UNL     1       1.873  20.367   1.540  1.00  0.00     0.166 A 
HETATM    2  C8  UNL     1       3.005  19.566   0.903  1.00  0.00     0.043 A 
HETATM    3  C14 UNL     1       4.126  20.174   1.185  1.00  0.00     0.146 A 
HETATM    4  C15 UNL     1       3.839  21.377   2.007  1.00  0.00     0.283 A 
HETATM    5  O3  UNL     1       4.748  22.165   2.428  1.00  0.00    -0.265 OA
HETATM    6  N1  UNL     1       2.454  21.450   2.202  1.00  0.00    -0.298 N 
ENDROOT
BRANCH   6   7
HETATM    7  C16 UNL     1       1.813  22.471   2.960  1.00  0.00     0.038 A 
HETATM    8  C17 UNL     1       1.696  23.766   2.499  1.00  0.00     0.030 A 
HETATM    9  C18 UNL     1       1.065  24.727   3.257  1.00  0.00     0.010 A 
HETATM   10  C19 UNL     1       0.526  24.452   4.493  1.00  0.00    -0.048 A 
HETATM   11  C22 UNL     1       0.635  23.165   4.969  1.00  0.00     0.010 A 
HETATM   12  C23 UNL     1       1.266  22.206   4.210  1.00  0.00     0.030 A 
BRANCH  10  13
HETATM   13  C20 UNL     1      -0.146  25.534   5.265  1.00  0.00     0.151 C 
BRANCH  13  14
HETATM   14  C21 UNL     1      -1.613  25.560   4.997  1.00  0.00     0.176 C 
HETATM   15  O4  UNL     1      -2.431  24.771   5.489  1.00  0.00    -0.648 OA
HETATM   16  O5  UNL     1      -2.067  26.545   4.132  1.00  0.00    -0.648 OA
ENDBRANCH  13  14
ENDBRANCH  10  13
ENDBRANCH   6   7
BRANCH   1  17
HETATM   17  C6  UNL     1       0.785  20.656   0.621  1.00  0.00    -0.024 A 
HETATM   18  C4  UNL     1      -0.524  20.344   0.857  1.00  0.00    -0.053 A 
HETATM   19  C3  UNL     1      -1.466  20.706  -0.101  1.00  0.00     0.014 A 
HETATM   20  C5  UNL     1      -0.982  19.615   2.069  1.00  0.00     0.049 C 
HETATM   21  C2  UNL     1      -1.145  21.358  -1.266  1.00  0.00    -0.056 A 
HETATM   22  C1  UNL     1      -2.179  21.736  -2.280  1.00  0.00     0.049 C 
HETATM   23  C25 UNL     1       0.176  21.676  -1.512  1.00  0.00    -0.056 A 
HETATM   24  C24 UNL     1       1.100  21.318  -0.565  1.00  0.00     0.017 A 
HETATM   25  C26 UNL     1       0.510  22.377  -2.768  1.00  0.00     0.049 C 
ENDBRANCH   1  17
BRANCH   2  26
HETATM   26  C9  UNL     1       2.631  18.368   0.205  1.00  0.00     0.094 C 
BRANCH  26  27
HETATM   27  O1  UNL     1       1.973  17.491   0.942  1.00  0.00    -0.359 OA
ATOM     28  H1  UNL     1       1.206  17.121   0.521  1.00  0.00     0.217 HD
ENDBRANCH  26  27
BRANCH  26  29
HETATM   29  C10 UNL     1       2.843  17.953  -1.148  1.00  0.00     0.038 A 
HETATM   30  C11 UNL     1       2.246  18.135  -2.343  1.00  0.00     0.022 A 
HETATM   31  C12 UNL     1       2.766  17.535  -3.447  1.00  0.00     0.008 A 
HETATM   32  C13 UNL     1       3.877  16.773  -3.283  1.00  0.00     0.050 A 
HETATM   33  S1  UNL     1       4.185  16.893  -1.631  1.00  0.00    -0.099 SA
ENDBRANCH  26  29
ENDBRANCH   2  26
BRANCH   3  34
HETATM   34  O2  UNL     1       5.414  19.816   0.815  1.00  0.00    -0.355 OA
ATOM     35  H2  UNL     1       5.700  19.024   0.374  1.00  0.00     0.218 HD
ENDBRANCH   3  34
TORSDOF 8
ENDMDL
