MODEL 2
REMARK VINA RESULT: -6.786830492      2.733      5.973
REMARK  8 active torsions:
REMARK  status: ('A' for Active; 'I' for Inactive)
REMARK    1  A    between atoms: C6_6  and  C7_7 
REMARK    2  A    between atoms: C8_8  and  C9_9 
REMARK    3  A    between atoms: C9_9  and  O1_10 
REMARK    4  A    between atoms: C9_9  and  C10_12 
REMARK    5  A    between atoms: C14_17  and  O2_18 
REMARK    6  A    between atoms: N1_22  and  C16_23 
REMARK    7  A    between atoms: C19_26  and  C20_27 
REMARK    8  A    between atoms: C20_27  and  C21_28 
ROOT
HETATM    1  C7  UNL     1       1.926  20.370   1.442  1.00  0.00     0.166 A 
HETATM    2  C8  UNL     1       3.074  19.628   0.764  1.00  0.00     0.043 A 
HETATM    3  C14 UNL     1       4.181  20.253   1.066  1.00  0.00     0.146 A 
HETATM    4  C15 UNL     1       3.868  21.410   1.942  1.00  0.00     0.283 A 
HETATM    5  O3  UNL     1       4.759  22.203   2.392  1.00  0.00    -0.265 OA
HETATM    6  N1  UNL     1       2.483  21.438   2.147  1.00  0.00    -0.298 N 
ENDROOT
BRANCH   6   7
HETATM    7  C16 UNL     1       1.820  22.408   2.953  1.00  0.00     0.038 A 
HETATM    8  C17 UNL     1       1.309  22.106   4.197  1.00  0.00     0.030 A 
HETATM    9  C18 UNL     1       0.679  23.071   4.952  1.00  0.00     0.010 A 
HETATM   10  C19 UNL     1       0.528  24.365   4.511  1.00  0.00    -0.048 A 
HETATM   11  C22 UNL     1       1.031  24.685   3.270  1.00  0.00     0.010 A 
HETATM   12  C23 UNL     1       1.661  23.719   2.518  1.00  0.00     0.030 A 
BRANCH  10  13
HETATM   13  C20 UNL     1      -0.162  25.365   5.373  1.00  0.00     0.151 C 
BRANCH  13  14
HETATM   14  C21 UNL     1      -1.604  25.489   5.011  1.00  0.00     0.176 C 
HETATM   15  O4  UNL     1      -2.504  24.762   5.452  1.00  0.00    -0.648 OA
HETATM   16  O5  UNL     1      -1.934  26.497   4.116  1.00  0.00    -0.648 OA
ENDBRANCH  13  14
ENDBRANCH  10  13
ENDBRANCH   6   7
BRANCH   1  17
HETATM   17  C6  UNL     1       0.825  20.670   0.542  1.00  0.00    -0.024 A 
HETATM   18  C4  UNL     1      -0.481  20.355   0.794  1.00  0.00    -0.053 A 
HETATM   19  C3  UNL     1      -1.437  20.728  -0.146  1.00  0.00     0.014 A 
HETATM   20  C5  UNL     1      -0.921  19.612   2.004  1.00  0.00     0.049 C 
HETATM   21  C2  UNL     1      -1.132  21.394  -1.308  1.00  0.00    -0.056 A 
HETATM   22  C1  UNL     1      -2.181  21.783  -2.302  1.00  0.00     0.049 C 
HETATM   23  C25 UNL     1       0.185  21.715  -1.570  1.00  0.00    -0.056 A 
HETATM   24  C24 UNL     1       1.123  21.345  -0.640  1.00  0.00     0.017 A 
HETATM   25  C26 UNL     1       0.500  22.430  -2.822  1.00  0.00     0.049 C 
ENDBRANCH   1  17
BRANCH   2  26
HETATM   26  C9  UNL     1       2.727  18.452   0.016  1.00  0.00     0.094 C 
BRANCH  26  27
HETATM   27  O1  UNL     1       3.498  18.227  -1.033  1.00  0.00    -0.359 OA
ATOM     28  H1  UNL     1       3.029  18.165  -1.858  1.00  0.00     0.217 HD
ENDBRANCH  26  27
BRANCH  26  29
HETATM   29  C10 UNL     1       1.694  17.480   0.203  1.00  0.00     0.038 A 
HETATM   30  C11 UNL     1       0.617  17.040  -0.478  1.00  0.00     0.022 A 
HETATM   31  C12 UNL     1      -0.162  16.065   0.064  1.00  0.00     0.008 A 
HETATM   32  C13 UNL     1       0.194  15.581   1.281  1.00  0.00     0.050 A 
HETATM   33  S1  UNL     1       1.579  16.463   1.656  1.00  0.00    -0.099 SA
ENDBRANCH  26  29
ENDBRANCH   2  26
BRANCH   3  34
HETATM   34  O2  UNL     1       5.475  19.945   0.674  1.00  0.00    -0.355 OA
ATOM     35  H2  UNL     1       6.290  20.162   1.113  1.00  0.00     0.218 HD
ENDBRANCH   3  34
TORSDOF 8
ENDMDL
