MODEL 6
REMARK VINA RESULT: -6.397368423      3.157      6.798
REMARK  8 active torsions:
REMARK  status: ('A' for Active; 'I' for Inactive)
REMARK    1  A    between atoms: C6_6  and  C7_7 
REMARK    2  A    between atoms: C8_8  and  C9_9 
REMARK    3  A    between atoms: C9_9  and  O1_10 
REMARK    4  A    between atoms: C9_9  and  C10_12 
REMARK    5  A    between atoms: C14_17  and  O2_18 
REMARK    6  A    between atoms: N1_22  and  C16_23 
REMARK    7  A    between atoms: C19_26  and  C20_27 
REMARK    8  A    between atoms: C20_27  and  C21_28 
ROOT
HETATM    1  C7  UNL     1       0.812  19.650   0.339  1.00  0.00     0.166 A 
HETATM    2  C8  UNL     1       1.562  18.539  -0.392  1.00  0.00     0.043 A 
HETATM    3  C14 UNL     1       2.839  18.794  -0.293  1.00  0.00     0.146 A 
HETATM    4  C15 UNL     1       3.032  20.041   0.488  1.00  0.00     0.283 A 
HETATM    5  O3  UNL     1       4.180  20.533   0.742  1.00  0.00    -0.265 OA
HETATM    6  N1  UNL     1       1.770  20.524   0.856  1.00  0.00    -0.298 N 
ENDROOT
BRANCH   6   7
HETATM    7  C16 UNL     1       1.566  21.702   1.630  1.00  0.00     0.038 A 
HETATM    8  C17 UNL     1       1.882  22.958   1.156  1.00  0.00     0.030 A 
HETATM    9  C18 UNL     1       1.666  24.076   1.931  1.00  0.00     0.010 A 
HETATM   10  C19 UNL     1       1.133  24.002   3.197  1.00  0.00    -0.048 A 
HETATM   11  C22 UNL     1       0.812  22.756   3.687  1.00  0.00     0.010 A 
HETATM   12  C23 UNL     1       1.029  21.639   2.911  1.00  0.00     0.030 A 
BRANCH  10  13
HETATM   13  C20 UNL     1       0.922  25.247   3.986  1.00  0.00     0.151 C 
BRANCH  13  14
HETATM   14  C21 UNL     1      -0.413  25.247   4.651  1.00  0.00     0.176 C 
HETATM   15  O4  UNL     1      -0.682  24.628   5.690  1.00  0.00    -0.648 OA
HETATM   16  O5  UNL     1      -1.408  26.000   4.043  1.00  0.00    -0.648 OA
ENDBRANCH  13  14
ENDBRANCH  10  13
ENDBRANCH   6   7
BRANCH   1  17
HETATM   17  C6  UNL     1      -0.263  20.232  -0.447  1.00  0.00    -0.024 A 
HETATM   18  C4  UNL     1      -1.588  20.137  -0.126  1.00  0.00    -0.053 A 
HETATM   19  C3  UNL     1      -2.509  20.768  -0.957  1.00  0.00     0.014 A 
HETATM   20  C5  UNL     1      -2.089  19.373   1.046  1.00  0.00     0.049 C 
HETATM   21  C2  UNL     1      -2.152  21.477  -2.078  1.00  0.00    -0.056 A 
HETATM   22  C1  UNL     1      -3.164  22.146  -2.953  1.00  0.00     0.049 C 
HETATM   23  C25 UNL     1      -0.815  21.576  -2.409  1.00  0.00    -0.056 A 
HETATM   24  C24 UNL     1       0.088  20.953  -1.587  1.00  0.00     0.017 A 
HETATM   25  C26 UNL     1      -0.444  22.340  -3.616  1.00  0.00     0.049 C 
ENDBRANCH   1  17
BRANCH   2  26
HETATM   26  C9  UNL     1       0.762  17.494  -0.966  1.00  0.00     0.094 C 
BRANCH  26  27
HETATM   27  O1  UNL     1       0.321  16.604  -0.094  1.00  0.00    -0.359 OA
ATOM     28  H1  UNL     1       0.745  16.644   0.756  1.00  0.00     0.217 HD
ENDBRANCH  26  27
BRANCH  26  29
HETATM   29  C10 UNL     1       0.356  17.241  -2.315  1.00  0.00     0.038 A 
HETATM   30  C11 UNL     1      -0.547  17.737  -3.184  1.00  0.00     0.022 A 
HETATM   31  C12 UNL     1      -0.643  17.195  -4.427  1.00  0.00     0.008 A 
HETATM   32  C13 UNL     1       0.190  16.168  -4.731  1.00  0.00     0.050 A 
HETATM   33  S1  UNL     1       1.082  15.966  -3.316  1.00  0.00    -0.099 SA
ENDBRANCH  26  29
ENDBRANCH   2  26
BRANCH   3  34
HETATM   34  O2  UNL     1       3.902  18.065  -0.805  1.00  0.00    -0.355 OA
ATOM     35  H2  UNL     1       4.733  18.388  -1.133  1.00  0.00     0.218 HD
ENDBRANCH   3  34
TORSDOF 8
ENDMDL
