MODEL 1
REMARK VINA RESULT: -6.893694119      0.000      0.000
REMARK  8 active torsions:
REMARK  status: ('A' for Active; 'I' for Inactive)
REMARK    1  A    between atoms: C6_6  and  C7_7 
REMARK    2  A    between atoms: C8_8  and  C9_9 
REMARK    3  A    between atoms: C9_9  and  O1_10 
REMARK    4  A    between atoms: C9_9  and  C10_12 
REMARK    5  A    between atoms: C14_17  and  O2_18 
REMARK    6  A    between atoms: N1_22  and  C16_23 
REMARK    7  A    between atoms: C19_26  and  C20_27 
REMARK    8  A    between atoms: C20_27  and  C21_28 
ROOT
HETATM    1  C7  UNL     1       2.688  20.994   0.577  1.00  0.00     0.166 A 
HETATM    2  C8  UNL     1       3.954  20.166   0.782  1.00  0.00     0.043 A 
HETATM    3  C14 UNL     1       3.770  19.013   0.197  1.00  0.00     0.146 A 
HETATM    4  C15 UNL     1       2.423  18.987  -0.427  1.00  0.00     0.283 A 
HETATM    5  O3  UNL     1       1.972  17.982  -1.068  1.00  0.00    -0.265 OA
HETATM    6  N1  UNL     1       1.804  20.217  -0.174  1.00  0.00    -0.298 N 
ENDROOT
BRANCH   6   7
HETATM    7  C16 UNL     1       0.500  20.558  -0.636  1.00  0.00     0.038 A 
HETATM    8  C17 UNL     1      -0.643  20.063  -0.044  1.00  0.00     0.030 A 
HETATM    9  C18 UNL     1      -1.888  20.418  -0.514  1.00  0.00     0.010 A 
HETATM   10  C19 UNL     1      -2.055  21.272  -1.580  1.00  0.00    -0.048 A 
HETATM   11  C22 UNL     1      -0.925  21.775  -2.183  1.00  0.00     0.010 A 
HETATM   12  C23 UNL     1       0.319  21.419  -1.712  1.00  0.00     0.030 A 
BRANCH  10  13
HETATM   13  C20 UNL     1      -3.427  21.620  -2.042  1.00  0.00     0.151 C 
BRANCH  13  14
HETATM   14  C21 UNL     1      -4.455  20.760  -1.386  1.00  0.00     0.176 C 
HETATM   15  O4  UNL     1      -4.719  19.599  -1.724  1.00  0.00    -0.648 OA
HETATM   16  O5  UNL     1      -5.151  21.325  -0.327  1.00  0.00    -0.648 OA
ENDBRANCH  13  14
ENDBRANCH  10  13
ENDBRANCH   6   7
BRANCH   1  17
HETATM   17  C6  UNL     1       2.180  21.581   1.804  1.00  0.00    -0.024 A 
HETATM   18  C4  UNL     1       1.986  22.920   1.993  1.00  0.00    -0.053 A 
HETATM   19  C3  UNL     1       1.465  23.340   3.214  1.00  0.00     0.014 A 
HETATM   20  C5  UNL     1       2.330  23.945   0.973  1.00  0.00     0.049 C 
HETATM   21  C2  UNL     1       1.139  22.478   4.232  1.00  0.00    -0.056 A 
HETATM   22  C1  UNL     1       0.581  22.957   5.534  1.00  0.00     0.049 C 
HETATM   23  C25 UNL     1       1.333  21.123   4.049  1.00  0.00    -0.056 A 
HETATM   24  C24 UNL     1       1.846  20.715   2.844  1.00  0.00     0.017 A 
HETATM   25  C26 UNL     1       0.979  20.206   5.150  1.00  0.00     0.049 C 
ENDBRANCH   1  17
BRANCH   2  26
HETATM   26  C9  UNL     1       5.027  20.799   1.495  1.00  0.00     0.094 C 
BRANCH  26  27
HETATM   27  O1  UNL     1       5.536  21.857   0.889  1.00  0.00    -0.359 OA
ATOM     28  H1  UNL     1       5.792  22.560   1.474  1.00  0.00     0.217 HD
ENDBRANCH  26  27
BRANCH  26  29
HETATM   29  C10 UNL     1       5.646  20.489   2.748  1.00  0.00     0.038 A 
HETATM   30  C11 UNL     1       6.624  21.004   3.520  1.00  0.00     0.022 A 
HETATM   31  C12 UNL     1       6.946  20.385   4.688  1.00  0.00     0.008 A 
HETATM   32  C13 UNL     1       6.254  19.265   5.017  1.00  0.00     0.050 A 
HETATM   33  S1  UNL     1       5.183  19.083   3.730  1.00  0.00    -0.099 SA
ENDBRANCH  26  29
ENDBRANCH   2  26
BRANCH   3  34
HETATM   34  O2  UNL     1       4.645  17.938   0.124  1.00  0.00    -0.355 OA
ATOM     35  H2  UNL     1       4.909  17.347   0.819  1.00  0.00     0.218 HD
ENDBRANCH   3  34
TORSDOF 8
ENDMDL
