MODEL 8
REMARK VINA RESULT: -6.954563139      3.624      7.380
REMARK  7 active torsions:
REMARK  status: ('A' for Active; 'I' for Inactive)
REMARK    1  A    between atoms: C1_2  and  C2_4 
REMARK    2  A    between atoms: C2_4  and  C3_5 
REMARK    3  A    between atoms: C6_8  and  N1_9 
REMARK    4  A    between atoms: C8_12  and  O4_13 
REMARK    5  A    between atoms: C9_15  and  C10_16 
REMARK    6  A    between atoms: C10_16  and  C11_18 
REMARK    7  A    between atoms: C17_25  and  C18_26 
ROOT
HETATM    1  N1  UNL     1       1.136  23.926   3.037  1.00  0.00    -0.298 N 
HETATM    2  C7  UNL     1       1.900  24.783   2.197  1.00  0.00     0.283 C 
HETATM    3  O3  UNL     1       1.673  25.970   1.809  1.00  0.00    -0.265 OA
HETATM    4  C8  UNL     1       3.107  24.009   1.828  1.00  0.00     0.147 C 
HETATM    5  C9  UNL     1       3.048  22.791   2.370  1.00  0.00     0.059 C 
HETATM    6  C17 UNL     1       1.539  22.630   2.676  1.00  0.00     0.168 C 
ENDROOT
BRANCH   1   7
HETATM    7  C6  UNL     1       0.303  24.317   4.107  1.00  0.00     0.038 A 
HETATM    8  C5  UNL     1      -0.464  25.433   4.228  1.00  0.00     0.030 A 
HETATM    9  C4  UNL     1      -1.227  25.705   5.369  1.00  0.00     0.010 A 
HETATM   10  C3  UNL     1      -1.248  24.858   6.447  1.00  0.00    -0.048 A 
HETATM   11  C25 UNL     1      -0.465  23.694   6.359  1.00  0.00     0.010 A 
HETATM   12  C24 UNL     1       0.261  23.459   5.240  1.00  0.00     0.030 A 
BRANCH  10  13
HETATM   13  C2  UNL     1      -2.052  25.128   7.660  1.00  0.00     0.151 C 
BRANCH  13  14
HETATM   14  C1  UNL     1      -2.118  26.598   7.943  1.00  0.00     0.176 C 
HETATM   15  O1  UNL     1      -3.247  27.183   7.816  1.00  0.00    -0.648 OA
HETATM   16  O2  UNL     1      -1.040  27.349   8.334  1.00  0.00    -0.648 OA
ENDBRANCH  13  14
ENDBRANCH  10  13
ENDBRANCH   1   7
BRANCH   6  17
HETATM   17  C18 UNL     1       0.838  21.909   1.616  1.00  0.00    -0.009 A 
HETATM   18  C19 UNL     1       1.005  22.344   0.291  1.00  0.00     0.011 A 
HETATM   19  C20 UNL     1       0.453  21.715  -0.794  1.00  0.00     0.001 A 
HETATM   20  C21 UNL     1      -0.318  20.587  -0.611  1.00  0.00     0.002 A 
HETATM   21  C22 UNL     1      -0.499  20.136   0.652  1.00  0.00     0.024 A 
HETATM   22  C23 UNL     1       0.069  20.787   1.743  1.00  0.00     0.042 A 
HETATM   23 CL2  UNL     1      -0.253  20.151   3.340  1.00  0.00    -0.084 Cl
ENDBRANCH   6  17
BRANCH   4  24
HETATM   24  O4  UNL     1       4.150  24.454   1.040  1.00  0.00    -0.355 OA
ATOM     25  H4  UNL     1       4.576  23.965   0.345  1.00  0.00     0.218 HD
ENDBRANCH   4  24
BRANCH   5  26
HETATM   26  C10 UNL     1       4.025  21.725   2.319  1.00  0.00     0.195 C 
HETATM   27  O5  UNL     1       5.188  21.906   1.910  1.00  0.00    -0.287 OA
BRANCH  26  28
HETATM   28  C11 UNL     1       3.697  20.365   2.748  1.00  0.00     0.036 A 
HETATM   29  C12 UNL     1       3.698  20.066   4.096  1.00  0.00     0.017 A 
HETATM   30  C13 UNL     1       3.375  18.791   4.538  1.00  0.00     0.001 A 
HETATM   31  C14 UNL     1       3.057  17.835   3.601  1.00  0.00     0.002 A 
HETATM   32  C15 UNL     1       3.062  18.153   2.251  1.00  0.00     0.025 A 
HETATM   33  C16 UNL     1       3.386  19.432   1.792  1.00  0.00     0.048 A 
HETATM   34 CL1  UNL     1       3.375  19.746   0.073  1.00  0.00    -0.083 Cl
ENDBRANCH  26  28
ENDBRANCH   5  26
TORSDOF 7
ENDMDL
