MODEL 5
REMARK VINA RESULT: -7.057945477      3.534      7.730
REMARK  7 active torsions:
REMARK  status: ('A' for Active; 'I' for Inactive)
REMARK    1  A    between atoms: C1_2  and  C2_4 
REMARK    2  A    between atoms: C2_4  and  C3_5 
REMARK    3  A    between atoms: C6_8  and  N1_9 
REMARK    4  A    between atoms: C8_12  and  O4_13 
REMARK    5  A    between atoms: C9_15  and  C10_16 
REMARK    6  A    between atoms: C10_16  and  C11_18 
REMARK    7  A    between atoms: C17_25  and  C18_26 
ROOT
HETATM    1  N1  UNL     1       1.516  21.049   0.365  1.00  0.00    -0.298 N 
HETATM    2  C7  UNL     1       2.467  19.991   0.375  1.00  0.00     0.283 C 
HETATM    3  O3  UNL     1       3.642  19.946   0.853  1.00  0.00    -0.265 OA
HETATM    4  C8  UNL     1       1.808  18.855  -0.307  1.00  0.00     0.147 C 
HETATM    5  C9  UNL     1       0.590  19.215  -0.716  1.00  0.00     0.059 C 
HETATM    6  C17 UNL     1       0.681  20.760  -0.727  1.00  0.00     0.168 C 
ENDROOT
BRANCH   1   7
HETATM    7  C6  UNL     1       1.357  22.050   1.347  1.00  0.00     0.038 A 
HETATM    8  C5  UNL     1       1.805  23.334   1.337  1.00  0.00     0.030 A 
HETATM    9  C4  UNL     1       1.594  24.216   2.403  1.00  0.00     0.010 A 
HETATM   10  C3  UNL     1       0.918  23.837   3.534  1.00  0.00    -0.048 A 
HETATM   11  C25 UNL     1       0.441  22.516   3.581  1.00  0.00     0.010 A 
HETATM   12  C24 UNL     1       0.661  21.688   2.533  1.00  0.00     0.030 A 
BRANCH  10  13
HETATM   13  C2  UNL     1       0.682  24.758   4.669  1.00  0.00     0.151 C 
BRANCH  13  14
HETATM   14  C1  UNL     1      -0.767  25.133   4.763  1.00  0.00     0.176 C 
HETATM   15  O1  UNL     1      -1.192  26.074   4.012  1.00  0.00    -0.648 OA
HETATM   16  O2  UNL     1      -1.660  24.523   5.605  1.00  0.00    -0.648 OA
ENDBRANCH  13  14
ENDBRANCH  10  13
ENDBRANCH   1   7
BRANCH   6  17
HETATM   17  C18 UNL     1       0.999  21.282  -2.055  1.00  0.00    -0.009 A 
HETATM   18  C19 UNL     1       2.266  21.006  -2.594  1.00  0.00     0.011 A 
HETATM   19  C20 UNL     1       2.660  21.384  -3.851  1.00  0.00     0.001 A 
HETATM   20  C21 UNL     1       1.786  22.079  -4.660  1.00  0.00     0.002 A 
HETATM   21  C22 UNL     1       0.554  22.360  -4.176  1.00  0.00     0.024 A 
HETATM   22  C23 UNL     1       0.171  21.969  -2.897  1.00  0.00     0.042 A 
HETATM   23 CL2  UNL     1      -1.428  22.412  -2.346  1.00  0.00    -0.084 Cl
ENDBRANCH   6  17
BRANCH   4  24
HETATM   24  O4  UNL     1       2.350  17.599  -0.507  1.00  0.00    -0.355 OA
ATOM     25  H4  UNL     1       2.728  17.040   0.162  1.00  0.00     0.218 HD
ENDBRANCH   4  24
BRANCH   5  26
HETATM   26  C10 UNL     1      -0.421  18.417  -1.374  1.00  0.00     0.195 C 
HETATM   27  O5  UNL     1      -0.995  17.468  -0.807  1.00  0.00    -0.287 OA
BRANCH  26  28
HETATM   28  C11 UNL     1      -0.826  18.682  -2.755  1.00  0.00     0.036 A 
HETATM   29  C12 UNL     1       0.061  18.417  -3.779  1.00  0.00     0.017 A 
HETATM   30  C13 UNL     1      -0.297  18.640  -5.102  1.00  0.00     0.001 A 
HETATM   31  C14 UNL     1      -1.554  19.132  -5.364  1.00  0.00     0.002 A 
HETATM   32  C15 UNL     1      -2.432  19.393  -4.323  1.00  0.00     0.025 A 
HETATM   33  C16 UNL     1      -2.085  19.174  -2.987  1.00  0.00     0.048 A 
HETATM   34 CL1  UNL     1      -3.250  19.536  -1.736  1.00  0.00    -0.083 Cl
ENDBRANCH  26  28
ENDBRANCH   5  26
TORSDOF 7
ENDMDL
