MODEL 7
REMARK VINA RESULT: -6.987442197      3.589      7.350
REMARK  7 active torsions:
REMARK  status: ('A' for Active; 'I' for Inactive)
REMARK    1  A    between atoms: C1_2  and  C2_4 
REMARK    2  A    between atoms: C2_4  and  C3_5 
REMARK    3  A    between atoms: C6_8  and  N1_9 
REMARK    4  A    between atoms: C8_12  and  O4_13 
REMARK    5  A    between atoms: C9_15  and  C10_16 
REMARK    6  A    between atoms: C10_16  and  C11_18 
REMARK    7  A    between atoms: C17_25  and  C18_26 
ROOT
HETATM    1  N1  UNL     1       1.188  23.862   2.955  1.00  0.00    -0.298 N 
HETATM    2  C7  UNL     1       1.954  24.740   2.139  1.00  0.00     0.283 C 
HETATM    3  O3  UNL     1       1.739  25.943   1.799  1.00  0.00    -0.265 OA
HETATM    4  C8  UNL     1       3.146  23.964   1.728  1.00  0.00     0.147 C 
HETATM    5  C9  UNL     1       3.076  22.728   2.225  1.00  0.00     0.059 C 
HETATM    6  C17 UNL     1       1.570  22.575   2.542  1.00  0.00     0.168 C 
ENDROOT
BRANCH   1   7
HETATM    7  C6  UNL     1       0.371  24.223   4.048  1.00  0.00     0.038 A 
HETATM    8  C5  UNL     1      -0.381  25.342   4.219  1.00  0.00     0.030 A 
HETATM    9  C4  UNL     1      -1.128  25.582   5.378  1.00  0.00     0.010 A 
HETATM   10  C3  UNL     1      -1.146  24.696   6.425  1.00  0.00    -0.048 A 
HETATM   11  C25 UNL     1      -0.378  23.527   6.286  1.00  0.00     0.010 A 
HETATM   12  C24 UNL     1       0.332  23.325   5.150  1.00  0.00     0.030 A 
BRANCH  10  13
HETATM   13  C2  UNL     1      -1.933  24.932   7.656  1.00  0.00     0.151 C 
BRANCH  13  14
HETATM   14  C1  UNL     1      -2.092  26.399   7.920  1.00  0.00     0.176 C 
HETATM   15  O1  UNL     1      -3.234  26.926   7.702  1.00  0.00    -0.648 OA
HETATM   16  O2  UNL     1      -1.083  27.204   8.382  1.00  0.00    -0.648 OA
ENDBRANCH  13  14
ENDBRANCH  10  13
ENDBRANCH   1   7
BRANCH   6  17
HETATM   17  C18 UNL     1       0.847  21.903   1.463  1.00  0.00    -0.009 A 
HETATM   18  C19 UNL     1       1.031  22.365   0.150  1.00  0.00     0.011 A 
HETATM   19  C20 UNL     1       0.461  21.780  -0.952  1.00  0.00     0.001 A 
HETATM   20  C21 UNL     1      -0.347  20.675  -0.796  1.00  0.00     0.002 A 
HETATM   21  C22 UNL     1      -0.546  20.199   0.455  1.00  0.00     0.024 A 
HETATM   22  C23 UNL     1       0.041  20.805   1.562  1.00  0.00     0.042 A 
HETATM   23 CL2  UNL     1      -0.306  20.141   3.143  1.00  0.00    -0.084 Cl
ENDBRANCH   6  17
BRANCH   4  24
HETATM   24  O4  UNL     1       4.187  24.425   0.945  1.00  0.00    -0.355 OA
ATOM     25  H4  UNL     1       4.749  23.895   0.392  1.00  0.00     0.218 HD
ENDBRANCH   4  24
BRANCH   5  26
HETATM   26  C10 UNL     1       4.038  21.652   2.123  1.00  0.00     0.195 C 
HETATM   27  O5  UNL     1       5.261  21.833   2.285  1.00  0.00    -0.287 OA
BRANCH  26  28
HETATM   28  C11 UNL     1       3.625  20.281   1.821  1.00  0.00     0.036 A 
HETATM   29  C12 UNL     1       3.579  19.868   0.504  1.00  0.00     0.017 A 
HETATM   30  C13 UNL     1       3.208  18.569   0.182  1.00  0.00     0.001 A 
HETATM   31  C14 UNL     1       2.887  17.709   1.206  1.00  0.00     0.002 A 
HETATM   32  C15 UNL     1       2.939  18.141   2.523  1.00  0.00     0.025 A 
HETATM   33  C16 UNL     1       3.310  19.445   2.861  1.00  0.00     0.048 A 
HETATM   34 CL1  UNL     1       3.341  19.910   4.545  1.00  0.00    -0.083 Cl
ENDBRANCH  26  28
ENDBRANCH   5  26
TORSDOF 7
ENDMDL
