MODEL 2
REMARK VINA RESULT: -7.208666696      1.747      2.369
REMARK  7 active torsions:
REMARK  status: ('A' for Active; 'I' for Inactive)
REMARK    1  A    between atoms: C1_2  and  C2_4 
REMARK    2  A    between atoms: C2_4  and  C3_5 
REMARK    3  A    between atoms: C6_8  and  N1_9 
REMARK    4  A    between atoms: C8_12  and  O4_13 
REMARK    5  A    between atoms: C9_15  and  C10_16 
REMARK    6  A    between atoms: C10_16  and  C11_18 
REMARK    7  A    between atoms: C17_25  and  C18_26 
ROOT
HETATM    1  N1  UNL     1       2.671  20.626   0.422  1.00  0.00    -0.298 N 
HETATM    2  C7  UNL     1       2.688  19.323   0.991  1.00  0.00     0.283 C 
HETATM    3  O3  UNL     1       1.929  18.326   0.786  1.00  0.00    -0.265 OA
HETATM    4  C8  UNL     1       3.833  19.311   1.930  1.00  0.00     0.147 C 
HETATM    5  C9  UNL     1       4.421  20.509   1.942  1.00  0.00     0.059 C 
HETATM    6  C17 UNL     1       3.318  21.433   1.373  1.00  0.00     0.168 C 
ENDROOT
BRANCH   1   7
HETATM    7  C6  UNL     1       2.255  20.973  -0.881  1.00  0.00     0.038 A 
HETATM    8  C5  UNL     1       1.320  21.881  -1.266  1.00  0.00     0.030 A 
HETATM    9  C4  UNL     1       0.988  22.103  -2.607  1.00  0.00     0.010 A 
HETATM   10  C3  UNL     1       1.589  21.411  -3.627  1.00  0.00    -0.048 A 
HETATM   11  C25 UNL     1       2.561  20.461  -3.268  1.00  0.00     0.010 A 
HETATM   12  C24 UNL     1       2.859  20.270  -1.960  1.00  0.00     0.030 A 
BRANCH  10  13
HETATM   13  C2  UNL     1       1.254  21.636  -5.051  1.00  0.00     0.151 C 
BRANCH  13  14
HETATM   14  C1  UNL     1       0.495  20.472  -5.614  1.00  0.00     0.176 C 
HETATM   15  O1  UNL     1       1.122  19.657  -6.370  1.00  0.00    -0.648 OA
HETATM   16  O2  UNL     1      -0.831  20.233  -5.361  1.00  0.00    -0.648 OA
ENDBRANCH  13  14
ENDBRANCH  10  13
ENDBRANCH   1   7
BRANCH   6  17
HETATM   17  C18 UNL     1       2.549  22.087   2.430  1.00  0.00    -0.009 A 
HETATM   18  C19 UNL     1       2.236  21.346   3.581  1.00  0.00     0.011 A 
HETATM   19  C20 UNL     1       1.578  21.864   4.666  1.00  0.00     0.001 A 
HETATM   20  C21 UNL     1       1.183  23.185   4.659  1.00  0.00     0.002 A 
HETATM   21  C22 UNL     1       1.470  23.931   3.567  1.00  0.00     0.024 A 
HETATM   22  C23 UNL     1       2.139  23.390   2.474  1.00  0.00     0.042 A 
HETATM   23 CL2  UNL     1       2.430  24.422   1.094  1.00  0.00    -0.084 Cl
ENDBRANCH   6  17
BRANCH   4  24
HETATM   24  O4  UNL     1       4.250  18.237   2.692  1.00  0.00    -0.355 OA
ATOM     25  H4  UNL     1       5.147  18.039   2.936  1.00  0.00     0.218 HD
ENDBRANCH   4  24
BRANCH   5  26
HETATM   26  C10 UNL     1       5.599  20.936   2.666  1.00  0.00     0.195 C 
HETATM   27  O5  UNL     1       5.623  21.981   3.344  1.00  0.00    -0.287 OA
BRANCH  26  28
HETATM   28  C11 UNL     1       6.838  20.157   2.638  1.00  0.00     0.036 A 
HETATM   29  C12 UNL     1       7.632  20.197   1.509  1.00  0.00     0.017 A 
HETATM   30  C13 UNL     1       8.823  19.485   1.456  1.00  0.00     0.001 A 
HETATM   31  C14 UNL     1       9.187  18.740   2.553  1.00  0.00     0.002 A 
HETATM   32  C15 UNL     1       8.378  18.712   3.678  1.00  0.00     0.025 A 
HETATM   33  C16 UNL     1       7.177  19.423   3.745  1.00  0.00     0.048 A 
HETATM   34 CL1  UNL     1       6.212  19.326   5.199  1.00  0.00    -0.083 Cl
ENDBRANCH  26  28
ENDBRANCH   5  26
TORSDOF 7
ENDMDL
