MODEL 3
REMARK VINA RESULT: -6.749343760      3.771      4.993
REMARK  7 active torsions:
REMARK  status: ('A' for Active; 'I' for Inactive)
REMARK    1  A    between atoms: C5_5  and  N1_6 
REMARK    2  A    between atoms: C7_9  and  O2_10 
REMARK    3  A    between atoms: C8_12  and  C9_13 
REMARK    4  A    between atoms: C9_13  and  O3_14 
REMARK    5  A    between atoms: C9_13  and  C10_16 
REMARK    6  A    between atoms: C16_22  and  C17_23 
REMARK    7  A    between atoms: C22_30  and  C23_31 
ROOT
HETATM    1  N1  UNL     1       1.849  20.413  -0.175  1.00  0.00    -0.298 N 
HETATM    2  C6  UNL     1       2.349  19.121  -0.266  1.00  0.00     0.283 A 
HETATM    3  O1  UNL     1       1.855  18.086  -0.821  1.00  0.00    -0.265 OA
HETATM    4  C7  UNL     1       3.643  19.169   0.445  1.00  0.00     0.146 A 
HETATM    5  C8  UNL     1       3.910  20.355   0.918  1.00  0.00     0.043 A 
HETATM    6  C16 UNL     1       2.745  21.242   0.497  1.00  0.00     0.172 A 
ENDROOT
BRANCH   1   7
HETATM    7  C5  UNL     1       0.556  20.755  -0.735  1.00  0.00     0.039 A 
HETATM    8  C4  UNL     1       0.432  21.643  -1.780  1.00  0.00     0.030 A 
HETATM    9  C3  UNL     1      -0.809  21.947  -2.308  1.00  0.00     0.010 A 
HETATM   10  C2  UNL     1      -1.958  21.374  -1.810  1.00  0.00    -0.045 A 
HETATM   11  C1  UNL     1      -3.303  21.702  -2.385  1.00  0.00     0.049 C 
HETATM   12  C22 UNL     1      -1.847  20.485  -0.766  1.00  0.00     0.048 A 
HETATM   13  C21 UNL     1      -0.598  20.189  -0.245  1.00  0.00     0.048 A 
BRANCH  12  14
HETATM   14  C23 UNL     1      -3.034  19.849  -0.198  1.00  0.00     0.210 C 
HETATM   15  O4  UNL     1      -3.414  18.722  -0.667  1.00  0.00    -0.644 OA
HETATM   16  O5  UNL     1      -3.776  20.382   0.816  1.00  0.00    -0.644 OA
ENDBRANCH  12  14
ENDBRANCH   1   7
BRANCH   6  17
HETATM   17  C17 UNL     1       2.140  21.860   1.722  1.00  0.00     0.012 A 
HETATM   18  C18 UNL     1       1.847  23.183   1.889  1.00  0.00     0.036 A 
HETATM   19  C19 UNL     1       1.305  23.556   3.062  1.00  0.00     0.018 A 
HETATM   20 BR1  UNL     1       0.815  25.394   3.496  1.00  0.00    -0.051 Br
HETATM   21  C20 UNL     1       1.094  22.570   3.991  1.00  0.00     0.069 A 
HETATM   22  S1  UNL     1       1.656  21.170   3.195  1.00  0.00    -0.103 SA
ENDBRANCH   6  17
BRANCH   4  23
HETATM   23  O2  UNL     1       4.460  18.023   0.558  1.00  0.00    -0.355 OA
ATOM     24  H2  UNL     1       5.137  17.963   1.224  1.00  0.00     0.218 HD
ENDBRANCH   4  23
BRANCH   5  25
HETATM   25  C9  UNL     1       5.014  20.905   1.676  1.00  0.00     0.087 C 
BRANCH  25  26
HETATM   26  O3  UNL     1       5.506  21.991   1.140  1.00  0.00    -0.359 OA
ATOM     27  H3  UNL     1       5.634  22.689   1.771  1.00  0.00     0.217 HD
ENDBRANCH  25  26
BRANCH  25  28
HETATM   28  C10 UNL     1       5.667  20.510   2.870  1.00  0.00    -0.002 A 
HETATM   29  C11 UNL     1       5.133  19.693   3.824  1.00  0.00     0.014 A 
HETATM   30  C12 UNL     1       5.855  19.254   4.919  1.00  0.00     0.001 A 
HETATM   31  C13 UNL     1       7.161  19.626   5.103  1.00  0.00     0.000 A 
HETATM   32  C14 UNL     1       7.709  20.456   4.146  1.00  0.00     0.001 A 
HETATM   33  C15 UNL     1       7.010  20.889   3.072  1.00  0.00     0.014 A 
ENDBRANCH  25  28
ENDBRANCH   5  25
TORSDOF 7
ENDMDL
