MODEL 4
REMARK VINA RESULT: -6.679398835      1.603      2.000
REMARK  7 active torsions:
REMARK  status: ('A' for Active; 'I' for Inactive)
REMARK    1  A    between atoms: C5_5  and  N1_6 
REMARK    2  A    between atoms: C7_9  and  O2_10 
REMARK    3  A    between atoms: C8_12  and  C9_13 
REMARK    4  A    between atoms: C9_13  and  O3_14 
REMARK    5  A    between atoms: C9_13  and  C10_16 
REMARK    6  A    between atoms: C16_22  and  C17_23 
REMARK    7  A    between atoms: C22_30  and  C23_31 
ROOT
HETATM    1  N1  UNL     1      -1.320  20.695  -1.159  1.00  0.00    -0.298 N 
HETATM    2  C6  UNL     1      -0.691  21.115  -2.324  1.00  0.00     0.283 A 
HETATM    3  O1  UNL     1      -1.030  20.960  -3.542  1.00  0.00    -0.265 OA
HETATM    4  C7  UNL     1       0.522  21.820  -1.861  1.00  0.00     0.146 A 
HETATM    5  C8  UNL     1       0.627  21.835  -0.561  1.00  0.00     0.043 A 
HETATM    6  C16 UNL     1      -0.610  21.116  -0.036  1.00  0.00     0.172 A 
ENDROOT
BRANCH   1   7
HETATM    7  C5  UNL     1      -2.547  19.923  -1.208  1.00  0.00     0.039 A 
HETATM    8  C4  UNL     1      -3.756  20.464  -0.835  1.00  0.00     0.030 A 
HETATM    9  C3  UNL     1      -4.918  19.716  -0.900  1.00  0.00     0.010 A 
HETATM   10  C2  UNL     1      -4.904  18.411  -1.341  1.00  0.00    -0.045 A 
HETATM   11  C1  UNL     1      -6.164  17.601  -1.416  1.00  0.00     0.049 C 
HETATM   12  C22 UNL     1      -3.700  17.860  -1.718  1.00  0.00     0.048 A 
HETATM   13  C21 UNL     1      -2.544  18.619  -1.647  1.00  0.00     0.048 A 
BRANCH  12  14
HETATM   14  C23 UNL     1      -3.628  16.480  -2.193  1.00  0.00     0.210 C 
HETATM   15  O4  UNL     1      -3.308  15.559  -1.367  1.00  0.00    -0.644 OA
HETATM   16  O5  UNL     1      -3.884  16.099  -3.479  1.00  0.00    -0.644 OA
ENDBRANCH  12  14
ENDBRANCH   1   7
BRANCH   6  17
HETATM   17  C17 UNL     1      -0.176  19.970   0.826  1.00  0.00     0.012 A 
HETATM   18  C18 UNL     1      -0.552  19.755   2.121  1.00  0.00     0.036 A 
HETATM   19  C19 UNL     1      -0.058  18.666   2.739  1.00  0.00     0.018 A 
HETATM   20 BR1  UNL     1      -0.474  18.183   4.582  1.00  0.00    -0.051 Br
HETATM   21  C20 UNL     1       0.784  17.866   2.011  1.00  0.00     0.069 A 
HETATM   22  S1  UNL     1       0.853  18.659   0.502  1.00  0.00    -0.103 SA
ENDBRANCH   6  17
BRANCH   4  23
HETATM   23  O2  UNL     1       1.426  22.402  -2.777  1.00  0.00    -0.355 OA
ATOM     24  H2  UNL     1       1.763  21.910  -3.516  1.00  0.00     0.218 HD
ENDBRANCH   4  23
BRANCH   5  25
HETATM   25  C9  UNL     1       1.606  22.374   0.359  1.00  0.00     0.087 C 
BRANCH  25  26
HETATM   26  O3  UNL     1       2.791  21.839   0.209  1.00  0.00    -0.359 OA
ATOM     27  H3  UNL     1       3.462  22.281   0.715  1.00  0.00     0.217 HD
ENDBRANCH  25  26
BRANCH  25  28
HETATM   28  C10 UNL     1       1.545  23.352   1.382  1.00  0.00    -0.002 A 
HETATM   29  C11 UNL     1       2.024  24.625   1.281  1.00  0.00     0.014 A 
HETATM   30  C12 UNL     1       1.842  25.572   2.273  1.00  0.00     0.001 A 
HETATM   31  C13 UNL     1       1.163  25.271   3.425  1.00  0.00     0.000 A 
HETATM   32  C14 UNL     1       0.678  23.984   3.538  1.00  0.00     0.001 A 
HETATM   33  C15 UNL     1       0.851  23.053   2.572  1.00  0.00     0.014 A 
ENDBRANCH  25  28
ENDBRANCH   5  25
TORSDOF 7
ENDMDL
