MODEL 2
REMARK VINA RESULT: -6.750767795      4.169      8.015
REMARK  7 active torsions:
REMARK  status: ('A' for Active; 'I' for Inactive)
REMARK    1  A    between atoms: C5_5  and  N1_6 
REMARK    2  A    between atoms: C7_9  and  O2_10 
REMARK    3  A    between atoms: C8_12  and  C9_13 
REMARK    4  A    between atoms: C9_13  and  O3_14 
REMARK    5  A    between atoms: C9_13  and  C10_16 
REMARK    6  A    between atoms: C16_22  and  C17_23 
REMARK    7  A    between atoms: C22_30  and  C23_31 
ROOT
HETATM    1  N1  UNL     1       3.089  19.811   1.384  1.00  0.00    -0.298 N 
HETATM    2  C6  UNL     1       3.180  19.114   0.186  1.00  0.00     0.283 A 
HETATM    3  O1  UNL     1       4.166  18.498  -0.333  1.00  0.00    -0.265 OA
HETATM    4  C7  UNL     1       1.834  19.224  -0.414  1.00  0.00     0.146 A 
HETATM    5  C8  UNL     1       1.010  19.908   0.329  1.00  0.00     0.043 A 
HETATM    6  C16 UNL     1       1.798  20.300   1.573  1.00  0.00     0.172 A 
ENDROOT
BRANCH   1   7
HETATM    7  C5  UNL     1       4.241  19.957   2.253  1.00  0.00     0.039 A 
HETATM    8  C4  UNL     1       5.225  20.884   1.999  1.00  0.00     0.030 A 
HETATM    9  C3  UNL     1       6.310  21.016   2.846  1.00  0.00     0.010 A 
HETATM   10  C2  UNL     1       6.441  20.229   3.968  1.00  0.00    -0.045 A 
HETATM   11  C1  UNL     1       7.615  20.375   4.889  1.00  0.00     0.049 C 
HETATM   12  C22 UNL     1       5.462  19.299   4.233  1.00  0.00     0.048 A 
HETATM   13  C21 UNL     1       4.380  19.175   3.377  1.00  0.00     0.048 A 
BRANCH  12  14
HETATM   14  C23 UNL     1       5.551  18.437   5.410  1.00  0.00     0.210 C 
HETATM   15  O4  UNL     1       4.856  18.728   6.442  1.00  0.00    -0.644 OA
HETATM   16  O5  UNL     1       6.336  17.322   5.484  1.00  0.00    -0.644 OA
ENDBRANCH  12  14
ENDBRANCH   1   7
BRANCH   6  17
HETATM   17  C17 UNL     1       1.769  21.792   1.714  1.00  0.00     0.012 A 
HETATM   18  C18 UNL     1       1.163  22.488   2.721  1.00  0.00     0.036 A 
HETATM   19  C19 UNL     1       1.242  23.831   2.681  1.00  0.00     0.018 A 
HETATM   20 BR1  UNL     1       0.445  25.004   4.021  1.00  0.00    -0.051 Br
HETATM   21  C20 UNL     1       1.926  24.384   1.630  1.00  0.00     0.069 A 
HETATM   22  S1  UNL     1       2.430  23.017   0.743  1.00  0.00    -0.103 SA
ENDBRANCH   6  17
BRANCH   4  23
HETATM   23  O2  UNL     1       1.535  18.623  -1.657  1.00  0.00    -0.355 OA
ATOM     24  H2  UNL     1       0.669  18.275  -1.840  1.00  0.00     0.218 HD
ENDBRANCH   4  23
BRANCH   5  25
HETATM   25  C9  UNL     1      -0.378  20.297   0.188  1.00  0.00     0.087 C 
BRANCH  25  26
HETATM   26  O3  UNL     1      -1.102  19.982   1.230  1.00  0.00    -0.359 OA
ATOM     27  H3  UNL     1      -1.117  20.665   1.889  1.00  0.00     0.217 HD
ENDBRANCH  25  26
BRANCH  25  28
HETATM   28  C10 UNL     1      -1.107  20.943  -0.841  1.00  0.00    -0.002 A 
HETATM   29  C11 UNL     1      -0.556  21.638  -1.877  1.00  0.00     0.014 A 
HETATM   30  C12 UNL     1      -1.311  22.159  -2.913  1.00  0.00     0.001 A 
HETATM   31  C13 UNL     1      -2.672  22.000  -2.947  1.00  0.00     0.000 A 
HETATM   32  C14 UNL     1      -3.240  21.302  -1.901  1.00  0.00     0.001 A 
HETATM   33  C15 UNL     1      -2.508  20.789  -0.886  1.00  0.00     0.014 A 
ENDBRANCH  25  28
ENDBRANCH   5  25
TORSDOF 7
ENDMDL
