MODEL 1
REMARK VINA RESULT: -6.885013659      0.000      0.000
REMARK  7 active torsions:
REMARK  status: ('A' for Active; 'I' for Inactive)
REMARK    1  A    between atoms: C5_5  and  N1_6 
REMARK    2  A    between atoms: C7_9  and  O2_10 
REMARK    3  A    between atoms: C8_12  and  C9_13 
REMARK    4  A    between atoms: C9_13  and  O3_14 
REMARK    5  A    between atoms: C9_13  and  C10_16 
REMARK    6  A    between atoms: C16_22  and  C17_23 
REMARK    7  A    between atoms: C22_30  and  C23_31 
ROOT
HETATM    1  N1  UNL     1      -1.317  20.706  -1.157  1.00  0.00    -0.298 N 
HETATM    2  C6  UNL     1      -0.697  21.134  -2.324  1.00  0.00     0.283 A 
HETATM    3  O1  UNL     1      -1.042  20.986  -3.540  1.00  0.00    -0.265 OA
HETATM    4  C7  UNL     1       0.518  21.841  -1.865  1.00  0.00     0.146 A 
HETATM    5  C8  UNL     1       0.630  21.848  -0.566  1.00  0.00     0.043 A 
HETATM    6  C16 UNL     1      -0.601  21.124  -0.037  1.00  0.00     0.172 A 
ENDROOT
BRANCH   1   7
HETATM    7  C5  UNL     1      -2.542  19.931  -1.203  1.00  0.00     0.039 A 
HETATM    8  C4  UNL     1      -2.597  18.702  -1.820  1.00  0.00     0.030 A 
HETATM    9  C3  UNL     1      -3.772  17.973  -1.843  1.00  0.00     0.010 A 
HETATM   10  C2  UNL     1      -4.921  18.449  -1.251  1.00  0.00    -0.045 A 
HETATM   11  C1  UNL     1      -6.194  17.658  -1.274  1.00  0.00     0.049 C 
HETATM   12  C22 UNL     1      -4.877  19.678  -0.632  1.00  0.00     0.048 A 
HETATM   13  C21 UNL     1      -3.695  20.399  -0.615  1.00  0.00     0.048 A 
BRANCH  12  14
HETATM   14  C23 UNL     1      -6.067  20.231   0.011  1.00  0.00     0.210 C 
HETATM   15  O4  UNL     1      -6.227  20.058   1.268  1.00  0.00    -0.644 OA
HETATM   16  O5  UNL     1      -7.036  20.933  -0.647  1.00  0.00    -0.644 OA
ENDBRANCH  12  14
ENDBRANCH   1   7
BRANCH   6  17
HETATM   17  C17 UNL     1      -0.157  19.974   0.817  1.00  0.00     0.012 A 
HETATM   18  C18 UNL     1      -0.524  19.752   2.113  1.00  0.00     0.036 A 
HETATM   19  C19 UNL     1      -0.023  18.661   2.722  1.00  0.00     0.018 A 
HETATM   20 BR1  UNL     1      -0.424  18.168   4.566  1.00  0.00    -0.051 Br
HETATM   21  C20 UNL     1       0.815  17.866   1.983  1.00  0.00     0.069 A 
HETATM   22  S1  UNL     1       0.871  18.666   0.478  1.00  0.00    -0.103 SA
ENDBRANCH   6  17
BRANCH   4  23
HETATM   23  O2  UNL     1       1.414  22.431  -2.783  1.00  0.00    -0.355 OA
ATOM     24  H2  UNL     1       2.202  22.873  -2.488  1.00  0.00     0.218 HD
ENDBRANCH   4  23
BRANCH   5  25
HETATM   25  C9  UNL     1       1.615  22.385   0.351  1.00  0.00     0.087 C 
BRANCH  25  26
HETATM   26  O3  UNL     1       2.795  21.843   0.202  1.00  0.00    -0.359 OA
ATOM     27  H3  UNL     1       3.497  22.483   0.199  1.00  0.00     0.217 HD
ENDBRANCH  25  26
BRANCH  25  28
HETATM   28  C10 UNL     1       1.560  23.368   1.370  1.00  0.00    -0.002 A 
HETATM   29  C11 UNL     1       2.063  24.632   1.271  1.00  0.00     0.014 A 
HETATM   30  C12 UNL     1       1.888  25.585   2.258  1.00  0.00     0.001 A 
HETATM   31  C13 UNL     1       1.192  25.300   3.403  1.00  0.00     0.000 A 
HETATM   32  C14 UNL     1       0.681  24.023   3.515  1.00  0.00     0.001 A 
HETATM   33  C15 UNL     1       0.848  23.086   2.554  1.00  0.00     0.014 A 
ENDBRANCH  25  28
ENDBRANCH   5  25
TORSDOF 7
ENDMDL
