MODEL 5
REMARK VINA RESULT: -6.673206301      3.940      5.581
REMARK  7 active torsions:
REMARK  status: ('A' for Active; 'I' for Inactive)
REMARK    1  A    between atoms: C5_5  and  N1_6 
REMARK    2  A    between atoms: C7_9  and  O2_10 
REMARK    3  A    between atoms: C8_12  and  C9_13 
REMARK    4  A    between atoms: C9_13  and  O3_14 
REMARK    5  A    between atoms: C9_13  and  C10_16 
REMARK    6  A    between atoms: C16_22  and  C17_23 
REMARK    7  A    between atoms: C22_30  and  C23_31 
ROOT
HETATM    1  N1  UNL     1       1.951  19.944   0.192  1.00  0.00    -0.298 N 
HETATM    2  C6  UNL     1       2.446  18.663   0.395  1.00  0.00     0.283 A 
HETATM    3  O1  UNL     1       1.931  17.530   0.125  1.00  0.00    -0.265 OA
HETATM    4  C7  UNL     1       3.768  18.868   1.024  1.00  0.00     0.146 A 
HETATM    5  C8  UNL     1       4.054  20.129   1.187  1.00  0.00     0.043 A 
HETATM    6  C16 UNL     1       2.874  20.901   0.610  1.00  0.00     0.172 A 
ENDROOT
BRANCH   1   7
HETATM    7  C5  UNL     1       0.637  20.155  -0.384  1.00  0.00     0.039 A 
HETATM    8  C4  UNL     1      -0.509  20.048   0.370  1.00  0.00     0.030 A 
HETATM    9  C3  UNL     1      -1.752  20.264  -0.195  1.00  0.00     0.010 A 
HETATM   10  C2  UNL     1      -1.886  20.594  -1.525  1.00  0.00    -0.045 A 
HETATM   11  C1  UNL     1      -3.234  20.831  -2.137  1.00  0.00     0.049 C 
HETATM   12  C22 UNL     1      -0.746  20.703  -2.290  1.00  0.00     0.048 A 
HETATM   13  C21 UNL     1       0.493  20.484  -1.713  1.00  0.00     0.048 A 
BRANCH  12  14
HETATM   14  C23 UNL     1      -0.830  21.049  -3.707  1.00  0.00     0.210 C 
HETATM   15  O4  UNL     1      -0.744  22.278  -4.049  1.00  0.00    -0.644 OA
HETATM   16  O5  UNL     1      -0.994  20.137  -4.709  1.00  0.00    -0.644 OA
ENDBRANCH  12  14
ENDBRANCH   1   7
BRANCH   6  17
HETATM   17  C17 UNL     1       2.318  21.802   1.672  1.00  0.00     0.012 A 
HETATM   18  C18 UNL     1       2.160  23.154   1.572  1.00  0.00     0.036 A 
HETATM   19  C19 UNL     1       1.642  23.799   2.634  1.00  0.00     0.018 A 
HETATM   20 BR1  UNL     1       1.337  25.725   2.690  1.00  0.00    -0.051 Br
HETATM   21  C20 UNL     1       1.318  23.038   3.727  1.00  0.00     0.069 A 
HETATM   22  S1  UNL     1       1.745  21.462   3.234  1.00  0.00    -0.103 SA
ENDBRANCH   6  17
BRANCH   4  23
HETATM   23  O2  UNL     1       4.588  17.774   1.379  1.00  0.00    -0.355 OA
ATOM     24  H2  UNL     1       5.528  17.876   1.481  1.00  0.00     0.218 HD
ENDBRANCH   4  23
BRANCH   5  25
HETATM   25  C9  UNL     1       5.187  20.835   1.748  1.00  0.00     0.087 C 
BRANCH  25  26
HETATM   26  O3  UNL     1       5.489  21.920   1.083  1.00  0.00    -0.359 OA
ATOM     27  H3  UNL     1       6.362  21.894   0.711  1.00  0.00     0.217 HD
ENDBRANCH  25  26
BRANCH  25  28
HETATM   28  C10 UNL     1       6.031  20.592   2.860  1.00  0.00    -0.002 A 
HETATM   29  C11 UNL     1       5.638  20.022   4.035  1.00  0.00     0.014 A 
HETATM   30  C12 UNL     1       6.527  19.710   5.048  1.00  0.00     0.001 A 
HETATM   31  C13 UNL     1       7.868  19.965   4.918  1.00  0.00     0.000 A 
HETATM   32  C14 UNL     1       8.275  20.545   3.734  1.00  0.00     0.001 A 
HETATM   33  C15 UNL     1       7.412  20.852   2.739  1.00  0.00     0.014 A 
ENDBRANCH  25  28
ENDBRANCH   5  25
TORSDOF 7
ENDMDL
