MODEL 2
REMARK VINA RESULT: -6.880750950      4.267      8.407
REMARK  7 active torsions:
REMARK  status: ('A' for Active; 'I' for Inactive)
REMARK    1  A    between atoms: O1_1  and  C1_3 
REMARK    2  A    between atoms: C1_3  and  C2_4 
REMARK    3  A    between atoms: C1_3  and  C17_28 
REMARK    4  A    between atoms: C3_5  and  O2_6 
REMARK    5  A    between atoms: N1_10  and  C5_11 
REMARK    6  A    between atoms: C9_16  and  C10_17 
REMARK    7  A    between atoms: C12_21  and  C13_22 
ROOT
HETATM    1  C2  UNL     1       0.238  19.428  -3.735  1.00  0.00     0.043 C 
HETATM    2  C3  UNL     1       0.293  20.605  -4.254  1.00  0.00     0.146 C 
HETATM    3  C4  UNL     1       0.389  21.612  -3.165  1.00  0.00     0.283 C 
HETATM    4  O3  UNL     1       0.452  22.876  -3.303  1.00  0.00    -0.265 OA
HETATM    5  N1  UNL     1       0.401  20.926  -1.932  1.00  0.00    -0.298 N 
HETATM    6  C12 UNL     1       0.112  19.556  -2.221  1.00  0.00     0.172 C 
ENDROOT
BRANCH   5   7
HETATM    7  C5  UNL     1       0.675  21.496  -0.634  1.00  0.00     0.040 A 
HETATM    8  C6  UNL     1      -0.231  21.263   0.375  1.00  0.00     0.031 A 
HETATM    9  C7  UNL     1      -0.055  21.759   1.656  1.00  0.00     0.027 A 
HETATM   10  C8  UNL     1       1.084  22.511   1.892  1.00  0.00     0.051 A 
HETATM   11 CL1  UNL     1       1.348  23.162   3.504  1.00  0.00    -0.083 Cl
HETATM   12  C9  UNL     1       2.023  22.771   0.909  1.00  0.00     0.064 A 
HETATM   13  C11 UNL     1       1.783  22.243  -0.352  1.00  0.00     0.050 A 
BRANCH  12  14
HETATM   14  C10 UNL     1       3.189  23.557   1.227  1.00  0.00     0.211 C 
HETATM   15  O4  UNL     1       3.133  24.800   1.214  1.00  0.00    -0.644 OA
HETATM   16  O5  UNL     1       4.367  22.925   1.544  1.00  0.00    -0.644 OA
ENDBRANCH  12  14
ENDBRANCH   5   7
BRANCH   6  17
HETATM   17  C13 UNL     1      -1.335  19.370  -1.818  1.00  0.00     0.012 A 
HETATM   18  C14 UNL     1      -1.926  18.426  -1.036  1.00  0.00     0.036 A 
HETATM   19  C15 UNL     1      -3.254  18.521  -0.839  1.00  0.00     0.018 A 
HETATM   20 BR1  UNL     1      -4.284  17.273   0.246  1.00  0.00    -0.051 Br
HETATM   21  C16 UNL     1      -3.901  19.564  -1.444  1.00  0.00     0.069 A 
HETATM   22  S1  UNL     1      -2.645  20.373  -2.262  1.00  0.00    -0.103 SA
ENDBRANCH   6  17
BRANCH   2  23
HETATM   23  O2  UNL     1       0.293  21.054  -5.559  1.00  0.00    -0.355 OA
ATOM     24  H2  UNL     1      -0.399  21.346  -6.140  1.00  0.00     0.218 HD
ENDBRANCH   2  23
BRANCH   1  25
HETATM   25  C1  UNL     1       0.178  18.112  -4.321  1.00  0.00     0.087 C 
BRANCH  25  26
HETATM   26  O1  UNL     1       1.320  17.449  -4.384  1.00  0.00    -0.359 OA
ATOM     27  H1  UNL     1       1.277  16.575  -4.752  1.00  0.00     0.217 HD
ENDBRANCH  25  26
BRANCH  25  28
HETATM   28  C17 UNL     1      -0.922  17.369  -4.863  1.00  0.00    -0.002 A 
HETATM   29  C18 UNL     1      -2.033  18.103  -5.341  1.00  0.00     0.014 A 
HETATM   30  C19 UNL     1      -3.159  17.483  -5.787  1.00  0.00     0.001 A 
HETATM   31  C20 UNL     1      -3.286  16.118  -5.799  1.00  0.00     0.000 A 
HETATM   32  C21 UNL     1      -2.211  15.403  -5.335  1.00  0.00     0.001 A 
HETATM   33  C22 UNL     1      -1.058  16.006  -4.876  1.00  0.00     0.014 A 
ENDBRANCH  25  28
ENDBRANCH   1  25
TORSDOF 7
ENDMDL
