MODEL 4
REMARK VINA RESULT: -6.855427368      6.946      8.582
REMARK  7 active torsions:
REMARK  status: ('A' for Active; 'I' for Inactive)
REMARK    1  A    between atoms: O1_1  and  C1_3 
REMARK    2  A    between atoms: C1_3  and  C2_4 
REMARK    3  A    between atoms: C1_3  and  C17_28 
REMARK    4  A    between atoms: C3_5  and  O2_6 
REMARK    5  A    between atoms: N1_10  and  C5_11 
REMARK    6  A    between atoms: C9_16  and  C10_17 
REMARK    7  A    between atoms: C12_21  and  C13_22 
ROOT
HETATM    1  C2  UNL     1       8.533  20.059  -0.408  1.00  0.00     0.043 C 
HETATM    2  C3  UNL     1       9.411  20.691  -1.106  1.00  0.00     0.146 C 
HETATM    3  C4  UNL     1       9.846  19.829  -2.237  1.00  0.00     0.283 C 
HETATM    4  O3  UNL     1      10.709  20.120  -3.126  1.00  0.00    -0.265 OA
HETATM    5  N1  UNL     1       9.130  18.615  -2.162  1.00  0.00    -0.298 N 
HETATM    6  C12 UNL     1       8.429  18.626  -0.916  1.00  0.00     0.172 C 
ENDROOT
BRANCH   5   7
HETATM    7  C5  UNL     1       9.098  17.575  -3.163  1.00  0.00     0.040 A 
HETATM    8  C6  UNL     1      10.131  16.664  -3.178  1.00  0.00     0.031 A 
HETATM    9  C7  UNL     1      10.186  15.626  -4.092  1.00  0.00     0.027 A 
HETATM   10  C8  UNL     1       9.151  15.531  -5.007  1.00  0.00     0.051 A 
HETATM   11 CL1  UNL     1       9.183  14.228  -6.188  1.00  0.00    -0.083 Cl
HETATM   12  C9  UNL     1       8.093  16.423  -5.030  1.00  0.00     0.064 A 
HETATM   13  C11 UNL     1       8.100  17.440  -4.086  1.00  0.00     0.050 A 
BRANCH  12  14
HETATM   14  C10 UNL     1       7.046  16.261  -6.008  1.00  0.00     0.211 C 
HETATM   15  O4  UNL     1       6.026  15.602  -5.737  1.00  0.00    -0.644 OA
HETATM   16  O5  UNL     1       7.180  16.840  -7.247  1.00  0.00    -0.644 OA
ENDBRANCH  12  14
ENDBRANCH   5   7
BRANCH   6  17
HETATM   17  C13 UNL     1       9.227  17.711  -0.012  1.00  0.00     0.012 A 
HETATM   18  C14 UNL     1      10.512  17.793   0.425  1.00  0.00     0.036 A 
HETATM   19  C15 UNL     1      10.955  16.823   1.246  1.00  0.00     0.018 A 
HETATM   20 BR1  UNL     1      12.759  16.760   1.981  1.00  0.00    -0.051 Br
HETATM   21  C16 UNL     1      10.072  15.830   1.572  1.00  0.00     0.069 A 
HETATM   22  S1  UNL     1       8.661  16.280   0.731  1.00  0.00    -0.103 SA
ENDBRANCH   6  17
BRANCH   2  23
HETATM   23  O2  UNL     1       9.965  21.950  -0.996  1.00  0.00    -0.355 OA
ATOM     24  H2  UNL     1      10.622  22.412  -1.505  1.00  0.00     0.218 HD
ENDBRANCH   2  23
BRANCH   1  25
HETATM   25  C1  UNL     1       7.766  20.434   0.753  1.00  0.00     0.087 C 
BRANCH  25  26
HETATM   26  O1  UNL     1       6.697  21.181   0.530  1.00  0.00    -0.359 OA
ATOM     27  H1  UNL     1       6.379  21.688   1.267  1.00  0.00     0.217 HD
ENDBRANCH  25  26
BRANCH  25  28
HETATM   28  C17 UNL     1       7.952  20.139   2.144  1.00  0.00    -0.002 A 
HETATM   29  C18 UNL     1       7.010  19.283   2.761  1.00  0.00     0.014 A 
HETATM   30  C19 UNL     1       7.051  19.020   4.095  1.00  0.00     0.001 A 
HETATM   31  C20 UNL     1       8.001  19.567   4.919  1.00  0.00     0.000 A 
HETATM   32  C21 UNL     1       8.915  20.398   4.324  1.00  0.00     0.001 A 
HETATM   33  C22 UNL     1       8.896  20.683   2.973  1.00  0.00     0.014 A 
ENDBRANCH  25  28
ENDBRANCH   1  25
TORSDOF 7
ENDMDL
