MODEL 3
REMARK VINA RESULT: -6.876721020      1.386      1.754
REMARK  7 active torsions:
REMARK  status: ('A' for Active; 'I' for Inactive)
REMARK    1  A    between atoms: O1_1  and  C1_3 
REMARK    2  A    between atoms: C1_3  and  C2_4 
REMARK    3  A    between atoms: C1_3  and  C17_28 
REMARK    4  A    between atoms: C3_5  and  O2_6 
REMARK    5  A    between atoms: N1_10  and  C5_11 
REMARK    6  A    between atoms: C9_16  and  C10_17 
REMARK    7  A    between atoms: C12_21  and  C13_22 
ROOT
HETATM    1  C2  UNL     1       4.185  20.377   1.117  1.00  0.00     0.043 C 
HETATM    2  C3  UNL     1       3.801  19.156   0.982  1.00  0.00     0.146 C 
HETATM    3  C4  UNL     1       2.431  19.138   0.404  1.00  0.00     0.283 C 
HETATM    4  O3  UNL     1       1.731  18.108   0.142  1.00  0.00    -0.265 OA
HETATM    5  N1  UNL     1       2.029  20.473   0.188  1.00  0.00    -0.298 N 
HETATM    6  C12 UNL     1       3.018  21.305   0.800  1.00  0.00     0.172 C 
ENDROOT
BRANCH   5   7
HETATM    7  C5  UNL     1       0.857  20.911  -0.531  1.00  0.00     0.040 A 
HETATM    8  C6  UNL     1       1.022  21.863  -1.512  1.00  0.00     0.031 A 
HETATM    9  C7  UNL     1      -0.038  22.342  -2.263  1.00  0.00     0.027 A 
HETATM   10  C8  UNL     1      -1.293  21.823  -1.990  1.00  0.00     0.051 A 
HETATM   11 CL1  UNL     1      -2.669  22.405  -2.918  1.00  0.00    -0.083 Cl
HETATM   12  C9  UNL     1      -1.508  20.866  -1.013  1.00  0.00     0.064 A 
HETATM   13  C11 UNL     1      -0.401  20.430  -0.299  1.00  0.00     0.050 A 
BRANCH  12  14
HETATM   14  C10 UNL     1      -2.840  20.366  -0.786  1.00  0.00     0.211 C 
HETATM   15  O4  UNL     1      -3.546  20.842   0.121  1.00  0.00    -0.644 OA
HETATM   16  O5  UNL     1      -3.330  19.356  -1.579  1.00  0.00    -0.644 OA
ENDBRANCH  12  14
ENDBRANCH   5   7
BRANCH   6  17
HETATM   17  C13 UNL     1       2.384  21.778   2.091  1.00  0.00     0.012 A 
HETATM   18  C14 UNL     1       1.783  22.956   2.407  1.00  0.00     0.036 A 
HETATM   19  C15 UNL     1       1.292  23.092   3.653  1.00  0.00     0.018 A 
HETATM   20 BR1  UNL     1       0.395  24.697   4.298  1.00  0.00    -0.051 Br
HETATM   21  C16 UNL     1       1.440  22.029   4.501  1.00  0.00     0.069 A 
HETATM   22  S1  UNL     1       2.253  20.881   3.540  1.00  0.00    -0.103 SA
ENDBRANCH   6  17
BRANCH   2  23
HETATM   23  O2  UNL     1       4.410  17.947   1.251  1.00  0.00    -0.355 OA
ATOM     24  H2  UNL     1       4.237  17.059   0.959  1.00  0.00     0.218 HD
ENDBRANCH   2  23
BRANCH   1  25
HETATM   25  C1  UNL     1       5.419  20.959   1.583  1.00  0.00     0.087 C 
BRANCH  25  26
HETATM   26  O1  UNL     1       5.893  21.967   0.872  1.00  0.00    -0.359 OA
ATOM     27  H1  UNL     1       6.083  22.766   1.350  1.00  0.00     0.217 HD
ENDBRANCH  25  26
BRANCH  25  28
HETATM   28  C17 UNL     1       6.249  20.637   2.707  1.00  0.00    -0.002 A 
HETATM   29  C18 UNL     1       7.643  20.830   2.565  1.00  0.00     0.014 A 
HETATM   30  C19 UNL     1       8.518  20.467   3.542  1.00  0.00     0.001 A 
HETATM   31  C20 UNL     1       8.104  19.894   4.717  1.00  0.00     0.000 A 
HETATM   32  C21 UNL     1       6.752  19.705   4.858  1.00  0.00     0.001 A 
HETATM   33  C22 UNL     1       5.844  20.063   3.882  1.00  0.00     0.014 A 
ENDBRANCH  25  28
ENDBRANCH   1  25
TORSDOF 7
ENDMDL
