MODEL 5
REMARK VINA RESULT: -6.837295930      4.077      6.671
REMARK  7 active torsions:
REMARK  status: ('A' for Active; 'I' for Inactive)
REMARK    1  A    between atoms: O1_1  and  C1_3 
REMARK    2  A    between atoms: C1_3  and  C2_4 
REMARK    3  A    between atoms: C1_3  and  C17_28 
REMARK    4  A    between atoms: C3_5  and  O2_6 
REMARK    5  A    between atoms: N1_10  and  C5_11 
REMARK    6  A    between atoms: C9_16  and  C10_17 
REMARK    7  A    between atoms: C12_21  and  C13_22 
ROOT
HETATM    1  C2  UNL     1       2.884  22.629   1.932  1.00  0.00     0.043 C 
HETATM    2  C3  UNL     1       2.651  23.879   1.732  1.00  0.00     0.146 C 
HETATM    3  C4  UNL     1       1.624  24.344   2.702  1.00  0.00     0.283 C 
HETATM    4  O3  UNL     1       1.141  25.518   2.793  1.00  0.00    -0.265 OA
HETATM    5  N1  UNL     1       1.267  23.250   3.520  1.00  0.00    -0.298 N 
HETATM    6  C12 UNL     1       1.888  22.093   2.953  1.00  0.00     0.172 C 
ENDROOT
BRANCH   5   7
HETATM    7  C5  UNL     1       0.452  23.298   4.710  1.00  0.00     0.040 A 
HETATM    8  C6  UNL     1      -0.660  24.110   4.696  1.00  0.00     0.031 A 
HETATM    9  C7  UNL     1      -1.510  24.218   5.784  1.00  0.00     0.027 A 
HETATM   10  C8  UNL     1      -1.198  23.470   6.907  1.00  0.00     0.051 A 
HETATM   11 CL1  UNL     1      -2.249  23.579   8.313  1.00  0.00    -0.083 Cl
HETATM   12  C9  UNL     1      -0.091  22.641   6.968  1.00  0.00     0.064 A 
HETATM   13  C11 UNL     1       0.717  22.580   5.841  1.00  0.00     0.050 A 
BRANCH  12  14
HETATM   14  C10 UNL     1       0.169  21.887   8.168  1.00  0.00     0.211 C 
HETATM   15  O4  UNL     1      -0.169  20.693   8.248  1.00  0.00    -0.644 OA
HETATM   16  O5  UNL     1       0.795  22.497   9.229  1.00  0.00    -0.644 OA
ENDBRANCH  12  14
ENDBRANCH   5   7
BRANCH   6  17
HETATM   17  C13 UNL     1       0.772  21.365   2.236  1.00  0.00     0.012 A 
HETATM   18  C14 UNL     1       0.172  21.613   1.041  1.00  0.00     0.036 A 
HETATM   19  C15 UNL     1      -0.802  20.773   0.645  1.00  0.00     0.018 A 
HETATM   20 BR1  UNL     1      -1.779  20.955  -1.031  1.00  0.00    -0.051 Br
HETATM   21  C16 UNL     1      -1.110  19.736   1.483  1.00  0.00     0.069 A 
HETATM   22  S1  UNL     1      -0.037  19.963   2.786  1.00  0.00    -0.103 SA
ENDBRANCH   6  17
BRANCH   2  23
HETATM   23  O2  UNL     1       3.170  24.799   0.843  1.00  0.00    -0.355 OA
ATOM     24  H2  UNL     1       3.875  25.433   0.910  1.00  0.00     0.218 HD
ENDBRANCH   2  23
BRANCH   1  25
HETATM   25  C1  UNL     1       3.800  21.704   1.314  1.00  0.00     0.087 C 
BRANCH  25  26
HETATM   26  O1  UNL     1       3.432  21.214   0.141  1.00  0.00    -0.359 OA
ATOM     27  H1  UNL     1       3.338  20.270   0.092  1.00  0.00     0.217 HD
ENDBRANCH  25  26
BRANCH  25  28
HETATM   28  C17 UNL     1       5.071  21.202   1.747  1.00  0.00    -0.002 A 
HETATM   29  C18 UNL     1       5.501  21.550   3.049  1.00  0.00     0.014 A 
HETATM   30  C19 UNL     1       6.731  21.198   3.512  1.00  0.00     0.001 A 
HETATM   31  C20 UNL     1       7.624  20.491   2.749  1.00  0.00     0.000 A 
HETATM   32  C21 UNL     1       7.211  20.152   1.486  1.00  0.00     0.001 A 
HETATM   33  C22 UNL     1       5.970  20.497   0.991  1.00  0.00     0.014 A 
ENDBRANCH  25  28
ENDBRANCH   1  25
TORSDOF 7
ENDMDL
