MODEL 6
REMARK VINA RESULT: -6.864156085      4.062      6.818
REMARK  7 active torsions:
REMARK  status: ('A' for Active; 'I' for Inactive)
REMARK    1  A    between atoms: C1_2  and  C2_4 
REMARK    2  A    between atoms: C2_4  and  C3_5 
REMARK    3  A    between atoms: C6_8  and  N1_9 
REMARK    4  A    between atoms: C8_12  and  O4_13 
REMARK    5  A    between atoms: C9_15  and  C10_16 
REMARK    6  A    between atoms: C10_16  and  C11_18 
REMARK    7  A    between atoms: C15_24  and  C16_25 
ROOT
HETATM    1  N1  UNL     1       1.321  23.615   3.129  1.00  0.00    -0.298 N 
HETATM    2  C7  UNL     1       1.855  24.436   2.120  1.00  0.00     0.283 C 
HETATM    3  O3  UNL     1       1.449  25.590   1.805  1.00  0.00    -0.265 OA
HETATM    4  C8  UNL     1       2.958  23.682   1.532  1.00  0.00     0.147 C 
HETATM    5  C9  UNL     1       3.088  22.516   2.094  1.00  0.00     0.060 C 
HETATM    6  C15 UNL     1       1.896  22.330   2.998  1.00  0.00     0.173 C 
ENDROOT
BRANCH   1   7
HETATM    7  C6  UNL     1       0.363  24.017   4.148  1.00  0.00     0.038 A 
HETATM    8  C5  UNL     1       0.214  23.299   5.314  1.00  0.00     0.030 A 
HETATM    9  C4  UNL     1      -0.708  23.732   6.272  1.00  0.00     0.010 A 
HETATM   10  C3  UNL     1      -1.482  24.860   6.094  1.00  0.00    -0.048 A 
HETATM   11  C21 UNL     1      -1.317  25.569   4.914  1.00  0.00     0.010 A 
HETATM   12  C20 UNL     1      -0.419  25.141   3.990  1.00  0.00     0.030 A 
BRANCH  10  13
HETATM   13  C2  UNL     1      -2.457  25.318   7.131  1.00  0.00     0.151 C 
BRANCH  13  14
HETATM   14  C1  UNL     1      -1.786  26.110   8.186  1.00  0.00     0.176 C 
HETATM   15  O1  UNL     1      -1.801  25.711   9.364  1.00  0.00    -0.648 OA
HETATM   16  O2  UNL     1      -1.141  27.292   7.873  1.00  0.00    -0.648 OA
ENDBRANCH  13  14
ENDBRANCH  10  13
ENDBRANCH   1   7
BRANCH   6  17
HETATM   17  C16 UNL     1       0.901  21.479   2.242  1.00  0.00     0.012 A 
HETATM   18  C17 UNL     1       0.610  21.381   0.921  1.00  0.00     0.036 A 
HETATM   19  C18 UNL     1      -0.348  20.509   0.557  1.00  0.00     0.018 A 
HETATM   20 BR1  UNL     1      -0.903  20.226  -1.284  1.00  0.00    -0.051 Br
HETATM   21  C19 UNL     1      -0.951  19.787   1.552  1.00  0.00     0.069 A 
HETATM   22  S2  UNL     1      -0.156  20.359   2.958  1.00  0.00    -0.103 SA
ENDBRANCH   6  17
BRANCH   4  23
HETATM   23  O4  UNL     1       3.759  24.189   0.485  1.00  0.00    -0.355 OA
ATOM     24  H4  UNL     1       4.104  25.074   0.483  1.00  0.00     0.218 HD
ENDBRANCH   4  23
BRANCH   5  25
HETATM   25  C10 UNL     1       4.052  21.420   1.865  1.00  0.00     0.200 C 
HETATM   26  O5  UNL     1       4.249  21.126   0.636  1.00  0.00    -0.286 OA
BRANCH  25  27
HETATM   27  C11 UNL     1       4.760  20.680   2.864  1.00  0.00     0.057 A 
HETATM   28  C12 UNL     1       6.015  20.992   3.339  1.00  0.00     0.025 A 
HETATM   29  C13 UNL     1       6.522  20.198   4.273  1.00  0.00     0.033 A 
HETATM   30  C14 UNL     1       5.777  19.129   4.705  1.00  0.00     0.075 A 
HETATM   31 CL1  UNL     1       6.206  17.925   5.926  1.00  0.00    -0.076 Cl
HETATM   32  S1  UNL     1       4.371  19.291   3.760  1.00  0.00    -0.074 SA
ENDBRANCH  25  27
ENDBRANCH   5  25
TORSDOF 7
ENDMDL
