MODEL 3
REMARK VINA RESULT: -6.909317832      3.547      5.969
REMARK  7 active torsions:
REMARK  status: ('A' for Active; 'I' for Inactive)
REMARK    1  A    between atoms: C1_2  and  C2_4 
REMARK    2  A    between atoms: C2_4  and  C3_5 
REMARK    3  A    between atoms: C6_8  and  N1_9 
REMARK    4  A    between atoms: C8_12  and  O4_13 
REMARK    5  A    between atoms: C9_15  and  C10_16 
REMARK    6  A    between atoms: C10_16  and  C11_18 
REMARK    7  A    between atoms: C15_24  and  C16_25 
ROOT
HETATM    1  N1  UNL     1       2.217  22.748   2.474  1.00  0.00    -0.298 N 
HETATM    2  C7  UNL     1       3.325  23.052   1.663  1.00  0.00     0.283 C 
HETATM    3  O3  UNL     1       3.564  24.164   1.113  1.00  0.00    -0.265 OA
HETATM    4  C8  UNL     1       4.123  21.831   1.598  1.00  0.00     0.147 C 
HETATM    5  C9  UNL     1       3.569  20.867   2.275  1.00  0.00     0.060 C 
HETATM    6  C15 UNL     1       2.201  21.350   2.685  1.00  0.00     0.173 C 
ENDROOT
BRANCH   1   7
HETATM    7  C6  UNL     1       1.264  23.701   3.022  1.00  0.00     0.038 A 
HETATM    8  C5  UNL     1       1.148  24.974   2.507  1.00  0.00     0.030 A 
HETATM    9  C4  UNL     1       0.207  25.851   3.056  1.00  0.00     0.010 A 
HETATM   10  C3  UNL     1      -0.616  25.490   4.102  1.00  0.00    -0.048 A 
HETATM   11  C21 UNL     1      -0.483  24.205   4.606  1.00  0.00     0.010 A 
HETATM   12  C20 UNL     1       0.433  23.360   4.066  1.00  0.00     0.030 A 
BRANCH  10  13
HETATM   13  C2  UNL     1      -1.625  26.435   4.672  1.00  0.00     0.151 C 
BRANCH  13  14
HETATM   14  C1  UNL     1      -2.350  25.824   5.808  1.00  0.00     0.176 C 
HETATM   15  O1  UNL     1      -1.922  25.971   6.967  1.00  0.00    -0.648 OA
HETATM   16  O2  UNL     1      -3.503  25.092   5.593  1.00  0.00    -0.648 OA
ENDBRANCH  13  14
ENDBRANCH  10  13
ENDBRANCH   1   7
BRANCH   6  17
HETATM   17  C16 UNL     1       1.215  20.768   1.697  1.00  0.00     0.012 A 
HETATM   18  C17 UNL     1       0.863  21.140   0.441  1.00  0.00     0.036 A 
HETATM   19  C18 UNL     1      -0.063  20.398  -0.192  1.00  0.00     0.018 A 
HETATM   20 BR1  UNL     1      -0.695  20.769  -1.992  1.00  0.00    -0.051 Br
HETATM   21  C19 UNL     1      -0.575  19.322   0.484  1.00  0.00     0.069 A 
HETATM   22  S2  UNL     1       0.258  19.394   1.979  1.00  0.00    -0.103 SA
ENDBRANCH   6  17
BRANCH   4  23
HETATM   23  O4  UNL     1       5.335  21.746   0.881  1.00  0.00    -0.355 OA
ATOM     24  H4  UNL     1       5.370  21.574  -0.053  1.00  0.00     0.218 HD
ENDBRANCH   4  23
BRANCH   5  25
HETATM   25  C10 UNL     1       3.994  19.474   2.523  1.00  0.00     0.200 C 
HETATM   26  O5  UNL     1       3.774  18.665   1.556  1.00  0.00    -0.286 OA
BRANCH  25  27
HETATM   27  C11 UNL     1       4.607  18.965   3.711  1.00  0.00     0.057 A 
HETATM   28  C12 UNL     1       5.818  19.382   4.217  1.00  0.00     0.025 A 
HETATM   29  C13 UNL     1       6.237  18.804   5.336  1.00  0.00     0.033 A 
HETATM   30  C14 UNL     1       5.449  17.839   5.914  1.00  0.00     0.075 A 
HETATM   31 CL1  UNL     1       5.761  16.917   7.390  1.00  0.00    -0.076 Cl
HETATM   32  S1  UNL     1       4.132  17.787   4.838  1.00  0.00    -0.074 SA
ENDBRANCH  25  27
ENDBRANCH   5  25
TORSDOF 7
ENDMDL
