MODEL 1
REMARK VINA RESULT: -7.108649119      0.000      0.000
REMARK  7 active torsions:
REMARK  status: ('A' for Active; 'I' for Inactive)
REMARK    1  A    between atoms: C1_2  and  C2_4 
REMARK    2  A    between atoms: C2_4  and  C3_5 
REMARK    3  A    between atoms: C6_8  and  N1_9 
REMARK    4  A    between atoms: C8_12  and  O4_13 
REMARK    5  A    between atoms: C9_15  and  C10_16 
REMARK    6  A    between atoms: C10_16  and  C11_18 
REMARK    7  A    between atoms: C15_24  and  C16_25 
ROOT
HETATM    1  N1  UNL     1       1.302  20.474   0.633  1.00  0.00    -0.298 N 
HETATM    2  C7  UNL     1       1.342  19.502   1.650  1.00  0.00     0.283 C 
HETATM    3  O3  UNL     1       0.388  18.753   2.003  1.00  0.00    -0.265 OA
HETATM    4  C8  UNL     1       2.696  19.546   2.194  1.00  0.00     0.147 C 
HETATM    5  C9  UNL     1       3.416  20.452   1.600  1.00  0.00     0.060 C 
HETATM    6  C15 UNL     1       2.484  21.245   0.720  1.00  0.00     0.173 C 
ENDROOT
BRANCH   1   7
HETATM    7  C6  UNL     1       0.246  20.644  -0.352  1.00  0.00     0.038 A 
HETATM    8  C5  UNL     1       0.431  21.426  -1.472  1.00  0.00     0.030 A 
HETATM    9  C4  UNL     1      -0.608  21.548  -2.401  1.00  0.00     0.010 A 
HETATM   10  C3  UNL     1      -1.821  20.912  -2.238  1.00  0.00    -0.048 A 
HETATM   11  C21 UNL     1      -1.987  20.131  -1.105  1.00  0.00     0.010 A 
HETATM   12  C20 UNL     1      -0.973  20.018  -0.209  1.00  0.00     0.030 A 
BRANCH  10  13
HETATM   13  C2  UNL     1      -2.920  21.043  -3.244  1.00  0.00     0.151 C 
BRANCH  13  14
HETATM   14  C1  UNL     1      -3.082  19.798  -4.027  1.00  0.00     0.176 C 
HETATM   15  O1  UNL     1      -4.095  19.094  -3.868  1.00  0.00    -0.648 OA
HETATM   16  O2  UNL     1      -2.116  19.411  -4.937  1.00  0.00    -0.648 OA
ENDBRANCH  13  14
ENDBRANCH  10  13
ENDBRANCH   1   7
BRANCH   6  17
HETATM   17  C16 UNL     1       2.131  22.505   1.477  1.00  0.00     0.012 A 
HETATM   18  C17 UNL     1       1.328  22.725   2.548  1.00  0.00     0.036 A 
HETATM   19  C18 UNL     1       1.222  23.989   2.998  1.00  0.00     0.018 A 
HETATM   20 BR1  UNL     1       0.125  24.501   4.519  1.00  0.00    -0.051 Br
HETATM   21  C19 UNL     1       1.937  24.952   2.338  1.00  0.00     0.069 A 
HETATM   22  S2  UNL     1       2.727  24.053   1.113  1.00  0.00    -0.103 SA
ENDBRANCH   6  17
BRANCH   4  23
HETATM   23  O4  UNL     1       3.131  18.696   3.234  1.00  0.00    -0.355 OA
ATOM     24  H4  UNL     1       3.537  19.021   4.029  1.00  0.00     0.218 HD
ENDBRANCH   4  23
BRANCH   5  25
HETATM   25  C10 UNL     1       4.827  20.856   1.778  1.00  0.00     0.200 C 
HETATM   26  O5  UNL     1       5.230  21.766   0.974  1.00  0.00    -0.286 OA
BRANCH  25  27
HETATM   27  C11 UNL     1       5.751  20.337   2.738  1.00  0.00     0.057 A 
HETATM   28  C12 UNL     1       6.338  21.067   3.747  1.00  0.00     0.025 A 
HETATM   29  C13 UNL     1       7.171  20.422   4.554  1.00  0.00     0.033 A 
HETATM   30  C14 UNL     1       7.395  19.084   4.338  1.00  0.00     0.075 A 
HETATM   31 CL1  UNL     1       8.444  17.993   5.251  1.00  0.00    -0.076 Cl
HETATM   32  S1  UNL     1       6.406  18.789   2.984  1.00  0.00    -0.074 SA
ENDBRANCH  25  27
ENDBRANCH   5  25
TORSDOF 7
ENDMDL
