MODEL 4
REMARK VINA RESULT: -6.870372778      3.787      5.804
REMARK  7 active torsions:
REMARK  status: ('A' for Active; 'I' for Inactive)
REMARK    1  A    between atoms: C1_2  and  C2_4 
REMARK    2  A    between atoms: C2_4  and  C3_5 
REMARK    3  A    between atoms: C6_8  and  N1_9 
REMARK    4  A    between atoms: C8_12  and  O4_13 
REMARK    5  A    between atoms: C9_15  and  C10_16 
REMARK    6  A    between atoms: C10_16  and  C11_18 
REMARK    7  A    between atoms: C15_24  and  C16_25 
ROOT
HETATM    1  N1  UNL     1       2.166  21.356   2.473  1.00  0.00    -0.298 N 
HETATM    2  C7  UNL     1       1.852  20.951   1.163  1.00  0.00     0.283 C 
HETATM    3  O3  UNL     1       0.830  21.289   0.503  1.00  0.00    -0.265 OA
HETATM    4  C8  UNL     1       2.942  20.076   0.741  1.00  0.00     0.147 C 
HETATM    5  C9  UNL     1       3.827  19.934   1.684  1.00  0.00     0.060 C 
HETATM    6  C15 UNL     1       3.254  20.573   2.923  1.00  0.00     0.173 C 
ENDROOT
BRANCH   1   7
HETATM    7  C6  UNL     1       1.508  22.411   3.228  1.00  0.00     0.038 A 
HETATM    8  C5  UNL     1       1.435  23.700   2.745  1.00  0.00     0.030 A 
HETATM    9  C4  UNL     1       0.778  24.677   3.499  1.00  0.00     0.010 A 
HETATM   10  C3  UNL     1       0.195  24.401   4.718  1.00  0.00    -0.048 A 
HETATM   11  C21 UNL     1       0.279  23.098   5.186  1.00  0.00     0.010 A 
HETATM   12  C20 UNL     1       0.919  22.156   4.447  1.00  0.00     0.030 A 
BRANCH  10  13
HETATM   13  C2  UNL     1      -0.514  25.454   5.508  1.00  0.00     0.151 C 
BRANCH  13  14
HETATM   14  C1  UNL     1      -1.934  25.559   5.109  1.00  0.00     0.176 C 
HETATM   15  O1  UNL     1      -2.273  26.376   4.235  1.00  0.00    -0.648 OA
HETATM   16  O2  UNL     1      -2.891  24.756   5.701  1.00  0.00    -0.648 OA
ENDBRANCH  13  14
ENDBRANCH  10  13
ENDBRANCH   1   7
BRANCH   6  17
HETATM   17  C16 UNL     1       2.675  19.459   3.765  1.00  0.00     0.012 A 
HETATM   18  C17 UNL     1       2.981  19.007   5.006  1.00  0.00     0.036 A 
HETATM   19  C18 UNL     1       2.264  17.976   5.488  1.00  0.00     0.018 A 
HETATM   20 BR1  UNL     1       2.551  17.191   7.244  1.00  0.00    -0.051 Br
HETATM   21  C19 UNL     1       1.277  17.468   4.686  1.00  0.00     0.069 A 
HETATM   22  S2  UNL     1       1.395  18.450   3.287  1.00  0.00    -0.103 SA
ENDBRANCH   6  17
BRANCH   4  23
HETATM   23  O4  UNL     1       2.992  19.477  -0.536  1.00  0.00    -0.355 OA
ATOM     24  H4  UNL     1       2.861  18.546  -0.674  1.00  0.00     0.218 HD
ENDBRANCH   4  23
BRANCH   5  25
HETATM   25  C10 UNL     1       5.096  19.178   1.732  1.00  0.00     0.200 C 
HETATM   26  O5  UNL     1       5.277  18.371   0.755  1.00  0.00    -0.286 OA
BRANCH  25  27
HETATM   27  C11 UNL     1       6.107  19.264   2.740  1.00  0.00     0.057 A 
HETATM   28  C12 UNL     1       6.273  18.369   3.773  1.00  0.00     0.025 A 
HETATM   29  C13 UNL     1       7.270  18.599   4.618  1.00  0.00     0.033 A 
HETATM   30  C14 UNL     1       8.065  19.700   4.415  1.00  0.00     0.075 A 
HETATM   31 CL1  UNL     1       9.447  20.238   5.377  1.00  0.00    -0.076 Cl
HETATM   32  S1  UNL     1       7.362  20.375   3.020  1.00  0.00    -0.074 SA
ENDBRANCH  25  27
ENDBRANCH   5  25
TORSDOF 7
ENDMDL
