MODEL 10
REMARK VINA RESULT: -7.491926626      5.146      8.845
REMARK  8 active torsions:
REMARK  status: ('A' for Active; 'I' for Inactive)
REMARK    1  A    between atoms: C6_6  and  C7_7 
REMARK    2  A    between atoms: C7_7  and  O1_8 
REMARK    3  A    between atoms: C7_7  and  C8_10 
REMARK    4  A    between atoms: C9_11  and  O2_12 
REMARK    5  A    between atoms: N1_16  and  C11_17 
REMARK    6  A    between atoms: C14_20  and  C15_21 
REMARK    7  A    between atoms: C15_21  and  C16_22 
REMARK    8  A    between atoms: C19_27  and  C20_28 
ROOT
HETATM    1  C8  UNL     1       3.766  20.484   1.018  1.00  0.00     0.042 A 
HETATM    2  C9  UNL     1       3.548  19.291   0.529  1.00  0.00     0.146 A 
HETATM    3  C10 UNL     1       2.230  19.181  -0.106  1.00  0.00     0.283 A 
HETATM    4  O3  UNL     1       1.744  18.175  -0.651  1.00  0.00    -0.265 OA
HETATM    5  N1  UNL     1       1.641  20.451   0.036  1.00  0.00    -0.298 N 
HETATM    6  C19 UNL     1       2.475  21.307   0.776  1.00  0.00     0.165 A 
ENDROOT
BRANCH   1   7
HETATM    7  C7  UNL     1       4.857  21.129   1.710  1.00  0.00     0.087 C 
BRANCH   7   8
HETATM    8  C6  UNL     1       5.747  20.683   2.715  1.00  0.00    -0.002 A 
HETATM    9  C5  UNL     1       5.428  20.022   3.850  1.00  0.00     0.014 A 
HETATM   10  C4  UNL     1       6.358  19.702   4.862  1.00  0.00     0.001 A 
HETATM   11  C3  UNL     1       7.669  20.070   4.703  1.00  0.00     0.007 A 
HETATM   12  C2  UNL     1       8.047  20.746   3.555  1.00  0.00    -0.061 A 
HETATM   13  C1  UNL     1       9.477  21.144   3.403  1.00  0.00     0.048 C 
HETATM   14  C27 UNL     1       7.114  21.037   2.602  1.00  0.00     0.021 A 
ENDBRANCH   7   8
BRANCH   7  15
HETATM   15  O1  UNL     1       5.049  22.387   1.326  1.00  0.00    -0.359 OA
ATOM     16  H1  UNL     1       4.294  22.953   1.444  1.00  0.00     0.217 HD
ENDBRANCH   7  15
ENDBRANCH   1   7
BRANCH   2  17
HETATM   17  O2  UNL     1       4.411  18.206   0.562  1.00  0.00    -0.355 OA
ATOM     18  H2  UNL     1       4.174  17.289   0.643  1.00  0.00     0.218 HD
ENDBRANCH   2  17
BRANCH   6  19
HETATM   19  C20 UNL     1       1.967  21.738   2.090  1.00  0.00    -0.026 A 
HETATM   20  C21 UNL     1       1.887  20.917   3.172  1.00  0.00     0.036 A 
HETATM   21  C22 UNL     1       1.398  21.347   4.392  1.00  0.00     0.070 A 
HETATM   22 CL1  UNL     1       1.302  20.285   5.763  1.00  0.00    -0.081 Cl
HETATM   23  C23 UNL     1       0.977  22.650   4.522  1.00  0.00     0.126 A 
HETATM   24  C24 UNL     1       1.051  23.508   3.424  1.00  0.00     0.107 A 
HETATM   25  O7  UNL     1       0.450  23.385   5.571  1.00  0.00    -0.321 OA
HETATM   26  C25 UNL     1       1.542  23.050   2.225  1.00  0.00     0.049 A 
HETATM   27  O6  UNL     1       0.560  24.742   3.858  1.00  0.00    -0.323 OA
HETATM   28  C26 UNL     1      -0.227  24.511   5.023  1.00  0.00     0.352 C 
ENDBRANCH   6  19
BRANCH   5  29
HETATM   29  C11 UNL     1       0.370  20.747  -0.549  1.00  0.00     0.038 A 
HETATM   30  C12 UNL     1       0.249  21.553  -1.641  1.00  0.00     0.030 A 
HETATM   31  C13 UNL     1      -1.002  21.841  -2.203  1.00  0.00     0.010 A 
HETATM   32  C14 UNL     1      -2.124  21.297  -1.637  1.00  0.00    -0.048 A 
HETATM   33  C17 UNL     1      -1.996  20.479  -0.528  1.00  0.00     0.010 A 
HETATM   34  C18 UNL     1      -0.756  20.200   0.021  1.00  0.00     0.030 A 
BRANCH  32  35
HETATM   35  C15 UNL     1      -3.504  21.526  -2.137  1.00  0.00     0.151 C 
BRANCH  35  36
HETATM   36  C16 UNL     1      -4.235  20.289  -2.388  1.00  0.00     0.176 C 
HETATM   37  O4  UNL     1      -3.948  19.555  -3.364  1.00  0.00    -0.648 OA
HETATM   38  O5  UNL     1      -5.262  19.910  -1.546  1.00  0.00    -0.648 OA
ENDBRANCH  35  36
ENDBRANCH  32  35
ENDBRANCH   5  29
TORSDOF 8
ENDMDL
