MODEL 12
REMARK VINA RESULT: -7.453296019      4.814      8.905
REMARK  8 active torsions:
REMARK  status: ('A' for Active; 'I' for Inactive)
REMARK    1  A    between atoms: C6_6  and  C7_7 
REMARK    2  A    between atoms: C7_7  and  O1_8 
REMARK    3  A    between atoms: C7_7  and  C8_10 
REMARK    4  A    between atoms: C9_11  and  O2_12 
REMARK    5  A    between atoms: N1_16  and  C11_17 
REMARK    6  A    between atoms: C14_20  and  C15_21 
REMARK    7  A    between atoms: C15_21  and  C16_22 
REMARK    8  A    between atoms: C19_27  and  C20_28 
ROOT
HETATM    1  C8  UNL     1       3.716  20.514   1.126  1.00  0.00     0.042 A 
HETATM    2  C9  UNL     1       3.476  19.302   0.700  1.00  0.00     0.146 A 
HETATM    3  C10 UNL     1       2.178  19.197   0.022  1.00  0.00     0.283 A 
HETATM    4  O3  UNL     1       1.678  18.177  -0.482  1.00  0.00    -0.265 OA
HETATM    5  N1  UNL     1       1.629  20.492   0.067  1.00  0.00    -0.298 N 
HETATM    6  C19 UNL     1       2.464  21.363   0.787  1.00  0.00     0.165 A 
ENDROOT
BRANCH   1   7
HETATM    7  C7  UNL     1       4.803  21.165   1.821  1.00  0.00     0.087 C 
BRANCH   7   8
HETATM    8  C6  UNL     1       5.721  20.708   2.795  1.00  0.00    -0.002 A 
HETATM    9  C5  UNL     1       5.434  20.040   3.935  1.00  0.00     0.014 A 
HETATM   10  C4  UNL     1       6.393  19.710   4.917  1.00  0.00     0.001 A 
HETATM   11  C3  UNL     1       7.700  20.076   4.721  1.00  0.00     0.007 A 
HETATM   12  C2  UNL     1       8.046  20.759   3.566  1.00  0.00    -0.061 A 
HETATM   13  C1  UNL     1       9.471  21.154   3.374  1.00  0.00     0.048 C 
HETATM   14  C27 UNL     1       7.085  21.059   2.644  1.00  0.00     0.021 A 
ENDBRANCH   7   8
BRANCH   7  15
HETATM   15  O1  UNL     1       4.956  22.439   1.476  1.00  0.00    -0.359 OA
ATOM     16  H1  UNL     1       4.807  23.057   2.182  1.00  0.00     0.217 HD
ENDBRANCH   7  15
ENDBRANCH   1   7
BRANCH   2  17
HETATM   17  O2  UNL     1       4.299  18.194   0.830  1.00  0.00    -0.355 OA
ATOM     18  H2  UNL     1       4.306  17.420   0.279  1.00  0.00     0.218 HD
ENDBRANCH   2  17
BRANCH   6  19
HETATM   19  C20 UNL     1       1.923  21.887   2.053  1.00  0.00    -0.026 A 
HETATM   20  C21 UNL     1       1.597  23.194   2.248  1.00  0.00     0.036 A 
HETATM   21  C22 UNL     1       1.099  23.660   3.452  1.00  0.00     0.070 A 
HETATM   22 CL1  UNL     1       0.688  25.331   3.684  1.00  0.00    -0.081 Cl
HETATM   23  C23 UNL     1       0.923  22.775   4.490  1.00  0.00     0.126 A 
HETATM   24  C24 UNL     1       1.251  21.431   4.310  1.00  0.00     0.107 A 
HETATM   25  O7  UNL     1       0.458  22.904   5.788  1.00  0.00    -0.321 OA
HETATM   26  C25 UNL     1       1.744  20.999   3.102  1.00  0.00     0.049 A 
HETATM   27  O6  UNL     1       0.969  20.793   5.520  1.00  0.00    -0.323 OA
HETATM   28  C26 UNL     1       0.931  21.790   6.538  1.00  0.00     0.352 C 
ENDBRANCH   6  19
BRANCH   5  29
HETATM   29  C11 UNL     1       0.391  20.793  -0.583  1.00  0.00     0.038 A 
HETATM   30  C12 UNL     1       0.332  21.584  -1.690  1.00  0.00     0.030 A 
HETATM   31  C13 UNL     1      -0.887  21.878  -2.317  1.00  0.00     0.010 A 
HETATM   32  C14 UNL     1      -2.041  21.354  -1.797  1.00  0.00    -0.048 A 
HETATM   33  C17 UNL     1      -1.976  20.551  -0.673  1.00  0.00     0.010 A 
HETATM   34  C18 UNL     1      -0.767  20.266  -0.060  1.00  0.00     0.030 A 
BRANCH  32  35
HETATM   35  C15 UNL     1      -3.393  21.591  -2.367  1.00  0.00     0.151 C 
BRANCH  35  36
HETATM   36  C16 UNL     1      -4.151  20.362  -2.574  1.00  0.00     0.176 C 
HETATM   37  O4  UNL     1      -3.897  19.601  -3.538  1.00  0.00    -0.648 OA
HETATM   38  O5  UNL     1      -5.166  20.020  -1.702  1.00  0.00    -0.648 OA
ENDBRANCH  35  36
ENDBRANCH  32  35
ENDBRANCH   5  29
TORSDOF 8
ENDMDL
