MODEL 3
REMARK VINA RESULT: -7.726754782      3.191      7.991
REMARK  8 active torsions:
REMARK  status: ('A' for Active; 'I' for Inactive)
REMARK    1  A    between atoms: C6_6  and  C7_7 
REMARK    2  A    between atoms: C7_7  and  O1_8 
REMARK    3  A    between atoms: C7_7  and  C8_10 
REMARK    4  A    between atoms: C9_11  and  O2_12 
REMARK    5  A    between atoms: N1_16  and  C11_17 
REMARK    6  A    between atoms: C14_20  and  C15_21 
REMARK    7  A    between atoms: C15_21  and  C16_22 
REMARK    8  A    between atoms: C19_27  and  C20_28 
ROOT
HETATM    1  C8  UNL     1       1.878  23.167   2.713  1.00  0.00     0.042 A 
HETATM    2  C9  UNL     1       1.111  24.130   3.153  1.00  0.00     0.146 A 
HETATM    3  C10 UNL     1      -0.012  23.627   3.952  1.00  0.00     0.283 A 
HETATM    4  O3  UNL     1      -0.904  24.301   4.495  1.00  0.00    -0.265 OA
HETATM    5  N1  UNL     1       0.139  22.229   3.968  1.00  0.00    -0.298 N 
HETATM    6  C19 UNL     1       1.231  21.836   3.176  1.00  0.00     0.165 A 
ENDROOT
BRANCH   1   7
HETATM    7  C7  UNL     1       3.083  23.090   1.921  1.00  0.00     0.087 C 
BRANCH   7   8
HETATM    8  C6  UNL     1       4.079  22.093   1.793  1.00  0.00    -0.002 A 
HETATM    9  C5  UNL     1       4.325  21.324   0.709  1.00  0.00     0.014 A 
HETATM   10  C4  UNL     1       5.266  20.272   0.688  1.00  0.00     0.001 A 
HETATM   11  C3  UNL     1       5.986  19.999   1.823  1.00  0.00     0.007 A 
HETATM   12  C2  UNL     1       5.772  20.762   2.959  1.00  0.00    -0.061 A 
HETATM   13  C1  UNL     1       6.560  20.446   4.186  1.00  0.00     0.048 C 
HETATM   14  C27 UNL     1       4.851  21.769   2.935  1.00  0.00     0.021 A 
ENDBRANCH   7   8
BRANCH   7  15
HETATM   15  O1  UNL     1       3.291  24.172   1.178  1.00  0.00    -0.359 OA
ATOM     16  H1  UNL     1       2.511  24.514   0.756  1.00  0.00     0.217 HD
ENDBRANCH   7  15
ENDBRANCH   1   7
BRANCH   2  17
HETATM   17  O2  UNL     1       1.275  25.490   2.937  1.00  0.00    -0.355 OA
ATOM     18  H2  UNL     1       1.215  26.182   3.585  1.00  0.00     0.218 HD
ENDBRANCH   2  17
BRANCH   6  19
HETATM   19  C20 UNL     1       0.915  21.049   1.972  1.00  0.00    -0.026 A 
HETATM   20  C21 UNL     1       1.250  19.739   1.820  1.00  0.00     0.036 A 
HETATM   21  C22 UNL     1       0.947  19.027   0.673  1.00  0.00     0.070 A 
HETATM   22 CL1  UNL     1       1.383  17.356   0.494  1.00  0.00    -0.081 Cl
HETATM   23  C23 UNL     1       0.282  19.661  -0.352  1.00  0.00     0.126 A 
HETATM   24  C24 UNL     1      -0.071  21.003  -0.214  1.00  0.00     0.107 A 
HETATM   25  O7  UNL     1      -0.162  19.255  -1.598  1.00  0.00    -0.321 OA
HETATM   26  C25 UNL     1       0.245  21.683   0.938  1.00  0.00     0.049 A 
HETATM   27  O6  UNL     1      -0.722  21.360  -1.397  1.00  0.00    -0.323 OA
HETATM   28  C26 UNL     1      -0.351  20.417  -2.399  1.00  0.00     0.352 C 
ENDBRANCH   6  19
BRANCH   5  29
HETATM   29  C11 UNL     1      -0.738  21.399   4.736  1.00  0.00     0.038 A 
HETATM   30  C12 UNL     1      -0.470  21.074   6.033  1.00  0.00     0.030 A 
HETATM   31  C13 UNL     1      -1.332  20.256   6.775  1.00  0.00     0.010 A 
HETATM   32  C14 UNL     1      -2.467  19.776   6.177  1.00  0.00    -0.048 A 
HETATM   33  C17 UNL     1      -2.735  20.108   4.862  1.00  0.00     0.010 A 
HETATM   34  C18 UNL     1      -1.877  20.917   4.135  1.00  0.00     0.030 A 
BRANCH  32  35
HETATM   35  C15 UNL     1      -3.458  18.900   6.855  1.00  0.00     0.151 C 
BRANCH  35  36
HETATM   36  C16 UNL     1      -4.071  19.525   8.022  1.00  0.00     0.176 C 
HETATM   37  O4  UNL     1      -4.536  20.689   7.962  1.00  0.00    -0.648 OA
HETATM   38  O5  UNL     1      -4.147  18.836   9.216  1.00  0.00    -0.648 OA
ENDBRANCH  35  36
ENDBRANCH  32  35
ENDBRANCH   5  29
TORSDOF 8
ENDMDL
