MODEL 2
REMARK VINA RESULT: -7.739241713      1.086      1.660
REMARK  8 active torsions:
REMARK  status: ('A' for Active; 'I' for Inactive)
REMARK    1  A    between atoms: C6_6  and  C7_7 
REMARK    2  A    between atoms: C7_7  and  O1_8 
REMARK    3  A    between atoms: C7_7  and  C8_10 
REMARK    4  A    between atoms: C9_11  and  O2_12 
REMARK    5  A    between atoms: N1_16  and  C11_17 
REMARK    6  A    between atoms: C14_20  and  C15_21 
REMARK    7  A    between atoms: C15_21  and  C16_22 
REMARK    8  A    between atoms: C19_27  and  C20_28 
ROOT
HETATM    1  C8  UNL     1      -1.683  19.898   7.519  1.00  0.00     0.042 A 
HETATM    2  C9  UNL     1      -0.521  20.083   8.090  1.00  0.00     0.146 A 
HETATM    3  C10 UNL     1       0.371  20.919   7.279  1.00  0.00     0.283 A 
HETATM    4  O3  UNL     1       1.533  21.262   7.558  1.00  0.00    -0.265 OA
HETATM    5  N1  UNL     1      -0.368  21.245   6.127  1.00  0.00    -0.298 N 
HETATM    6  C19 UNL     1      -1.621  20.609   6.142  1.00  0.00     0.165 A 
ENDROOT
BRANCH   1   7
HETATM    7  C7  UNL     1      -2.898  19.198   7.861  1.00  0.00     0.087 C 
BRANCH   7   8
HETATM    8  C6  UNL     1      -3.149  17.870   8.282  1.00  0.00    -0.002 A 
HETATM    9  C5  UNL     1      -2.972  16.741   7.561  1.00  0.00     0.014 A 
HETATM   10  C4  UNL     1      -3.345  15.455   8.007  1.00  0.00     0.001 A 
HETATM   11  C3  UNL     1      -3.920  15.321   9.246  1.00  0.00     0.007 A 
HETATM   12  C2  UNL     1      -4.119  16.449  10.025  1.00  0.00    -0.061 A 
HETATM   13  C1  UNL     1      -4.752  16.283  11.366  1.00  0.00     0.048 C 
HETATM   14  C27 UNL     1      -3.743  17.673   9.552  1.00  0.00     0.021 A 
ENDBRANCH   7   8
BRANCH   7  15
HETATM   15  O1  UNL     1      -3.986  19.952   7.749  1.00  0.00    -0.359 OA
ATOM     16  H1  UNL     1      -4.255  20.124   6.854  1.00  0.00     0.217 HD
ENDBRANCH   7  15
ENDBRANCH   1   7
BRANCH   2  17
HETATM   17  O2  UNL     1      -0.106  19.586   9.316  1.00  0.00    -0.355 OA
ATOM     18  H2  UNL     1       0.728  19.176   9.513  1.00  0.00     0.218 HD
ENDBRANCH   2  17
BRANCH   6  19
HETATM   19  C20 UNL     1      -1.848  19.590   5.102  1.00  0.00    -0.026 A 
HETATM   20  C21 UNL     1      -2.844  19.666   4.179  1.00  0.00     0.036 A 
HETATM   21  C22 UNL     1      -3.038  18.689   3.219  1.00  0.00     0.070 A 
HETATM   22 CL1  UNL     1      -4.317  18.801   2.048  1.00  0.00    -0.081 Cl
HETATM   23  C23 UNL     1      -2.196  17.602   3.191  1.00  0.00     0.126 A 
HETATM   24  C24 UNL     1      -1.168  17.506   4.129  1.00  0.00     0.107 A 
HETATM   25  O7  UNL     1      -2.112  16.478   2.387  1.00  0.00    -0.321 OA
HETATM   26  C25 UNL     1      -1.001  18.493   5.071  1.00  0.00     0.049 A 
HETATM   27  O6  UNL     1      -0.495  16.314   3.852  1.00  0.00    -0.323 OA
HETATM   28  C26 UNL     1      -1.372  15.487   3.092  1.00  0.00     0.352 C 
ENDBRANCH   6  19
BRANCH   5  29
HETATM   29  C11 UNL     1       0.158  22.134   5.137  1.00  0.00     0.038 A 
HETATM   30  C12 UNL     1       1.210  21.787   4.343  1.00  0.00     0.030 A 
HETATM   31  C13 UNL     1       1.722  22.667   3.380  1.00  0.00     0.010 A 
HETATM   32  C14 UNL     1       1.147  23.902   3.240  1.00  0.00    -0.048 A 
HETATM   33  C17 UNL     1       0.080  24.250   4.048  1.00  0.00     0.010 A 
HETATM   34  C18 UNL     1      -0.420  23.374   4.998  1.00  0.00     0.030 A 
BRANCH  32  35
HETATM   35  C15 UNL     1       1.597  24.923   2.259  1.00  0.00     0.151 C 
BRANCH  35  36
HETATM   36  C16 UNL     1       2.440  24.372   1.204  1.00  0.00     0.176 C 
HETATM   37  O4  UNL     1       1.987  23.533   0.388  1.00  0.00    -0.648 OA
HETATM   38  O5  UNL     1       3.757  24.771   1.091  1.00  0.00    -0.648 OA
ENDBRANCH  35  36
ENDBRANCH  32  35
ENDBRANCH   5  29
TORSDOF 8
ENDMDL
