MODEL 1
REMARK VINA RESULT: -8.065839233      0.000      0.000
REMARK  8 active torsions:
REMARK  status: ('A' for Active; 'I' for Inactive)
REMARK    1  A    between atoms: C6_6  and  C7_7 
REMARK    2  A    between atoms: C7_7  and  O1_8 
REMARK    3  A    between atoms: C7_7  and  C8_10 
REMARK    4  A    between atoms: C9_11  and  O2_12 
REMARK    5  A    between atoms: N1_16  and  C11_17 
REMARK    6  A    between atoms: C14_20  and  C15_21 
REMARK    7  A    between atoms: C15_21  and  C16_22 
REMARK    8  A    between atoms: C19_27  and  C20_28 
ROOT
HETATM    1  C8  UNL     1      -1.672  19.939   7.542  1.00  0.00     0.042 A 
HETATM    2  C9  UNL     1      -0.491  20.083   8.083  1.00  0.00     0.146 A 
HETATM    3  C10 UNL     1       0.400  20.911   7.263  1.00  0.00     0.283 A 
HETATM    4  O3  UNL     1       1.578  21.219   7.515  1.00  0.00    -0.265 OA
HETATM    5  N1  UNL     1      -0.362  21.279   6.139  1.00  0.00    -0.298 N 
HETATM    6  C19 UNL     1      -1.630  20.675   6.177  1.00  0.00     0.165 A 
ENDROOT
BRANCH   1   7
HETATM    7  C7  UNL     1      -2.896  19.264   7.905  1.00  0.00     0.087 C 
BRANCH   7   8
HETATM    8  C6  UNL     1      -3.165  17.945   8.341  1.00  0.00    -0.002 A 
HETATM    9  C5  UNL     1      -3.017  16.807   7.628  1.00  0.00     0.014 A 
HETATM   10  C4  UNL     1      -3.408  15.532   8.090  1.00  0.00     0.001 A 
HETATM   11  C3  UNL     1      -3.971  15.419   9.336  1.00  0.00     0.007 A 
HETATM   12  C2  UNL     1      -4.141  16.557  10.107  1.00  0.00    -0.061 A 
HETATM   13  C1  UNL     1      -4.760  16.414  11.457  1.00  0.00     0.048 C 
HETATM   14  C27 UNL     1      -3.749  17.770   9.619  1.00  0.00     0.021 A 
ENDBRANCH   7   8
BRANCH   7  15
HETATM   15  O1  UNL     1      -3.972  20.038   7.800  1.00  0.00    -0.359 OA
ATOM     16  H1  UNL     1      -3.990  20.769   8.405  1.00  0.00     0.217 HD
ENDBRANCH   7  15
ENDBRANCH   1   7
BRANCH   2  17
HETATM   17  O2  UNL     1      -0.055  19.551   9.287  1.00  0.00    -0.355 OA
ATOM     18  H2  UNL     1       0.279  20.030  10.036  1.00  0.00     0.218 HD
ENDBRANCH   2  17
BRANCH   6  19
HETATM   19  C20 UNL     1      -1.913  19.683   5.126  1.00  0.00    -0.026 A 
HETATM   20  C21 UNL     1      -1.250  18.500   5.010  1.00  0.00     0.036 A 
HETATM   21  C22 UNL     1      -1.532  17.591   4.006  1.00  0.00     0.070 A 
HETATM   22 CL1  UNL     1      -0.676  16.085   3.872  1.00  0.00    -0.081 Cl
HETATM   23  C23 UNL     1      -2.516  17.887   3.091  1.00  0.00     0.126 A 
HETATM   24  C24 UNL     1      -3.207  19.095   3.194  1.00  0.00     0.107 A 
HETATM   25  O7  UNL     1      -3.035  17.219   1.995  1.00  0.00    -0.321 OA
HETATM   26  C25 UNL     1      -2.904  19.978   4.202  1.00  0.00     0.049 A 
HETATM   27  O6  UNL     1      -4.127  19.110   2.143  1.00  0.00    -0.323 OA
HETATM   28  C26 UNL     1      -3.682  18.176   1.163  1.00  0.00     0.352 C 
ENDBRANCH   6  19
BRANCH   5  29
HETATM   29  C11 UNL     1       0.160  22.173   5.151  1.00  0.00     0.038 A 
HETATM   30  C12 UNL     1       1.207  21.829   4.349  1.00  0.00     0.030 A 
HETATM   31  C13 UNL     1       1.714  22.714   3.388  1.00  0.00     0.010 A 
HETATM   32  C14 UNL     1       1.140  23.951   3.260  1.00  0.00    -0.048 A 
HETATM   33  C17 UNL     1       0.078  24.296   4.076  1.00  0.00     0.010 A 
HETATM   34  C18 UNL     1      -0.417  23.415   5.023  1.00  0.00     0.030 A 
BRANCH  32  35
HETATM   35  C15 UNL     1       1.586  24.978   2.282  1.00  0.00     0.151 C 
BRANCH  35  36
HETATM   36  C16 UNL     1       2.440  24.435   1.231  1.00  0.00     0.176 C 
HETATM   37  O4  UNL     1       3.623  24.828   1.093  1.00  0.00    -0.648 OA
HETATM   38  O5  UNL     1       1.949  23.475   0.368  1.00  0.00    -0.648 OA
ENDBRANCH  35  36
ENDBRANCH  32  35
ENDBRANCH   5  29
TORSDOF 8
ENDMDL
