MODEL 2
REMARK VINA RESULT: -8.774899113      1.408      1.750
REMARK  8 active torsions:
REMARK  status: ('A' for Active; 'I' for Inactive)
REMARK    1  A    between atoms: C1_2  and  C2_4 
REMARK    2  A    between atoms: C6_8  and  N1_9 
REMARK    3  A    between atoms: C8_12  and  O4_13 
REMARK    4  A    between atoms: C9_15  and  C10_16 
REMARK    5  A    between atoms: C10_16  and  O5_17 
REMARK    6  A    between atoms: C10_16  and  C11_19 
REMARK    7  A    between atoms: C15_23  and  C16_24 
REMARK    8  A    between atoms: C18_29  and  C19_30 
ROOT
HETATM    1  N1  UNL     1       1.683  19.991  -0.142  1.00  0.00    -0.298 N 
HETATM    2  C7  UNL     1       2.002  18.692   0.290  1.00  0.00     0.283 A 
HETATM    3  O3  UNL     1       1.409  17.603   0.098  1.00  0.00    -0.265 OA
HETATM    4  C8  UNL     1       3.262  18.821   1.080  1.00  0.00     0.146 A 
HETATM    5  C9  UNL     1       3.663  20.061   1.124  1.00  0.00     0.042 A 
HETATM    6  C18 UNL     1       2.651  20.913   0.379  1.00  0.00     0.165 A 
ENDROOT
BRANCH   5   7
HETATM    7  C10 UNL     1       4.813  20.668   1.765  1.00  0.00     0.087 C 
BRANCH   7   8
HETATM    8  O5  UNL     1       5.265  21.709   1.115  1.00  0.00    -0.359 OA
ATOM      9  H5  UNL     1       5.226  22.508   1.627  1.00  0.00     0.217 HD
ENDBRANCH   7   8
BRANCH   7  10
HETATM   10  C11 UNL     1       5.533  20.347   2.948  1.00  0.00    -0.002 A 
HETATM   11  C12 UNL     1       5.096  19.741   4.092  1.00  0.00     0.014 A 
HETATM   12  C13 UNL     1       5.910  19.347   5.152  1.00  0.00     0.002 A 
HETATM   13  C14 UNL     1       7.259  19.572   5.074  1.00  0.00     0.016 A 
HETATM   14  C15 UNL     1       7.769  20.190   3.934  1.00  0.00     0.048 A 
HETATM   15  C17 UNL     1       6.939  20.558   2.926  1.00  0.00     0.030 A 
BRANCH  14  16
HETATM   16  C16 UNL     1       9.246  20.418   3.871  1.00  0.00     0.417 C 
HETATM   17  F1  UNL     1       9.492  21.577   3.176  1.00  0.00    -0.166 F 
HETATM   18  F2  UNL     1       9.776  20.512   5.145  1.00  0.00    -0.166 F 
HETATM   19  F3  UNL     1       9.814  19.326   3.239  1.00  0.00    -0.166 F 
ENDBRANCH  14  16
ENDBRANCH   7  10
ENDBRANCH   5   7
BRANCH   4  20
HETATM   20  O4  UNL     1       3.887  17.718   1.665  1.00  0.00    -0.355 OA
ATOM     21  H4  UNL     1       3.720  17.460   2.564  1.00  0.00     0.218 HD
ENDBRANCH   4  20
BRANCH   6  22
HETATM   22  C19 UNL     1       2.010  21.764   1.460  1.00  0.00    -0.026 A 
HETATM   23  C20 UNL     1       1.997  23.130   1.296  1.00  0.00     0.036 A 
HETATM   24  C21 UNL     1       1.482  23.988   2.252  1.00  0.00     0.070 A 
HETATM   25 CL1  UNL     1       1.480  25.722   2.053  1.00  0.00    -0.081 Cl
HETATM   26  C22 UNL     1       0.972  23.373   3.399  1.00  0.00     0.126 A 
HETATM   27  C23 UNL     1       0.980  22.005   3.572  1.00  0.00     0.107 A 
HETATM   28  O7  UNL     1       0.407  23.977   4.494  1.00  0.00    -0.321 OA
HETATM   29  C24 UNL     1       1.503  21.179   2.595  1.00  0.00     0.049 A 
HETATM   30  O6  UNL     1       0.410  21.736   4.796  1.00  0.00    -0.323 OA
HETATM   31  C25 UNL     1       0.008  22.946   5.402  1.00  0.00     0.352 A 
ENDBRANCH   6  22
BRANCH   1  32
HETATM   32  C6  UNL     1       0.565  20.299  -0.964  1.00  0.00     0.039 A 
HETATM   33  C5  UNL     1      -0.664  20.677  -0.450  1.00  0.00     0.030 A 
HETATM   34  C4  UNL     1      -1.740  20.977  -1.289  1.00  0.00     0.003 A 
HETATM   35  C3  UNL     1      -1.600  20.903  -2.647  1.00  0.00     0.018 A 
HETATM   36  C2  UNL     1      -0.378  20.525  -3.190  1.00  0.00     0.043 A 
HETATM   37  C26 UNL     1       0.650  20.240  -2.335  1.00  0.00     0.048 A 
BRANCH  36  38
HETATM   38  C1  UNL     1      -0.192  20.436  -4.635  1.00  0.00     0.209 C 
HETATM   39  O1  UNL     1      -0.815  19.578  -5.274  1.00  0.00    -0.644 OA
HETATM   40  O2  UNL     1       0.679  21.314  -5.259  1.00  0.00    -0.644 OA
ENDBRANCH  36  38
ENDBRANCH   1  32
TORSDOF 8
ENDMDL
