MODEL 8
REMARK VINA RESULT: -7.885024660      4.680      6.540
REMARK  8 active torsions:
REMARK  status: ('A' for Active; 'I' for Inactive)
REMARK    1  A    between atoms: C1_2  and  C2_4 
REMARK    2  A    between atoms: C6_8  and  N1_9 
REMARK    3  A    between atoms: C8_12  and  O4_13 
REMARK    4  A    between atoms: C9_15  and  C10_16 
REMARK    5  A    between atoms: C10_16  and  O5_17 
REMARK    6  A    between atoms: C10_16  and  C11_19 
REMARK    7  A    between atoms: C15_23  and  C16_24 
REMARK    8  A    between atoms: C18_29  and  C19_30 
ROOT
HETATM    1  N1  UNL     1      -0.542  18.613  -3.412  1.00  0.00    -0.298 N 
HETATM    2  C7  UNL     1       0.705  18.133  -2.975  1.00  0.00     0.283 A 
HETATM    3  O3  UNL     1       1.275  17.037  -3.192  1.00  0.00    -0.265 OA
HETATM    4  C8  UNL     1       1.293  19.222  -2.140  1.00  0.00     0.146 A 
HETATM    5  C9  UNL     1       0.493  20.248  -2.076  1.00  0.00     0.042 A 
HETATM    6  C18 UNL     1      -0.768  19.915  -2.853  1.00  0.00     0.165 A 
ENDROOT
BRANCH   5   7
HETATM    7  C10 UNL     1       0.626  21.520  -1.391  1.00  0.00     0.087 C 
BRANCH   7   8
HETATM    8  O5  UNL     1       0.429  22.543  -2.181  1.00  0.00    -0.359 OA
ATOM      9  H5  UNL     1       0.938  22.496  -2.981  1.00  0.00     0.217 HD
ENDBRANCH   7   8
BRANCH   7  10
HETATM   10  C11 UNL     1       0.931  21.858  -0.045  1.00  0.00    -0.002 A 
HETATM   11  C12 UNL     1       1.805  22.790   0.438  1.00  0.00     0.014 A 
HETATM   12  C13 UNL     1       1.939  23.144   1.780  1.00  0.00     0.002 A 
HETATM   13  C14 UNL     1       1.150  22.527   2.713  1.00  0.00     0.016 A 
HETATM   14  C15 UNL     1       0.238  21.563   2.286  1.00  0.00     0.048 A 
HETATM   15  C17 UNL     1       0.142  21.248   0.969  1.00  0.00     0.030 A 
BRANCH  14  16
HETATM   16  C16 UNL     1      -0.617  20.908   3.324  1.00  0.00     0.417 C 
HETATM   17  F1  UNL     1       0.106  19.917   3.941  1.00  0.00    -0.166 F 
HETATM   18  F2  UNL     1      -1.037  21.835   4.260  1.00  0.00    -0.166 F 
HETATM   19  F3  UNL     1      -1.730  20.392   2.686  1.00  0.00    -0.166 F 
ENDBRANCH  14  16
ENDBRANCH   7  10
ENDBRANCH   5   7
BRANCH   4  20
HETATM   20  O4  UNL     1       2.548  19.099  -1.538  1.00  0.00    -0.355 OA
ATOM     21  H4  UNL     1       3.351  19.080  -2.045  1.00  0.00     0.218 HD
ENDBRANCH   4  20
BRANCH   6  22
HETATM   22  C19 UNL     1      -1.850  19.830  -1.791  1.00  0.00    -0.026 A 
HETATM   23  C20 UNL     1      -1.777  18.815  -0.864  1.00  0.00     0.036 A 
HETATM   24  C21 UNL     1      -2.745  18.627   0.108  1.00  0.00     0.070 A 
HETATM   25 CL1  UNL     1      -2.664  17.332   1.275  1.00  0.00    -0.081 Cl
HETATM   26  C22 UNL     1      -3.804  19.539   0.087  1.00  0.00     0.126 A 
HETATM   27  C23 UNL     1      -3.885  20.559  -0.838  1.00  0.00     0.107 A 
HETATM   28  O7  UNL     1      -4.888  19.586   0.926  1.00  0.00    -0.321 OA
HETATM   29  C24 UNL     1      -2.898  20.716  -1.795  1.00  0.00     0.049 A 
HETATM   30  O6  UNL     1      -5.039  21.265  -0.582  1.00  0.00    -0.323 OA
HETATM   31  C25 UNL     1      -5.691  20.705   0.539  1.00  0.00     0.352 A 
ENDBRANCH   6  22
BRANCH   1  32
HETATM   32  C6  UNL     1      -1.411  17.889  -4.271  1.00  0.00     0.039 A 
HETATM   33  C5  UNL     1      -1.347  16.514  -4.420  1.00  0.00     0.030 A 
HETATM   34  C4  UNL     1      -2.223  15.835  -5.270  1.00  0.00     0.003 A 
HETATM   35  C3  UNL     1      -3.170  16.520  -5.980  1.00  0.00     0.018 A 
HETATM   36  C2  UNL     1      -3.256  17.901  -5.850  1.00  0.00     0.043 A 
HETATM   37  C26 UNL     1      -2.381  18.528  -5.007  1.00  0.00     0.048 A 
BRANCH  36  38
HETATM   38  C1  UNL     1      -4.254  18.665  -6.592  1.00  0.00     0.209 C 
HETATM   39  O1  UNL     1      -4.177  18.726  -7.826  1.00  0.00    -0.644 OA
HETATM   40  O2  UNL     1      -5.267  19.305  -5.897  1.00  0.00    -0.644 OA
ENDBRANCH  36  38
ENDBRANCH   1  32
TORSDOF 8
ENDMDL
