MODEL 1
REMARK VINA RESULT: -8.979754394      0.000      0.000
REMARK  8 active torsions:
REMARK  status: ('A' for Active; 'I' for Inactive)
REMARK    1  A    between atoms: C1_2  and  C2_4 
REMARK    2  A    between atoms: C6_8  and  N1_9 
REMARK    3  A    between atoms: C8_12  and  O4_13 
REMARK    4  A    between atoms: C9_15  and  C10_16 
REMARK    5  A    between atoms: C10_16  and  O5_17 
REMARK    6  A    between atoms: C10_16  and  C11_19 
REMARK    7  A    between atoms: C15_23  and  C16_24 
REMARK    8  A    between atoms: C18_29  and  C19_30 
ROOT
HETATM    1  N1  UNL     1       1.388  20.488  -0.343  1.00  0.00    -0.298 N 
HETATM    2  C7  UNL     1       1.658  19.148  -0.016  1.00  0.00     0.283 A 
HETATM    3  O3  UNL     1       1.029  18.100  -0.296  1.00  0.00    -0.265 OA
HETATM    4  C8  UNL     1       2.918  19.169   0.785  1.00  0.00     0.146 A 
HETATM    5  C9  UNL     1       3.362  20.386   0.930  1.00  0.00     0.042 A 
HETATM    6  C18 UNL     1       2.385  21.330   0.253  1.00  0.00     0.165 A 
ENDROOT
BRANCH   5   7
HETATM    7  C10 UNL     1       4.529  20.898   1.621  1.00  0.00     0.087 C 
BRANCH   7   8
HETATM    8  O5  UNL     1       5.032  21.961   1.047  1.00  0.00    -0.359 OA
ATOM      9  H5  UNL     1       5.012  22.727   1.608  1.00  0.00     0.217 HD
ENDBRANCH   7   8
BRANCH   7  10
HETATM   10  C11 UNL     1       5.222  20.468   2.785  1.00  0.00    -0.002 A 
HETATM   11  C12 UNL     1       4.755  19.771   3.863  1.00  0.00     0.014 A 
HETATM   12  C13 UNL     1       5.544  19.276   4.900  1.00  0.00     0.002 A 
HETATM   13  C14 UNL     1       6.896  19.490   4.868  1.00  0.00     0.016 A 
HETATM   14  C15 UNL     1       7.436  20.197   3.795  1.00  0.00     0.048 A 
HETATM   15  C17 UNL     1       6.631  20.661   2.807  1.00  0.00     0.030 A 
BRANCH  14  16
HETATM   16  C16 UNL     1       8.917  20.410   3.780  1.00  0.00     0.417 C 
HETATM   17  F1  UNL     1       9.195  21.583   3.123  1.00  0.00    -0.166 F 
HETATM   18  F2  UNL     1       9.411  20.465   5.071  1.00  0.00    -0.166 F 
HETATM   19  F3  UNL     1       9.491  19.329   3.136  1.00  0.00    -0.166 F 
ENDBRANCH  14  16
ENDBRANCH   7  10
ENDBRANCH   5   7
BRANCH   4  20
HETATM   20  O4  UNL     1       3.501  18.000   1.281  1.00  0.00    -0.355 OA
ATOM     21  H4  UNL     1       4.235  18.019   1.884  1.00  0.00     0.218 HD
ENDBRANCH   4  20
BRANCH   6  22
HETATM   22  C19 UNL     1       1.769  22.113   1.398  1.00  0.00    -0.026 A 
HETATM   23  C20 UNL     1       1.828  23.488   1.357  1.00  0.00     0.036 A 
HETATM   24  C21 UNL     1       1.340  24.283   2.380  1.00  0.00     0.070 A 
HETATM   25 CL1  UNL     1       1.430  26.026   2.338  1.00  0.00    -0.081 Cl
HETATM   26  C22 UNL     1       0.779  23.596   3.460  1.00  0.00     0.126 A 
HETATM   27  C23 UNL     1       0.714  22.219   3.509  1.00  0.00     0.107 A 
HETATM   28  O7  UNL     1       0.225  24.129   4.597  1.00  0.00    -0.321 OA
HETATM   29  C24 UNL     1       1.212  21.457   2.468  1.00  0.00     0.049 A 
HETATM   30  O6  UNL     1       0.109  21.872   4.696  1.00  0.00    -0.323 OA
HETATM   31  C25 UNL     1      -0.242  23.043   5.403  1.00  0.00     0.352 A 
ENDBRANCH   6  22
BRANCH   1  32
HETATM   32  C6  UNL     1       0.285  20.900  -1.139  1.00  0.00     0.039 A 
HETATM   33  C5  UNL     1       0.406  21.804  -2.181  1.00  0.00     0.030 A 
HETATM   34  C4  UNL     1      -0.699  22.182  -2.945  1.00  0.00     0.003 A 
HETATM   35  C3  UNL     1      -1.936  21.662  -2.679  1.00  0.00     0.018 A 
HETATM   36  C2  UNL     1      -2.087  20.753  -1.639  1.00  0.00     0.043 A 
HETATM   37  C26 UNL     1      -0.979  20.409  -0.914  1.00  0.00     0.048 A 
BRANCH  36  38
HETATM   38  C1  UNL     1      -3.391  20.178  -1.326  1.00  0.00     0.209 C 
HETATM   39  O1  UNL     1      -3.603  18.984  -1.577  1.00  0.00    -0.644 OA
HETATM   40  O2  UNL     1      -4.364  20.982  -0.755  1.00  0.00    -0.644 OA
ENDBRANCH  36  38
ENDBRANCH   1  32
TORSDOF 8
ENDMDL
