MODEL 3
REMARK VINA RESULT: -8.686132098      1.155      1.573
REMARK  8 active torsions:
REMARK  status: ('A' for Active; 'I' for Inactive)
REMARK    1  A    between atoms: C1_2  and  C2_4 
REMARK    2  A    between atoms: C6_8  and  N1_9 
REMARK    3  A    between atoms: C8_12  and  O4_13 
REMARK    4  A    between atoms: C9_15  and  C10_16 
REMARK    5  A    between atoms: C10_16  and  O5_17 
REMARK    6  A    between atoms: C10_16  and  C11_19 
REMARK    7  A    between atoms: C15_23  and  C16_24 
REMARK    8  A    between atoms: C18_29  and  C19_30 
ROOT
HETATM    1  N1  UNL     1       1.424  20.502  -0.358  1.00  0.00    -0.298 N 
HETATM    2  C7  UNL     1       1.830  19.167  -0.193  1.00  0.00     0.283 A 
HETATM    3  O3  UNL     1       1.303  18.101  -0.595  1.00  0.00    -0.265 OA
HETATM    4  C8  UNL     1       3.092  19.218   0.602  1.00  0.00     0.146 A 
HETATM    5  C9  UNL     1       3.416  20.448   0.890  1.00  0.00     0.042 A 
HETATM    6  C18 UNL     1       2.341  21.363   0.332  1.00  0.00     0.165 A 
ENDROOT
BRANCH   5   7
HETATM    7  C10 UNL     1       4.536  20.989   1.634  1.00  0.00     0.087 C 
BRANCH   7   8
HETATM    8  O5  UNL     1       4.983  22.111   1.133  1.00  0.00    -0.359 OA
ATOM      9  H5  UNL     1       5.745  22.442   1.593  1.00  0.00     0.217 HD
ENDBRANCH   7   8
BRANCH   7  10
HETATM   10  C11 UNL     1       5.232  20.534   2.787  1.00  0.00    -0.002 A 
HETATM   11  C12 UNL     1       4.767  19.820   3.855  1.00  0.00     0.014 A 
HETATM   12  C13 UNL     1       5.558  19.303   4.879  1.00  0.00     0.002 A 
HETATM   13  C14 UNL     1       6.912  19.510   4.844  1.00  0.00     0.016 A 
HETATM   14  C15 UNL     1       7.450  20.234   3.782  1.00  0.00     0.048 A 
HETATM   15  C17 UNL     1       6.642  20.720   2.806  1.00  0.00     0.030 A 
BRANCH  14  16
HETATM   16  C16 UNL     1       8.931  20.440   3.763  1.00  0.00     0.417 C 
HETATM   17  F1  UNL     1       9.213  21.616   3.113  1.00  0.00    -0.166 F 
HETATM   18  F2  UNL     1       9.430  20.485   5.052  1.00  0.00    -0.166 F 
HETATM   19  F3  UNL     1       9.498  19.360   3.110  1.00  0.00    -0.166 F 
ENDBRANCH  14  16
ENDBRANCH   7  10
ENDBRANCH   5   7
BRANCH   4  20
HETATM   20  O4  UNL     1       3.795  18.063   0.954  1.00  0.00    -0.355 OA
ATOM     21  H4  UNL     1       3.605  17.219   0.563  1.00  0.00     0.218 HD
ENDBRANCH   4  20
BRANCH   6  22
HETATM   22  C19 UNL     1       1.666  21.940   1.563  1.00  0.00    -0.026 A 
HETATM   23  C20 UNL     1       1.014  21.079   2.416  1.00  0.00     0.036 A 
HETATM   24  C21 UNL     1       0.326  21.521   3.533  1.00  0.00     0.070 A 
HETATM   25 CL1  UNL     1      -0.516  20.432   4.607  1.00  0.00    -0.081 Cl
HETATM   26  C22 UNL     1       0.340  22.903   3.741  1.00  0.00     0.126 A 
HETATM   27  C23 UNL     1       0.991  23.773   2.893  1.00  0.00     0.107 A 
HETATM   28  O7  UNL     1      -0.254  23.604   4.760  1.00  0.00    -0.321 OA
HETATM   29  C24 UNL     1       1.668  23.296   1.784  1.00  0.00     0.049 A 
HETATM   30  O6  UNL     1       0.809  25.047   3.380  1.00  0.00    -0.323 OA
HETATM   31  C25 UNL     1       0.053  24.988   4.572  1.00  0.00     0.352 A 
ENDBRANCH   6  22
BRANCH   1  32
HETATM   32  C6  UNL     1       0.275  20.893  -1.098  1.00  0.00     0.039 A 
HETATM   33  C5  UNL     1       0.335  21.757  -2.178  1.00  0.00     0.030 A 
HETATM   34  C4  UNL     1      -0.815  22.116  -2.884  1.00  0.00     0.003 A 
HETATM   35  C3  UNL     1      -2.035  21.615  -2.521  1.00  0.00     0.018 A 
HETATM   36  C2  UNL     1      -2.125  20.747  -1.440  1.00  0.00     0.043 A 
HETATM   37  C26 UNL     1      -0.975  20.421  -0.775  1.00  0.00     0.048 A 
BRANCH  36  38
HETATM   38  C1  UNL     1      -3.410  20.193  -1.024  1.00  0.00     0.209 C 
HETATM   39  O1  UNL     1      -4.372  20.954  -0.858  1.00  0.00    -0.644 OA
HETATM   40  O2  UNL     1      -3.523  18.827  -0.824  1.00  0.00    -0.644 OA
ENDBRANCH  36  38
ENDBRANCH   1  32
TORSDOF 8
ENDMDL
