MODEL 7
REMARK VINA RESULT: -8.079031426      7.217      9.362
REMARK  8 active torsions:
REMARK  status: ('A' for Active; 'I' for Inactive)
REMARK    1  A    between atoms: C1_2  and  C2_4 
REMARK    2  A    between atoms: C6_8  and  N1_9 
REMARK    3  A    between atoms: C8_12  and  O4_13 
REMARK    4  A    between atoms: C9_15  and  C10_16 
REMARK    5  A    between atoms: C10_16  and  O5_17 
REMARK    6  A    between atoms: C10_16  and  C11_19 
REMARK    7  A    between atoms: C15_23  and  C16_24 
REMARK    8  A    between atoms: C18_29  and  C19_30 
ROOT
HETATM    1  N1  UNL     1       9.100  18.287  -2.143  1.00  0.00    -0.298 N 
HETATM    2  C7  UNL     1       9.780  19.514  -2.234  1.00  0.00     0.283 A 
HETATM    3  O3  UNL     1      10.567  19.943  -3.111  1.00  0.00    -0.265 OA
HETATM    4  C8  UNL     1       9.387  20.291  -1.021  1.00  0.00     0.146 A 
HETATM    5  C9  UNL     1       8.562  19.611  -0.276  1.00  0.00     0.042 A 
HETATM    6  C18 UNL     1       8.351  18.252  -0.919  1.00  0.00     0.165 A 
ENDROOT
BRANCH   5   7
HETATM    7  C10 UNL     1       7.920  19.942   0.982  1.00  0.00     0.087 C 
BRANCH   7   8
HETATM    8  O5  UNL     1       6.711  20.415   0.825  1.00  0.00    -0.359 OA
ATOM      9  H5  UNL     1       6.133  19.808   0.376  1.00  0.00     0.217 HD
ENDBRANCH   7   8
BRANCH   7  10
HETATM   10  C11 UNL     1       8.353  19.855   2.333  1.00  0.00    -0.002 A 
HETATM   11  C12 UNL     1       9.254  20.630   3.006  1.00  0.00     0.014 A 
HETATM   12  C13 UNL     1       9.517  20.551   4.373  1.00  0.00     0.002 A 
HETATM   13  C14 UNL     1       8.837  19.634   5.129  1.00  0.00     0.016 A 
HETATM   14  C15 UNL     1       7.904  18.810   4.502  1.00  0.00     0.048 A 
HETATM   15  C17 UNL     1       7.681  18.920   3.168  1.00  0.00     0.030 A 
BRANCH  14  16
HETATM   16  C16 UNL     1       7.170  17.821   5.351  1.00  0.00     0.417 C 
HETATM   17  F1  UNL     1       6.869  16.715   4.594  1.00  0.00    -0.166 F 
HETATM   18  F2  UNL     1       7.940  17.451   6.438  1.00  0.00    -0.166 F 
HETATM   19  F3  UNL     1       6.022  18.437   5.815  1.00  0.00    -0.166 F 
ENDBRANCH  14  16
ENDBRANCH   7  10
ENDBRANCH   5   7
BRANCH   4  20
HETATM   20  O4  UNL     1       9.870  21.579  -0.777  1.00  0.00    -0.355 OA
ATOM     21  H4  UNL     1       9.539  22.115  -0.066  1.00  0.00     0.218 HD
ENDBRANCH   4  20
BRANCH   6  22
HETATM   22  C19 UNL     1       9.000  17.277   0.045  1.00  0.00    -0.026 A 
HETATM   23  C20 UNL     1       8.203  16.344   0.669  1.00  0.00     0.036 A 
HETATM   24  C21 UNL     1       8.698  15.450   1.602  1.00  0.00     0.070 A 
HETATM   25 CL1  UNL     1       7.686  14.276   2.406  1.00  0.00    -0.081 Cl
HETATM   26  C22 UNL     1      10.066  15.555   1.870  1.00  0.00     0.126 A 
HETATM   27  C23 UNL     1      10.873  16.485   1.249  1.00  0.00     0.107 A 
HETATM   28  O7  UNL     1      10.811  14.801   2.741  1.00  0.00    -0.321 OA
HETATM   29  C24 UNL     1      10.343  17.364   0.322  1.00  0.00     0.049 A 
HETATM   30  O6  UNL     1      12.150  16.321   1.735  1.00  0.00    -0.323 OA
HETATM   31  C25 UNL     1      12.166  15.252   2.658  1.00  0.00     0.352 A 
ENDBRANCH   6  22
BRANCH   1  32
HETATM   32  C6  UNL     1       9.173  17.267  -3.129  1.00  0.00     0.039 A 
HETATM   33  C5  UNL     1      10.237  16.386  -3.223  1.00  0.00     0.030 A 
HETATM   34  C4  UNL     1      10.272  15.392  -4.203  1.00  0.00     0.003 A 
HETATM   35  C3  UNL     1       9.246  15.268  -5.100  1.00  0.00     0.018 A 
HETATM   36  C2  UNL     1       8.166  16.139  -5.029  1.00  0.00     0.043 A 
HETATM   37  C26 UNL     1       8.170  17.098  -4.054  1.00  0.00     0.048 A 
BRANCH  36  38
HETATM   38  C1  UNL     1       7.054  16.035  -5.969  1.00  0.00     0.209 C 
HETATM   39  O1  UNL     1       7.120  16.628  -7.054  1.00  0.00    -0.644 OA
HETATM   40  O2  UNL     1       5.949  15.274  -5.625  1.00  0.00    -0.644 OA
ENDBRANCH  36  38
ENDBRANCH   1  32
TORSDOF 8
ENDMDL
