MODEL 12
REMARK VINA RESULT: -7.767416039      1.682      2.164
REMARK  8 active torsions:
REMARK  status: ('A' for Active; 'I' for Inactive)
REMARK    1  A    between atoms: C1_2  and  C2_4 
REMARK    2  A    between atoms: C6_8  and  N1_9 
REMARK    3  A    between atoms: C8_12  and  O4_13 
REMARK    4  A    between atoms: C9_15  and  C10_16 
REMARK    5  A    between atoms: C10_16  and  O5_17 
REMARK    6  A    between atoms: C10_16  and  C11_19 
REMARK    7  A    between atoms: C15_23  and  C16_24 
REMARK    8  A    between atoms: C18_29  and  C19_30 
ROOT
HETATM    1  N1  UNL     1       0.647  20.019   0.828  1.00  0.00    -0.298 N 
HETATM    2  C7  UNL     1       0.250  18.776   1.349  1.00  0.00     0.283 A 
HETATM    3  O3  UNL     1      -0.632  17.974   0.958  1.00  0.00    -0.265 OA
HETATM    4  C8  UNL     1       1.116  18.537   2.543  1.00  0.00     0.146 A 
HETATM    5  C9  UNL     1       1.944  19.527   2.726  1.00  0.00     0.042 A 
HETATM    6  C18 UNL     1       1.673  20.576   1.663  1.00  0.00     0.165 A 
ENDROOT
BRANCH   5   7
HETATM    7  C10 UNL     1       2.958  19.745   3.739  1.00  0.00     0.087 C 
BRANCH   7   8
HETATM    8  O5  UNL     1       2.479  19.698   4.955  1.00  0.00    -0.359 OA
ATOM      9  H5  UNL     1       2.976  19.124   5.526  1.00  0.00     0.217 HD
ENDBRANCH   7   8
BRANCH   7  10
HETATM   10  C11 UNL     1       4.355  20.000   3.660  1.00  0.00    -0.002 A 
HETATM   11  C12 UNL     1       5.011  21.081   3.142  1.00  0.00     0.014 A 
HETATM   12  C13 UNL     1       6.383  21.304   3.230  1.00  0.00     0.002 A 
HETATM   13  C14 UNL     1       7.166  20.386   3.879  1.00  0.00     0.016 A 
HETATM   14  C15 UNL     1       6.559  19.258   4.428  1.00  0.00     0.048 A 
HETATM   15  C17 UNL     1       5.218  19.081   4.318  1.00  0.00     0.030 A 
BRANCH  14  16
HETATM   16  C16 UNL     1       7.434  18.274   5.137  1.00  0.00     0.417 C 
HETATM   17  F1  UNL     1       7.804  17.287   4.257  1.00  0.00    -0.166 F 
HETATM   18  F2  UNL     1       8.560  18.902   5.639  1.00  0.00    -0.166 F 
HETATM   19  F3  UNL     1       6.712  17.755   6.196  1.00  0.00    -0.166 F 
ENDBRANCH  14  16
ENDBRANCH   7  10
ENDBRANCH   5   7
BRANCH   4  20
HETATM   20  O4  UNL     1       1.009  17.380   3.317  1.00  0.00    -0.355 OA
ATOM     21  H4  UNL     1       0.445  17.333   4.079  1.00  0.00     0.218 HD
ENDBRANCH   4  20
BRANCH   6  22
HETATM   22  C19 UNL     1       1.113  21.756   2.436  1.00  0.00    -0.026 A 
HETATM   23  C20 UNL     1       1.582  23.015   2.138  1.00  0.00     0.036 A 
HETATM   24  C21 UNL     1       1.168  24.143   2.826  1.00  0.00     0.070 A 
HETATM   25 CL1  UNL     1       1.774  25.739   2.462  1.00  0.00    -0.081 Cl
HETATM   26  C22 UNL     1       0.238  23.919   3.845  1.00  0.00     0.126 A 
HETATM   27  C23 UNL     1      -0.239  22.661   4.150  1.00  0.00     0.107 A 
HETATM   28  O7  UNL     1      -0.336  24.847   4.676  1.00  0.00    -0.321 OA
HETATM   29  C24 UNL     1       0.198  21.556   3.441  1.00  0.00     0.049 A 
HETATM   30  O6  UNL     1      -1.129  22.792   5.191  1.00  0.00    -0.323 OA
HETATM   31  C25 UNL     1      -1.244  24.156   5.539  1.00  0.00     0.352 A 
ENDBRANCH   6  22
BRANCH   1  32
HETATM   32  C6  UNL     1       0.090  20.599  -0.343  1.00  0.00     0.039 A 
HETATM   33  C5  UNL     1       0.786  21.483  -1.150  1.00  0.00     0.030 A 
HETATM   34  C4  UNL     1       0.207  22.029  -2.297  1.00  0.00     0.003 A 
HETATM   35  C3  UNL     1      -1.072  21.699  -2.651  1.00  0.00     0.018 A 
HETATM   36  C2  UNL     1      -1.795  20.815  -1.860  1.00  0.00     0.043 A 
HETATM   37  C26 UNL     1      -1.191  20.302  -0.745  1.00  0.00     0.048 A 
BRANCH  36  38
HETATM   38  C1  UNL     1      -3.162  20.440  -2.207  1.00  0.00     0.209 C 
HETATM   39  O1  UNL     1      -4.062  20.589  -1.371  1.00  0.00    -0.644 OA
HETATM   40  O2  UNL     1      -3.421  19.925  -3.467  1.00  0.00    -0.644 OA
ENDBRANCH  36  38
ENDBRANCH   1  32
TORSDOF 8
ENDMDL
