MODEL 5
REMARK VINA RESULT: -8.405973968      4.237      7.151
REMARK  8 active torsions:
REMARK  status: ('A' for Active; 'I' for Inactive)
REMARK    1  A    between atoms: C1_2  and  C2_4 
REMARK    2  A    between atoms: C6_8  and  N1_9 
REMARK    3  A    between atoms: C8_12  and  O4_13 
REMARK    4  A    between atoms: C9_15  and  C10_16 
REMARK    5  A    between atoms: C10_16  and  O5_17 
REMARK    6  A    between atoms: C10_16  and  C11_19 
REMARK    7  A    between atoms: C15_23  and  C16_24 
REMARK    8  A    between atoms: C18_29  and  C19_30 
ROOT
HETATM    1  N1  UNL     1       2.177  21.962   1.751  1.00  0.00    -0.298 N 
HETATM    2  C7  UNL     1       3.517  21.684   1.430  1.00  0.00     0.283 A 
HETATM    3  O3  UNL     1       4.525  22.430   1.431  1.00  0.00    -0.265 OA
HETATM    4  C8  UNL     1       3.557  20.239   1.054  1.00  0.00     0.146 A 
HETATM    5  C9  UNL     1       2.373  19.701   1.136  1.00  0.00     0.042 A 
HETATM    6  C18 UNL     1       1.388  20.781   1.547  1.00  0.00     0.165 A 
ENDROOT
BRANCH   5   7
HETATM    7  C10 UNL     1       1.920  18.349   0.872  1.00  0.00     0.087 C 
BRANCH   7   8
HETATM    8  O5  UNL     1       1.470  17.746   1.942  1.00  0.00    -0.359 OA
ATOM      9  H5  UNL     1       0.596  17.392   1.826  1.00  0.00     0.217 HD
ENDBRANCH   7   8
BRANCH   7  10
HETATM   10  C11 UNL     1       1.878  17.565  -0.314  1.00  0.00    -0.002 A 
HETATM   11  C12 UNL     1       2.253  16.266  -0.508  1.00  0.00     0.014 A 
HETATM   12  C13 UNL     1       2.049  15.539  -1.680  1.00  0.00     0.002 A 
HETATM   13  C14 UNL     1       1.429  16.146  -2.740  1.00  0.00     0.016 A 
HETATM   14  C15 UNL     1       1.023  17.473  -2.607  1.00  0.00     0.048 A 
HETATM   15  C17 UNL     1       1.242  18.143  -1.447  1.00  0.00     0.030 A 
BRANCH  14  16
HETATM   16  C16 UNL     1       0.342  18.110  -3.776  1.00  0.00     0.417 C 
HETATM   17  F1  UNL     1       0.988  19.280  -4.090  1.00  0.00    -0.166 F 
HETATM   18  F2  UNL     1       0.354  17.259  -4.866  1.00  0.00    -0.166 F 
HETATM   19  F3  UNL     1      -0.974  18.346  -3.419  1.00  0.00    -0.166 F 
ENDBRANCH  14  16
ENDBRANCH   7  10
ENDBRANCH   5   7
BRANCH   4  20
HETATM   20  O4  UNL     1       4.742  19.602   0.680  1.00  0.00    -0.355 OA
ATOM     21  H4  UNL     1       5.588  19.869   1.022  1.00  0.00     0.218 HD
ENDBRANCH   4  20
BRANCH   6  22
HETATM   22  C19 UNL     1       0.505  20.965   0.327  1.00  0.00    -0.026 A 
HETATM   23  C20 UNL     1      -0.760  20.422   0.346  1.00  0.00     0.036 A 
HETATM   24  C21 UNL     1      -1.615  20.495  -0.740  1.00  0.00     0.070 A 
HETATM   25 CL1  UNL     1      -3.213  19.793  -0.724  1.00  0.00    -0.081 Cl
HETATM   26  C22 UNL     1      -1.110  21.161  -1.861  1.00  0.00     0.126 A 
HETATM   27  C23 UNL     1       0.155  21.709  -1.889  1.00  0.00     0.107 A 
HETATM   28  O7  UNL     1      -1.737  21.378  -3.061  1.00  0.00    -0.321 OA
HETATM   29  C24 UNL     1       0.983  21.616  -0.784  1.00  0.00     0.049 A 
HETATM   30  O6  UNL     1       0.335  22.283  -3.127  1.00  0.00    -0.323 OA
HETATM   31  C25 UNL     1      -0.842  22.123  -3.892  1.00  0.00     0.352 A 
ENDBRANCH   6  22
BRANCH   1  32
HETATM   32  C6  UNL     1       1.719  23.229   2.200  1.00  0.00     0.039 A 
HETATM   33  C5  UNL     1       2.136  24.423   1.636  1.00  0.00     0.030 A 
HETATM   34  C4  UNL     1       1.659  25.650   2.101  1.00  0.00     0.003 A 
HETATM   35  C3  UNL     1       0.763  25.699   3.133  1.00  0.00     0.018 A 
HETATM   36  C2  UNL     1       0.328  24.517   3.718  1.00  0.00     0.043 A 
HETATM   37  C26 UNL     1       0.818  23.336   3.234  1.00  0.00     0.048 A 
BRANCH  36  38
HETATM   38  C1  UNL     1      -0.628  24.531   4.821  1.00  0.00     0.209 C 
HETATM   39  O1  UNL     1      -0.370  23.902   5.856  1.00  0.00    -0.644 OA
HETATM   40  O2  UNL     1      -1.805  25.248   4.685  1.00  0.00    -0.644 OA
ENDBRANCH  36  38
ENDBRANCH   1  32
TORSDOF 8
ENDMDL
