MODEL 11
REMARK VINA RESULT: -8.383925183      3.289      7.776
REMARK  7 active torsions:
REMARK  status: ('A' for Active; 'I' for Inactive)
REMARK    1  A    between atoms: C1_2  and  C2_4 
REMARK    2  A    between atoms: C6_8  and  N1_9 
REMARK    3  A    between atoms: C8_12  and  O4_13 
REMARK    4  A    between atoms: C9_15  and  C10_16 
REMARK    5  A    between atoms: C10_16  and  C11_18 
REMARK    6  A    between atoms: C15_22  and  C16_23 
REMARK    7  A    between atoms: C23_33  and  C24_34 
ROOT
HETATM    1  N1  UNL     1       3.118  20.209   1.511  1.00  0.00    -0.275 N 
HETATM    2  C7  UNL     1       2.990  19.112   0.579  1.00  0.00     0.287 C 
HETATM    3  O3  UNL     1       3.577  17.977   0.635  1.00  0.00    -0.264 OA
HETATM    4  C8  UNL     1       2.054  19.589  -0.430  1.00  0.00     0.151 C 
HETATM    5  C9  UNL     1       1.633  20.789  -0.200  1.00  0.00     0.082 C 
HETATM    6  C18 UNL     1       2.088  21.083   1.226  1.00  0.00     0.070 C 
HETATM    7  C19 UNL     1       2.077  22.488   1.533  1.00  0.00    -0.007 A 
HETATM    8  C20 UNL     1       2.950  23.445   1.131  1.00  0.00     0.014 A 
HETATM    9  C21 UNL     1       2.883  24.763   1.509  1.00  0.00     0.002 A 
HETATM   10  C22 UNL     1       1.866  25.198   2.364  1.00  0.00     0.016 A 
HETATM   11  C23 UNL     1       0.958  24.280   2.802  1.00  0.00     0.048 A 
HETATM   12  C25 UNL     1       1.061  22.981   2.400  1.00  0.00     0.029 A 
ENDROOT
BRANCH   5  13
HETATM   13  C10 UNL     1       0.752  21.611  -0.959  1.00  0.00     0.197 C 
HETATM   14  O5  UNL     1       1.216  22.727  -1.387  1.00  0.00    -0.286 OA
BRANCH  13  15
HETATM   15  C11 UNL     1      -0.621  21.330  -1.306  1.00  0.00     0.016 A 
HETATM   16  C12 UNL     1      -1.108  21.723  -2.560  1.00  0.00     0.015 A 
HETATM   17  C13 UNL     1      -2.378  21.377  -2.924  1.00  0.00     0.002 A 
HETATM   18  C14 UNL     1      -3.178  20.636  -2.052  1.00  0.00     0.016 A 
HETATM   19  C15 UNL     1      -2.727  20.236  -0.823  1.00  0.00     0.048 A 
HETATM   20  C17 UNL     1      -1.423  20.598  -0.471  1.00  0.00     0.031 A 
BRANCH  19  21
HETATM   21  C16 UNL     1      -3.573  19.464   0.158  1.00  0.00     0.417 C 
HETATM   22  F1  UNL     1      -3.048  19.614   1.440  1.00  0.00    -0.166 F 
HETATM   23  F2  UNL     1      -3.638  18.119  -0.176  1.00  0.00    -0.166 F 
HETATM   24  F3  UNL     1      -4.810  20.060   0.171  1.00  0.00    -0.166 F 
ENDBRANCH  19  21
ENDBRANCH  13  15
ENDBRANCH   5  13
BRANCH   4  25
HETATM   25  O4  UNL     1       1.745  18.681  -1.482  1.00  0.00    -0.355 OA
ATOM     26  H4  UNL     1       1.966  18.965  -2.361  1.00  0.00     0.218 HD
ENDBRANCH   4  25
BRANCH   1  27
HETATM   27  C6  UNL     1       4.199  20.111   2.462  1.00  0.00     0.044 A 
HETATM   28  C5  UNL     1       3.990  19.778   3.752  1.00  0.00     0.030 A 
HETATM   29  C4  UNL     1       5.114  19.769   4.602  1.00  0.00     0.003 A 
HETATM   30  C3  UNL     1       6.385  20.078   4.133  1.00  0.00     0.018 A 
HETATM   31  C2  UNL     1       6.600  20.407   2.824  1.00  0.00     0.043 A 
HETATM   32  C26 UNL     1       5.480  20.415   2.005  1.00  0.00     0.048 A 
BRANCH  31  33
HETATM   33  C1  UNL     1       7.923  20.745   2.314  1.00  0.00     0.209 C 
HETATM   34  O1  UNL     1       8.256  20.309   1.210  1.00  0.00    -0.644 OA
HETATM   35  O2  UNL     1       8.838  21.549   3.006  1.00  0.00    -0.644 OA
ENDBRANCH  31  33
ENDBRANCH   1  27
BRANCH  11  36
HETATM   36  C24 UNL     1      -0.154  24.701   3.721  1.00  0.00     0.417 C 
HETATM   37  F4  UNL     1      -1.194  23.794   3.685  1.00  0.00    -0.166 F 
HETATM   38  F5  UNL     1      -0.575  25.960   3.358  1.00  0.00    -0.166 F 
HETATM   39  F6  UNL     1       0.415  24.726   4.992  1.00  0.00    -0.166 F 
ENDBRANCH  11  36
TORSDOF 7
ENDMDL
