MODEL 7
REMARK VINA RESULT: -8.645966046      3.189      4.123
REMARK  7 active torsions:
REMARK  status: ('A' for Active; 'I' for Inactive)
REMARK    1  A    between atoms: C1_2  and  C2_4 
REMARK    2  A    between atoms: C6_8  and  N1_9 
REMARK    3  A    between atoms: C8_12  and  O4_13 
REMARK    4  A    between atoms: C9_15  and  C10_16 
REMARK    5  A    between atoms: C10_16  and  C11_18 
REMARK    6  A    between atoms: C15_22  and  C16_23 
REMARK    7  A    between atoms: C23_33  and  C24_34 
ROOT
HETATM    1  N1  UNL     1       0.648  20.156   0.690  1.00  0.00    -0.275 N 
HETATM    2  C7  UNL     1       1.249  18.841   0.716  1.00  0.00     0.287 C 
HETATM    3  O3  UNL     1       1.086  17.898  -0.131  1.00  0.00    -0.264 OA
HETATM    4  C8  UNL     1       2.074  18.834   1.917  1.00  0.00     0.151 C 
HETATM    5  C9  UNL     1       2.029  19.951   2.566  1.00  0.00     0.082 C 
HETATM    6  C18 UNL     1       1.342  20.918   1.608  1.00  0.00     0.070 C 
HETATM    7  C19 UNL     1       0.836  22.090   2.271  1.00  0.00    -0.007 A 
HETATM    8  C20 UNL     1      -0.261  22.202   3.061  1.00  0.00     0.014 A 
HETATM    9  C21 UNL     1      -0.693  23.378   3.623  1.00  0.00     0.002 A 
HETATM   10  C22 UNL     1       0.009  24.566   3.396  1.00  0.00     0.016 A 
HETATM   11  C23 UNL     1       1.121  24.514   2.608  1.00  0.00     0.048 A 
HETATM   12  C25 UNL     1       1.516  23.325   2.072  1.00  0.00     0.029 A 
ENDROOT
BRANCH   5  13
HETATM   13  C10 UNL     1       2.655  20.323   3.790  1.00  0.00     0.197 C 
HETATM   14  O5  UNL     1       3.812  20.870   3.713  1.00  0.00    -0.286 OA
BRANCH  13  15
HETATM   15  C11 UNL     1       2.132  20.153   5.124  1.00  0.00     0.016 A 
HETATM   16  C12 UNL     1       2.499  19.022   5.867  1.00  0.00     0.015 A 
HETATM   17  C13 UNL     1       2.078  18.906   7.162  1.00  0.00     0.002 A 
HETATM   18  C14 UNL     1       1.292  19.909   7.734  1.00  0.00     0.016 A 
HETATM   19  C15 UNL     1       0.922  21.024   7.033  1.00  0.00     0.048 A 
HETATM   20  C17 UNL     1       1.366  21.125   5.711  1.00  0.00     0.031 A 
BRANCH  19  21
HETATM   21  C16 UNL     1       0.047  22.110   7.607  1.00  0.00     0.417 C 
HETATM   22  F1  UNL     1       0.155  23.256   6.820  1.00  0.00    -0.166 F 
HETATM   23  F2  UNL     1       0.393  22.399   8.919  1.00  0.00    -0.166 F 
HETATM   24  F3  UNL     1      -1.250  21.678   7.491  1.00  0.00    -0.166 F 
ENDBRANCH  19  21
ENDBRANCH  13  15
ENDBRANCH   5  13
BRANCH   4  25
HETATM   25  O4  UNL     1       2.793  17.634   2.181  1.00  0.00    -0.355 OA
ATOM     26  H4  UNL     1       2.967  17.075   1.433  1.00  0.00     0.218 HD
ENDBRANCH   4  25
BRANCH   1  27
HETATM   27  C6  UNL     1      -0.433  20.339  -0.247  1.00  0.00     0.044 A 
HETATM   28  C5  UNL     1      -1.676  19.875  -0.007  1.00  0.00     0.030 A 
HETATM   29  C4  UNL     1      -2.638  20.062  -1.019  1.00  0.00     0.003 A 
HETATM   30  C3  UNL     1      -2.326  20.706  -2.211  1.00  0.00     0.018 A 
HETATM   31  C2  UNL     1      -1.069  21.185  -2.452  1.00  0.00     0.043 A 
HETATM   32  C26 UNL     1      -0.136  20.986  -1.445  1.00  0.00     0.048 A 
BRANCH  31  33
HETATM   33  C1  UNL     1      -0.718  21.853  -3.700  1.00  0.00     0.209 C 
HETATM   34  O1  UNL     1      -0.933  23.063  -3.799  1.00  0.00    -0.644 OA
HETATM   35  O2  UNL     1      -0.139  21.197  -4.795  1.00  0.00    -0.644 OA
ENDBRANCH  31  33
ENDBRANCH   1  27
BRANCH  11  36
HETATM   36  C24 UNL     1       1.909  25.765   2.337  1.00  0.00     0.417 C 
HETATM   37  F4  UNL     1       2.399  26.303   3.510  1.00  0.00    -0.166 F 
HETATM   38  F5  UNL     1       1.102  26.661   1.673  1.00  0.00    -0.166 F 
HETATM   39  F6  UNL     1       2.961  25.361   1.520  1.00  0.00    -0.166 F 
ENDBRANCH  11  36
TORSDOF 7
ENDMDL
