MODEL 4
REMARK VINA RESULT: -8.738221047      3.308      7.718
REMARK  7 active torsions:
REMARK  status: ('A' for Active; 'I' for Inactive)
REMARK    1  A    between atoms: C1_2  and  C2_4 
REMARK    2  A    between atoms: C6_8  and  N1_9 
REMARK    3  A    between atoms: C8_12  and  O4_13 
REMARK    4  A    between atoms: C9_15  and  C10_16 
REMARK    5  A    between atoms: C10_16  and  C11_18 
REMARK    6  A    between atoms: C15_22  and  C16_23 
REMARK    7  A    between atoms: C23_33  and  C24_34 
ROOT
HETATM    1  N1  UNL     1       3.340  20.496   1.521  1.00  0.00    -0.275 N 
HETATM    2  C7  UNL     1       3.311  19.389   0.592  1.00  0.00     0.287 C 
HETATM    3  O3  UNL     1       4.039  18.338   0.618  1.00  0.00    -0.264 OA
HETATM    4  C8  UNL     1       2.278  19.740  -0.373  1.00  0.00     0.151 C 
HETATM    5  C9  UNL     1       1.718  20.878  -0.120  1.00  0.00     0.082 C 
HETATM    6  C18 UNL     1       2.196  21.231   1.284  1.00  0.00     0.070 C 
HETATM    7  C19 UNL     1       2.019  22.624   1.597  1.00  0.00    -0.007 A 
HETATM    8  C20 UNL     1       2.746  23.683   1.159  1.00  0.00     0.014 A 
HETATM    9  C21 UNL     1       2.528  24.982   1.544  1.00  0.00     0.002 A 
HETATM   10  C22 UNL     1       1.503  25.286   2.445  1.00  0.00     0.016 A 
HETATM   11  C23 UNL     1       0.740  24.262   2.919  1.00  0.00     0.048 A 
HETATM   12  C25 UNL     1       0.988  22.985   2.509  1.00  0.00     0.029 A 
ENDROOT
BRANCH   5  13
HETATM   13  C10 UNL     1       0.707  21.579  -0.838  1.00  0.00     0.197 C 
HETATM   14  O5  UNL     1       1.047  22.676  -1.406  1.00  0.00    -0.286 OA
BRANCH  13  15
HETATM   15  C11 UNL     1      -0.674  21.193  -0.999  1.00  0.00     0.016 A 
HETATM   16  C12 UNL     1      -1.325  21.459  -2.211  1.00  0.00     0.015 A 
HETATM   17  C13 UNL     1      -2.603  21.013  -2.397  1.00  0.00     0.002 A 
HETATM   18  C14 UNL     1      -3.247  20.297  -1.386  1.00  0.00     0.016 A 
HETATM   19  C15 UNL     1      -2.634  20.019  -0.195  1.00  0.00     0.048 A 
HETATM   20  C17 UNL     1      -1.326  20.482  -0.026  1.00  0.00     0.031 A 
BRANCH  19  21
HETATM   21  C16 UNL     1      -3.310  19.278   0.931  1.00  0.00     0.417 C 
HETATM   22  F1  UNL     1      -2.927  19.837   2.149  1.00  0.00    -0.166 F 
HETATM   23  F2  UNL     1      -2.998  17.926   0.908  1.00  0.00    -0.166 F 
HETATM   24  F3  UNL     1      -4.658  19.505   0.803  1.00  0.00    -0.166 F 
ENDBRANCH  19  21
ENDBRANCH  13  15
ENDBRANCH   5  13
BRANCH   4  25
HETATM   25  O4  UNL     1       2.040  18.798  -1.413  1.00  0.00    -0.355 OA
ATOM     26  H4  UNL     1       1.740  19.152  -2.242  1.00  0.00     0.218 HD
ENDBRANCH   4  25
BRANCH   1  27
HETATM   27  C6  UNL     1       4.465  20.537   2.423  1.00  0.00     0.044 A 
HETATM   28  C5  UNL     1       5.548  21.304   2.183  1.00  0.00     0.030 A 
HETATM   29  C4  UNL     1       6.611  21.221   3.105  1.00  0.00     0.003 A 
HETATM   30  C3  UNL     1       6.545  20.392   4.218  1.00  0.00     0.018 A 
HETATM   31  C2  UNL     1       5.445  19.620   4.468  1.00  0.00     0.043 A 
HETATM   32  C26 UNL     1       4.412  19.714   3.546  1.00  0.00     0.048 A 
BRANCH  31  33
HETATM   33  C1  UNL     1       5.362  18.736   5.624  1.00  0.00     0.209 C 
HETATM   34  O1  UNL     1       4.348  18.780   6.324  1.00  0.00    -0.644 OA
HETATM   35  O2  UNL     1       6.368  17.828   5.981  1.00  0.00    -0.644 OA
ENDBRANCH  31  33
ENDBRANCH   1  27
BRANCH  11  36
HETATM   36  C24 UNL     1      -0.375  24.540   3.889  1.00  0.00     0.417 C 
HETATM   37  F4  UNL     1      -1.320  23.534   3.855  1.00  0.00    -0.166 F 
HETATM   38  F5  UNL     1      -0.932  25.762   3.583  1.00  0.00    -0.166 F 
HETATM   39  F6  UNL     1       0.234  24.583   5.140  1.00  0.00    -0.166 F 
ENDBRANCH  11  36
TORSDOF 7
ENDMDL
