MODEL 4
REMARK VINA RESULT: -7.704046132      1.252      1.634
REMARK  7 active torsions:
REMARK  status: ('A' for Active; 'I' for Inactive)
REMARK    1  A    between atoms: C1_2  and  C2_4 
REMARK    2  A    between atoms: C6_8  and  N1_9 
REMARK    3  A    between atoms: C8_12  and  O4_13 
REMARK    4  A    between atoms: C9_15  and  C10_16 
REMARK    5  A    between atoms: C10_16  and  O5_17 
REMARK    6  A    between atoms: C10_16  and  C11_19 
REMARK    7  A    between atoms: C15_25  and  C16_26 
ROOT
HETATM    1  N1  UNL     1       1.555  20.557  -0.167  1.00  0.00    -0.298 N 
HETATM    2  C7  UNL     1       1.979  19.217  -0.037  1.00  0.00     0.283 C 
HETATM    3  O3  UNL     1       1.377  18.168  -0.437  1.00  0.00    -0.265 OA
HETATM    4  C8  UNL     1       3.286  19.259   0.669  1.00  0.00     0.146 C 
HETATM    5  C9  UNL     1       3.613  20.479   0.944  1.00  0.00     0.043 C 
HETATM    6  C15 UNL     1       2.455  21.376   0.532  1.00  0.00     0.165 C 
ENDROOT
BRANCH   6   7
HETATM    7  C16 UNL     1       1.874  22.031   1.721  1.00  0.00    -0.026 A 
HETATM    8  C17 UNL     1       1.643  21.278   2.878  1.00  0.00     0.036 A 
HETATM    9  C18 UNL     1       1.127  21.845   4.023  1.00  0.00     0.070 A 
HETATM   10 CL2  UNL     1       0.852  20.871   5.446  1.00  0.00    -0.081 Cl
HETATM   11  C19 UNL     1       0.818  23.182   4.069  1.00  0.00     0.126 A 
HETATM   12  C20 UNL     1       1.035  23.940   2.950  1.00  0.00     0.107 A 
HETATM   13  O7  UNL     1       0.295  24.001   5.069  1.00  0.00    -0.321 OA
HETATM   14  C21 UNL     1       1.558  23.359   1.796  1.00  0.00     0.049 A 
HETATM   15  O6  UNL     1       0.640  25.234   3.274  1.00  0.00    -0.323 OA
HETATM   16  C22 UNL     1      -0.211  25.165   4.423  1.00  0.00     0.352 C 
ENDBRANCH   6   7
BRANCH   1  17
HETATM   17  C6  UNL     1       0.399  20.920  -0.909  1.00  0.00     0.039 A 
HETATM   18  C5  UNL     1       0.507  21.783  -1.984  1.00  0.00     0.030 A 
HETATM   19  C4  UNL     1      -0.575  22.164  -2.731  1.00  0.00     0.003 A 
HETATM   20  C3  UNL     1      -1.811  21.654  -2.381  1.00  0.00     0.018 A 
HETATM   21  C2  UNL     1      -1.970  20.790  -1.319  1.00  0.00     0.043 A 
HETATM   22  C23 UNL     1      -0.867  20.423  -0.584  1.00  0.00     0.048 A 
BRANCH  21  23
HETATM   23  C1  UNL     1      -3.312  20.280  -0.996  1.00  0.00     0.209 C 
HETATM   24  O1  UNL     1      -4.065  19.812  -1.889  1.00  0.00    -0.644 OA
HETATM   25  O2  UNL     1      -3.801  20.291   0.295  1.00  0.00    -0.644 OA
ENDBRANCH  21  23
ENDBRANCH   1  17
BRANCH   5  26
HETATM   26  C10 UNL     1       4.772  21.032   1.599  1.00  0.00     0.094 C 
BRANCH  26  27
HETATM   27  O5  UNL     1       5.258  22.139   1.032  1.00  0.00    -0.359 OA
ATOM     28  H5  UNL     1       5.480  22.050   0.113  1.00  0.00     0.217 HD
ENDBRANCH  26  27
BRANCH  26  29
HETATM   29  C11 UNL     1       5.544  20.657   2.750  1.00  0.00     0.040 A 
HETATM   30  C12 UNL     1       5.331  19.991   3.917  1.00  0.00     0.024 A 
HETATM   31  C13 UNL     1       6.350  19.828   4.779  1.00  0.00     0.033 A 
HETATM   32  C14 UNL     1       7.557  20.339   4.444  1.00  0.00     0.075 A 
HETATM   33 CL1  UNL     1       9.061  20.289   5.351  1.00  0.00    -0.076 Cl
HETATM   34  S1  UNL     1       7.267  21.041   2.938  1.00  0.00    -0.075 SA
ENDBRANCH  26  29
ENDBRANCH   5  26
BRANCH   4  35
HETATM   35  O4  UNL     1       3.939  18.055   0.922  1.00  0.00    -0.355 OA
ATOM     36  H4  UNL     1       3.453  17.361   1.353  1.00  0.00     0.218 HD
ENDBRANCH   4  35
TORSDOF 7
ENDMDL
