MODEL 1
REMARK VINA RESULT: -8.176049641      0.000      0.000
REMARK  7 active torsions:
REMARK  status: ('A' for Active; 'I' for Inactive)
REMARK    1  A    between atoms: C1_2  and  C2_4 
REMARK    2  A    between atoms: C6_8  and  N1_9 
REMARK    3  A    between atoms: C8_12  and  O4_13 
REMARK    4  A    between atoms: C9_15  and  C10_16 
REMARK    5  A    between atoms: C10_16  and  O5_17 
REMARK    6  A    between atoms: C10_16  and  C11_19 
REMARK    7  A    between atoms: C15_25  and  C16_26 
ROOT
HETATM    1  N1  UNL     1       1.438  20.605  -0.269  1.00  0.00    -0.298 N 
HETATM    2  C7  UNL     1       1.729  19.257   0.031  1.00  0.00     0.283 C 
HETATM    3  O3  UNL     1       1.047  18.226  -0.276  1.00  0.00    -0.265 OA
HETATM    4  C8  UNL     1       3.007  19.264   0.789  1.00  0.00     0.146 C 
HETATM    5  C9  UNL     1       3.438  20.475   0.939  1.00  0.00     0.043 C 
HETATM    6  C15 UNL     1       2.384  21.416   0.375  1.00  0.00     0.165 C 
ENDROOT
BRANCH   6   7
HETATM    7  C16 UNL     1       1.824  22.255   1.453  1.00  0.00    -0.026 A 
HETATM    8  C17 UNL     1       1.894  23.649   1.346  1.00  0.00     0.036 A 
HETATM    9  C18 UNL     1       1.365  24.479   2.312  1.00  0.00     0.070 A 
HETATM   10 CL2  UNL     1       1.474  26.213   2.143  1.00  0.00    -0.081 Cl
HETATM   11  C19 UNL     1       0.744  23.961   3.421  1.00  0.00     0.126 A 
HETATM   12  C20 UNL     1       0.662  22.601   3.548  1.00  0.00     0.107 A 
HETATM   13  O7  UNL     1       0.134  24.550   4.529  1.00  0.00    -0.321 OA
HETATM   14  C21 UNL     1       1.200  21.769   2.567  1.00  0.00     0.049 A 
HETATM   15  O6  UNL     1      -0.005  22.360   4.745  1.00  0.00    -0.323 OA
HETATM   16  C22 UNL     1       0.064  23.549   5.539  1.00  0.00     0.352 C 
ENDBRANCH   6   7
BRANCH   1  17
HETATM   17  C6  UNL     1       0.349  20.979  -1.101  1.00  0.00     0.039 A 
HETATM   18  C5  UNL     1       0.550  21.847  -2.158  1.00  0.00     0.030 A 
HETATM   19  C4  UNL     1      -0.464  22.240  -2.990  1.00  0.00     0.003 A 
HETATM   20  C3  UNL     1      -1.729  21.736  -2.744  1.00  0.00     0.018 A 
HETATM   21  C2  UNL     1      -1.980  20.869  -1.705  1.00  0.00     0.043 A 
HETATM   22  C23 UNL     1      -0.943  20.490  -0.884  1.00  0.00     0.048 A 
BRANCH  21  23
HETATM   23  C1  UNL     1      -3.346  20.366  -1.495  1.00  0.00     0.209 C 
HETATM   24  O1  UNL     1      -4.189  21.022  -0.829  1.00  0.00    -0.644 OA
HETATM   25  O2  UNL     1      -3.764  19.159  -2.018  1.00  0.00    -0.644 OA
ENDBRANCH  21  23
ENDBRANCH   1  17
BRANCH   5  26
HETATM   26  C10 UNL     1       4.618  20.995   1.582  1.00  0.00     0.094 C 
BRANCH  26  27
HETATM   27  O5  UNL     1       5.128  22.088   1.010  1.00  0.00    -0.359 OA
ATOM     28  H5  UNL     1       5.615  21.929   0.211  1.00  0.00     0.217 HD
ENDBRANCH  26  27
BRANCH  26  29
HETATM   29  C11 UNL     1       5.392  20.597   2.724  1.00  0.00     0.040 A 
HETATM   30  C12 UNL     1       5.180  19.918   3.883  1.00  0.00     0.024 A 
HETATM   31  C13 UNL     1       6.201  19.734   4.738  1.00  0.00     0.033 A 
HETATM   32  C14 UNL     1       7.411  20.240   4.403  1.00  0.00     0.075 A 
HETATM   33 CL1  UNL     1       8.919  20.165   5.303  1.00  0.00    -0.076 Cl
HETATM   34  S1  UNL     1       7.120  20.964   2.908  1.00  0.00    -0.075 SA
ENDBRANCH  26  29
ENDBRANCH   5  26
BRANCH   4  35
HETATM   35  O4  UNL     1       3.535  18.045   1.207  1.00  0.00    -0.355 OA
ATOM     36  H4  UNL     1       4.260  18.055   1.821  1.00  0.00     0.218 HD
ENDBRANCH   4  35
TORSDOF 7
ENDMDL
