MODEL 9
REMARK VINA RESULT: -7.065795629      3.381      6.455
REMARK  7 active torsions:
REMARK  status: ('A' for Active; 'I' for Inactive)
REMARK    1  A    between atoms: C1_2  and  C2_4 
REMARK    2  A    between atoms: C6_8  and  N1_9 
REMARK    3  A    between atoms: C8_12  and  O4_13 
REMARK    4  A    between atoms: C9_15  and  C10_16 
REMARK    5  A    between atoms: C10_16  and  O5_17 
REMARK    6  A    between atoms: C10_16  and  C11_19 
REMARK    7  A    between atoms: C15_25  and  C16_26 
ROOT
HETATM    1  N1  UNL     1       2.156  22.058   1.653  1.00  0.00    -0.298 N 
HETATM    2  C7  UNL     1       3.527  21.787   1.456  1.00  0.00     0.283 C 
HETATM    3  O3  UNL     1       4.504  22.599   1.559  1.00  0.00    -0.265 OA
HETATM    4  C8  UNL     1       3.622  20.348   1.100  1.00  0.00     0.146 C 
HETATM    5  C9  UNL     1       2.446  19.810   1.074  1.00  0.00     0.043 C 
HETATM    6  C15 UNL     1       1.424  20.913   1.306  1.00  0.00     0.165 C 
ENDROOT
BRANCH   6   7
HETATM    7  C16 UNL     1       0.578  21.080   0.108  1.00  0.00    -0.026 A 
HETATM    8  C17 UNL     1      -0.751  20.641   0.138  1.00  0.00     0.036 A 
HETATM    9  C18 UNL     1      -1.592  20.795  -0.944  1.00  0.00     0.070 A 
HETATM   10 CL2  UNL     1      -3.243  20.233  -0.867  1.00  0.00    -0.081 Cl
HETATM   11  C19 UNL     1      -1.150  21.390  -2.099  1.00  0.00     0.126 A 
HETATM   12  C20 UNL     1       0.146  21.828  -2.153  1.00  0.00     0.107 A 
HETATM   13  O7  UNL     1      -1.767  21.669  -3.318  1.00  0.00    -0.321 OA
HETATM   14  C21 UNL     1       0.989  21.668  -1.055  1.00  0.00     0.049 A 
HETATM   15  O6  UNL     1       0.318  22.379  -3.419  1.00  0.00    -0.323 OA
HETATM   16  C22 UNL     1      -0.725  21.885  -4.265  1.00  0.00     0.352 C 
ENDBRANCH   6   7
BRANCH   1  17
HETATM   17  C6  UNL     1       1.691  23.312   2.133  1.00  0.00     0.039 A 
HETATM   18  C5  UNL     1       2.134  24.485   1.551  1.00  0.00     0.030 A 
HETATM   19  C4  UNL     1       1.717  25.718   1.975  1.00  0.00     0.003 A 
HETATM   20  C3  UNL     1       0.820  25.768   3.026  1.00  0.00     0.018 A 
HETATM   21  C2  UNL     1       0.348  24.628   3.638  1.00  0.00     0.043 A 
HETATM   22  C23 UNL     1       0.782  23.401   3.192  1.00  0.00     0.048 A 
BRANCH  21  23
HETATM   23  C1  UNL     1      -0.607  24.746   4.750  1.00  0.00     0.209 C 
HETATM   24  O1  UNL     1      -0.466  24.077   5.806  1.00  0.00    -0.644 OA
HETATM   25  O2  UNL     1      -1.696  25.592   4.685  1.00  0.00    -0.644 OA
ENDBRANCH  21  23
ENDBRANCH   1  17
BRANCH   5  26
HETATM   26  C10 UNL     1       2.020  18.461   0.798  1.00  0.00     0.094 C 
BRANCH  26  27
HETATM   27  O5  UNL     1       2.796  17.796  -0.061  1.00  0.00    -0.359 OA
ATOM     28  H5  UNL     1       2.536  16.895  -0.216  1.00  0.00     0.217 HD
ENDBRANCH  26  27
BRANCH  26  29
HETATM   29  C11 UNL     1       0.924  17.648   1.244  1.00  0.00     0.040 A 
HETATM   30  C12 UNL     1      -0.120  16.987   0.677  1.00  0.00     0.024 A 
HETATM   31  C13 UNL     1      -0.969  16.297   1.459  1.00  0.00     0.033 A 
HETATM   32  C14 UNL     1      -0.744  16.291   2.793  1.00  0.00     0.075 A 
HETATM   33 CL1  UNL     1      -1.666  15.493   4.058  1.00  0.00    -0.076 Cl
HETATM   34  S1  UNL     1       0.641  17.241   2.949  1.00  0.00    -0.075 SA
ENDBRANCH  26  29
ENDBRANCH   5  26
BRANCH   4  35
HETATM   35  O4  UNL     1       4.883  19.808   0.859  1.00  0.00    -0.355 OA
ATOM     36  H4  UNL     1       5.059  18.924   1.157  1.00  0.00     0.218 HD
ENDBRANCH   4  35
TORSDOF 7
ENDMDL
