MODEL 5
REMARK VINA RESULT: -7.321287717      3.428      6.544
REMARK  7 active torsions:
REMARK  status: ('A' for Active; 'I' for Inactive)
REMARK    1  A    between atoms: C1_2  and  C2_4 
REMARK    2  A    between atoms: C6_8  and  N1_9 
REMARK    3  A    between atoms: C8_12  and  O4_13 
REMARK    4  A    between atoms: C9_15  and  C10_16 
REMARK    5  A    between atoms: C10_16  and  O5_17 
REMARK    6  A    between atoms: C10_16  and  C11_19 
REMARK    7  A    between atoms: C15_25  and  C16_26 
ROOT
HETATM    1  N1  UNL     1       2.159  22.059   1.640  1.00  0.00    -0.298 N 
HETATM    2  C7  UNL     1       3.528  21.780   1.442  1.00  0.00     0.283 C 
HETATM    3  O3  UNL     1       4.509  22.587   1.536  1.00  0.00    -0.265 OA
HETATM    4  C8  UNL     1       3.615  20.338   1.094  1.00  0.00     0.146 C 
HETATM    5  C9  UNL     1       2.436  19.805   1.075  1.00  0.00     0.043 C 
HETATM    6  C15 UNL     1       1.420  20.915   1.302  1.00  0.00     0.165 C 
ENDROOT
BRANCH   6   7
HETATM    7  C16 UNL     1       0.572  21.078   0.104  1.00  0.00    -0.026 A 
HETATM    8  C17 UNL     1      -0.753  20.625   0.133  1.00  0.00     0.036 A 
HETATM    9  C18 UNL     1      -1.595  20.775  -0.948  1.00  0.00     0.070 A 
HETATM   10 CL2  UNL     1      -3.240  20.195  -0.873  1.00  0.00    -0.081 Cl
HETATM   11  C19 UNL     1      -1.160  21.380  -2.100  1.00  0.00     0.126 A 
HETATM   12  C20 UNL     1       0.131  21.832  -2.153  1.00  0.00     0.107 A 
HETATM   13  O7  UNL     1      -1.780  21.658  -3.318  1.00  0.00    -0.321 OA
HETATM   14  C21 UNL     1       0.977  21.677  -1.055  1.00  0.00     0.049 A 
HETATM   15  O6  UNL     1       0.297  22.392  -3.416  1.00  0.00    -0.323 OA
HETATM   16  C22 UNL     1      -0.741  21.890  -4.264  1.00  0.00     0.352 C 
ENDBRANCH   6   7
BRANCH   1  17
HETATM   17  C6  UNL     1       1.701  23.318   2.113  1.00  0.00     0.039 A 
HETATM   18  C5  UNL     1       2.151  24.486   1.524  1.00  0.00     0.030 A 
HETATM   19  C4  UNL     1       1.742  25.724   1.941  1.00  0.00     0.003 A 
HETATM   20  C3  UNL     1       0.845  25.785   2.991  1.00  0.00     0.018 A 
HETATM   21  C2  UNL     1       0.366  24.651   3.609  1.00  0.00     0.043 A 
HETATM   22  C23 UNL     1       0.793  23.419   3.171  1.00  0.00     0.048 A 
BRANCH  21  23
HETATM   23  C1  UNL     1      -0.589  24.781   4.721  1.00  0.00     0.209 C 
HETATM   24  O1  UNL     1      -0.467  24.097   5.770  1.00  0.00    -0.644 OA
HETATM   25  O2  UNL     1      -1.656  25.654   4.662  1.00  0.00    -0.644 OA
ENDBRANCH  21  23
ENDBRANCH   1  17
BRANCH   5  26
HETATM   26  C10 UNL     1       2.002  18.457   0.808  1.00  0.00     0.094 C 
BRANCH  26  27
HETATM   27  O5  UNL     1       1.723  17.735   1.896  1.00  0.00    -0.359 OA
ATOM     28  H5  UNL     1       1.085  17.044   1.761  1.00  0.00     0.217 HD
ENDBRANCH  26  27
BRANCH  26  29
HETATM   29  C11 UNL     1       1.796  17.692  -0.390  1.00  0.00     0.040 A 
HETATM   30  C12 UNL     1       0.847  17.595  -1.358  1.00  0.00     0.024 A 
HETATM   31  C13 UNL     1       1.021  16.727  -2.370  1.00  0.00     0.033 A 
HETATM   32  C14 UNL     1       2.148  15.977  -2.379  1.00  0.00     0.075 A 
HETATM   33 CL1  UNL     1       2.652  14.770  -3.552  1.00  0.00    -0.076 Cl
HETATM   34  S1  UNL     1       2.953  16.485  -0.987  1.00  0.00    -0.075 SA
ENDBRANCH  26  29
ENDBRANCH   5  26
BRANCH   4  35
HETATM   35  O4  UNL     1       4.872  19.790   0.853  1.00  0.00    -0.355 OA
ATOM     36  H4  UNL     1       5.410  20.178   0.173  1.00  0.00     0.218 HD
ENDBRANCH   4  35
TORSDOF 7
ENDMDL
