MODEL 10
REMARK VINA RESULT: -6.911923827      3.173      4.717
REMARK  7 active torsions:
REMARK  status: ('A' for Active; 'I' for Inactive)
REMARK    1  A    between atoms: C1_2  and  C2_4 
REMARK    2  A    between atoms: C6_8  and  N1_9 
REMARK    3  A    between atoms: C8_12  and  O4_13 
REMARK    4  A    between atoms: C9_15  and  C10_16 
REMARK    5  A    between atoms: C10_16  and  O5_17 
REMARK    6  A    between atoms: C10_16  and  C11_19 
REMARK    7  A    between atoms: C15_25  and  C16_26 
ROOT
HETATM    1  N1  UNL     1       2.256  22.117   1.912  1.00  0.00    -0.298 N 
HETATM    2  C7  UNL     1       2.149  21.527   0.634  1.00  0.00     0.283 C 
HETATM    3  O3  UNL     1       1.525  21.977  -0.382  1.00  0.00    -0.265 OA
HETATM    4  C8  UNL     1       2.916  20.256   0.695  1.00  0.00     0.146 C 
HETATM    5  C9  UNL     1       3.422  20.089   1.874  1.00  0.00     0.043 C 
HETATM    6  C15 UNL     1       2.918  21.219   2.761  1.00  0.00     0.165 C 
ENDROOT
BRANCH   6   7
HETATM    7  C16 UNL     1       2.072  20.676   3.841  1.00  0.00    -0.026 A 
HETATM    8  C17 UNL     1       0.956  19.896   3.515  1.00  0.00     0.036 A 
HETATM    9  C18 UNL     1       0.147  19.343   4.485  1.00  0.00     0.070 A 
HETATM   10 CL2  UNL     1      -1.236  18.377   4.037  1.00  0.00    -0.081 Cl
HETATM   11  C19 UNL     1       0.410  19.541   5.817  1.00  0.00     0.126 A 
HETATM   12  C20 UNL     1       1.496  20.300   6.162  1.00  0.00     0.107 A 
HETATM   13  O7  UNL     1      -0.224  19.114   6.984  1.00  0.00    -0.321 OA
HETATM   14  C21 UNL     1       2.310  20.855   5.175  1.00  0.00     0.049 A 
HETATM   15  O6  UNL     1       1.522  20.334   7.553  1.00  0.00    -0.323 OA
HETATM   16  C22 UNL     1       0.223  19.969   8.031  1.00  0.00     0.352 C 
ENDBRANCH   6   7
BRANCH   1  17
HETATM   17  C6  UNL     1       1.750  23.415   2.193  1.00  0.00     0.039 A 
HETATM   18  C5  UNL     1       2.235  24.513   1.506  1.00  0.00     0.030 A 
HETATM   19  C4  UNL     1       1.782  25.784   1.738  1.00  0.00     0.003 A 
HETATM   20  C3  UNL     1       0.804  25.953   2.700  1.00  0.00     0.018 A 
HETATM   21  C2  UNL     1       0.289  24.892   3.412  1.00  0.00     0.043 A 
HETATM   22  C23 UNL     1       0.760  23.624   3.158  1.00  0.00     0.048 A 
BRANCH  21  23
HETATM   23  C1  UNL     1      -0.752  25.135   4.422  1.00  0.00     0.209 C 
HETATM   24  O1  UNL     1      -0.725  24.557   5.540  1.00  0.00    -0.644 OA
HETATM   25  O2  UNL     1      -1.800  26.003   4.191  1.00  0.00    -0.644 OA
ENDBRANCH  21  23
ENDBRANCH   1  17
BRANCH   5  26
HETATM   26  C10 UNL     1       4.242  19.038   2.421  1.00  0.00     0.094 C 
BRANCH  26  27
HETATM   27  O5  UNL     1       3.934  17.811   1.994  1.00  0.00    -0.359 OA
ATOM     28  H5  UNL     1       4.590  17.407   1.438  1.00  0.00     0.217 HD
ENDBRANCH  26  27
BRANCH  26  29
HETATM   29  C11 UNL     1       5.342  19.005   3.343  1.00  0.00     0.040 A 
HETATM   30  C12 UNL     1       5.751  18.221   4.376  1.00  0.00     0.024 A 
HETATM   31  C13 UNL     1       6.892  18.521   5.022  1.00  0.00     0.033 A 
HETATM   32  C14 UNL     1       7.591  19.604   4.610  1.00  0.00     0.075 A 
HETATM   33 CL1  UNL     1       9.099  20.244   5.247  1.00  0.00    -0.076 Cl
HETATM   34  S1  UNL     1       6.661  20.194   3.333  1.00  0.00    -0.075 SA
ENDBRANCH  26  29
ENDBRANCH   5  26
BRANCH   4  35
HETATM   35  O4  UNL     1       2.983  19.468  -0.451  1.00  0.00    -0.355 OA
ATOM     36  H4  UNL     1       2.975  18.524  -0.349  1.00  0.00     0.218 HD
ENDBRANCH   4  35
TORSDOF 7
ENDMDL
