MODEL 2
REMARK VINA RESULT: -8.133543971      1.433      1.774
REMARK  7 active torsions:
REMARK  status: ('A' for Active; 'I' for Inactive)
REMARK    1  A    between atoms: C1_2  and  C2_4 
REMARK    2  A    between atoms: C6_8  and  N1_9 
REMARK    3  A    between atoms: C8_12  and  O4_13 
REMARK    4  A    between atoms: C9_15  and  C10_16 
REMARK    5  A    between atoms: C10_16  and  O5_17 
REMARK    6  A    between atoms: C10_16  and  C11_19 
REMARK    7  A    between atoms: C15_25  and  C16_26 
ROOT
HETATM    1  N1  UNL     1       1.773  20.112  -0.295  1.00  0.00    -0.298 N 
HETATM    2  C7  UNL     1       2.100  18.801   0.114  1.00  0.00     0.283 C 
HETATM    3  O3  UNL     1       1.461  17.727  -0.131  1.00  0.00    -0.265 OA
HETATM    4  C8  UNL     1       3.356  18.911   0.901  1.00  0.00     0.146 C 
HETATM    5  C9  UNL     1       3.741  20.144   0.969  1.00  0.00     0.043 C 
HETATM    6  C15 UNL     1       2.673  21.003   0.308  1.00  0.00     0.165 C 
ENDROOT
BRANCH   6   7
HETATM    7  C16 UNL     1       2.055  21.900   1.305  1.00  0.00    -0.026 A 
HETATM    8  C17 UNL     1       2.131  23.286   1.123  1.00  0.00     0.036 A 
HETATM    9  C18 UNL     1       1.550  24.168   2.009  1.00  0.00     0.070 A 
HETATM   10 CL2  UNL     1       1.667  25.889   1.748  1.00  0.00    -0.081 Cl
HETATM   11  C19 UNL     1       0.870  23.712   3.111  1.00  0.00     0.126 A 
HETATM   12  C20 UNL     1       0.781  22.361   3.310  1.00  0.00     0.107 A 
HETATM   13  O7  UNL     1       0.201  24.361   4.148  1.00  0.00    -0.321 OA
HETATM   14  C21 UNL     1       1.372  21.476   2.409  1.00  0.00     0.049 A 
HETATM   15  O6  UNL     1       0.050  22.187   4.482  1.00  0.00    -0.323 OA
HETATM   16  C22 UNL     1       0.076  23.419   5.209  1.00  0.00     0.352 C 
ENDBRANCH   6   7
BRANCH   1  17
HETATM   17  C6  UNL     1       0.695  20.384  -1.181  1.00  0.00     0.039 A 
HETATM   18  C5  UNL     1      -0.403  21.099  -0.739  1.00  0.00     0.030 A 
HETATM   19  C4  UNL     1      -1.466  21.388  -1.550  1.00  0.00     0.003 A 
HETATM   20  C3  UNL     1      -1.420  20.939  -2.857  1.00  0.00     0.018 A 
HETATM   21  C2  UNL     1      -0.349  20.224  -3.345  1.00  0.00     0.043 A 
HETATM   22  C23 UNL     1       0.708  19.947  -2.509  1.00  0.00     0.048 A 
BRANCH  21  23
HETATM   23  C1  UNL     1      -0.356  19.774  -4.746  1.00  0.00     0.209 C 
HETATM   24  O1  UNL     1       0.660  19.898  -5.477  1.00  0.00    -0.644 OA
HETATM   25  O2  UNL     1      -1.473  19.198  -5.317  1.00  0.00    -0.644 OA
ENDBRANCH  21  23
ENDBRANCH   1  17
BRANCH   5  26
HETATM   26  C10 UNL     1       4.884  20.753   1.600  1.00  0.00     0.094 C 
BRANCH  26  27
HETATM   27  O5  UNL     1       5.365  21.826   0.968  1.00  0.00    -0.359 OA
ATOM     28  H5  UNL     1       6.228  22.102   1.253  1.00  0.00     0.217 HD
ENDBRANCH  26  27
BRANCH  26  29
HETATM   29  C11 UNL     1       5.647  20.463   2.782  1.00  0.00     0.040 A 
HETATM   30  C12 UNL     1       5.423  19.889   3.994  1.00  0.00     0.024 A 
HETATM   31  C13 UNL     1       6.436  19.788   4.874  1.00  0.00     0.033 A 
HETATM   32  C14 UNL     1       7.648  20.267   4.509  1.00  0.00     0.075 A 
HETATM   33 CL1  UNL     1       9.145  20.279   5.428  1.00  0.00    -0.076 Cl
HETATM   34  S1  UNL     1       7.371  20.852   2.952  1.00  0.00    -0.075 SA
ENDBRANCH  26  29
ENDBRANCH   5  26
BRANCH   4  35
HETATM   35  O4  UNL     1       3.912  17.746   1.424  1.00  0.00    -0.355 OA
ATOM     36  H4  UNL     1       4.718  17.421   1.040  1.00  0.00     0.218 HD
ENDBRANCH   4  35
TORSDOF 7
ENDMDL
