MODEL 18
REMARK VINA RESULT: -9.758099791      1.193      2.060
REMARK  10 active torsions:
REMARK  status: ('A' for Active; 'I' for Inactive)
REMARK    1  A    between atoms: N4_10  and  C5_11 
REMARK    2  A    between atoms: C6_13  and  C7_14 
REMARK    3  A    between atoms: C7_14  and  O2_15 
REMARK    4  A    between atoms: O2_15  and  P1_16 
REMARK    5  A    between atoms: P1_16  and  O5_19 
REMARK    6  A    between atoms: O5_19  and  P2_20 
REMARK    7  A    between atoms: P2_20  and  N5_23 
REMARK    8  A    between atoms: N5_23  and  P3_25 
REMARK    9  A    between atoms: C8_29  and  O11_30 
REMARK   10  A    between atoms: C9_32  and  O12_33 
ROOT
HETATM    1  C5  UNL     1      28.770   1.671 -50.613  1.00  0.00     0.262 C 
HETATM    2  O1  UNL     1      27.742   0.823 -50.305  1.00  0.00    -0.353 OA
HETATM    3  C6  UNL     1      26.617   1.565 -50.665  1.00  0.00     0.180 C 
HETATM    4  C8  UNL     1      26.939   1.987 -52.067  1.00  0.00     0.182 C 
HETATM    5  C9  UNL     1      28.440   2.101 -52.047  1.00  0.00     0.198 C 
ENDROOT
BRANCH   3   6
HETATM    6  C7  UNL     1      25.346   0.812 -50.521  1.00  0.00     0.216 C 
BRANCH   6   7
HETATM    7  O2  UNL     1      25.112   0.247 -51.790  1.00  0.00    -0.287 OA
BRANCH   7   8
HETATM    8  P1  UNL     1      24.771  -1.243 -51.763  1.00  0.00     0.417 P 
HETATM    9  O3  UNL     1      26.205  -1.545 -52.596  1.00  0.00    -0.624 OA
HETATM   10  O4  UNL     1      24.858  -1.319 -50.119  1.00  0.00    -0.624 OA
BRANCH   8  11
HETATM   11  O5  UNL     1      23.388  -1.046 -52.575  1.00  0.00    -0.186 OA
BRANCH  11  12
HETATM   12  P2  UNL     1      22.020  -0.825 -51.961  1.00  0.00     0.379 P 
HETATM   13  O6  UNL     1      21.316  -1.784 -53.086  1.00  0.00    -0.629 OA
HETATM   14  O7  UNL     1      22.059   0.794 -52.172  1.00  0.00    -0.629 OA
BRANCH  12  15
HETATM   15  N5  UNL     1      22.533  -1.487 -50.445  1.00  0.00    -0.218 N 
ATOM     16  H5  UNL     1      23.513  -1.426 -50.166  1.00  0.00     0.179 HD
BRANCH  15  17
HETATM   17  P3  UNL     1      21.440  -2.214 -49.457  1.00  0.00     0.381 P 
HETATM   18  O8  UNL     1      20.778  -3.676 -49.838  1.00  0.00    -0.622 OA
HETATM   19  O9  UNL     1      22.378  -2.891 -48.439  1.00  0.00    -0.622 OA
HETATM   20  O10 UNL     1      20.780  -1.370 -48.109  1.00  0.00    -0.622 OA
ENDBRANCH  15  17
ENDBRANCH  12  15
ENDBRANCH  11  12
ENDBRANCH   8  11
ENDBRANCH   7   8
ENDBRANCH   6   7
ENDBRANCH   3   6
BRANCH   4  21
HETATM   21  O11 UNL     1      26.312   3.180 -52.390  1.00  0.00    -0.390 OA
ATOM     22  H11 UNL     1      26.792   3.651 -53.061  1.00  0.00     0.210 HD
ENDBRANCH   4  21
BRANCH   1  23
HETATM   23  N4  UNL     1      30.067   1.066 -50.620  1.00  0.00    -0.297 N 
HETATM   24  C2  UNL     1      30.820   0.574 -49.619  1.00  0.00     0.146 A 
HETATM   25  N2  UNL     1      30.565   0.511 -48.319  1.00  0.00    -0.314 N 
HETATM   26  C3  UNL     1      32.005   0.093 -50.138  1.00  0.00     0.146 A 
HETATM   27  C1  UNL     1      31.509  -0.043 -47.508  1.00  0.00     0.196 A 
ATOM     28  H2  UNL     1      29.689   0.867 -47.938  1.00  0.00     0.170 HD
HETATM   29  N1  UNL     1      31.274  -0.126 -46.133  1.00  0.00    -0.063 NA
HETATM   30  N6  UNL     1      32.676  -0.520 -48.002  1.00  0.00    -0.295 N 
HETATM   31  C10 UNL     1      32.948  -0.463 -49.315  1.00  0.00     0.278 A 
ATOM     32  H6  UNL     1      33.360  -0.929 -47.366  1.00  0.00     0.171 HD
HETATM   33  O13 UNL     1      34.021  -0.895 -49.823  1.00  0.00    -0.265 OA
HETATM   34  N3  UNL     1      31.958   0.297 -51.446  1.00  0.00    -0.345 N 
HETATM   35  C4  UNL     1      30.791   0.885 -51.747  1.00  0.00     0.188 A 
ATOM     36  H3  UNL     1      32.689   0.048 -52.114  1.00  0.00     0.167 HD
ENDBRANCH   1  23
BRANCH   5  37
HETATM   37  O12 UNL     1      28.876   3.387 -52.264  1.00  0.00    -0.388 OA
ATOM     38  H12 UNL     1      29.033   3.524 -53.191  1.00  0.00     0.210 HD
ENDBRANCH   5  37
TORSDOF 10
ENDMDL
