MODEL 13
REMARK VINA RESULT: -10.220451946      3.025      4.950
REMARK  10 active torsions:
REMARK  status: ('A' for Active; 'I' for Inactive)
REMARK    1  A    between atoms: N4_10  and  C5_11 
REMARK    2  A    between atoms: C6_13  and  C7_14 
REMARK    3  A    between atoms: C7_14  and  O2_15 
REMARK    4  A    between atoms: O2_15  and  P1_16 
REMARK    5  A    between atoms: P1_16  and  O5_19 
REMARK    6  A    between atoms: O5_19  and  P2_20 
REMARK    7  A    between atoms: P2_20  and  N5_23 
REMARK    8  A    between atoms: N5_23  and  P3_25 
REMARK    9  A    between atoms: C8_29  and  O11_30 
REMARK   10  A    between atoms: C9_32  and  O12_33 
ROOT
HETATM    1  C5  UNL     1      31.469   2.165 -50.161  1.00  0.00     0.262 C 
HETATM    2  O1  UNL     1      30.335   2.724 -50.684  1.00  0.00    -0.353 OA
HETATM    3  C6  UNL     1      30.061   1.896 -51.773  1.00  0.00     0.180 C 
HETATM    4  C8  UNL     1      30.092   0.529 -51.159  1.00  0.00     0.182 C 
HETATM    5  C9  UNL     1      31.096   0.682 -50.049  1.00  0.00     0.198 C 
ENDROOT
BRANCH   3   6
HETATM    6  C7  UNL     1      28.793   2.237 -52.465  1.00  0.00     0.216 C 
BRANCH   6   7
HETATM    7  O2  UNL     1      28.582   3.602 -52.187  1.00  0.00    -0.287 OA
BRANCH   7   8
HETATM    8  P1  UNL     1      27.258   3.904 -51.485  1.00  0.00     0.417 P 
HETATM    9  O3  UNL     1      28.133   4.603 -50.225  1.00  0.00    -0.624 OA
HETATM   10  O4  UNL     1      26.762   4.927 -52.678  1.00  0.00    -0.624 OA
BRANCH   8  11
HETATM   11  O5  UNL     1      26.826   2.349 -51.407  1.00  0.00    -0.186 OA
BRANCH  11  12
HETATM   12  P2  UNL     1      25.990   1.712 -50.315  1.00  0.00     0.379 P 
HETATM   13  O6  UNL     1      25.606   3.179 -49.697  1.00  0.00    -0.629 OA
HETATM   14  O7  UNL     1      27.238   0.862 -49.695  1.00  0.00    -0.629 OA
BRANCH  12  15
HETATM   15  N5  UNL     1      24.952   0.955 -51.477  1.00  0.00    -0.218 N 
ATOM     16  H5  UNL     1      24.560   1.500 -52.244  1.00  0.00     0.179 HD
BRANCH  15  17
HETATM   17  P3  UNL     1      24.601  -0.645 -51.341  1.00  0.00     0.381 P 
HETATM   18  O8  UNL     1      23.785  -1.236 -50.035  1.00  0.00    -0.622 OA
HETATM   19  O9  UNL     1      23.322  -0.732 -52.195  1.00  0.00    -0.622 OA
HETATM   20  O10 UNL     1      25.271  -1.786 -52.442  1.00  0.00    -0.622 OA
ENDBRANCH  15  17
ENDBRANCH  12  15
ENDBRANCH  11  12
ENDBRANCH   8  11
ENDBRANCH   7   8
ENDBRANCH   6   7
ENDBRANCH   3   6
BRANCH   4  21
HETATM   21  O11 UNL     1      30.458  -0.432 -52.089  1.00  0.00    -0.390 OA
ATOM     22  H11 UNL     1      31.308  -0.804 -51.883  1.00  0.00     0.210 HD
ENDBRANCH   4  21
BRANCH   1  23
HETATM   23  N4  UNL     1      31.823   2.632 -48.856  1.00  0.00    -0.297 N 
HETATM   24  C2  UNL     1      31.064   3.099 -47.846  1.00  0.00     0.146 A 
HETATM   25  N2  UNL     1      29.749   3.261 -47.779  1.00  0.00    -0.314 N 
HETATM   26  C3  UNL     1      31.878   3.426 -46.781  1.00  0.00     0.146 A 
HETATM   27  C1  UNL     1      29.224   3.761 -46.626  1.00  0.00     0.196 A 
ATOM     28  H2  UNL     1      29.149   3.019 -48.568  1.00  0.00     0.170 HD
HETATM   29  N1  UNL     1      27.843   3.944 -46.520  1.00  0.00    -0.063 NA
HETATM   30  N6  UNL     1      30.010   4.085 -45.572  1.00  0.00    -0.295 N 
HETATM   31  C10 UNL     1      31.342   3.927 -45.626  1.00  0.00     0.278 A 
ATOM     32  H6  UNL     1      29.584   4.456 -44.724  1.00  0.00     0.171 HD
HETATM   33  O13 UNL     1      32.116   4.215 -44.670  1.00  0.00    -0.265 OA
HETATM   34  N3  UNL     1      33.120   3.153 -47.154  1.00  0.00    -0.345 N 
HETATM   35  C4  UNL     1      33.096   2.673 -48.406  1.00  0.00     0.188 A 
ATOM     36  H3  UNL     1      33.956   3.286 -46.584  1.00  0.00     0.167 HD
ENDBRANCH   1  23
BRANCH   5  37
HETATM   37  O12 UNL     1      32.213  -0.098 -50.233  1.00  0.00    -0.388 OA
ATOM     38  H12 UNL     1      32.083  -0.682 -50.971  1.00  0.00     0.210 HD
ENDBRANCH   5  37
TORSDOF 10
ENDMDL
