MODEL 11
REMARK VINA RESULT: -10.426804004      2.675      4.790
REMARK  10 active torsions:
REMARK  status: ('A' for Active; 'I' for Inactive)
REMARK    1  A    between atoms: N4_10  and  C5_11 
REMARK    2  A    between atoms: C6_13  and  C7_14 
REMARK    3  A    between atoms: C7_14  and  O2_15 
REMARK    4  A    between atoms: O2_15  and  P1_16 
REMARK    5  A    between atoms: P1_16  and  O5_19 
REMARK    6  A    between atoms: O5_19  and  P2_20 
REMARK    7  A    between atoms: P2_20  and  N5_23 
REMARK    8  A    between atoms: N5_23  and  P3_25 
REMARK    9  A    between atoms: C8_29  and  O11_30 
REMARK   10  A    between atoms: C9_32  and  O12_33 
ROOT
HETATM    1  C5  UNL     1      30.475   1.597 -47.346  1.00  0.00     0.262 C 
HETATM    2  O1  UNL     1      29.448   2.230 -47.991  1.00  0.00    -0.353 OA
HETATM    3  C6  UNL     1      28.972   3.109 -47.018  1.00  0.00     0.180 C 
HETATM    4  C8  UNL     1      30.220   3.813 -46.576  1.00  0.00     0.182 C 
HETATM    5  C9  UNL     1      31.282   2.763 -46.764  1.00  0.00     0.198 C 
ENDROOT
BRANCH   3   6
HETATM    6  C7  UNL     1      27.897   4.005 -47.511  1.00  0.00     0.216 C 
BRANCH   6   7
HETATM    7  O2  UNL     1      26.894   3.140 -47.991  1.00  0.00    -0.287 OA
BRANCH   7   8
HETATM    8  P1  UNL     1      26.424   3.448 -49.413  1.00  0.00     0.417 P 
HETATM    9  O3  UNL     1      24.932   3.907 -48.776  1.00  0.00    -0.624 OA
HETATM   10  O4  UNL     1      27.530   4.654 -49.608  1.00  0.00    -0.624 OA
BRANCH   8  11
HETATM   11  O5  UNL     1      26.654   1.934 -49.928  1.00  0.00    -0.186 OA
BRANCH  11  12
HETATM   12  P2  UNL     1      26.515   1.450 -51.357  1.00  0.00     0.379 P 
HETATM   13  O6  UNL     1      27.814   0.467 -51.193  1.00  0.00    -0.629 OA
HETATM   14  O7  UNL     1      26.690   2.939 -52.001  1.00  0.00    -0.629 OA
BRANCH  12  15
HETATM   15  N5  UNL     1      24.919   0.847 -51.054  1.00  0.00    -0.218 N 
ATOM     16  H5  UNL     1      24.253   1.408 -50.523  1.00  0.00     0.179 HD
BRANCH  15  17
HETATM   17  P3  UNL     1      24.480  -0.630 -51.625  1.00  0.00     0.381 P 
HETATM   18  O8  UNL     1      25.437  -1.461 -52.681  1.00  0.00    -0.622 OA
HETATM   19  O9  UNL     1      24.950  -1.535 -50.470  1.00  0.00    -0.622 OA
HETATM   20  O10 UNL     1      22.906  -1.256 -51.318  1.00  0.00    -0.622 OA
ENDBRANCH  15  17
ENDBRANCH  12  15
ENDBRANCH  11  12
ENDBRANCH   8  11
ENDBRANCH   7   8
ENDBRANCH   6   7
ENDBRANCH   3   6
BRANCH   4  21
HETATM   21  O11 UNL     1      30.115   4.245 -45.263  1.00  0.00    -0.390 OA
ATOM     22  H11 UNL     1      29.207   4.353 -45.007  1.00  0.00     0.210 HD
ENDBRANCH   4  21
BRANCH   1  23
HETATM   23  N4  UNL     1      31.343   0.839 -48.194  1.00  0.00    -0.297 N 
HETATM   24  C2  UNL     1      31.440   0.782 -49.536  1.00  0.00     0.146 A 
HETATM   25  N2  UNL     1      30.745   1.424 -50.465  1.00  0.00    -0.314 N 
HETATM   26  C3  UNL     1      32.440  -0.105 -49.879  1.00  0.00     0.146 A 
HETATM   27  C1  UNL     1      31.046   1.183 -51.771  1.00  0.00     0.196 A 
ATOM     28  H2  UNL     1      30.006   2.079 -50.208  1.00  0.00     0.170 HD
HETATM   29  N1  UNL     1      30.333   1.842 -52.776  1.00  0.00    -0.063 NA
HETATM   30  N6  UNL     1      32.024   0.316 -52.123  1.00  0.00    -0.295 N 
HETATM   31  C10 UNL     1      32.736  -0.342 -51.195  1.00  0.00     0.278 A 
ATOM     32  H6  UNL     1      32.224   0.159 -53.111  1.00  0.00     0.171 HD
HETATM   33  O13 UNL     1      33.658  -1.159 -51.474  1.00  0.00    -0.265 OA
HETATM   34  N3  UNL     1      32.938  -0.575 -48.745  1.00  0.00    -0.345 N 
HETATM   35  C4  UNL     1      32.281  -0.010 -47.722  1.00  0.00     0.188 A 
ATOM     36  H3  UNL     1      33.695  -1.254 -48.664  1.00  0.00     0.167 HD
ENDBRANCH   1  23
BRANCH   5  37
HETATM   37  O12 UNL     1      31.867   2.384 -45.579  1.00  0.00    -0.388 OA
ATOM     38  H12 UNL     1      31.237   2.445 -44.871  1.00  0.00     0.210 HD
ENDBRANCH   5  37
TORSDOF 10
ENDMDL
