MODEL 12
REMARK VINA RESULT: -10.234019017      3.862      5.656
REMARK  10 active torsions:
REMARK  status: ('A' for Active; 'I' for Inactive)
REMARK    1  A    between atoms: N4_10  and  C5_11 
REMARK    2  A    between atoms: C6_13  and  C7_14 
REMARK    3  A    between atoms: C7_14  and  O2_15 
REMARK    4  A    between atoms: O2_15  and  P1_16 
REMARK    5  A    between atoms: P1_16  and  O5_19 
REMARK    6  A    between atoms: O5_19  and  P2_20 
REMARK    7  A    between atoms: P2_20  and  N5_23 
REMARK    8  A    between atoms: N5_23  and  P3_25 
REMARK    9  A    between atoms: C8_29  and  O11_30 
REMARK   10  A    between atoms: C9_32  and  O12_33 
ROOT
HETATM    1  C5  UNL     1      27.217   3.201 -50.845  1.00  0.00     0.262 C 
HETATM    2  O1  UNL     1      26.433   2.743 -51.869  1.00  0.00    -0.353 OA
HETATM    3  C6  UNL     1      26.347   1.377 -51.598  1.00  0.00     0.180 C 
HETATM    4  C8  UNL     1      25.916   1.355 -50.162  1.00  0.00     0.182 C 
HETATM    5  C9  UNL     1      26.542   2.605 -49.605  1.00  0.00     0.198 C 
ENDROOT
BRANCH   3   6
HETATM    6  C7  UNL     1      25.446   0.650 -52.527  1.00  0.00     0.216 C 
BRANCH   6   7
HETATM    7  O2  UNL     1      24.428   0.123 -51.708  1.00  0.00    -0.287 OA
BRANCH   7   8
HETATM    8  P1  UNL     1      24.122  -1.354 -51.955  1.00  0.00     0.417 P 
HETATM    9  O3  UNL     1      22.563  -0.911 -52.420  1.00  0.00    -0.624 OA
HETATM   10  O4  UNL     1      25.233  -1.469 -53.167  1.00  0.00    -0.624 OA
BRANCH   8  11
HETATM   11  O5  UNL     1      24.422  -1.778 -50.426  1.00  0.00    -0.186 OA
BRANCH  11  12
HETATM   12  P2  UNL     1      23.867  -2.997 -49.716  1.00  0.00     0.379 P 
HETATM   13  O6  UNL     1      25.244  -3.166 -48.845  1.00  0.00    -0.629 OA
HETATM   14  O7  UNL     1      23.659  -3.848 -51.093  1.00  0.00    -0.629 OA
BRANCH  12  15
HETATM   15  N5  UNL     1      22.537  -2.088 -49.080  1.00  0.00    -0.218 N 
ATOM     16  H5  UNL     1      22.641  -1.090 -48.897  1.00  0.00     0.179 HD
BRANCH  15  17
HETATM   17  P3  UNL     1      21.107  -2.837 -48.771  1.00  0.00     0.381 P 
HETATM   18  O8  UNL     1      19.898  -2.073 -47.949  1.00  0.00    -0.622 OA
HETATM   19  O9  UNL     1      20.366  -2.602 -50.101  1.00  0.00    -0.622 OA
HETATM   20  O10 UNL     1      20.910  -4.516 -49.094  1.00  0.00    -0.622 OA
ENDBRANCH  15  17
ENDBRANCH  12  15
ENDBRANCH  11  12
ENDBRANCH   8  11
ENDBRANCH   7   8
ENDBRANCH   6   7
ENDBRANCH   3   6
BRANCH   4  21
HETATM   21  O11 UNL     1      26.352   0.204 -49.524  1.00  0.00    -0.390 OA
ATOM     22  H11 UNL     1      26.314  -0.547 -50.104  1.00  0.00     0.210 HD
ENDBRANCH   4  21
BRANCH   1  23
HETATM   23  N4  UNL     1      27.239   4.624 -50.696  1.00  0.00    -0.297 N 
HETATM   24  C2  UNL     1      27.143   5.612 -51.606  1.00  0.00     0.146 A 
HETATM   25  N2  UNL     1      26.999   5.540 -52.922  1.00  0.00    -0.314 N 
HETATM   26  C3  UNL     1      27.219   6.830 -50.962  1.00  0.00     0.146 A 
HETATM   27  C1  UNL     1      26.928   6.706 -53.623  1.00  0.00     0.196 A 
ATOM     28  H2  UNL     1      26.944   4.638 -53.396  1.00  0.00     0.170 HD
HETATM   29  N1  UNL     1      26.777   6.668 -55.011  1.00  0.00    -0.063 NA
HETATM   30  N6  UNL     1      27.000   7.909 -53.005  1.00  0.00    -0.295 N 
HETATM   31  C10 UNL     1      27.146   7.997 -51.674  1.00  0.00     0.278 A 
ATOM     32  H6  UNL     1      26.942   8.762 -53.560  1.00  0.00     0.171 HD
HETATM   33  O13 UNL     1      27.217   9.095 -51.053  1.00  0.00    -0.265 OA
HETATM   34  N3  UNL     1      27.358   6.569 -49.670  1.00  0.00    -0.345 N 
HETATM   35  C4  UNL     1      27.371   5.239 -49.500  1.00  0.00     0.188 A 
ATOM     36  H3  UNL     1      27.441   7.265 -48.928  1.00  0.00     0.167 HD
ENDBRANCH   1  23
BRANCH   5  37
HETATM   37  O12 UNL     1      27.483   2.341 -48.639  1.00  0.00    -0.388 OA
ATOM     38  H12 UNL     1      27.056   2.150 -47.812  1.00  0.00     0.210 HD
ENDBRANCH   5  37
TORSDOF 10
ENDMDL
