MODEL 1
REMARK VINA RESULT: -12.401777502      0.000      0.000
REMARK  10 active torsions:
REMARK  status: ('A' for Active; 'I' for Inactive)
REMARK    1  A    between atoms: N4_10  and  C5_11 
REMARK    2  A    between atoms: C6_13  and  C7_14 
REMARK    3  A    between atoms: C7_14  and  O2_15 
REMARK    4  A    between atoms: O2_15  and  P1_16 
REMARK    5  A    between atoms: P1_16  and  O5_19 
REMARK    6  A    between atoms: O5_19  and  P2_20 
REMARK    7  A    between atoms: P2_20  and  N5_23 
REMARK    8  A    between atoms: N5_23  and  P3_25 
REMARK    9  A    between atoms: C8_29  and  O11_30 
REMARK   10  A    between atoms: C9_32  and  O12_33 
ROOT
HETATM    1  C5  UNL     1      28.689   1.697 -49.802  1.00  0.00     0.262 C 
HETATM    2  O1  UNL     1      27.639   0.832 -49.952  1.00  0.00    -0.353 OA
HETATM    3  C6  UNL     1      26.548   1.695 -50.059  1.00  0.00     0.180 C 
HETATM    4  C8  UNL     1      26.987   2.646 -51.131  1.00  0.00     0.182 C 
HETATM    5  C9  UNL     1      28.480   2.691 -50.950  1.00  0.00     0.198 C 
ENDROOT
BRANCH   3   6
HETATM    6  C7  UNL     1      25.270   0.993 -50.338  1.00  0.00     0.216 C 
BRANCH   6   7
HETATM    7  O2  UNL     1      25.552   0.143 -51.425  1.00  0.00    -0.287 OA
BRANCH   7   8
HETATM    8  P1  UNL     1      24.461  -0.886 -51.720  1.00  0.00     0.417 P 
HETATM    9  O3  UNL     1      23.417   0.386 -52.087  1.00  0.00    -0.624 OA
HETATM   10  O4  UNL     1      25.292  -1.530 -52.989  1.00  0.00    -0.624 OA
BRANCH   8  11
HETATM   11  O5  UNL     1      24.495  -1.502 -50.226  1.00  0.00    -0.186 OA
BRANCH  11  12
HETATM   12  P2  UNL     1      23.882  -2.818 -49.792  1.00  0.00     0.379 P 
HETATM   13  O6  UNL     1      25.206  -3.188 -48.904  1.00  0.00    -0.629 OA
HETATM   14  O7  UNL     1      23.733  -3.384 -51.316  1.00  0.00    -0.629 OA
BRANCH  12  15
HETATM   15  N5  UNL     1      22.535  -2.011 -49.060  1.00  0.00    -0.218 N 
ATOM     16  H5  UNL     1      22.610  -1.029 -48.796  1.00  0.00     0.179 HD
BRANCH  15  17
HETATM   17  P3  UNL     1      21.136  -2.832 -48.791  1.00  0.00     0.381 P 
HETATM   18  O8  UNL     1      19.900  -2.160 -47.930  1.00  0.00    -0.622 OA
HETATM   19  O9  UNL     1      20.385  -2.557 -50.107  1.00  0.00    -0.622 OA
HETATM   20  O10 UNL     1      21.006  -4.498 -49.202  1.00  0.00    -0.622 OA
ENDBRANCH  15  17
ENDBRANCH  12  15
ENDBRANCH  11  12
ENDBRANCH   8  11
ENDBRANCH   7   8
ENDBRANCH   6   7
ENDBRANCH   3   6
BRANCH   4  21
HETATM   21  O11 UNL     1      26.388   3.887 -50.979  1.00  0.00    -0.390 OA
ATOM     22  H11 UNL     1      26.993   4.589 -51.185  1.00  0.00     0.210 HD
ENDBRANCH   4  21
BRANCH   1  23
HETATM   23  N4  UNL     1      29.982   1.105 -49.959  1.00  0.00    -0.297 N 
HETATM   24  C2  UNL     1      30.805   0.524 -49.065  1.00  0.00     0.146 A 
HETATM   25  N2  UNL     1      30.643   0.334 -47.762  1.00  0.00    -0.314 N 
HETATM   26  C3  UNL     1      31.950   0.104 -49.710  1.00  0.00     0.146 A 
HETATM   27  C1  UNL     1      31.642  -0.289 -47.077  1.00  0.00     0.196 A 
ATOM     28  H2  UNL     1      29.795   0.646 -47.288  1.00  0.00     0.170 HD
HETATM   29  N1  UNL     1      31.505  -0.505 -45.704  1.00  0.00    -0.063 NA
HETATM   30  N6  UNL     1      32.771  -0.707 -47.696  1.00  0.00    -0.295 N 
HETATM   31  C10 UNL     1      32.949  -0.522 -49.013  1.00  0.00     0.278 A 
ATOM     32  H6  UNL     1      33.498  -1.170 -47.152  1.00  0.00     0.171 HD
HETATM   33  O13 UNL     1      33.984  -0.894 -49.635  1.00  0.00    -0.265 OA
HETATM   34  N3  UNL     1      31.811   0.433 -50.986  1.00  0.00    -0.345 N 
HETATM   35  C4  UNL     1      30.625   1.038 -51.145  1.00  0.00     0.188 A 
ATOM     36  H3  UNL     1      32.492   0.256 -51.724  1.00  0.00     0.167 HD
ENDBRANCH   1  23
BRANCH   5  37
HETATM   37  O12 UNL     1      28.932   3.936 -50.581  1.00  0.00    -0.388 OA
ATOM     38  H12 UNL     1      28.595   4.594 -51.178  1.00  0.00     0.210 HD
ENDBRANCH   5  37
TORSDOF 10
ENDMDL
