MODEL 3
REMARK VINA RESULT: -11.378497271      1.673      2.117
REMARK  8 active torsions:
REMARK  status: ('A' for Active; 'I' for Inactive)
REMARK    1  A    between atoms: N4_10  and  C5_11 
REMARK    2  A    between atoms: C6_13  and  C7_14 
REMARK    3  A    between atoms: C7_14  and  O2_15 
REMARK    4  A    between atoms: O2_15  and  P1_16 
REMARK    5  A    between atoms: P1_16  and  O5_19 
REMARK    6  A    between atoms: O5_19  and  P2_20 
REMARK    7  A    between atoms: C8_24  and  O9_25 
REMARK    8  A    between atoms: C9_27  and  O10_28 
ROOT
HETATM    1  C5  UNL     1     -20.456   1.336  40.981  1.00  0.00     0.262 C 
HETATM    2  O1  UNL     1     -21.399   0.824  41.871  1.00  0.00    -0.353 OA
HETATM    3  C6  UNL     1     -22.639   1.208  41.450  1.00  0.00     0.180 C 
HETATM    4  C8  UNL     1     -22.619   1.341  39.951  1.00  0.00     0.182 C 
HETATM    5  C9  UNL     1     -21.135   1.272  39.650  1.00  0.00     0.198 C 
ENDROOT
BRANCH   1   6
HETATM    6  N4  UNL     1     -19.306   0.440  41.065  1.00  0.00    -0.297 N 
HETATM    7  C2  UNL     1     -18.724   0.051  42.227  1.00  0.00     0.146 A 
HETATM    8  N2  UNL     1     -19.000   0.341  43.513  1.00  0.00    -0.314 N 
HETATM    9  C3  UNL     1     -17.682  -0.787  41.865  1.00  0.00     0.146 A 
HETATM   10  C1  UNL     1     -18.237  -0.201  44.458  1.00  0.00     0.196 A 
ATOM     11  H2  UNL     1     -19.772   0.961  43.756  1.00  0.00     0.170 HD
HETATM   12  N1  UNL     1     -18.511   0.092  45.819  1.00  0.00    -0.063 NA
HETATM   13  N5  UNL     1     -17.212  -1.024  44.155  1.00  0.00    -0.295 N 
HETATM   14  C10 UNL     1     -16.913  -1.332  42.878  1.00  0.00     0.278 A 
ATOM     15  H5  UNL     1     -16.651  -1.420  44.909  1.00  0.00     0.171 HD
HETATM   16  O11 UNL     1     -15.940  -2.111  42.593  1.00  0.00    -0.265 OA
HETATM   17  N3  UNL     1     -17.634  -0.904  40.513  1.00  0.00    -0.345 N 
HETATM   18  C4  UNL     1     -18.638  -0.144  40.038  1.00  0.00     0.188 A 
ATOM     19  H3  UNL     1     -16.971  -1.456  39.967  1.00  0.00     0.167 HD
ENDBRANCH   1   6
BRANCH   5  20
HETATM   20  O10 UNL     1     -20.852   2.402  38.854  1.00  0.00    -0.388 OA
ATOM     21  H10 UNL     1     -20.829   2.191  37.928  1.00  0.00     0.210 HD
ENDBRANCH   5  20
BRANCH   3  22
HETATM   22  C7  UNL     1     -23.720   0.228  41.813  1.00  0.00     0.216 C 
BRANCH  22  23
HETATM   23  O2  UNL     1     -24.106  -0.430  40.648  1.00  0.00    -0.287 OA
BRANCH  23  24
HETATM   24  P1  UNL     1     -25.157  -1.561  40.703  1.00  0.00     0.418 P 
HETATM   25  O3  UNL     1     -24.274  -2.414  39.600  1.00  0.00    -0.624 OA
HETATM   26  O4  UNL     1     -24.750  -1.731  42.328  1.00  0.00    -0.624 OA
BRANCH  24  27
HETATM   27  O5  UNL     1     -26.079  -2.777  40.898  1.00  0.00    -0.173 OA
BRANCH  27  28
HETATM   28  P2  UNL     1     -26.643  -3.467  42.151  1.00  0.00     0.431 P 
HETATM   29  O6  UNL     1     -26.935  -4.247  43.458  1.00  0.00    -0.616 OA
HETATM   30  O7  UNL     1     -25.856  -4.831  41.594  1.00  0.00    -0.616 OA
HETATM   31  O8  UNL     1     -28.202  -3.290  41.710  1.00  0.00    -0.616 OA
ENDBRANCH  27  28
ENDBRANCH  24  27
ENDBRANCH  23  24
ENDBRANCH  22  23
ENDBRANCH   3  22
BRANCH   4  32
HETATM   32  O9  UNL     1     -23.158   2.594  39.643  1.00  0.00    -0.390 OA
ATOM     33  H9  UNL     1     -22.578   2.997  39.007  1.00  0.00     0.210 HD
ENDBRANCH   4  32
TORSDOF 8
ENDMDL
