MODEL 5
REMARK VINA RESULT: -11.050680320      1.868      2.703
REMARK  8 active torsions:
REMARK  status: ('A' for Active; 'I' for Inactive)
REMARK    1  A    between atoms: N4_10  and  C5_11 
REMARK    2  A    between atoms: C6_13  and  C7_14 
REMARK    3  A    between atoms: C7_14  and  O2_15 
REMARK    4  A    between atoms: O2_15  and  P1_16 
REMARK    5  A    between atoms: P1_16  and  O5_19 
REMARK    6  A    between atoms: O5_19  and  P2_20 
REMARK    7  A    between atoms: C8_24  and  O9_25 
REMARK    8  A    between atoms: C9_27  and  O10_28 
ROOT
HETATM    1  C5  UNL     1     -20.252   1.938  40.831  1.00  0.00     0.262 C 
HETATM    2  O1  UNL     1     -21.234   1.694  41.789  1.00  0.00    -0.353 OA
HETATM    3  C6  UNL     1     -22.404   2.246  41.356  1.00  0.00     0.180 C 
HETATM    4  C8  UNL     1     -22.420   2.221  39.851  1.00  0.00     0.182 C 
HETATM    5  C9  UNL     1     -20.983   1.861  39.529  1.00  0.00     0.198 C 
ENDROOT
BRANCH   1   6
HETATM    6  N4  UNL     1     -19.272   0.866  40.985  1.00  0.00    -0.297 N 
HETATM    7  C2  UNL     1     -18.715   0.506  42.168  1.00  0.00     0.146 A 
HETATM    8  N2  UNL     1     -18.876   0.977  43.420  1.00  0.00    -0.314 N 
HETATM    9  C3  UNL     1     -17.851  -0.538  41.876  1.00  0.00     0.146 A 
HETATM   10  C1  UNL     1     -18.177   0.411  44.400  1.00  0.00     0.196 A 
ATOM     11  H2  UNL     1     -19.517   1.746  43.611  1.00  0.00     0.170 HD
HETATM   12  N1  UNL     1     -18.333   0.892  45.726  1.00  0.00    -0.063 NA
HETATM   13  N5  UNL     1     -17.325  -0.608  44.165  1.00  0.00    -0.295 N 
HETATM   14  C10 UNL     1     -17.143  -1.099  42.924  1.00  0.00     0.278 A 
ATOM     15  H5  UNL     1     -16.808  -1.015  44.944  1.00  0.00     0.171 HD
HETATM   16  O11 UNL     1     -16.335  -2.064  42.703  1.00  0.00    -0.265 OA
HETATM   17  N3  UNL     1     -17.886  -0.805  40.545  1.00  0.00    -0.345 N 
HETATM   18  C4  UNL     1     -18.763   0.067  40.014  1.00  0.00     0.188 A 
ATOM     19  H3  UNL     1     -17.355  -1.520  40.049  1.00  0.00     0.167 HD
ENDBRANCH   1   6
BRANCH   5  20
HETATM   20  O10 UNL     1     -20.540   2.837  38.611  1.00  0.00    -0.388 OA
ATOM     21  H10 UNL     1     -20.654   2.559  37.710  1.00  0.00     0.210 HD
ENDBRANCH   5  20
BRANCH   3  22
HETATM   22  C7  UNL     1     -23.623   1.515  41.844  1.00  0.00     0.216 C 
BRANCH  22  23
HETATM   23  O2  UNL     1     -23.738   0.340  41.104  1.00  0.00    -0.287 OA
BRANCH  23  24
HETATM   24  P1  UNL     1     -24.492  -0.877  41.686  1.00  0.00     0.418 P 
HETATM   25  O3  UNL     1     -24.980   0.054  42.958  1.00  0.00    -0.624 OA
HETATM   26  O4  UNL     1     -25.431  -0.843  40.289  1.00  0.00    -0.624 OA
BRANCH  24  27
HETATM   27  O5  UNL     1     -25.410  -2.012  42.170  1.00  0.00    -0.173 OA
BRANCH  27  28
HETATM   28  P2  UNL     1     -25.562  -3.482  41.747  1.00  0.00     0.431 P 
HETATM   29  O6  UNL     1     -25.897  -4.858  41.115  1.00  0.00    -0.616 OA
HETATM   30  O7  UNL     1     -27.207  -3.201  41.837  1.00  0.00    -0.616 OA
HETATM   31  O8  UNL     1     -24.848  -4.081  43.083  1.00  0.00    -0.616 OA
ENDBRANCH  27  28
ENDBRANCH  24  27
ENDBRANCH  23  24
ENDBRANCH  22  23
ENDBRANCH   3  22
BRANCH   4  32
HETATM   32  O9  UNL     1     -22.744   3.512  39.423  1.00  0.00    -0.390 OA
ATOM     33  H9  UNL     1     -23.570   3.452  38.957  1.00  0.00     0.210 HD
ENDBRANCH   4  32
TORSDOF 8
ENDMDL
