MODEL 14
REMARK VINA RESULT: -5.279488957      2.812      5.055
REMARK  2 active torsions:
REMARK  status: ('A' for Active; 'I' for Inactive)
REMARK    1  A    between atoms: C1_2  and  C2_4 
REMARK    2  A    between atoms: C6_8  and  C7_9 
ROOT
HETATM    1  C2  UNL     1      -1.435 -12.887   8.106  1.00  0.00     0.110 A 
HETATM    2  C3  UNL     1      -1.467 -13.097   9.490  1.00  0.00     0.037 A 
HETATM    3  C4  UNL     1      -0.987 -14.265  10.041  1.00  0.00     0.005 A 
HETATM    4  C5  UNL     1      -0.473 -15.224   9.192  1.00  0.00     0.037 A 
HETATM    5  C6  UNL     1      -0.433 -15.038   7.827  1.00  0.00     0.110 A 
HETATM    6  N1  UNL     1      -0.918 -13.874   7.359  1.00  0.00    -0.345 N 
ATOM      7  H1  UNL     1      -0.891 -13.729   6.349  1.00  0.00     0.166 HD
ENDROOT
BRANCH   1   8
HETATM    8  C1  UNL     1      -1.948 -11.649   7.557  1.00  0.00     0.226 C 
HETATM    9  O1  UNL     1      -2.370 -11.644   6.390  1.00  0.00    -0.643 OA
HETATM   10  O2  UNL     1      -1.964 -10.508   8.313  1.00  0.00    -0.643 OA
ENDBRANCH   1   8
BRANCH   5  11
HETATM   11  C7  UNL     1       0.115 -16.065   6.950  1.00  0.00     0.226 C 
HETATM   12  O3  UNL     1      -0.295 -17.239   7.111  1.00  0.00    -0.643 OA
HETATM   13  O4  UNL     1       1.049 -15.821   5.961  1.00  0.00    -0.643 OA
ENDBRANCH   5  11
TORSDOF 2
ENDMDL
