MODEL 16
REMARK VINA RESULT: -5.171563644      2.641      4.935
REMARK  2 active torsions:
REMARK  status: ('A' for Active; 'I' for Inactive)
REMARK    1  A    between atoms: C1_2  and  C2_4 
REMARK    2  A    between atoms: C6_8  and  C7_9 
ROOT
HETATM    1  C2  UNL     1      -1.322 -12.868   8.014  1.00  0.00     0.110 A 
HETATM    2  C3  UNL     1      -1.753 -13.106   9.326  1.00  0.00     0.037 A 
HETATM    3  C4  UNL     1      -1.395 -14.259   9.990  1.00  0.00     0.005 A 
HETATM    4  C5  UNL     1      -0.598 -15.173   9.330  1.00  0.00     0.037 A 
HETATM    5  C6  UNL     1      -0.164 -14.958   8.040  1.00  0.00     0.110 A 
HETATM    6  N1  UNL     1      -0.552 -13.812   7.452  1.00  0.00    -0.345 N 
ATOM      7  H1  UNL     1      -0.234 -13.646   6.497  1.00  0.00     0.166 HD
ENDROOT
BRANCH   1   8
HETATM    8  C1  UNL     1      -1.716 -11.648   7.341  1.00  0.00     0.226 C 
HETATM    9  O1  UNL     1      -1.136 -10.592   7.635  1.00  0.00    -0.643 OA
HETATM   10  O2  UNL     1      -2.711 -11.664   6.400  1.00  0.00    -0.643 OA
ENDBRANCH   1   8
BRANCH   5  11
HETATM   11  C7  UNL     1       0.676 -15.938   7.363  1.00  0.00     0.226 C 
HETATM   12  O3  UNL     1       0.831 -15.807   6.126  1.00  0.00    -0.643 OA
HETATM   13  O4  UNL     1       1.304 -16.991   8.000  1.00  0.00    -0.643 OA
ENDBRANCH   5  11
TORSDOF 2
ENDMDL
