MODEL 6
REMARK VINA RESULT: -5.587029701      6.120      7.657
REMARK  2 active torsions:
REMARK  status: ('A' for Active; 'I' for Inactive)
REMARK    1  A    between atoms: C1_2  and  C2_4 
REMARK    2  A    between atoms: C6_8  and  C7_9 
ROOT
HETATM    1  C2  UNL     1       2.377 -16.940   7.889  1.00  0.00     0.110 A 
HETATM    2  C3  UNL     1       1.833 -18.221   7.725  1.00  0.00     0.037 A 
HETATM    3  C4  UNL     1       2.635 -19.295   7.402  1.00  0.00     0.005 A 
HETATM    4  C5  UNL     1       3.989 -19.075   7.246  1.00  0.00     0.037 A 
HETATM    5  C6  UNL     1       4.543 -17.824   7.403  1.00  0.00     0.110 A 
HETATM    6  N1  UNL     1       3.702 -16.822   7.718  1.00  0.00    -0.345 N 
ATOM      7  H1  UNL     1       4.106 -15.893   7.837  1.00  0.00     0.166 HD
ENDROOT
BRANCH   1   8
HETATM    8  C1  UNL     1       1.509 -15.831   8.227  1.00  0.00     0.226 C 
HETATM    9  O1  UNL     1       0.895 -15.257   7.316  1.00  0.00    -0.643 OA
HETATM   10  O2  UNL     1       1.372 -15.428   9.528  1.00  0.00    -0.643 OA
ENDBRANCH   1   8
BRANCH   5  11
HETATM   11  C7  UNL     1       5.976 -17.617   7.233  1.00  0.00     0.226 C 
HETATM   12  O3  UNL     1       6.346 -16.518   6.757  1.00  0.00    -0.643 OA
HETATM   13  O4  UNL     1       6.938 -18.552   7.563  1.00  0.00    -0.643 OA
ENDBRANCH   5  11
TORSDOF 2
ENDMDL
