MODEL 10
REMARK VINA RESULT: -5.340532254      2.881      3.794
REMARK  2 active torsions:
REMARK  status: ('A' for Active; 'I' for Inactive)
REMARK    1  A    between atoms: C1_2  and  C2_4 
REMARK    2  A    between atoms: C6_8  and  C7_9 
ROOT
HETATM    1  C2  UNL     1      -0.217 -15.079   7.774  1.00  0.00     0.110 A 
HETATM    2  C3  UNL     1      -0.015 -15.217   9.154  1.00  0.00     0.037 A 
HETATM    3  C4  UNL     1      -0.420 -14.233  10.030  1.00  0.00     0.005 A 
HETATM    4  C5  UNL     1      -1.032 -13.109   9.513  1.00  0.00     0.037 A 
HETATM    5  C6  UNL     1      -1.240 -12.955   8.159  1.00  0.00     0.110 A 
HETATM    6  N1  UNL     1      -0.819 -13.954   7.362  1.00  0.00    -0.345 N 
ATOM      7  H1  UNL     1      -0.971 -13.847   6.359  1.00  0.00     0.166 HD
ENDROOT
BRANCH   1   8
HETATM    8  C1  UNL     1       0.221 -16.130   6.878  1.00  0.00     0.226 C 
HETATM    9  O1  UNL     1       0.956 -15.831   5.926  1.00  0.00    -0.643 OA
HETATM   10  O2  UNL     1      -0.173 -17.425   7.082  1.00  0.00    -0.643 OA
ENDBRANCH   1   8
BRANCH   5  11
HETATM   11  C7  UNL     1      -1.888 -11.758   7.636  1.00  0.00     0.226 C 
HETATM   12  O3  UNL     1      -1.866 -10.731   8.353  1.00  0.00    -0.643 OA
HETATM   13  O4  UNL     1      -2.518 -11.694   6.407  1.00  0.00    -0.643 OA
ENDBRANCH   5  11
TORSDOF 2
ENDMDL
