MODEL 11
REMARK VINA RESULT: -5.316649301      4.967      7.006
REMARK  2 active torsions:
REMARK  status: ('A' for Active; 'I' for Inactive)
REMARK    1  A    between atoms: C1_2  and  C2_4 
REMARK    2  A    between atoms: C6_8  and  C7_9 
ROOT
HETATM    1  C2  UNL     1       1.102 -15.919   8.060  1.00  0.00     0.110 A 
HETATM    2  C3  UNL     1       1.758 -15.902   9.298  1.00  0.00     0.037 A 
HETATM    3  C4  UNL     1       2.818 -16.746   9.548  1.00  0.00     0.005 A 
HETATM    4  C5  UNL     1       3.219 -17.608   8.547  1.00  0.00     0.037 A 
HETATM    5  C6  UNL     1       2.587 -17.640   7.323  1.00  0.00     0.110 A 
HETATM    6  N1  UNL     1       1.559 -16.789   7.147  1.00  0.00    -0.345 N 
ATOM      7  H1  UNL     1       1.087 -16.807   6.243  1.00  0.00     0.166 HD
ENDROOT
BRANCH   1   8
HETATM    8  C1  UNL     1      -0.010 -15.021   7.826  1.00  0.00     0.226 C 
HETATM    9  O1  UNL     1      -1.049 -15.477   7.325  1.00  0.00    -0.643 OA
HETATM   10  O2  UNL     1       0.088 -13.695   8.153  1.00  0.00    -0.643 OA
ENDBRANCH   1   8
BRANCH   5  11
HETATM   11  C7  UNL     1       3.027 -18.559   6.280  1.00  0.00     0.226 C 
HETATM   12  O3  UNL     1       2.696 -18.293   5.101  1.00  0.00    -0.643 OA
HETATM   13  O4  UNL     1       3.779 -19.694   6.517  1.00  0.00    -0.643 OA
ENDBRANCH   5  11
TORSDOF 2
ENDMDL
