MODEL 7
REMARK VINA RESULT: -5.581484308      6.265      7.846
REMARK  2 active torsions:
REMARK  status: ('A' for Active; 'I' for Inactive)
REMARK    1  A    between atoms: C1_2  and  C2_4 
REMARK    2  A    between atoms: C6_8  and  C7_9 
ROOT
HETATM    1  C2  UNL     1       4.721 -17.846   7.361  1.00  0.00     0.110 A 
HETATM    2  C3  UNL     1       4.185 -19.131   7.211  1.00  0.00     0.037 A 
HETATM    3  C4  UNL     1       2.835 -19.359   7.374  1.00  0.00     0.005 A 
HETATM    4  C5  UNL     1       2.025 -18.286   7.687  1.00  0.00     0.037 A 
HETATM    5  C6  UNL     1       2.533 -17.014   7.839  1.00  0.00     0.110 A 
HETATM    6  N1  UNL     1       3.859 -16.865   7.666  1.00  0.00    -0.345 N 
ATOM      7  H1  UNL     1       4.241 -15.925   7.776  1.00  0.00     0.166 HD
ENDROOT
BRANCH   1   8
HETATM    8  C1  UNL     1       6.144 -17.638   7.185  1.00  0.00     0.226 C 
HETATM    9  O1  UNL     1       6.926 -18.522   7.566  1.00  0.00    -0.643 OA
HETATM   10  O2  UNL     1       6.611 -16.488   6.609  1.00  0.00    -0.643 OA
ENDBRANCH   1   8
BRANCH   5  11
HETATM   11  C7  UNL     1       1.658 -15.896   8.171  1.00  0.00     0.226 C 
HETATM   12  O3  UNL     1       1.636 -15.517   9.365  1.00  0.00    -0.643 OA
HETATM   13  O4  UNL     1       0.860 -15.240   7.253  1.00  0.00    -0.643 OA
ENDBRANCH   5  11
TORSDOF 2
ENDMDL
