MODEL 13
REMARK VINA RESULT: -6.512647629      0.984      2.346
REMARK  3 active torsions:
REMARK  status: ('A' for Active; 'I' for Inactive)
REMARK    1  A    between atoms: C4_4  and  N1_5 
REMARK    2  A    between atoms: N1_5  and  N2_7 
REMARK    3  A    between atoms: N2_7  and  C5_9 
ROOT
HETATM    1  C5  UNL     1     -32.137  -8.627  14.354  1.00  0.00     0.136 A 
HETATM    2  N3  UNL     1     -31.259  -8.752  15.336  1.00  0.00    -0.337 N 
ATOM      3  H3  UNL     1     -31.370  -9.522  15.996  1.00  0.00     0.168 HD
HETATM    4  C6  UNL     1     -30.203  -7.889  15.502  1.00  0.00     0.183 A 
HETATM    5  N4  UNL     1     -30.051  -6.857  14.619  1.00  0.00    -0.337 N 
ATOM      6  H4  UNL     1     -29.269  -6.213  14.738  1.00  0.00     0.168 HD
HETATM    7  C7  UNL     1     -30.906  -6.667  13.596  1.00  0.00     0.136 A 
HETATM    8  N5  UNL     1     -31.054  -5.780  12.583  1.00  0.00    -0.285 N 
ATOM      9  H5  UNL     1     -30.432  -4.990  12.413  1.00  0.00     0.188 HD
HETATM   10  N6  UNL     1     -32.109  -6.072  11.846  1.00  0.00    -0.309 N 
ATOM     11  H6  UNL     1     -32.434  -5.564  11.024  1.00  0.00     0.186 HD
HETATM   12  C8  UNL     1     -32.673  -7.163  12.381  1.00  0.00     0.126 A 
HETATM   13  C9  UNL     1     -31.946  -7.560  13.473  1.00  0.00     0.071 A 
ENDROOT
BRANCH   1  14
HETATM   14  N2  UNL     1     -33.231  -9.445  14.135  1.00  0.00    -0.284 N 
ATOM     15  H2  UNL     1     -33.069 -10.207  13.476  1.00  0.00     0.188 HD
BRANCH  14  16
HETATM   16  N1  UNL     1     -34.521  -9.397  14.667  1.00  0.00    -0.299 N 
ATOM     17  H1  UNL     1     -34.702  -9.300  15.666  1.00  0.00     0.187 HD
BRANCH  16  18
HETATM   18  C4  UNL     1     -35.575  -9.495  13.687  1.00  0.00     0.048 A 
HETATM   19  C3  UNL     1     -36.884  -9.382  14.055  1.00  0.00     0.031 A 
HETATM   20  C2  UNL     1     -37.901  -9.457  13.102  1.00  0.00     0.002 A 
HETATM   21  C1  UNL     1     -37.556  -9.650  11.762  1.00  0.00     0.000 A 
HETATM   22  C11 UNL     1     -36.247  -9.765  11.383  1.00  0.00     0.002 A 
HETATM   23  C10 UNL     1     -35.289  -9.684  12.360  1.00  0.00     0.031 A 
ENDBRANCH  16  18
ENDBRANCH  14  16
ENDBRANCH   1  14
TORSDOF 3
ENDMDL
