MODEL 11
REMARK VINA RESULT: -6.601653320      3.400      6.049
REMARK  3 active torsions:
REMARK  status: ('A' for Active; 'I' for Inactive)
REMARK    1  A    between atoms: C4_4  and  N1_5 
REMARK    2  A    between atoms: N1_5  and  N2_7 
REMARK    3  A    between atoms: N2_7  and  C5_9 
ROOT
HETATM    1  C5  UNL     1     -35.253 -10.237  12.863  1.00  0.00     0.136 A 
HETATM    2  N3  UNL     1     -34.964 -10.095  14.145  1.00  0.00    -0.337 N 
ATOM      3  H3  UNL     1     -34.051 -10.404  14.477  1.00  0.00     0.168 HD
HETATM    4  C6  UNL     1     -35.843  -9.549  15.049  1.00  0.00     0.183 A 
HETATM    5  N4  UNL     1     -37.068  -9.134  14.608  1.00  0.00    -0.337 N 
ATOM      6  H4  UNL     1     -37.725  -8.727  15.274  1.00  0.00     0.168 HD
HETATM    7  C7  UNL     1     -37.433  -9.247  13.316  1.00  0.00     0.136 A 
HETATM    8  N5  UNL     1     -38.525  -8.960  12.569  1.00  0.00    -0.285 N 
ATOM      9  H5  UNL     1     -39.380  -8.541  12.933  1.00  0.00     0.188 HD
HETATM   10  N6  UNL     1     -38.337  -9.295  11.305  1.00  0.00    -0.309 N 
ATOM     11  H6  UNL     1     -39.003  -9.177  10.541  1.00  0.00     0.186 HD
HETATM   12  C8  UNL     1     -37.106  -9.817  11.215  1.00  0.00     0.126 A 
HETATM   13  C9  UNL     1     -36.516  -9.800  12.451  1.00  0.00     0.071 A 
ENDROOT
BRANCH   1  14
HETATM   14  N2  UNL     1     -34.428 -10.792  11.901  1.00  0.00    -0.284 N 
ATOM     15  H2  UNL     1     -34.787 -11.645  11.471  1.00  0.00     0.188 HD
BRANCH  14  16
HETATM   16  N1  UNL     1     -33.184 -10.375  11.424  1.00  0.00    -0.299 N 
ATOM     17  H1  UNL     1     -32.305 -10.774  11.753  1.00  0.00     0.187 HD
BRANCH  16  18
HETATM   18  C4  UNL     1     -33.246  -9.335  10.426  1.00  0.00     0.048 A 
HETATM   19  C3  UNL     1     -32.602  -8.147  10.614  1.00  0.00     0.031 A 
HETATM   20  C2  UNL     1     -32.646  -7.150   9.638  1.00  0.00     0.002 A 
HETATM   21  C1  UNL     1     -33.362  -7.389   8.462  1.00  0.00     0.000 A 
HETATM   22  C11 UNL     1     -34.011  -8.577   8.264  1.00  0.00     0.002 A 
HETATM   23  C10 UNL     1     -33.935  -9.521   9.255  1.00  0.00     0.031 A 
ENDBRANCH  16  18
ENDBRANCH  14  16
ENDBRANCH   1  14
TORSDOF 3
ENDMDL
