MODEL 16
REMARK VINA RESULT: -6.449895956      1.072      2.427
REMARK  3 active torsions:
REMARK  status: ('A' for Active; 'I' for Inactive)
REMARK    1  A    between atoms: C4_4  and  N1_5 
REMARK    2  A    between atoms: N1_5  and  N2_7 
REMARK    3  A    between atoms: N2_7  and  C5_9 
ROOT
HETATM    1  C5  UNL     1     -31.205  -8.126  14.463  1.00  0.00     0.136 A 
HETATM    2  N3  UNL     1     -30.273  -8.479  15.332  1.00  0.00    -0.337 N 
ATOM      3  H3  UNL     1     -30.506  -9.170  16.045  1.00  0.00     0.168 HD
HETATM    4  C6  UNL     1     -29.002  -7.955  15.313  1.00  0.00     0.183 A 
HETATM    5  N4  UNL     1     -28.687  -7.030  14.358  1.00  0.00    -0.337 N 
ATOM      6  H4  UNL     1     -27.745  -6.637  14.339  1.00  0.00     0.168 HD
HETATM    7  C7  UNL     1     -29.585  -6.621  13.441  1.00  0.00     0.136 A 
HETATM    8  N5  UNL     1     -29.612  -5.750  12.405  1.00  0.00    -0.285 N 
ATOM      9  H5  UNL     1     -28.821  -5.178  12.111  1.00  0.00     0.188 HD
HETATM   10  N6  UNL     1     -30.798  -5.740  11.825  1.00  0.00    -0.309 N 
ATOM     11  H6  UNL     1     -31.075  -5.176  11.021  1.00  0.00     0.186 HD
HETATM   12  C8  UNL     1     -31.570  -6.610  12.490  1.00  0.00     0.126 A 
HETATM   13  C9  UNL     1     -30.842  -7.177  13.503  1.00  0.00     0.071 A 
ENDROOT
BRANCH   1  14
HETATM   14  N2  UNL     1     -32.506  -8.596  14.431  1.00  0.00    -0.284 N 
ATOM     15  H2  UNL     1     -33.177  -8.032  14.951  1.00  0.00     0.188 HD
BRANCH  14  16
HETATM   16  N1  UNL     1     -33.048  -9.719  13.803  1.00  0.00    -0.299 N 
ATOM     17  H1  UNL     1     -32.490 -10.535  13.551  1.00  0.00     0.187 HD
BRANCH  16  18
HETATM   18  C4  UNL     1     -34.464  -9.631  13.541  1.00  0.00     0.048 A 
HETATM   19  C3  UNL     1     -35.353  -9.431  14.557  1.00  0.00     0.031 A 
HETATM   20  C2  UNL     1     -36.720  -9.325  14.297  1.00  0.00     0.002 A 
HETATM   21  C1  UNL     1     -37.165  -9.427  12.977  1.00  0.00     0.000 A 
HETATM   22  C11 UNL     1     -36.283  -9.628  11.951  1.00  0.00     0.002 A 
HETATM   23  C10 UNL     1     -34.951  -9.724  12.263  1.00  0.00     0.031 A 
ENDBRANCH  16  18
ENDBRANCH  14  16
ENDBRANCH   1  14
TORSDOF 3
ENDMDL
