MODEL 7
REMARK VINA RESULT: -6.651019401      1.199      2.292
REMARK  3 active torsions:
REMARK  status: ('A' for Active; 'I' for Inactive)
REMARK    1  A    between atoms: C4_4  and  N1_5 
REMARK    2  A    between atoms: N1_5  and  N2_7 
REMARK    3  A    between atoms: N2_7  and  C5_9 
ROOT
HETATM    1  C5  UNL     1     -31.521  -9.671  14.073  1.00  0.00     0.136 A 
HETATM    2  N3  UNL     1     -30.817 -10.791  14.064  1.00  0.00    -0.337 N 
ATOM      3  H3  UNL     1     -31.300 -11.671  13.882  1.00  0.00     0.168 HD
HETATM    4  C6  UNL     1     -29.462 -10.819  14.291  1.00  0.00     0.183 A 
HETATM    5  N4  UNL     1     -28.812  -9.642  14.535  1.00  0.00    -0.337 N 
ATOM      6  H4  UNL     1     -27.806  -9.656  14.704  1.00  0.00     0.168 HD
HETATM    7  C7  UNL     1     -29.463  -8.462  14.559  1.00  0.00     0.136 A 
HETATM    8  N5  UNL     1     -29.147  -7.163  14.772  1.00  0.00    -0.285 N 
ATOM      9  H5  UNL     1     -28.207  -6.824  14.977  1.00  0.00     0.188 HD
HETATM   10  N6  UNL     1     -30.215  -6.393  14.678  1.00  0.00    -0.309 N 
ATOM     11  H6  UNL     1     -30.244  -5.380  14.790  1.00  0.00     0.186 HD
HETATM   12  C8  UNL     1     -31.255  -7.193  14.407  1.00  0.00     0.126 A 
HETATM   13  C9  UNL     1     -30.819  -8.490  14.325  1.00  0.00     0.071 A 
ENDROOT
BRANCH   1  14
HETATM   14  N2  UNL     1     -32.886  -9.569  13.870  1.00  0.00    -0.284 N 
ATOM     15  H2  UNL     1     -33.326  -8.769  14.325  1.00  0.00     0.188 HD
BRANCH  14  16
HETATM   16  N1  UNL     1     -33.759 -10.382  13.145  1.00  0.00    -0.299 N 
ATOM     17  H1  UNL     1     -33.440 -11.175  12.588  1.00  0.00     0.187 HD
BRANCH  16  18
HETATM   18  C4  UNL     1     -35.149 -10.009  13.250  1.00  0.00     0.048 A 
HETATM   19  C3  UNL     1     -35.677  -9.606  14.442  1.00  0.00     0.031 A 
HETATM   20  C2  UNL     1     -37.016  -9.226  14.536  1.00  0.00     0.002 A 
HETATM   21  C1  UNL     1     -37.810  -9.266  13.387  1.00  0.00     0.000 A 
HETATM   22  C11 UNL     1     -37.291  -9.670  12.188  1.00  0.00     0.002 A 
HETATM   23  C10 UNL     1     -35.969 -10.032  12.152  1.00  0.00     0.031 A 
ENDBRANCH  16  18
ENDBRANCH  14  16
ENDBRANCH   1  14
TORSDOF 3
ENDMDL
