MODEL 9
REMARK VINA RESULT: -6.632184866      1.199      2.566
REMARK  3 active torsions:
REMARK  status: ('A' for Active; 'I' for Inactive)
REMARK    1  A    between atoms: C4_4  and  N1_5 
REMARK    2  A    between atoms: N1_5  and  N2_7 
REMARK    3  A    between atoms: N2_7  and  C5_9 
ROOT
HETATM    1  C5  UNL     1     -31.519  -9.671  14.065  1.00  0.00     0.136 A 
HETATM    2  N3  UNL     1     -30.816 -10.791  14.054  1.00  0.00    -0.337 N 
ATOM      3  H3  UNL     1     -31.298 -11.669  13.863  1.00  0.00     0.168 HD
HETATM    4  C6  UNL     1     -29.462 -10.821  14.289  1.00  0.00     0.183 A 
HETATM    5  N4  UNL     1     -28.813  -9.646  14.544  1.00  0.00    -0.337 N 
ATOM      6  H4  UNL     1     -27.808  -9.662  14.719  1.00  0.00     0.168 HD
HETATM    7  C7  UNL     1     -29.463  -8.466  14.572  1.00  0.00     0.136 A 
HETATM    8  N5  UNL     1     -29.147  -7.169  14.794  1.00  0.00    -0.285 N 
ATOM      9  H5  UNL     1     -28.209  -6.832  15.007  1.00  0.00     0.188 HD
HETATM   10  N6  UNL     1     -30.215  -6.397  14.699  1.00  0.00    -0.309 N 
ATOM     11  H6  UNL     1     -30.243  -5.385  14.818  1.00  0.00     0.186 HD
HETATM   12  C8  UNL     1     -31.253  -7.195  14.417  1.00  0.00     0.126 A 
HETATM   13  C9  UNL     1     -30.818  -8.491  14.330  1.00  0.00     0.071 A 
ENDROOT
BRANCH   1  14
HETATM   14  N2  UNL     1     -32.883  -9.566  13.855  1.00  0.00    -0.284 N 
ATOM     15  H2  UNL     1     -33.318  -8.747  14.279  1.00  0.00     0.188 HD
BRANCH  14  16
HETATM   16  N1  UNL     1     -33.760 -10.400  13.159  1.00  0.00    -0.299 N 
ATOM     17  H1  UNL     1     -33.447 -11.223  12.643  1.00  0.00     0.187 HD
BRANCH  16  18
HETATM   18  C4  UNL     1     -35.144 -10.001  13.228  1.00  0.00     0.048 A 
HETATM   19  C3  UNL     1     -35.933 -10.015  12.115  1.00  0.00     0.031 A 
HETATM   20  C2  UNL     1     -37.278  -9.649  12.189  1.00  0.00     0.002 A 
HETATM   21  C1  UNL     1     -37.804  -9.266  13.425  1.00  0.00     0.000 A 
HETATM   22  C11 UNL     1     -37.023  -9.248  14.547  1.00  0.00     0.002 A 
HETATM   23  C10 UNL     1     -35.709  -9.618  14.417  1.00  0.00     0.031 A 
ENDBRANCH  16  18
ENDBRANCH  14  16
ENDBRANCH   1  14
TORSDOF 3
ENDMDL
