MODEL 8
REMARK VINA RESULT: -6.639268282      2.158      6.161
REMARK  3 active torsions:
REMARK  status: ('A' for Active; 'I' for Inactive)
REMARK    1  A    between atoms: C4_4  and  N1_5 
REMARK    2  A    between atoms: N1_5  and  N2_7 
REMARK    3  A    between atoms: N2_7  and  C5_9 
ROOT
HETATM    1  C5  UNL     1     -34.943  -9.765  13.500  1.00  0.00     0.136 A 
HETATM    2  N3  UNL     1     -35.195  -9.606  14.789  1.00  0.00    -0.337 N 
ATOM      3  H3  UNL     1     -34.429  -9.714  15.453  1.00  0.00     0.168 HD
HETATM    4  C6  UNL     1     -36.446  -9.299  15.269  1.00  0.00     0.183 A 
HETATM    5  N4  UNL     1     -37.474  -9.153  14.381  1.00  0.00    -0.337 N 
ATOM      6  H4  UNL     1     -38.405  -8.926  14.732  1.00  0.00     0.168 HD
HETATM    7  C7  UNL     1     -37.293  -9.301  13.054  1.00  0.00     0.136 A 
HETATM    8  N5  UNL     1     -38.059  -9.239  11.940  1.00  0.00    -0.285 N 
ATOM      9  H5  UNL     1     -39.058  -9.034  11.937  1.00  0.00     0.188 HD
HETATM   10  N6  UNL     1     -37.342  -9.480  10.858  1.00  0.00    -0.309 N 
ATOM     11  H6  UNL     1     -37.681  -9.489   9.895  1.00  0.00     0.186 HD
HETATM   12  C8  UNL     1     -36.086  -9.712  11.260  1.00  0.00     0.126 A 
HETATM   13  C9  UNL     1     -36.022  -9.606  12.625  1.00  0.00     0.071 A 
ENDROOT
BRANCH   1  14
HETATM   14  N2  UNL     1     -33.718 -10.089  12.946  1.00  0.00    -0.284 N 
ATOM     15  H2  UNL     1     -33.731 -10.238  11.937  1.00  0.00     0.188 HD
BRANCH  14  16
HETATM   16  N1  UNL     1     -32.466 -10.246  13.544  1.00  0.00    -0.299 N 
ATOM     17  H1  UNL     1     -32.053 -11.160  13.729  1.00  0.00     0.187 HD
BRANCH  16  18
HETATM   18  C4  UNL     1     -31.805  -9.008  13.879  1.00  0.00     0.048 A 
HETATM   19  C3  UNL     1     -31.936  -7.908  13.082  1.00  0.00     0.031 A 
HETATM   20  C2  UNL     1     -31.312  -6.705  13.420  1.00  0.00     0.002 A 
HETATM   21  C1  UNL     1     -30.549  -6.647  14.588  1.00  0.00     0.000 A 
HETATM   22  C11 UNL     1     -30.410  -7.744  15.393  1.00  0.00     0.002 A 
HETATM   23  C10 UNL     1     -31.045  -8.899  15.014  1.00  0.00     0.031 A 
ENDBRANCH  16  18
ENDBRANCH  14  16
ENDBRANCH   1  14
TORSDOF 3
ENDMDL
