MODEL 3
REMARK VINA RESULT: -6.874242425      1.377      2.806
REMARK  3 active torsions:
REMARK  status: ('A' for Active; 'I' for Inactive)
REMARK    1  A    between atoms: C4_4  and  N1_5 
REMARK    2  A    between atoms: N1_5  and  N2_7 
REMARK    3  A    between atoms: N2_7  and  C5_9 
ROOT
HETATM    1  C5  UNL     1     -32.397 -10.484  13.146  1.00  0.00     0.136 A 
HETATM    2  N3  UNL     1     -31.521 -11.330  13.661  1.00  0.00    -0.337 N 
ATOM      3  H3  UNL     1     -31.660 -12.329  13.511  1.00  0.00     0.168 HD
HETATM    4  C6  UNL     1     -30.430 -10.919  14.388  1.00  0.00     0.183 A 
HETATM    5  N4  UNL     1     -30.240  -9.581  14.591  1.00  0.00    -0.337 N 
ATOM      6  H4  UNL     1     -29.432  -9.270  15.130  1.00  0.00     0.168 HD
HETATM    7  C7  UNL     1     -31.091  -8.661  14.097  1.00  0.00     0.136 A 
HETATM    8  N5  UNL     1     -31.207  -7.312  14.115  1.00  0.00    -0.285 N 
ATOM      9  H5  UNL     1     -30.554  -6.683  14.582  1.00  0.00     0.188 HD
HETATM   10  N6  UNL     1     -32.277  -6.918  13.449  1.00  0.00    -0.309 N 
ATOM     11  H6  UNL     1     -32.585  -5.956  13.310  1.00  0.00     0.186 HD
HETATM   12  C8  UNL     1     -32.883  -8.021  12.989  1.00  0.00     0.126 A 
HETATM   13  C9  UNL     1     -32.167  -9.125  13.375  1.00  0.00     0.071 A 
ENDROOT
BRANCH   1  14
HETATM   14  N2  UNL     1     -33.525 -10.824  12.419  1.00  0.00    -0.284 N 
ATOM     15  H2  UNL     1     -33.499 -10.549  11.438  1.00  0.00     0.188 HD
BRANCH  14  16
HETATM   16  N1  UNL     1     -34.691 -11.483  12.812  1.00  0.00    -0.299 N 
ATOM     17  H1  UNL     1     -34.763 -12.499  12.859  1.00  0.00     0.187 HD
BRANCH  16  18
HETATM   18  C4  UNL     1     -35.788 -10.606  13.146  1.00  0.00     0.048 A 
HETATM   19  C3  UNL     1     -36.815 -10.406  12.270  1.00  0.00     0.031 A 
HETATM   20  C2  UNL     1     -37.885  -9.574  12.605  1.00  0.00     0.002 A 
HETATM   21  C1  UNL     1     -37.886  -8.947  13.853  1.00  0.00     0.000 A 
HETATM   22  C11 UNL     1     -36.861  -9.141  14.738  1.00  0.00     0.002 A 
HETATM   23  C10 UNL     1     -35.836  -9.968  14.358  1.00  0.00     0.031 A 
ENDBRANCH  16  18
ENDBRANCH  14  16
ENDBRANCH   1  14
TORSDOF 3
ENDMDL
