MODEL 10
REMARK VINA RESULT: -6.628338529      2.146      6.074
REMARK  3 active torsions:
REMARK  status: ('A' for Active; 'I' for Inactive)
REMARK    1  A    between atoms: C4_4  and  N1_5 
REMARK    2  A    between atoms: N1_5  and  N2_7 
REMARK    3  A    between atoms: N2_7  and  C5_9 
ROOT
HETATM    1  C5  UNL     1     -34.922  -9.762  13.510  1.00  0.00     0.136 A 
HETATM    2  N3  UNL     1     -35.178  -9.609  14.799  1.00  0.00    -0.337 N 
ATOM      3  H3  UNL     1     -34.413  -9.715  15.465  1.00  0.00     0.168 HD
HETATM    4  C6  UNL     1     -36.431  -9.311  15.278  1.00  0.00     0.183 A 
HETATM    5  N4  UNL     1     -37.458  -9.167  14.388  1.00  0.00    -0.337 N 
ATOM      6  H4  UNL     1     -38.391  -8.946  14.737  1.00  0.00     0.168 HD
HETATM    7  C7  UNL     1     -37.273  -9.309  13.061  1.00  0.00     0.136 A 
HETATM    8  N5  UNL     1     -38.037  -9.247  11.945  1.00  0.00    -0.285 N 
ATOM      9  H5  UNL     1     -39.037  -9.048  11.940  1.00  0.00     0.188 HD
HETATM   10  N6  UNL     1     -37.317  -9.481  10.863  1.00  0.00    -0.309 N 
ATOM     11  H6  UNL     1     -37.654  -9.488   9.900  1.00  0.00     0.186 HD
HETATM   12  C8  UNL     1     -36.060  -9.707  11.268  1.00  0.00     0.126 A 
HETATM   13  C9  UNL     1     -36.000  -9.605  12.633  1.00  0.00     0.071 A 
ENDROOT
BRANCH   1  14
HETATM   14  N2  UNL     1     -33.694 -10.077  12.958  1.00  0.00    -0.284 N 
ATOM     15  H2  UNL     1     -33.704 -10.223  11.949  1.00  0.00     0.188 HD
BRANCH  14  16
HETATM   16  N1  UNL     1     -32.442 -10.230  13.558  1.00  0.00    -0.299 N 
ATOM     17  H1  UNL     1     -32.016 -11.142  13.722  1.00  0.00     0.187 HD
BRANCH  16  18
HETATM   18  C4  UNL     1     -31.803  -8.990  13.928  1.00  0.00     0.048 A 
HETATM   19  C3  UNL     1     -31.043  -8.905  15.058  1.00  0.00     0.031 A 
HETATM   20  C2  UNL     1     -30.408  -7.710  15.402  1.00  0.00     0.002 A 
HETATM   21  C1  UNL     1     -30.565  -6.600  14.568  1.00  0.00     0.000 A 
HETATM   22  C11 UNL     1     -31.325  -6.675  13.434  1.00  0.00     0.002 A 
HETATM   23  C10 UNL     1     -31.926  -7.873  13.144  1.00  0.00     0.031 A 
ENDBRANCH  16  18
ENDBRANCH  14  16
ENDBRANCH   1  14
TORSDOF 3
ENDMDL
