MODEL 11
REMARK VINA RESULT: -7.124583425      1.276      2.212
REMARK  4 active torsions:
REMARK  status: ('A' for Active; 'I' for Inactive)
REMARK    1  A    between atoms: C2_2  and  C4_4 
REMARK    2  A    between atoms: N2_9  and  C6_10 
REMARK    3  A    between atoms: C6_10  and  C7_11 
REMARK    4  A    between atoms: C10_14  and  C11_15 
ROOT
HETATM    1  C4  UNL     1     -19.286 -12.845 -62.025  1.00  0.00     0.182 C 
HETATM    2  N1  UNL     1     -18.048 -13.543 -61.748  1.00  0.00    -0.329 N 
ATOM      3  H1  UNL     1     -17.863 -14.542 -61.838  1.00  0.00     0.165 HD
HETATM    4  C5  UNL     1     -17.149 -12.531 -61.323  1.00  0.00     0.326 C 
HETATM    5  O1  UNL     1     -15.893 -12.515 -61.415  1.00  0.00    -0.247 OA
HETATM    6  N2  UNL     1     -17.920 -11.452 -60.732  1.00  0.00    -0.264 N 
HETATM    7  C17 UNL     1     -19.290 -11.921 -60.850  1.00  0.00     0.251 C 
HETATM    8  O2  UNL     1     -20.200 -11.565 -60.077  1.00  0.00    -0.271 OA
ENDROOT
BRANCH   6   9
HETATM    9  C6  UNL     1     -17.496 -10.221 -60.168  1.00  0.00     0.175 C 
BRANCH   9  10
HETATM   10  C7  UNL     1     -17.476  -9.072 -61.105  1.00  0.00    -0.040 A 
HETATM   11  C8  UNL     1     -17.882  -9.193 -62.414  1.00  0.00     0.009 A 
HETATM   12  C9  UNL     1     -17.866  -8.122 -63.301  1.00  0.00     0.008 A 
HETATM   13  C10 UNL     1     -17.438  -6.876 -62.906  1.00  0.00    -0.051 A 
HETATM   14  C15 UNL     1     -17.027  -6.752 -61.588  1.00  0.00     0.008 A 
HETATM   15  C16 UNL     1     -17.041  -7.809 -60.705  1.00  0.00     0.009 A 
BRANCH  13  16
HETATM   16  C11 UNL     1     -17.408  -5.702 -63.837  1.00  0.00    -0.024 C 
HETATM   17  C12 UNL     1     -15.997  -5.200 -64.044  1.00  0.00     0.019 C 
HETATM   18  C13 UNL     1     -18.188  -4.530 -63.224  1.00  0.00     0.019 C 
HETATM   19  C14 UNL     1     -18.018  -5.966 -65.170  1.00  0.00     0.019 C 
ENDBRANCH  13  16
ENDBRANCH   9  10
ENDBRANCH   6   9
BRANCH   1  20
HETATM   20  C2  UNL     1     -20.482 -13.690 -62.193  1.00  0.00     0.009 C 
HETATM   21  C1  UNL     1     -20.376 -14.360 -63.571  1.00  0.00     0.012 C 
HETATM   22  C3  UNL     1     -20.330 -14.866 -61.215  1.00  0.00     0.012 C 
ENDBRANCH   1  20
TORSDOF 4
ENDMDL
