MODEL 15
REMARK VINA RESULT: -6.826812134      2.571      7.048
REMARK  4 active torsions:
REMARK  status: ('A' for Active; 'I' for Inactive)
REMARK    1  A    between atoms: C2_2  and  C4_4 
REMARK    2  A    between atoms: N2_9  and  C6_10 
REMARK    3  A    between atoms: C6_10  and  C7_11 
REMARK    4  A    between atoms: C10_14  and  C11_15 
ROOT
HETATM    1  C4  UNL     1     -16.985  -8.703 -60.026  1.00  0.00     0.182 C 
HETATM    2  N1  UNL     1     -16.501  -7.542 -60.744  1.00  0.00    -0.329 N 
ATOM      3  H1  UNL     1     -16.128  -6.678 -60.351  1.00  0.00     0.165 HD
HETATM    4  C5  UNL     1     -16.659  -7.872 -62.116  1.00  0.00     0.326 C 
HETATM    5  O1  UNL     1     -15.998  -7.448 -63.101  1.00  0.00    -0.247 OA
HETATM    6  N2  UNL     1     -17.752  -8.820 -62.235  1.00  0.00    -0.264 N 
HETATM    7  C17 UNL     1     -18.191  -8.994 -60.861  1.00  0.00     0.251 C 
HETATM    8  O2  UNL     1     -19.354  -9.320 -60.555  1.00  0.00    -0.271 OA
ENDROOT
BRANCH   6   9
HETATM    9  C6  UNL     1     -18.297  -9.455 -63.382  1.00  0.00     0.175 C 
BRANCH   9  10
HETATM   10  C7  UNL     1     -18.234 -10.936 -63.371  1.00  0.00    -0.040 A 
HETATM   11  C8  UNL     1     -19.370 -11.713 -63.345  1.00  0.00     0.009 A 
HETATM   12  C9  UNL     1     -19.321 -13.102 -63.334  1.00  0.00     0.008 A 
HETATM   13  C10 UNL     1     -18.121 -13.774 -63.350  1.00  0.00    -0.051 A 
HETATM   14  C15 UNL     1     -16.976 -12.993 -63.376  1.00  0.00     0.008 A 
HETATM   15  C16 UNL     1     -17.018 -11.617 -63.387  1.00  0.00     0.009 A 
BRANCH  13  16
HETATM   16  C11 UNL     1     -18.035 -15.270 -63.340  1.00  0.00    -0.024 C 
HETATM   17  C12 UNL     1     -19.378 -15.899 -63.636  1.00  0.00     0.019 C 
HETATM   18  C13 UNL     1     -17.640 -15.760 -61.939  1.00  0.00     0.019 C 
HETATM   19  C14 UNL     1     -17.029 -15.830 -64.284  1.00  0.00     0.019 C 
ENDBRANCH  13  16
ENDBRANCH   9  10
ENDBRANCH   6   9
BRANCH   1  20
HETATM   20  C2  UNL     1     -17.222  -8.520 -58.584  1.00  0.00     0.009 C 
HETATM   21  C1  UNL     1     -17.471  -9.912 -57.984  1.00  0.00     0.012 C 
HETATM   22  C3  UNL     1     -15.876  -8.105 -57.966  1.00  0.00     0.012 C 
ENDBRANCH   1  20
TORSDOF 4
ENDMDL
