MODEL 9
REMARK VINA RESULT: -7.152089452      3.762      5.666
REMARK  4 active torsions:
REMARK  status: ('A' for Active; 'I' for Inactive)
REMARK    1  A    between atoms: C2_2  and  C4_4 
REMARK    2  A    between atoms: N2_9  and  C6_10 
REMARK    3  A    between atoms: C6_10  and  C7_11 
REMARK    4  A    between atoms: C10_14  and  C11_15 
ROOT
HETATM    1  C4  UNL     1     -15.551 -10.432 -56.921  1.00  0.00     0.182 C 
HETATM    2  N1  UNL     1     -14.475  -9.868 -57.708  1.00  0.00    -0.329 N 
ATOM      3  H1  UNL     1     -13.610  -9.447 -57.368  1.00  0.00     0.165 HD
HETATM    4  C5  UNL     1     -14.887 -10.030 -59.057  1.00  0.00     0.326 C 
HETATM    5  O1  UNL     1     -14.168 -10.144 -60.084  1.00  0.00    -0.247 OA
HETATM    6  N2  UNL     1     -16.339 -10.046 -59.092  1.00  0.00    -0.264 N 
HETATM    7  C17 UNL     1     -16.706  -9.882 -57.696  1.00  0.00     0.251 C 
HETATM    8  O2  UNL     1     -17.784  -9.374 -57.331  1.00  0.00    -0.271 OA
ENDROOT
BRANCH   6   9
HETATM    9  C6  UNL     1     -17.231 -10.187 -60.187  1.00  0.00     0.175 C 
BRANCH   9  10
HETATM   10  C7  UNL     1     -17.287  -9.026 -61.108  1.00  0.00    -0.040 A 
HETATM   11  C8  UNL     1     -17.638  -9.162 -62.431  1.00  0.00     0.009 A 
HETATM   12  C9  UNL     1     -17.693  -8.080 -63.301  1.00  0.00     0.008 A 
HETATM   13  C10 UNL     1     -17.396  -6.806 -62.875  1.00  0.00    -0.051 A 
HETATM   14  C15 UNL     1     -17.042  -6.667 -61.542  1.00  0.00     0.008 A 
HETATM   15  C16 UNL     1     -16.986  -7.736 -60.676  1.00  0.00     0.009 A 
BRANCH  13  16
HETATM   16  C11 UNL     1     -17.446  -5.619 -63.789  1.00  0.00    -0.024 C 
HETATM   17  C12 UNL     1     -18.020  -5.988 -65.138  1.00  0.00     0.019 C 
HETATM   18  C13 UNL     1     -16.024  -5.109 -64.060  1.00  0.00     0.019 C 
HETATM   19  C14 UNL     1     -18.214  -4.464 -63.246  1.00  0.00     0.019 C 
ENDBRANCH  13  16
ENDBRANCH   9  10
ENDBRANCH   6   9
BRANCH   1  20
HETATM   20  C2  UNL     1     -15.529 -10.126 -55.481  1.00  0.00     0.009 C 
HETATM   21  C1  UNL     1     -14.891 -11.329 -54.770  1.00  0.00     0.012 C 
HETATM   22  C3  UNL     1     -14.492  -9.009 -55.284  1.00  0.00     0.012 C 
ENDBRANCH   1  20
TORSDOF 4
ENDMDL
