MODEL 3
REMARK VINA RESULT: -7.857046881      0.727      1.625
REMARK  4 active torsions:
REMARK  status: ('A' for Active; 'I' for Inactive)
REMARK    1  A    between atoms: C2_2  and  C4_4 
REMARK    2  A    between atoms: N2_9  and  C6_10 
REMARK    3  A    between atoms: C6_10  and  C7_11 
REMARK    4  A    between atoms: C10_14  and  C11_15 
ROOT
HETATM    1  C4  UNL     1     -19.682 -13.491 -61.507  1.00  0.00     0.182 C 
HETATM    2  N1  UNL     1     -20.698 -12.481 -61.720  1.00  0.00    -0.329 N 
ATOM      3  H1  UNL     1     -21.596 -12.592 -62.190  1.00  0.00     0.165 HD
HETATM    4  C5  UNL     1     -20.167 -11.303 -61.132  1.00  0.00     0.326 C 
HETATM    5  O1  UNL     1     -20.793 -10.326 -60.643  1.00  0.00    -0.247 OA
HETATM    6  N2  UNL     1     -18.718 -11.383 -61.174  1.00  0.00    -0.264 N 
HETATM    7  C17 UNL     1     -18.476 -12.663 -61.818  1.00  0.00     0.251 C 
HETATM    8  O2  UNL     1     -17.443 -12.912 -62.469  1.00  0.00    -0.271 OA
ENDROOT
BRANCH   6   9
HETATM    9  C6  UNL     1     -17.733 -10.471 -60.713  1.00  0.00     0.175 C 
BRANCH   9  10
HETATM   10  C7  UNL     1     -17.615  -9.220 -61.501  1.00  0.00    -0.040 A 
HETATM   11  C8  UNL     1     -17.175  -8.044 -60.938  1.00  0.00     0.009 A 
HETATM   12  C9  UNL     1     -17.062  -6.867 -61.667  1.00  0.00     0.008 A 
HETATM   13  C10 UNL     1     -17.389  -6.821 -63.003  1.00  0.00    -0.051 A 
HETATM   14  C15 UNL     1     -17.834  -8.004 -63.571  1.00  0.00     0.008 A 
HETATM   15  C16 UNL     1     -17.948  -9.174 -62.853  1.00  0.00     0.009 A 
BRANCH  13  16
HETATM   16  C11 UNL     1     -17.278  -5.567 -63.816  1.00  0.00    -0.024 C 
HETATM   17  C12 UNL     1     -15.856  -5.056 -63.847  1.00  0.00     0.019 C 
HETATM   18  C13 UNL     1     -18.113  -4.451 -63.171  1.00  0.00     0.019 C 
HETATM   19  C14 UNL     1     -17.765  -5.704 -65.217  1.00  0.00     0.019 C 
ENDBRANCH  13  16
ENDBRANCH   9  10
ENDBRANCH   6   9
BRANCH   1  20
HETATM   20  C2  UNL     1     -19.834 -14.735 -62.280  1.00  0.00     0.009 C 
HETATM   21  C1  UNL     1     -20.967 -15.541 -61.628  1.00  0.00     0.012 C 
HETATM   22  C3  UNL     1     -20.423 -14.337 -63.644  1.00  0.00     0.012 C 
ENDBRANCH   1  20
TORSDOF 4
ENDMDL
