MODEL 12
REMARK VINA RESULT: -7.118761162      1.262      2.419
REMARK  4 active torsions:
REMARK  status: ('A' for Active; 'I' for Inactive)
REMARK    1  A    between atoms: C2_2  and  C4_4 
REMARK    2  A    between atoms: N2_9  and  C6_10 
REMARK    3  A    between atoms: C6_10  and  C7_11 
REMARK    4  A    between atoms: C10_14  and  C11_15 
ROOT
HETATM    1  C4  UNL     1     -19.329 -12.835 -62.044  1.00  0.00     0.182 C 
HETATM    2  N1  UNL     1     -18.077 -13.516 -61.793  1.00  0.00    -0.329 N 
ATOM      3  H1  UNL     1     -17.877 -14.511 -61.900  1.00  0.00     0.165 HD
HETATM    4  C5  UNL     1     -17.187 -12.496 -61.365  1.00  0.00     0.326 C 
HETATM    5  O1  UNL     1     -15.933 -12.458 -61.473  1.00  0.00    -0.247 OA
HETATM    6  N2  UNL     1     -17.968 -11.437 -60.748  1.00  0.00    -0.264 N 
HETATM    7  C17 UNL     1     -19.332 -11.927 -60.855  1.00  0.00     0.251 C 
HETATM    8  O2  UNL     1     -20.236 -11.596 -60.065  1.00  0.00    -0.271 OA
ENDROOT
BRANCH   6   9
HETATM    9  C6  UNL     1     -17.556 -10.208 -60.172  1.00  0.00     0.175 C 
BRANCH   9  10
HETATM   10  C7  UNL     1     -17.522  -9.055 -61.105  1.00  0.00    -0.040 A 
HETATM   11  C8  UNL     1     -17.103  -7.807 -60.705  1.00  0.00     0.009 A 
HETATM   12  C9  UNL     1     -17.067  -6.721 -61.571  1.00  0.00     0.008 A 
HETATM   13  C10 UNL     1     -17.455  -6.844 -62.886  1.00  0.00    -0.051 A 
HETATM   14  C15 UNL     1     -17.879  -8.100 -63.290  1.00  0.00     0.008 A 
HETATM   15  C16 UNL     1     -17.915  -9.180 -62.436  1.00  0.00     0.009 A 
BRANCH  13  16
HETATM   16  C11 UNL     1     -17.429  -5.692 -63.844  1.00  0.00    -0.024 C 
HETATM   17  C12 UNL     1     -16.019  -5.191 -64.063  1.00  0.00     0.019 C 
HETATM   18  C13 UNL     1     -18.211  -4.508 -63.258  1.00  0.00     0.019 C 
HETATM   19  C14 UNL     1     -18.039  -5.988 -65.170  1.00  0.00     0.019 C 
ENDBRANCH  13  16
ENDBRANCH   9  10
ENDBRANCH   6   9
BRANCH   1  20
HETATM   20  C2  UNL     1     -20.513 -13.695 -62.207  1.00  0.00     0.009 C 
HETATM   21  C1  UNL     1     -20.383 -14.393 -63.569  1.00  0.00     0.012 C 
HETATM   22  C3  UNL     1     -20.360 -14.850 -61.203  1.00  0.00     0.012 C 
ENDBRANCH   1  20
TORSDOF 4
ENDMDL
