MODEL 2
REMARK VINA RESULT: -7.868019285      0.754      1.294
REMARK  4 active torsions:
REMARK  status: ('A' for Active; 'I' for Inactive)
REMARK    1  A    between atoms: C2_2  and  C4_4 
REMARK    2  A    between atoms: N2_9  and  C6_10 
REMARK    3  A    between atoms: C6_10  and  C7_11 
REMARK    4  A    between atoms: C10_14  and  C11_15 
ROOT
HETATM    1  C4  UNL     1     -19.703 -13.497 -61.454  1.00  0.00     0.182 C 
HETATM    2  N1  UNL     1     -20.715 -12.497 -61.719  1.00  0.00    -0.329 N 
ATOM      3  H1  UNL     1     -21.601 -12.622 -62.210  1.00  0.00     0.165 HD
HETATM    4  C5  UNL     1     -20.204 -11.302 -61.147  1.00  0.00     0.326 C 
HETATM    5  O1  UNL     1     -20.845 -10.315 -60.700  1.00  0.00    -0.247 OA
HETATM    6  N2  UNL     1     -18.754 -11.379 -61.149  1.00  0.00    -0.264 N 
HETATM    7  C17 UNL     1     -18.491 -12.674 -61.753  1.00  0.00     0.251 C 
HETATM    8  O2  UNL     1     -17.441 -12.936 -62.371  1.00  0.00    -0.271 OA
ENDROOT
BRANCH   6   9
HETATM    9  C6  UNL     1     -17.784 -10.452 -60.686  1.00  0.00     0.175 C 
BRANCH   9  10
HETATM   10  C7  UNL     1     -17.659  -9.214 -61.493  1.00  0.00    -0.040 A 
HETATM   11  C8  UNL     1     -17.997  -9.178 -62.826  1.00  0.00     0.009 A 
HETATM   12  C9  UNL     1     -17.882  -8.023 -63.591  1.00  0.00     0.008 A 
HETATM   13  C10 UNL     1     -17.420  -6.848 -63.045  1.00  0.00    -0.051 A 
HETATM   14  C15 UNL     1     -17.078  -6.884 -61.702  1.00  0.00     0.008 A 
HETATM   15  C16 UNL     1     -17.190  -8.025 -60.939  1.00  0.00     0.009 A 
BRANCH  13  16
HETATM   16  C11 UNL     1     -17.285  -5.587 -63.843  1.00  0.00    -0.024 C 
HETATM   17  C12 UNL     1     -15.858  -5.089 -63.845  1.00  0.00     0.019 C 
HETATM   18  C13 UNL     1     -18.121  -4.471 -63.200  1.00  0.00     0.019 C 
HETATM   19  C14 UNL     1     -17.750  -5.705 -65.253  1.00  0.00     0.019 C 
ENDBRANCH  13  16
ENDBRANCH   9  10
ENDBRANCH   6   9
BRANCH   1  20
HETATM   20  C2  UNL     1     -19.831 -14.761 -62.199  1.00  0.00     0.009 C 
HETATM   21  C1  UNL     1     -20.982 -15.552 -61.559  1.00  0.00     0.012 C 
HETATM   22  C3  UNL     1     -20.381 -14.399 -63.588  1.00  0.00     0.012 C 
ENDBRANCH   1  20
TORSDOF 4
ENDMDL
