MODEL 1
REMARK VINA RESULT: -7.869818528      0.000      0.000
REMARK  4 active torsions:
REMARK  status: ('A' for Active; 'I' for Inactive)
REMARK    1  A    between atoms: C2_2  and  C4_4 
REMARK    2  A    between atoms: N2_9  and  C6_10 
REMARK    3  A    between atoms: C6_10  and  C7_11 
REMARK    4  A    between atoms: C10_14  and  C11_15 
ROOT
HETATM    1  C4  UNL     1     -19.855 -13.573 -62.378  1.00  0.00     0.182 C 
HETATM    2  N1  UNL     1     -20.849 -12.584 -62.017  1.00  0.00    -0.329 N 
ATOM      3  H1  UNL     1     -21.846 -12.598 -62.231  1.00  0.00     0.165 HD
HETATM    4  C5  UNL     1     -20.131 -11.592 -61.300  1.00  0.00     0.326 C 
HETATM    5  O1  UNL     1     -20.557 -10.811 -60.409  1.00  0.00    -0.247 OA
HETATM    6  N2  UNL     1     -18.754 -11.600 -61.762  1.00  0.00    -0.264 N 
HETATM    7  C17 UNL     1     -18.750 -12.645 -62.772  1.00  0.00     0.251 C 
HETATM    8  O2  UNL     1     -17.949 -12.665 -63.726  1.00  0.00    -0.271 OA
ENDROOT
BRANCH   6   9
HETATM    9  C6  UNL     1     -17.645 -10.811 -61.361  1.00  0.00     0.175 C 
BRANCH   9  10
HETATM   10  C7  UNL     1     -17.562  -9.473 -61.996  1.00  0.00    -0.040 A 
HETATM   11  C8  UNL     1     -18.144  -9.207 -63.214  1.00  0.00     0.009 A 
HETATM   12  C9  UNL     1     -18.071  -7.957 -63.816  1.00  0.00     0.008 A 
HETATM   13  C10 UNL     1     -17.406  -6.913 -63.216  1.00  0.00    -0.051 A 
HETATM   14  C15 UNL     1     -16.818  -7.179 -61.989  1.00  0.00     0.008 A 
HETATM   15  C16 UNL     1     -16.887  -8.416 -61.387  1.00  0.00     0.009 A 
BRANCH  13  16
HETATM   16  C11 UNL     1     -17.309  -5.554 -63.840  1.00  0.00    -0.024 C 
HETATM   17  C12 UNL     1     -17.686  -5.594 -65.303  1.00  0.00     0.019 C 
HETATM   18  C13 UNL     1     -15.856  -5.060 -63.791  1.00  0.00     0.019 C 
HETATM   19  C14 UNL     1     -18.134  -4.514 -63.165  1.00  0.00     0.019 C 
ENDBRANCH  13  16
ENDBRANCH   9  10
ENDBRANCH   6   9
BRANCH   1  20
HETATM   20  C2  UNL     1     -20.263 -14.563 -63.389  1.00  0.00     0.009 C 
HETATM   21  C1  UNL     1     -19.231 -15.700 -63.355  1.00  0.00     0.012 C 
HETATM   22  C3  UNL     1     -21.542 -15.232 -62.858  1.00  0.00     0.012 C 
ENDBRANCH   1  20
TORSDOF 4
ENDMDL
