MODEL 10
REMARK VINA RESULT: -7.138949524      3.718      5.778
REMARK  4 active torsions:
REMARK  status: ('A' for Active; 'I' for Inactive)
REMARK    1  A    between atoms: C2_2  and  C4_4 
REMARK    2  A    between atoms: N2_9  and  C6_10 
REMARK    3  A    between atoms: C6_10  and  C7_11 
REMARK    4  A    between atoms: C10_14  and  C11_15 
ROOT
HETATM    1  C4  UNL     1     -15.560 -10.478 -56.987  1.00  0.00     0.182 C 
HETATM    2  N1  UNL     1     -14.483  -9.941 -57.791  1.00  0.00    -0.329 N 
ATOM      3  H1  UNL     1     -13.601  -9.545 -57.465  1.00  0.00     0.165 HD
HETATM    4  C5  UNL     1     -14.924 -10.087 -59.132  1.00  0.00     0.326 C 
HETATM    5  O1  UNL     1     -14.226 -10.217 -60.173  1.00  0.00    -0.247 OA
HETATM    6  N2  UNL     1     -16.376 -10.063 -59.142  1.00  0.00    -0.264 N 
HETATM    7  C17 UNL     1     -16.713  -9.893 -57.739  1.00  0.00     0.251 C 
HETATM    8  O2  UNL     1     -17.770  -9.357 -57.354  1.00  0.00    -0.271 OA
ENDROOT
BRANCH   6   9
HETATM    9  C6  UNL     1     -17.290 -10.176 -60.222  1.00  0.00     0.175 C 
BRANCH   9  10
HETATM   10  C7  UNL     1     -17.320  -9.017 -61.146  1.00  0.00    -0.040 A 
HETATM   11  C8  UNL     1     -17.018  -7.742 -60.725  1.00  0.00     0.009 A 
HETATM   12  C9  UNL     1     -17.044  -6.649 -61.584  1.00  0.00     0.008 A 
HETATM   13  C10 UNL     1     -17.376  -6.793 -62.911  1.00  0.00    -0.051 A 
HETATM   14  C15 UNL     1     -17.681  -8.076 -63.337  1.00  0.00     0.008 A 
HETATM   15  C16 UNL     1     -17.657  -9.162 -62.490  1.00  0.00     0.009 A 
BRANCH  13  16
HETATM   16  C11 UNL     1     -17.413  -5.635 -63.862  1.00  0.00    -0.024 C 
HETATM   17  C12 UNL     1     -16.026  -5.091 -64.120  1.00  0.00     0.019 C 
HETATM   18  C13 UNL     1     -18.211  -4.478 -63.243  1.00  0.00     0.019 C 
HETATM   19  C14 UNL     1     -18.055  -5.941 -65.170  1.00  0.00     0.019 C 
ENDBRANCH  13  16
ENDBRANCH   9  10
ENDBRANCH   6   9
BRANCH   1  20
HETATM   20  C2  UNL     1     -15.505 -10.177 -55.546  1.00  0.00     0.009 C 
HETATM   21  C1  UNL     1     -14.821 -11.369 -54.858  1.00  0.00     0.012 C 
HETATM   22  C3  UNL     1     -14.487  -9.038 -55.373  1.00  0.00     0.012 C 
ENDBRANCH   1  20
TORSDOF 4
ENDMDL
