MODEL 1
REMARK VINA RESULT: -7.170122597      0.000      0.000
REMARK  2 active torsions:
REMARK  status: ('A' for Active; 'I' for Inactive)
REMARK    1  A    between atoms: C2_2  and  C5_5 
REMARK    2  A    between atoms: C9_9  and  C10_10 
ROOT
HETATM    1  C5  UNL     1      -8.105  10.187  11.143  1.00  0.00    -0.050 A 
HETATM    2  C6  UNL     1      -8.460  10.859  10.016  1.00  0.00     0.008 A 
HETATM    3  C7  UNL     1      -9.672  10.709   9.358  1.00  0.00     0.001 A 
HETATM    4  C8  UNL     1     -10.589   9.801   9.899  1.00  0.00     0.008 A 
HETATM    5  C9  UNL     1     -10.261   9.104  11.040  1.00  0.00    -0.041 A 
HETATM    6  C15 UNL     1      -9.040   9.290  11.655  1.00  0.00     0.016 A 
ENDROOT
BRANCH   5   7
HETATM    7  C10 UNL     1     -11.262   8.155  11.591  1.00  0.00     0.134 A 
HETATM    8  C11 UNL     1     -12.470   8.946  11.960  1.00  0.00    -0.007 A 
HETATM    9  C12 UNL     1     -13.661   8.676  11.498  1.00  0.00     0.014 A 
HETATM   10  C13 UNL     1     -13.883   7.583  10.590  1.00  0.00     0.090 A 
HETATM   11  N1  UNL     1     -12.887   6.851  10.221  1.00  0.00    -0.336 N 
HETATM   12  C14 UNL     1     -11.561   7.065  10.664  1.00  0.00     0.233 A 
ATOM     13  H1  UNL     1     -13.065   6.080   9.576  1.00  0.00     0.168 HD
HETATM   14  O1  UNL     1     -10.645   6.323  10.265  1.00  0.00    -0.272 OA
ENDBRANCH   5   7
BRANCH   1  15
HETATM   15  C2  UNL     1      -6.840  10.311  11.881  1.00  0.00    -0.024 C 
HETATM   16  C1  UNL     1      -6.154  11.601  11.435  1.00  0.00     0.019 C 
HETATM   17  C3  UNL     1      -7.100  10.439  13.365  1.00  0.00     0.019 C 
HETATM   18  C4  UNL     1      -5.874   9.188  11.675  1.00  0.00     0.019 C 
ENDBRANCH   1  15
TORSDOF 2
ENDMDL
