MODEL 13
REMARK VINA RESULT: -6.595040092      2.797      5.775
REMARK  2 active torsions:
REMARK  status: ('A' for Active; 'I' for Inactive)
REMARK    1  A    between atoms: C2_2  and  C5_5 
REMARK    2  A    between atoms: C9_9  and  C10_10 
ROOT
HETATM    1  C5  UNL     1     -11.244   8.995  10.821  1.00  0.00    -0.050 A 
HETATM    2  C6  UNL     1     -10.957   8.390   9.638  1.00  0.00     0.008 A 
HETATM    3  C7  UNL     1      -9.695   8.350   9.060  1.00  0.00     0.001 A 
HETATM    4  C8  UNL     1      -8.652   8.975   9.751  1.00  0.00     0.008 A 
HETATM    5  C9  UNL     1      -8.909   9.596  10.952  1.00  0.00    -0.041 A 
HETATM    6  C15 UNL     1     -10.183   9.608  11.483  1.00  0.00     0.016 A 
ENDROOT
BRANCH   5   7
HETATM    7  C10 UNL     1      -7.775  10.242  11.662  1.00  0.00     0.134 A 
HETATM    8  C11 UNL     1      -6.974   9.160  12.300  1.00  0.00    -0.007 A 
HETATM    9  C12 UNL     1      -5.696   9.003  12.083  1.00  0.00     0.014 A 
HETATM   10  C13 UNL     1      -4.973   9.879  11.200  1.00  0.00     0.090 A 
HETATM   11  N1  UNL     1      -5.596  10.839  10.608  1.00  0.00    -0.336 N 
HETATM   12  C14 UNL     1      -6.978  11.088  10.777  1.00  0.00     0.233 A 
ATOM     13  H1  UNL     1      -5.065  11.450   9.986  1.00  0.00     0.168 HD
HETATM   14  O1  UNL     1      -7.519  12.032  10.171  1.00  0.00    -0.272 OA
ENDBRANCH   5   7
BRANCH   1  15
HETATM   15  C2  UNL     1     -12.557   9.063  11.479  1.00  0.00    -0.024 C 
HETATM   16  C1  UNL     1     -12.379   8.647  12.938  1.00  0.00     0.019 C 
HETATM   17  C3  UNL     1     -13.077  10.483  11.485  1.00  0.00     0.019 C 
HETATM   18  C4  UNL     1     -13.611   8.187  10.882  1.00  0.00     0.019 C 
ENDBRANCH   1  15
TORSDOF 2
ENDMDL
