MODEL 3
REMARK VINA RESULT: -7.132633012      0.124      1.031
REMARK  2 active torsions:
REMARK  status: ('A' for Active; 'I' for Inactive)
REMARK    1  A    between atoms: C2_2  and  C5_5 
REMARK    2  A    between atoms: C9_9  and  C10_10 
ROOT
HETATM    1  C5  UNL     1      -8.137  10.235  11.066  1.00  0.00    -0.050 A 
HETATM    2  C6  UNL     1      -8.556  10.919   9.968  1.00  0.00     0.008 A 
HETATM    3  C7  UNL     1      -9.783  10.735   9.347  1.00  0.00     0.001 A 
HETATM    4  C8  UNL     1     -10.645   9.778   9.895  1.00  0.00     0.008 A 
HETATM    5  C9  UNL     1     -10.251   9.068  11.007  1.00  0.00    -0.041 A 
HETATM    6  C15 UNL     1      -9.019   9.290  11.586  1.00  0.00     0.016 A 
ENDROOT
BRANCH   5   7
HETATM    7  C10 UNL     1     -11.194   8.067  11.566  1.00  0.00     0.134 A 
HETATM    8  C11 UNL     1     -12.399   8.806  12.041  1.00  0.00    -0.007 A 
HETATM    9  C12 UNL     1     -13.608   8.525  11.634  1.00  0.00     0.014 A 
HETATM   10  C13 UNL     1     -13.854   7.470  10.688  1.00  0.00     0.090 A 
HETATM   11  N1  UNL     1     -12.863   6.785  10.228  1.00  0.00    -0.336 N 
HETATM   12  C14 UNL     1     -11.519   7.015  10.606  1.00  0.00     0.233 A 
ATOM     13  H1  UNL     1     -13.058   6.041   9.558  1.00  0.00     0.168 HD
HETATM   14  O1  UNL     1     -10.609   6.318  10.120  1.00  0.00    -0.272 OA
ENDBRANCH   5   7
BRANCH   1  15
HETATM   15  C2  UNL     1      -6.855  10.393  11.766  1.00  0.00    -0.024 C 
HETATM   16  C1  UNL     1      -7.137  10.454  13.267  1.00  0.00     0.019 C 
HETATM   17  C3  UNL     1      -5.968   9.191  11.531  1.00  0.00     0.019 C 
HETATM   18  C4  UNL     1      -6.080  11.619  11.400  1.00  0.00     0.019 C 
ENDBRANCH   1  15
TORSDOF 2
ENDMDL
