MODEL 8
REMARK VINA RESULT: -6.825429550      1.440      1.943
REMARK  2 active torsions:
REMARK  status: ('A' for Active; 'I' for Inactive)
REMARK    1  A    between atoms: C2_2  and  C5_5 
REMARK    2  A    between atoms: C9_9  and  C10_10 
ROOT
HETATM    1  C5  UNL     1      -7.682   9.710   9.398  1.00  0.00    -0.050 A 
HETATM    2  C6  UNL     1      -8.201   9.767   8.143  1.00  0.00     0.008 A 
HETATM    3  C7  UNL     1      -9.475   9.337   7.797  1.00  0.00     0.001 A 
HETATM    4  C8  UNL     1     -10.274   8.810   8.817  1.00  0.00     0.008 A 
HETATM    5  C9  UNL     1      -9.778   8.738  10.099  1.00  0.00    -0.041 A 
HETATM    6  C15 UNL     1      -8.504   9.179  10.390  1.00  0.00     0.016 A 
ENDROOT
BRANCH   5   7
HETATM    7  C10 UNL     1     -10.659   8.180  11.158  1.00  0.00     0.134 A 
HETATM    8  C11 UNL     1     -11.606   9.257  11.563  1.00  0.00    -0.007 A 
HETATM    9  C12 UNL     1     -12.903   9.107  11.533  1.00  0.00     0.014 A 
HETATM   10  C13 UNL     1     -13.505   7.874  11.101  1.00  0.00     0.090 A 
HETATM   11  N1  UNL     1     -12.752   6.894  10.733  1.00  0.00    -0.336 N 
HETATM   12  C14 UNL     1     -11.339   6.961  10.728  1.00  0.00     0.233 A 
ATOM     13  H1  UNL     1     -13.198   6.028  10.430  1.00  0.00     0.168 HD
HETATM   14  O1  UNL     1     -10.671   5.978  10.356  1.00  0.00    -0.272 OA
ENDBRANCH   5   7
BRANCH   1  15
HETATM   15  C2  UNL     1      -6.346  10.155   9.820  1.00  0.00    -0.024 C 
HETATM   16  C1  UNL     1      -5.935   9.332  11.039  1.00  0.00     0.019 C 
HETATM   17  C3  UNL     1      -5.327   9.883   8.737  1.00  0.00     0.019 C 
HETATM   18  C4  UNL     1      -6.250  11.600  10.194  1.00  0.00     0.019 C 
ENDBRANCH   1  15
TORSDOF 2
ENDMDL
