MODEL 2
REMARK VINA RESULT: -7.165489788      0.062      1.020
REMARK  2 active torsions:
REMARK  status: ('A' for Active; 'I' for Inactive)
REMARK    1  A    between atoms: C2_2  and  C5_5 
REMARK    2  A    between atoms: C9_9  and  C10_10 
ROOT
HETATM    1  C5  UNL     1      -8.138  10.219  11.149  1.00  0.00    -0.050 A 
HETATM    2  C6  UNL     1      -8.488  10.862  10.003  1.00  0.00     0.008 A 
HETATM    3  C7  UNL     1      -9.682  10.667   9.324  1.00  0.00     0.001 A 
HETATM    4  C8  UNL     1     -10.585   9.744   9.863  1.00  0.00     0.008 A 
HETATM    5  C9  UNL     1     -10.262   9.076  11.023  1.00  0.00    -0.041 A 
HETATM    6  C15 UNL     1      -9.060   9.306  11.659  1.00  0.00     0.016 A 
ENDROOT
BRANCH   5   7
HETATM    7  C10 UNL     1     -11.248   8.110  11.570  1.00  0.00     0.134 A 
HETATM    8  C11 UNL     1     -12.455   8.885  11.973  1.00  0.00    -0.007 A 
HETATM    9  C12 UNL     1     -13.652   8.616  11.524  1.00  0.00     0.014 A 
HETATM   10  C13 UNL     1     -13.881   7.539  10.599  1.00  0.00     0.090 A 
HETATM   11  N1  UNL     1     -12.886   6.822  10.200  1.00  0.00    -0.336 N 
HETATM   12  C14 UNL     1     -11.554   7.036  10.628  1.00  0.00     0.233 A 
ATOM     13  H1  UNL     1     -13.069   6.062   9.544  1.00  0.00     0.168 HD
HETATM   14  O1  UNL     1     -10.640   6.309  10.200  1.00  0.00    -0.272 OA
ENDBRANCH   5   7
BRANCH   1  15
HETATM   15  C2  UNL     1      -6.893  10.390  11.911  1.00  0.00    -0.024 C 
HETATM   16  C1  UNL     1      -5.978   9.208  11.597  1.00  0.00     0.019 C 
HETATM   17  C3  UNL     1      -6.167  11.641  11.470  1.00  0.00     0.019 C 
HETATM   18  C4  UNL     1      -7.063  10.452  13.395  1.00  0.00     0.019 C 
ENDBRANCH   1  15
TORSDOF 2
ENDMDL
