MODEL 10
REMARK VINA RESULT: -6.702152966      2.983      5.615
REMARK  2 active torsions:
REMARK  status: ('A' for Active; 'I' for Inactive)
REMARK    1  A    between atoms: C2_2  and  C5_5 
REMARK    2  A    between atoms: C9_9  and  C10_10 
ROOT
HETATM    1  C5  UNL     1     -10.087   8.470   9.318  1.00  0.00    -0.050 A 
HETATM    2  C6  UNL     1      -9.999   8.372   7.965  1.00  0.00     0.008 A 
HETATM    3  C7  UNL     1      -8.984   8.929   7.199  1.00  0.00     0.001 A 
HETATM    4  C8  UNL     1      -7.984   9.637   7.874  1.00  0.00     0.008 A 
HETATM    5  C9  UNL     1      -8.043   9.754   9.245  1.00  0.00    -0.041 A 
HETATM    6  C15 UNL     1      -9.075   9.182   9.959  1.00  0.00     0.016 A 
ENDROOT
BRANCH   5   7
HETATM    7  C10 UNL     1      -6.960  10.506   9.928  1.00  0.00     0.134 A 
HETATM    8  C11 UNL     1      -7.440  10.829  11.302  1.00  0.00    -0.007 A 
HETATM    9  C12 UNL     1      -6.782  10.491  12.379  1.00  0.00     0.014 A 
HETATM   10  C13 UNL     1      -5.537   9.775  12.303  1.00  0.00     0.090 A 
HETATM   11  N1  UNL     1      -5.056   9.458  11.150  1.00  0.00    -0.336 N 
HETATM   12  C14 UNL     1      -5.694   9.777   9.928  1.00  0.00     0.233 A 
ATOM     13  H1  UNL     1      -4.171   8.951  11.117  1.00  0.00     0.168 HD
HETATM   14  O1  UNL     1      -5.176   9.436   8.849  1.00  0.00    -0.272 OA
ENDBRANCH   5   7
BRANCH   1  15
HETATM   15  C2  UNL     1     -11.133   7.897  10.177  1.00  0.00    -0.024 C 
HETATM   16  C1  UNL     1     -11.116   8.644  11.509  1.00  0.00     0.019 C 
HETATM   17  C3  UNL     1     -12.500   8.112   9.567  1.00  0.00     0.019 C 
HETATM   18  C4  UNL     1     -10.981   6.439  10.472  1.00  0.00     0.019 C 
ENDBRANCH   1  15
TORSDOF 2
ENDMDL
