MODEL 7
REMARK VINA RESULT: -6.862161206      1.089      1.119
REMARK  2 active torsions:
REMARK  status: ('A' for Active; 'I' for Inactive)
REMARK    1  A    between atoms: C2_2  and  C5_5 
REMARK    2  A    between atoms: C9_9  and  C10_10 
ROOT
HETATM    1  C5  UNL     1      -7.896   9.781  11.098  1.00  0.00    -0.050 A 
HETATM    2  C6  UNL     1      -7.851   9.601   9.751  1.00  0.00     0.008 A 
HETATM    3  C7  UNL     1      -8.946   9.275   8.963  1.00  0.00     0.001 A 
HETATM    4  C8  UNL     1     -10.179   9.123   9.607  1.00  0.00     0.008 A 
HETATM    5  C9  UNL     1     -10.259   9.298  10.969  1.00  0.00    -0.041 A 
HETATM    6  C15 UNL     1      -9.139   9.622  11.707  1.00  0.00     0.016 A 
ENDROOT
BRANCH   5   7
HETATM    7  C10 UNL     1     -11.586   9.138  11.617  1.00  0.00     0.134 A 
HETATM    8  C11 UNL     1     -12.378  10.365  11.320  1.00  0.00    -0.007 A 
HETATM    9  C12 UNL     1     -13.553  10.328  10.749  1.00  0.00     0.014 A 
HETATM   10  C13 UNL     1     -14.161   9.083  10.366  1.00  0.00     0.090 A 
HETATM   11  N1  UNL     1     -13.538   7.976  10.588  1.00  0.00    -0.336 N 
HETATM   12  C14 UNL     1     -12.263   7.913  11.198  1.00  0.00     0.233 A 
ATOM     13  H1  UNL     1     -13.986   7.103  10.309  1.00  0.00     0.168 HD
HETATM   14  O1  UNL     1     -11.714   6.810  11.379  1.00  0.00    -0.272 OA
ENDBRANCH   5   7
BRANCH   1  15
HETATM   15  C2  UNL     1      -6.773  10.132  11.979  1.00  0.00    -0.024 C 
HETATM   16  C1  UNL     1      -6.284  11.527  11.592  1.00  0.00     0.019 C 
HETATM   17  C3  UNL     1      -7.227  10.206  13.419  1.00  0.00     0.019 C 
HETATM   18  C4  UNL     1      -5.602   9.205  11.910  1.00  0.00     0.019 C 
ENDBRANCH   1  15
TORSDOF 2
ENDMDL
