MODEL 12
REMARK VINA RESULT: -6.625861526      2.956      5.646
REMARK  2 active torsions:
REMARK  status: ('A' for Active; 'I' for Inactive)
REMARK    1  A    between atoms: C2_2  and  C5_5 
REMARK    2  A    between atoms: C9_9  and  C10_10 
ROOT
HETATM    1  C5  UNL     1      -8.824   9.283   8.862  1.00  0.00    -0.050 A 
HETATM    2  C6  UNL     1      -8.234   9.213   7.639  1.00  0.00     0.008 A 
HETATM    3  C7  UNL     1      -6.897   9.491   7.393  1.00  0.00     0.001 A 
HETATM    4  C8  UNL     1      -6.106   9.867   8.484  1.00  0.00     0.008 A 
HETATM    5  C9  UNL     1      -6.673   9.948   9.736  1.00  0.00    -0.041 A 
HETATM    6  C15 UNL     1      -8.008   9.662   9.927  1.00  0.00     0.016 A 
ENDROOT
BRANCH   5   7
HETATM    7  C10 UNL     1      -5.801  10.342  10.873  1.00  0.00     0.134 A 
HETATM    8  C11 UNL     1      -6.288  11.660  11.371  1.00  0.00    -0.007 A 
HETATM    9  C12 UNL     1      -6.632  11.863  12.615  1.00  0.00     0.014 A 
HETATM   10  C13 UNL     1      -6.561  10.811  13.593  1.00  0.00     0.090 A 
HETATM   11  N1  UNL     1      -6.151   9.641  13.240  1.00  0.00    -0.336 N 
HETATM   12  C14 UNL     1      -5.759   9.322  11.919  1.00  0.00     0.233 A 
ATOM     13  H1  UNL     1      -6.107   8.909  13.949  1.00  0.00     0.168 HD
HETATM   14  O1  UNL     1      -5.377   8.170  11.644  1.00  0.00    -0.272 OA
ENDBRANCH   5   7
BRANCH   1  15
HETATM   15  C2  UNL     1     -10.229   8.996   9.180  1.00  0.00    -0.024 C 
HETATM   16  C1  UNL     1     -10.345   7.511   9.522  1.00  0.00     0.019 C 
HETATM   17  C3  UNL     1     -10.667   9.767  10.405  1.00  0.00     0.019 C 
HETATM   18  C4  UNL     1     -11.199   9.286   8.080  1.00  0.00     0.019 C 
ENDBRANCH   1  15
TORSDOF 2
ENDMDL
