MODEL 8
REMARK VINA RESULT: -5.397601828      2.405      4.320
REMARK  4 active torsions:
REMARK  status: ('A' for Active; 'I' for Inactive)
REMARK    1  A    between atoms: O1_1  and  C1_3 
REMARK    2  A    between atoms: C1_3  and  C2_4 
REMARK    3  A    between atoms: C5_10  and  O2_11 
REMARK    4  A    between atoms: C6_13  and  O3_14 
ROOT
HETATM    1  C2  UNL     1      20.073 -19.245  23.616  1.00  0.00     0.066 C 
HETATM    2  C3  UNL     1      19.296 -18.039  24.002  1.00  0.00     0.241 C 
HETATM    3  N1  UNL     1      18.775 -17.281  22.898  1.00  0.00    -0.072 N 
ATOM      4  H11 UNL     1      19.513 -16.724  22.469  1.00  0.00     0.277 HD
ATOM      5  H12 UNL     1      18.165 -16.536  23.234  1.00  0.00     0.277 HD
HETATM    6  C4  UNL     1      18.104 -18.063  21.908  1.00  0.00     0.266 C 
HETATM    7  C5  UNL     1      18.835 -19.275  21.454  1.00  0.00     0.172 C 
HETATM    8  C6  UNL     1      20.170 -19.462  22.133  1.00  0.00     0.156 C 
ENDROOT
BRANCH   1   9
HETATM    9  C1  UNL     1      21.507 -19.187  24.160  1.00  0.00     0.173 C 
BRANCH   9  10
HETATM   10  O1  UNL     1      21.946 -20.504  24.318  1.00  0.00    -0.400 OA
ATOM     11  H1  UNL     1      22.796 -20.470  24.740  1.00  0.00     0.209 HD
ENDBRANCH   9  10
ENDBRANCH   1   9
BRANCH   8  12
HETATM   12  O3  UNL     1      20.543 -20.798  21.931  1.00  0.00    -0.392 OA
ATOM     13  H3  UNL     1      21.398 -20.915  22.326  1.00  0.00     0.210 HD
ENDBRANCH   8  12
BRANCH   7  14
HETATM   14  O2  UNL     1      19.035 -19.336  20.078  1.00  0.00    -0.391 OA
ATOM     15  H2  UNL     1      18.821 -18.531  19.620  1.00  0.00     0.210 HD
ENDBRANCH   7  14
TORSDOF 4
ENDMDL
