MODEL 16
REMARK VINA RESULT: -4.909748250      3.370      4.387
REMARK  4 active torsions:
REMARK  status: ('A' for Active; 'I' for Inactive)
REMARK    1  A    between atoms: O1_1  and  C1_3 
REMARK    2  A    between atoms: C1_3  and  C2_4 
REMARK    3  A    between atoms: C5_10  and  O2_11 
REMARK    4  A    between atoms: C6_13  and  O3_14 
ROOT
HETATM    1  C2  UNL     1      18.669 -19.421  21.856  1.00  0.00     0.066 C 
HETATM    2  C3  UNL     1      17.788 -19.219  20.677  1.00  0.00     0.241 C 
HETATM    3  N1  UNL     1      18.367 -19.605  19.420  1.00  0.00    -0.072 N 
ATOM      4  H11 UNL     1      19.030 -18.898  19.102  1.00  0.00     0.277 HD
ATOM      5  H12 UNL     1      17.674 -19.542  18.674  1.00  0.00     0.277 HD
HETATM    6  C4  UNL     1      18.979 -20.895  19.422  1.00  0.00     0.266 C 
HETATM    7  C5  UNL     1      19.896 -21.160  20.561  1.00  0.00     0.172 C 
HETATM    8  C6  UNL     1      20.014 -20.003  21.522  1.00  0.00     0.156 C 
ENDROOT
BRANCH   1   9
HETATM    9  C1  UNL     1      18.918 -18.105  22.604  1.00  0.00     0.173 C 
BRANCH   9  10
HETATM   10  O1  UNL     1      18.715 -17.064  21.695  1.00  0.00    -0.400 OA
ATOM     11  H1  UNL     1      17.785 -16.871  21.687  1.00  0.00     0.209 HD
ENDBRANCH   9  10
ENDBRANCH   1   9
BRANCH   8  12
HETATM   12  O3  UNL     1      20.552 -20.516  22.710  1.00  0.00    -0.392 OA
ATOM     13  H3  UNL     1      21.414 -20.857  22.505  1.00  0.00     0.210 HD
ENDBRANCH   8  12
BRANCH   7  14
HETATM   14  O2  UNL     1      21.180 -21.541  20.180  1.00  0.00    -0.391 OA
ATOM     15  H2  UNL     1      21.717 -21.861  20.896  1.00  0.00     0.210 HD
ENDBRANCH   7  14
TORSDOF 4
ENDMDL
