MODEL 14
REMARK VINA RESULT: -4.931073157      3.932      5.427
REMARK  4 active torsions:
REMARK  status: ('A' for Active; 'I' for Inactive)
REMARK    1  A    between atoms: O1_1  and  C1_3 
REMARK    2  A    between atoms: C1_3  and  C2_4 
REMARK    3  A    between atoms: C5_10  and  O2_11 
REMARK    4  A    between atoms: C6_13  and  O3_14 
ROOT
HETATM    1  C2  UNL     1      19.429 -20.168  21.735  1.00  0.00     0.066 C 
HETATM    2  C3  UNL     1      18.330 -19.228  21.396  1.00  0.00     0.241 C 
HETATM    3  N1  UNL     1      18.218 -18.912  19.999  1.00  0.00    -0.072 N 
ATOM      4  H11 UNL     1      18.937 -18.241  19.728  1.00  0.00     0.277 HD
ATOM      5  H12 UNL     1      17.383 -18.352  19.826  1.00  0.00     0.277 HD
HETATM    6  C4  UNL     1      18.245 -20.046  19.131  1.00  0.00     0.266 C 
HETATM    7  C5  UNL     1      19.336 -21.021  19.396  1.00  0.00     0.172 C 
HETATM    8  C6  UNL     1      20.227 -20.629  20.549  1.00  0.00     0.156 C 
ENDROOT
BRANCH   1   9
HETATM    9  C1  UNL     1      20.415 -19.545  22.731  1.00  0.00     0.173 C 
BRANCH   9  10
HETATM   10  O1  UNL     1      20.967 -20.588  23.479  1.00  0.00    -0.400 OA
ATOM     11  H1  UNL     1      20.338 -20.818  24.152  1.00  0.00     0.209 HD
ENDBRANCH   9  10
ENDBRANCH   1   9
BRANCH   8  12
HETATM   12  O3  UNL     1      20.919 -21.785  20.936  1.00  0.00    -0.392 OA
ATOM     13  H3  UNL     1      20.701 -22.466  20.312  1.00  0.00     0.210 HD
ENDBRANCH   8  12
BRANCH   7  14
HETATM   14  O2  UNL     1      20.143 -21.283  18.293  1.00  0.00    -0.391 OA
ATOM     15  H2  UNL     1      20.856 -20.664  18.178  1.00  0.00     0.210 HD
ENDBRANCH   7  14
TORSDOF 4
ENDMDL
