MODEL 2
REMARK VINA RESULT: -5.992147296      1.155      1.528
REMARK  4 active torsions:
REMARK  status: ('A' for Active; 'I' for Inactive)
REMARK    1  A    between atoms: O1_1  and  C1_3 
REMARK    2  A    between atoms: C1_3  and  C2_4 
REMARK    3  A    between atoms: C5_10  and  O2_11 
REMARK    4  A    between atoms: C6_13  and  O3_14 
ROOT
HETATM    1  C2  UNL     1      19.353 -18.957  23.330  1.00  0.00     0.066 C 
HETATM    2  C3  UNL     1      20.608 -19.721  23.108  1.00  0.00     0.241 C 
HETATM    3  N1  UNL     1      21.768 -19.175  23.758  1.00  0.00    -0.072 N 
ATOM      4  H11 UNL     1      22.116 -18.366  23.242  1.00  0.00     0.277 HD
ATOM      5  H12 UNL     1      22.563 -19.804  23.654  1.00  0.00     0.277 HD
HETATM    6  C4  UNL     1      21.574 -18.841  25.133  1.00  0.00     0.266 C 
HETATM    7  C5  UNL     1      20.348 -18.053  25.427  1.00  0.00     0.172 C 
HETATM    8  C6  UNL     1      19.520 -17.746  24.203  1.00  0.00     0.156 C 
ENDROOT
BRANCH   1   9
HETATM    9  C1  UNL     1      18.745 -18.479  22.005  1.00  0.00     0.173 C 
BRANCH   9  10
HETATM   10  O1  UNL     1      18.861 -17.088  21.970  1.00  0.00    -0.400 OA
ATOM     11  H1  UNL     1      18.199 -16.733  22.551  1.00  0.00     0.209 HD
ENDBRANCH   9  10
ENDBRANCH   1   9
BRANCH   8  12
HETATM   12  O3  UNL     1      18.246 -17.382  24.658  1.00  0.00    -0.392 OA
ATOM     13  H3  UNL     1      17.739 -17.122  23.898  1.00  0.00     0.210 HD
ENDBRANCH   8  12
BRANCH   7  14
HETATM   14  O2  UNL     1      20.589 -16.858  26.099  1.00  0.00    -0.391 OA
ATOM     15  H2  UNL     1      20.754 -16.963  27.029  1.00  0.00     0.210 HD
ENDBRANCH   7  14
TORSDOF 4
ENDMDL
