MODEL 1
REMARK VINA RESULT: -6.114644291      0.000      0.000
REMARK  4 active torsions:
REMARK  status: ('A' for Active; 'I' for Inactive)
REMARK    1  A    between atoms: O1_1  and  C1_3 
REMARK    2  A    between atoms: C1_3  and  C2_4 
REMARK    3  A    between atoms: C5_10  and  O2_11 
REMARK    4  A    between atoms: C6_13  and  O3_14 
ROOT
HETATM    1  C2  UNL     1      19.320 -18.475  24.316  1.00  0.00     0.066 C 
HETATM    2  C3  UNL     1      19.682 -19.562  23.371  1.00  0.00     0.241 C 
HETATM    3  N1  UNL     1      21.091 -19.703  23.127  1.00  0.00    -0.072 N 
ATOM      4  H11 UNL     1      21.415 -18.977  22.487  1.00  0.00     0.277 HD
ATOM      5  H12 UNL     1      21.273 -20.530  22.559  1.00  0.00     0.277 HD
HETATM    6  C4  UNL     1      21.897 -19.722  24.306  1.00  0.00     0.266 C 
HETATM    7  C5  UNL     1      21.607 -18.646  25.289  1.00  0.00     0.172 C 
HETATM    8  C6  UNL     1      20.499 -17.717  24.858  1.00  0.00     0.156 C 
ENDROOT
BRANCH   1   9
HETATM    9  C1  UNL     1      18.383 -17.451  23.664  1.00  0.00     0.173 C 
BRANCH   9  10
HETATM   10  O1  UNL     1      18.912 -17.143  22.408  1.00  0.00    -0.400 OA
ATOM     11  H1  UNL     1      18.204 -16.793  21.880  1.00  0.00     0.209 HD
ENDBRANCH   9  10
ENDBRANCH   1   9
BRANCH   8  12
HETATM   12  O3  UNL     1      20.067 -17.041  26.007  1.00  0.00    -0.392 OA
ATOM     13  H3  UNL     1      20.768 -16.458  26.270  1.00  0.00     0.210 HD
ENDBRANCH   8  12
BRANCH   7  14
HETATM   14  O2  UNL     1      22.714 -17.873  25.628  1.00  0.00    -0.391 OA
ATOM     15  H2  UNL     1      22.496 -17.018  25.982  1.00  0.00     0.210 HD
ENDBRANCH   7  14
TORSDOF 4
ENDMDL
