MODEL 7
REMARK VINA RESULT: -5.592262458      1.191      1.575
REMARK  5 active torsions:
REMARK  status: ('A' for Active; 'I' for Inactive)
REMARK    1  A    between atoms: O1_1  and  C1_3 
REMARK    2  A    between atoms: C1_3  and  C2_4 
REMARK    3  A    between atoms: C4_8  and  O2_9 
REMARK    4  A    between atoms: C5_11  and  O3_12 
REMARK    5  A    between atoms: C6_14  and  O4_15 
ROOT
HETATM    1  C2  UNL     1     -19.030 -18.458 -23.774  1.00  0.00     0.131 C 
HETATM    2  N1  UNL     1     -19.568 -19.299 -22.746  1.00  0.00    -0.410 N 
ATOM      3  H1  UNL     1     -19.247 -19.257 -21.778  1.00  0.00     0.153 HD
HETATM    4  C3  UNL     1     -20.584 -20.200 -23.177  1.00  0.00     0.148 C 
HETATM    5  C4  UNL     1     -21.684 -19.449 -23.931  1.00  0.00     0.166 C 
HETATM    6  C5  UNL     1     -20.975 -18.863 -25.161  1.00  0.00     0.179 C 
HETATM    7  C6  UNL     1     -20.081 -17.774 -24.602  1.00  0.00     0.173 C 
ENDROOT
BRANCH   1   8
HETATM    8  C1  UNL     1     -18.035 -17.506 -23.173  1.00  0.00     0.191 C 
BRANCH   8   9
HETATM    9  O1  UNL     1     -18.570 -17.049 -21.965  1.00  0.00    -0.399 OA
ATOM     10  H1  UNL     1     -18.806 -16.137 -22.085  1.00  0.00     0.209 HD
ENDBRANCH   8   9
ENDBRANCH   1   8
BRANCH   7  11
HETATM   11  O4  UNL     1     -19.465 -17.024 -25.582  1.00  0.00    -0.391 OA
ATOM     12  H4  UNL     1     -18.570 -17.326 -25.685  1.00  0.00     0.210 HD
ENDBRANCH   7  11
BRANCH   6  13
HETATM   13  O3  UNL     1     -21.854 -18.414 -26.107  1.00  0.00    -0.390 OA
ATOM     14  H3  UNL     1     -22.298 -19.124 -26.556  1.00  0.00     0.210 HD
ENDBRANCH   6  13
BRANCH   5  15
HETATM   15  O2  UNL     1     -22.732 -20.263 -24.273  1.00  0.00    -0.391 OA
ATOM     16  H2  UNL     1     -22.875 -20.954 -23.637  1.00  0.00     0.210 HD
ENDBRANCH   5  15
TORSDOF 5
ENDMDL
