MODEL 1
REMARK VINA RESULT: -6.004342221      0.000      0.000
REMARK  5 active torsions:
REMARK  status: ('A' for Active; 'I' for Inactive)
REMARK    1  A    between atoms: O1_1  and  C1_3 
REMARK    2  A    between atoms: C1_3  and  C2_4 
REMARK    3  A    between atoms: C4_8  and  O2_9 
REMARK    4  A    between atoms: C5_11  and  O3_12 
REMARK    5  A    between atoms: C6_14  and  O4_15 
ROOT
HETATM    1  C2  UNL     1     -19.452 -18.876 -22.993  1.00  0.00     0.131 C 
HETATM    2  N1  UNL     1     -20.720 -19.508 -22.778  1.00  0.00    -0.410 N 
ATOM      3  H1  UNL     1     -21.032 -19.811 -21.854  1.00  0.00     0.153 HD
HETATM    4  C3  UNL     1     -21.513 -19.681 -23.948  1.00  0.00     0.148 C 
HETATM    5  C4  UNL     1     -21.658 -18.355 -24.700  1.00  0.00     0.166 C 
HETATM    6  C5  UNL     1     -20.225 -17.988 -25.111  1.00  0.00     0.179 C 
HETATM    7  C6  UNL     1     -19.538 -17.618 -23.811  1.00  0.00     0.173 C 
ENDROOT
BRANCH   1   8
HETATM    8  C1  UNL     1     -18.758 -18.681 -21.675  1.00  0.00     0.191 C 
BRANCH   8   9
HETATM    9  O1  UNL     1     -18.943 -17.347 -21.298  1.00  0.00    -0.399 OA
ATOM     10  H1  UNL     1     -18.297 -16.829 -21.762  1.00  0.00     0.209 HD
ENDBRANCH   8   9
ENDBRANCH   1   8
BRANCH   7  11
HETATM   11  O4  UNL     1     -18.269 -17.113 -23.994  1.00  0.00    -0.391 OA
ATOM     12  H4  UNL     1     -18.052 -17.147 -24.918  1.00  0.00     0.210 HD
ENDBRANCH   7  11
BRANCH   6  13
HETATM   13  O3  UNL     1     -20.188 -16.993 -26.049  1.00  0.00    -0.390 OA
ATOM     14  H3  UNL     1     -19.614 -16.279 -25.798  1.00  0.00     0.210 HD
ENDBRANCH   6  13
BRANCH   5  15
HETATM   15  O2  UNL     1     -22.499 -18.455 -25.777  1.00  0.00    -0.391 OA
ATOM     16  H2  UNL     1     -23.412 -18.362 -25.532  1.00  0.00     0.210 HD
ENDBRANCH   5  15
TORSDOF 5
ENDMDL
