MODEL 17
REMARK VINA RESULT: -5.241111404      2.244      3.653
REMARK  5 active torsions:
REMARK  status: ('A' for Active; 'I' for Inactive)
REMARK    1  A    between atoms: O1_1  and  C1_3 
REMARK    2  A    between atoms: C1_3  and  C2_4 
REMARK    3  A    between atoms: C4_8  and  O2_9 
REMARK    4  A    between atoms: C5_11  and  O3_12 
REMARK    5  A    between atoms: C6_14  and  O4_15 
ROOT
HETATM    1  C2  UNL     1     -19.475 -20.400 -21.166  1.00  0.00     0.131 C 
HETATM    2  N1  UNL     1     -20.217 -20.471 -22.390  1.00  0.00    -0.410 N 
ATOM      3  H1  UNL     1     -21.004 -21.109 -22.518  1.00  0.00     0.153 HD
HETATM    4  C3  UNL     1     -19.775 -19.585 -23.414  1.00  0.00     0.148 C 
HETATM    5  C4  UNL     1     -19.687 -18.152 -22.884  1.00  0.00     0.166 C 
HETATM    6  C5  UNL     1     -18.623 -18.216 -21.778  1.00  0.00     0.179 C 
HETATM    7  C6  UNL     1     -19.283 -18.998 -20.660  1.00  0.00     0.173 C 
ENDROOT
BRANCH   1   8
HETATM    8  C1  UNL     1     -20.094 -21.319 -20.150  1.00  0.00     0.191 C 
BRANCH   8   9
HETATM    9  O1  UNL     1     -20.841 -22.272 -20.849  1.00  0.00    -0.399 OA
ATOM     10  H1  UNL     1     -21.310 -22.791 -20.207  1.00  0.00     0.209 HD
ENDBRANCH   8   9
ENDBRANCH   1   8
BRANCH   7  11
HETATM   11  O4  UNL     1     -18.528 -19.036 -19.507  1.00  0.00    -0.391 OA
ATOM     12  H4  UNL     1     -18.323 -18.147 -19.242  1.00  0.00     0.210 HD
ENDBRANCH   7  11
BRANCH   6  13
HETATM   13  O3  UNL     1     -18.192 -16.976 -21.395  1.00  0.00    -0.390 OA
ATOM     14  H3  UNL     1     -18.630 -16.666 -20.611  1.00  0.00     0.210 HD
ENDBRANCH   6  13
BRANCH   5  15
HETATM   15  O2  UNL     1     -19.364 -17.252 -23.865  1.00  0.00    -0.391 OA
ATOM     16  H2  UNL     1     -18.961 -16.465 -23.515  1.00  0.00     0.210 HD
ENDBRANCH   5  15
TORSDOF 5
ENDMDL
