MODEL 3
REMARK VINA RESULT: -5.993548048      2.777      4.892
REMARK  4 active torsions:
REMARK  status: ('A' for Active; 'I' for Inactive)
REMARK    1  A    between atoms: O1_1  and  C1_3 
REMARK    2  A    between atoms: C5_7  and  O2_8 
REMARK    3  A    between atoms: C6_13  and  O3_14 
REMARK    4  A    between atoms: C7_16  and  O4_17 
ROOT
HETATM    1  C1  UNL     1      19.593 -19.380  22.629  1.00  0.00     0.180 C 
HETATM    2  C2  UNL     1      19.677 -20.135  21.331  1.00  0.00     0.221 C 
HETATM    3  C3  UNL     1      18.358 -20.780  20.991  1.00  0.00     0.041 C 
HETATM    4  C4  UNL     1      17.643 -19.758  20.138  1.00  0.00     0.073 C 
HETATM    5  C5  UNL     1      18.568 -18.577  20.146  1.00  0.00     0.253 C 
HETATM    6  N1  UNL     1      19.872 -19.201  20.244  1.00  0.00    -0.034 N 
ATOM      7  H11 UNL     1      20.220 -19.613  19.378  1.00  0.00     0.281 HD
ATOM      8  H12 UNL     1      20.652 -18.555  20.364  1.00  0.00     0.281 HD
HETATM    9  C6  UNL     1      18.394 -17.690  21.351  1.00  0.00     0.212 C 
HETATM   10  C7  UNL     1      18.344 -18.519  22.605  1.00  0.00     0.182 C 
ENDROOT
BRANCH   1  11
HETATM   11  O1  UNL     1      19.498 -20.237  23.714  1.00  0.00    -0.391 OA
ATOM     12  H1  UNL     1      18.595 -20.365  23.982  1.00  0.00     0.210 HD
ENDBRANCH   1  11
BRANCH  10  13
HETATM   13  O4  UNL     1      18.352 -17.666  23.720  1.00  0.00    -0.390 OA
ATOM     14  H4  UNL     1      17.891 -18.087  24.437  1.00  0.00     0.210 HD
ENDBRANCH  10  13
BRANCH   9  15
HETATM   15  O3  UNL     1      17.303 -16.865  21.187  1.00  0.00    -0.388 OA
ATOM     16  H3  UNL     1      16.740 -16.905  21.951  1.00  0.00     0.210 HD
ENDBRANCH   9  15
BRANCH   5  17
HETATM   17  O2  UNL     1      18.536 -17.844  18.978  1.00  0.00    -0.363 OA
ATOM     18  H2  UNL     1      18.766 -18.349  18.207  1.00  0.00     0.212 HD
ENDBRANCH   5  17
TORSDOF 4
ENDMDL
