MODEL 5
REMARK VINA RESULT: -5.831007292      2.635      4.149
REMARK  4 active torsions:
REMARK  status: ('A' for Active; 'I' for Inactive)
REMARK    1  A    between atoms: O1_1  and  C1_3 
REMARK    2  A    between atoms: C5_7  and  O2_8 
REMARK    3  A    between atoms: C6_13  and  O3_14 
REMARK    4  A    between atoms: C7_16  and  O4_17 
ROOT
HETATM    1  C1  UNL     1      20.240 -20.243  21.281  1.00  0.00     0.180 C 
HETATM    2  C2  UNL     1      19.446 -19.731  20.111  1.00  0.00     0.221 C 
HETATM    3  C3  UNL     1      18.015 -20.200  20.177  1.00  0.00     0.041 C 
HETATM    4  C4  UNL     1      17.288 -19.101  20.917  1.00  0.00     0.073 C 
HETATM    5  C5  UNL     1      18.379 -18.146  21.299  1.00  0.00     0.253 C 
HETATM    6  N1  UNL     1      19.320 -18.294  20.207  1.00  0.00    -0.034 N 
ATOM      7  H11 UNL     1      19.056 -17.824  19.341  1.00  0.00     0.281 HD
ATOM      8  H12 UNL     1      20.200 -17.790  20.324  1.00  0.00     0.281 HD
HETATM    9  C6  UNL     1      19.090 -18.528  22.571  1.00  0.00     0.212 C 
HETATM   10  C7  UNL     1      19.446 -19.989  22.549  1.00  0.00     0.182 C 
ENDROOT
BRANCH   1  11
HETATM   11  O1  UNL     1      20.466 -21.607  21.187  1.00  0.00    -0.391 OA
ATOM     12  H1  UNL     1      19.983 -22.089  21.848  1.00  0.00     0.210 HD
ENDBRANCH   1  11
BRANCH  10  13
HETATM   13  O4  UNL     1      20.252 -20.282  23.661  1.00  0.00    -0.390 OA
ATOM     14  H4  UNL     1      20.667 -19.482  23.963  1.00  0.00     0.210 HD
ENDBRANCH  10  13
BRANCH   9  15
HETATM   15  O3  UNL     1      18.346 -18.154  23.668  1.00  0.00    -0.388 OA
ATOM     16  H3  UNL     1      18.267 -18.878  24.277  1.00  0.00     0.210 HD
ENDBRANCH   9  15
BRANCH   5  17
HETATM   17  O2  UNL     1      17.972 -16.828  21.331  1.00  0.00    -0.363 OA
ATOM     18  H2  UNL     1      17.386 -16.594  20.620  1.00  0.00     0.212 HD
ENDBRANCH   5  17
TORSDOF 4
ENDMDL
