MODEL 2
REMARK VINA RESULT: -6.969066870      1.766      3.130
REMARK  4 active torsions:
REMARK  status: ('A' for Active; 'I' for Inactive)
REMARK    1  A    between atoms: O1_1  and  C1_3 
REMARK    2  A    between atoms: C5_7  and  O2_8 
REMARK    3  A    between atoms: C6_13  and  O3_14 
REMARK    4  A    between atoms: C7_16  and  O4_17 
ROOT
HETATM    1  C1  UNL     1      19.110 -18.069  24.747  1.00  0.00     0.180 C 
HETATM    2  C2  UNL     1      18.483 -18.834  23.615  1.00  0.00     0.221 C 
HETATM    3  C3  UNL     1      18.818 -18.210  22.285  1.00  0.00     0.041 C 
HETATM    4  C4  UNL     1      20.069 -18.927  21.833  1.00  0.00     0.073 C 
HETATM    5  C5  UNL     1      20.401 -19.827  22.986  1.00  0.00     0.253 C 
HETATM    6  N1  UNL     1      19.093 -20.142  23.523  1.00  0.00    -0.034 N 
ATOM      7  H11 UNL     1      18.561 -20.830  22.990  1.00  0.00     0.281 HD
ATOM      8  H12 UNL     1      19.100 -20.678  24.392  1.00  0.00     0.281 HD
HETATM    9  C6  UNL     1      21.189 -19.142  24.072  1.00  0.00     0.212 C 
HETATM   10  C7  UNL     1      20.567 -17.814  24.407  1.00  0.00     0.182 C 
ENDROOT
BRANCH   1  11
HETATM   11  O1  UNL     1      18.496 -16.840  24.936  1.00  0.00    -0.391 OA
ATOM     12  H1  UNL     1      19.132 -16.140  25.019  1.00  0.00     0.210 HD
ENDBRANCH   1  11
BRANCH  10  13
HETATM   13  O4  UNL     1      21.213 -17.274  25.530  1.00  0.00    -0.390 OA
ATOM     14  H4  UNL     1      22.122 -17.102  25.313  1.00  0.00     0.210 HD
ENDBRANCH  10  13
BRANCH   9  15
HETATM   15  O3  UNL     1      22.518 -19.060  23.722  1.00  0.00    -0.388 OA
ATOM     16  H3  UNL     1      22.692 -19.591  22.955  1.00  0.00     0.210 HD
ENDBRANCH   9  15
BRANCH   5  17
HETATM   17  O2  UNL     1      21.000 -21.011  22.607  1.00  0.00    -0.363 OA
ATOM     18  H2  UNL     1      20.437 -21.770  22.708  1.00  0.00     0.212 HD
ENDBRANCH   5  17
TORSDOF 4
ENDMDL
