MODEL 6
REMARK VINA RESULT: -5.728464350      3.420      4.517
REMARK  4 active torsions:
REMARK  status: ('A' for Active; 'I' for Inactive)
REMARK    1  A    between atoms: O1_1  and  C1_3 
REMARK    2  A    between atoms: C5_7  and  O2_8 
REMARK    3  A    between atoms: C6_13  and  O3_14 
REMARK    4  A    between atoms: C7_16  and  O4_17 
ROOT
HETATM    1  C1  UNL     1      20.208 -20.714  19.144  1.00  0.00     0.180 C 
HETATM    2  C2  UNL     1      19.331 -19.556  18.759  1.00  0.00     0.221 C 
HETATM    3  C3  UNL     1      17.887 -19.831  19.091  1.00  0.00     0.041 C 
HETATM    4  C4  UNL     1      17.703 -19.270  20.482  1.00  0.00     0.073 C 
HETATM    5  C5  UNL     1      19.078 -18.812  20.867  1.00  0.00     0.253 C 
HETATM    6  N1  UNL     1      19.644 -18.417  19.593  1.00  0.00    -0.034 N 
ATOM      7  H11 UNL     1      19.320 -17.518  19.237  1.00  0.00     0.281 HD
ATOM      8  H12 UNL     1      20.631 -18.160  19.620  1.00  0.00     0.281 HD
HETATM    9  C6  UNL     1      19.940 -19.913  21.428  1.00  0.00     0.212 C 
HETATM   10  C7  UNL     1      19.852 -21.137  20.557  1.00  0.00     0.182 C 
ENDROOT
BRANCH   1  11
HETATM   11  O1  UNL     1      20.009 -21.805  18.312  1.00  0.00    -0.391 OA
ATOM     12  H1  UNL     1      20.454 -21.696  17.479  1.00  0.00     0.210 HD
ENDBRANCH   1  11
BRANCH  10  13
HETATM   13  O4  UNL     1      20.788 -22.085  21.003  1.00  0.00    -0.390 OA
ATOM     14  H4  UNL     1      21.404 -21.661  21.588  1.00  0.00     0.210 HD
ENDBRANCH  10  13
BRANCH   9  15
HETATM   15  O3  UNL     1      19.622 -20.147  22.748  1.00  0.00    -0.388 OA
ATOM     16  H3  UNL     1      19.075 -20.919  22.825  1.00  0.00     0.210 HD
ENDBRANCH   9  15
BRANCH   5  17
HETATM   17  O2  UNL     1      19.080 -17.707  21.693  1.00  0.00    -0.363 OA
ATOM     18  H2  UNL     1      19.633 -17.807  22.460  1.00  0.00     0.212 HD
ENDBRANCH   5  17
TORSDOF 4
ENDMDL
