MODEL 10
REMARK VINA RESULT: -6.003856583      2.533      3.409
REMARK  4 active torsions:
REMARK  status: ('A' for Active; 'I' for Inactive)
REMARK    1  A    between atoms: O1_1  and  C1_3 
REMARK    2  A    between atoms: C5_8  and  O2_9 
REMARK    3  A    between atoms: C7_12  and  O3_13 
REMARK    4  A    between atoms: C8_15  and  O4_16 
ROOT
HETATM    1  C1  UNL     1      18.160 -18.225  21.975  1.00  0.00     0.177 C 
HETATM    2  C2  UNL     1      18.113 -18.408  20.509  1.00  0.00     0.307 C 
HETATM    3  N1  UNL     1      18.741 -19.565  19.990  1.00  0.00     0.101 N 
HETATM    4  C3  UNL     1      19.225 -19.419  18.625  1.00  0.00     0.276 C 
HETATM    5  C4  UNL     1      19.872 -20.791  18.451  1.00  0.00     0.064 C 
HETATM    6  C5  UNL     1      20.514 -21.011  19.825  1.00  0.00     0.155 C 
HETATM    7  C6  UNL     1      20.014 -19.878  20.644  1.00  0.00     0.282 C 
HETATM    8  C7  UNL     1      19.716 -20.197  22.066  1.00  0.00     0.185 C 
HETATM    9  C8  UNL     1      19.234 -18.927  22.707  1.00  0.00     0.179 C 
ENDROOT
BRANCH   1  10
HETATM   10  O1  UNL     1      18.300 -16.840  22.230  1.00  0.00    -0.391 OA
ATOM     11  H1  UNL     1      17.510 -16.410  21.925  1.00  0.00     0.210 HD
ENDBRANCH   1  10
BRANCH   9  12
HETATM   12  O4  UNL     1      18.882 -19.176  24.036  1.00  0.00    -0.390 OA
ATOM     13  H4  UNL     1      19.636 -19.410  24.565  1.00  0.00     0.210 HD
ENDBRANCH   9  12
BRANCH   8  14
HETATM   14  O3  UNL     1      20.837 -20.639  22.728  1.00  0.00    -0.391 OA
ATOM     15  H3  UNL     1      20.681 -20.718  23.661  1.00  0.00     0.210 HD
ENDBRANCH   8  14
BRANCH   6  16
HETATM   16  O2  UNL     1      20.127 -22.243  20.356  1.00  0.00    -0.393 OA
ATOM     17  H2  UNL     1      20.622 -22.438  21.144  1.00  0.00     0.210 HD
ENDBRANCH   6  16
TORSDOF 4
ENDMDL
