MODEL 9
REMARK VINA RESULT: -6.060338611      1.678      3.747
REMARK  4 active torsions:
REMARK  status: ('A' for Active; 'I' for Inactive)
REMARK    1  A    between atoms: O1_1  and  C1_3 
REMARK    2  A    between atoms: C5_8  and  O2_9 
REMARK    3  A    between atoms: C7_12  and  O3_13 
REMARK    4  A    between atoms: C8_15  and  O4_16 
ROOT
HETATM    1  C1  UNL     1      18.436 -17.894  21.942  1.00  0.00     0.177 C 
HETATM    2  C2  UNL     1      18.786 -17.358  23.273  1.00  0.00     0.307 C 
HETATM    3  N1  UNL     1      19.993 -17.820  23.849  1.00  0.00     0.101 N 
HETATM    4  C3  UNL     1      20.004 -17.802  25.305  1.00  0.00     0.276 C 
HETATM    5  C4  UNL     1      21.384 -18.410  25.544  1.00  0.00     0.064 C 
HETATM    6  C5  UNL     1      21.441 -19.491  24.459  1.00  0.00     0.155 C 
HETATM    7  C6  UNL     1      20.224 -19.253  23.645  1.00  0.00     0.282 C 
HETATM    8  C7  UNL     1      20.378 -19.472  22.182  1.00  0.00     0.185 C 
HETATM    9  C8  UNL     1      19.044 -19.183  21.553  1.00  0.00     0.179 C 
ENDROOT
BRANCH   1  10
HETATM   10  O1  UNL     1      17.030 -18.053  21.900  1.00  0.00    -0.391 OA
ATOM     11  H1  UNL     1      16.644 -17.321  22.368  1.00  0.00     0.210 HD
ENDBRANCH   1  10
BRANCH   9  12
HETATM   12  O4  UNL     1      19.139 -19.317  20.166  1.00  0.00    -0.390 OA
ATOM     13  H4  UNL     1      19.904 -19.820  19.910  1.00  0.00     0.210 HD
ENDBRANCH   9  12
BRANCH   8  14
HETATM   14  O3  UNL     1      20.735 -20.770  21.903  1.00  0.00    -0.391 OA
ATOM     15  H3  UNL     1      20.461 -21.362  22.593  1.00  0.00     0.210 HD
ENDBRANCH   8  14
BRANCH   6  16
HETATM   16  O2  UNL     1      22.606 -19.363  23.699  1.00  0.00    -0.393 OA
ATOM     17  H2  UNL     1      22.397 -19.330  22.772  1.00  0.00     0.210 HD
ENDBRANCH   6  16
TORSDOF 4
ENDMDL
