MODEL 13
REMARK VINA RESULT: -5.717889687      3.049      4.086
REMARK  4 active torsions:
REMARK  status: ('A' for Active; 'I' for Inactive)
REMARK    1  A    between atoms: O1_1  and  C1_3 
REMARK    2  A    between atoms: C5_8  and  O2_9 
REMARK    3  A    between atoms: C7_12  and  O3_13 
REMARK    4  A    between atoms: C8_15  and  O4_16 
ROOT
HETATM    1  C1  UNL     1      18.752 -18.640  21.612  1.00  0.00     0.177 C 
HETATM    2  C2  UNL     1      18.560 -18.355  20.174  1.00  0.00     0.307 C 
HETATM    3  N1  UNL     1      18.873 -19.398  19.270  1.00  0.00     0.101 N 
HETATM    4  C3  UNL     1      19.278 -18.941  17.949  1.00  0.00     0.276 C 
HETATM    5  C4  UNL     1      19.586 -20.292  17.310  1.00  0.00     0.064 C 
HETATM    6  C5  UNL     1      20.260 -21.039  18.466  1.00  0.00     0.155 C 
HETATM    7  C6  UNL     1      20.088 -20.135  19.631  1.00  0.00     0.282 C 
HETATM    8  C7  UNL     1      19.829 -20.807  20.932  1.00  0.00     0.185 C 
HETATM    9  C8  UNL     1      19.691 -19.724  21.964  1.00  0.00     0.179 C 
ENDROOT
BRANCH   1  10
HETATM   10  O1  UNL     1      19.218 -17.453  22.225  1.00  0.00    -0.391 OA
ATOM     11  H1  UNL     1      19.226 -17.598  23.164  1.00  0.00     0.210 HD
ENDBRANCH   1  10
BRANCH   9  12
HETATM   12  O4  UNL     1      19.389 -20.293  23.204  1.00  0.00    -0.390 OA
ATOM     13  H4  UNL     1      20.160 -20.653  23.626  1.00  0.00     0.210 HD
ENDBRANCH   9  12
BRANCH   8  14
HETATM   14  O3  UNL     1      20.867 -21.637  21.284  1.00  0.00    -0.391 OA
ATOM     15  H3  UNL     1      21.643 -21.142  21.517  1.00  0.00     0.210 HD
ENDBRANCH   8  14
BRANCH   6  16
HETATM   16  O2  UNL     1      19.646 -22.276  18.676  1.00  0.00    -0.393 OA
ATOM     17  H2  UNL     1      19.447 -22.695  17.847  1.00  0.00     0.210 HD
ENDBRANCH   6  16
TORSDOF 4
ENDMDL
