MODEL 2
REMARK VINA RESULT: -6.885642632      1.599      2.816
REMARK  4 active torsions:
REMARK  status: ('A' for Active; 'I' for Inactive)
REMARK    1  A    between atoms: O1_1  and  C1_3 
REMARK    2  A    between atoms: C5_8  and  O2_9 
REMARK    3  A    between atoms: C7_12  and  O3_13 
REMARK    4  A    between atoms: C8_15  and  O4_16 
ROOT
HETATM    1  C1  UNL     1      21.381 -18.596  24.955  1.00  0.00     0.177 C 
HETATM    2  C2  UNL     1      21.305 -19.407  23.723  1.00  0.00     0.307 C 
HETATM    3  N1  UNL     1      20.310 -19.047  22.783  1.00  0.00     0.101 N 
HETATM    4  C3  UNL     1      19.845 -20.151  21.955  1.00  0.00     0.276 C 
HETATM    5  C4  UNL     1      18.776 -19.415  21.151  1.00  0.00     0.064 C 
HETATM    6  C5  UNL     1      18.155 -18.504  22.216  1.00  0.00     0.155 C 
HETATM    7  C6  UNL     1      19.033 -18.680  23.400  1.00  0.00     0.282 C 
HETATM    8  C7  UNL     1      19.268 -17.456  24.211  1.00  0.00     0.185 C 
HETATM    9  C8  UNL     1      20.168 -17.851  25.348  1.00  0.00     0.179 C 
ENDROOT
BRANCH   1  10
HETATM   10  O1  UNL     1      21.715 -19.465  26.021  1.00  0.00    -0.391 OA
ATOM     11  H1  UNL     1      22.586 -19.230  26.321  1.00  0.00     0.210 HD
ENDBRANCH   1  10
BRANCH   9  12
HETATM   12  O4  UNL     1      20.473 -16.726  26.118  1.00  0.00    -0.390 OA
ATOM     13  H4  UNL     1      21.307 -16.817  26.564  1.00  0.00     0.210 HD
ENDBRANCH   9  12
BRANCH   8  14
HETATM   14  O3  UNL     1      18.092 -16.957  24.720  1.00  0.00    -0.391 OA
ATOM     15  H3  UNL     1      18.158 -16.026  24.897  1.00  0.00     0.210 HD
ENDBRANCH   8  14
BRANCH   6  16
HETATM   16  O2  UNL     1      18.136 -17.178  21.778  1.00  0.00    -0.393 OA
ATOM     17  H2  UNL     1      18.915 -16.719  22.072  1.00  0.00     0.210 HD
ENDBRANCH   6  16
TORSDOF 4
ENDMDL
