MODEL 2
REMARK VINA RESULT: -7.668601887      0.094      4.972
REMARK  4 active torsions:
REMARK  status: ('A' for Active; 'I' for Inactive)
REMARK    1  A    between atoms: C1_2  and  C2_4 
REMARK    2  A    between atoms: C7_9  and  N1_10 
REMARK    3  A    between atoms: N1_10  and  C8_12 
REMARK    4  A    between atoms: C13_17  and  C14_18 
ROOT
HETATM    1  N1  UNL     1       4.965   2.830  30.246  1.00  0.00    -0.354 N 
ATOM      2  H1  UNL     1       4.271   2.387  29.644  1.00  0.00     0.166 HD
ENDROOT
BRANCH   1   3
HETATM    3  C7  UNL     1       4.568   4.022  30.904  1.00  0.00     0.049 A 
HETATM    4  C2  UNL     1       3.264   4.243  31.277  1.00  0.00     0.067 A 
HETATM    5  C3  UNL     1       2.895   5.484  31.819  1.00  0.00     0.021 A 
HETATM    6  C4  UNL     1       3.852   6.455  31.969  1.00  0.00     0.001 A 
HETATM    7  C5  UNL     1       5.148   6.208  31.589  1.00  0.00     0.002 A 
HETATM    8  C6  UNL     1       5.553   5.005  31.052  1.00  0.00     0.030 A 
BRANCH   4   9
HETATM    9  C1  UNL     1       2.188   3.270  31.205  1.00  0.00     0.211 C 
HETATM   10  O1  UNL     1       1.251   3.248  32.063  1.00  0.00    -0.644 OA
HETATM   11  O2  UNL     1       2.138   2.329  30.214  1.00  0.00    -0.644 OA
ENDBRANCH   4   9
ENDBRANCH   1   3
BRANCH   1  12
HETATM   12  C8  UNL     1       6.221   2.195  30.339  1.00  0.00     0.049 A 
HETATM   13  C9  UNL     1       7.201   2.396  29.355  1.00  0.00     0.030 A 
HETATM   14  C10 UNL     1       8.475   1.878  29.443  1.00  0.00     0.002 A 
HETATM   15  C11 UNL     1       8.797   1.131  30.550  1.00  0.00     0.001 A 
HETATM   16  C12 UNL     1       7.871   0.916  31.526  1.00  0.00     0.021 A 
HETATM   17  C13 UNL     1       6.571   1.445  31.433  1.00  0.00     0.067 A 
BRANCH  17  18
HETATM   18  C14 UNL     1       5.638   1.133  32.496  1.00  0.00     0.211 C 
HETATM   19  O3  UNL     1       4.472   0.790  32.364  1.00  0.00    -0.644 OA
HETATM   20  O4  UNL     1       6.097   1.227  33.830  1.00  0.00    -0.644 OA
ENDBRANCH  17  18
ENDBRANCH   1  12
TORSDOF 4
ENDMDL
