MODEL 6
REMARK VINA RESULT: -7.430034200      3.169      4.742
REMARK  4 active torsions:
REMARK  status: ('A' for Active; 'I' for Inactive)
REMARK    1  A    between atoms: C1_2  and  C2_4 
REMARK    2  A    between atoms: C7_9  and  N1_10 
REMARK    3  A    between atoms: N1_10  and  C8_12 
REMARK    4  A    between atoms: C13_17  and  C14_18 
ROOT
HETATM    1  N1  UNL     1       7.675   2.461  29.482  1.00  0.00    -0.354 N 
ATOM      2  H1  UNL     1       7.366   3.371  29.141  1.00  0.00     0.166 HD
ENDROOT
BRANCH   1   3
HETATM    3  C7  UNL     1       8.804   1.891  28.842  1.00  0.00     0.049 A 
HETATM    4  C2  UNL     1       9.057   2.093  27.506  1.00  0.00     0.067 A 
HETATM    5  C3  UNL     1      10.119   1.416  26.888  1.00  0.00     0.021 A 
HETATM    6  C4  UNL     1      10.888   0.561  27.636  1.00  0.00     0.001 A 
HETATM    7  C5  UNL     1      10.614   0.378  28.969  1.00  0.00     0.002 A 
HETATM    8  C6  UNL     1       9.581   1.021  29.615  1.00  0.00     0.030 A 
BRANCH   4   9
HETATM    9  C1  UNL     1       8.336   3.008  26.639  1.00  0.00     0.211 C 
HETATM   10  O1  UNL     1       8.884   3.531  25.619  1.00  0.00    -0.644 OA
HETATM   11  O2  UNL     1       7.036   3.352  26.884  1.00  0.00    -0.644 OA
ENDBRANCH   4   9
ENDBRANCH   1   3
BRANCH   1  12
HETATM   12  C8  UNL     1       6.934   1.898  30.543  1.00  0.00     0.049 A 
HETATM   13  C9  UNL     1       7.573   1.481  31.722  1.00  0.00     0.030 A 
HETATM   14  C10 UNL     1       6.890   1.013  32.823  1.00  0.00     0.002 A 
HETATM   15  C11 UNL     1       5.519   0.955  32.761  1.00  0.00     0.001 A 
HETATM   16  C12 UNL     1       4.865   1.353  31.634  1.00  0.00     0.021 A 
HETATM   17  C13 UNL     1       5.565   1.829  30.510  1.00  0.00     0.067 A 
BRANCH  17  18
HETATM   18  C14 UNL     1       4.793   2.191  29.339  1.00  0.00     0.211 C 
HETATM   19  O3  UNL     1       4.244   1.423  28.563  1.00  0.00    -0.644 OA
HETATM   20  O4  UNL     1       4.647   3.566  29.040  1.00  0.00    -0.644 OA
ENDBRANCH  17  18
ENDBRANCH   1  12
TORSDOF 4
ENDMDL
