MODEL 1
REMARK VINA RESULT: -7.759021154      0.000      0.000
REMARK  4 active torsions:
REMARK  status: ('A' for Active; 'I' for Inactive)
REMARK    1  A    between atoms: C1_2  and  C2_4 
REMARK    2  A    between atoms: C7_9  and  N1_10 
REMARK    3  A    between atoms: N1_10  and  C8_12 
REMARK    4  A    between atoms: C13_17  and  C14_18 
ROOT
HETATM    1  N1  UNL     1       4.966   2.750  30.230  1.00  0.00    -0.354 N 
ATOM      2  H1  UNL     1       4.275   2.303  29.628  1.00  0.00     0.166 HD
ENDROOT
BRANCH   1   3
HETATM    3  C7  UNL     1       6.226   2.109  30.337  1.00  0.00     0.049 A 
HETATM    4  C2  UNL     1       6.596   1.425  31.470  1.00  0.00     0.067 A 
HETATM    5  C3  UNL     1       7.896   0.906  31.578  1.00  0.00     0.021 A 
HETATM    6  C4  UNL     1       8.774   1.093  30.540  1.00  0.00     0.001 A 
HETATM    7  C5  UNL     1       8.379   1.779  29.419  1.00  0.00     0.002 A 
HETATM    8  C6  UNL     1       7.114   2.306  29.273  1.00  0.00     0.030 A 
BRANCH   4   9
HETATM    9  C1  UNL     1       5.732   1.132  32.599  1.00  0.00     0.211 C 
HETATM   10  O1  UNL     1       6.144   1.228  33.797  1.00  0.00    -0.644 OA
HETATM   11  O2  UNL     1       4.435   0.734  32.425  1.00  0.00    -0.644 OA
ENDBRANCH   4   9
ENDBRANCH   1   3
BRANCH   1  12
HETATM   12  C8  UNL     1       4.570   3.942  30.872  1.00  0.00     0.049 A 
HETATM   13  C9  UNL     1       5.490   4.981  31.087  1.00  0.00     0.030 A 
HETATM   14  C10 UNL     1       5.138   6.200  31.622  1.00  0.00     0.002 A 
HETATM   15  C11 UNL     1       3.822   6.406  31.958  1.00  0.00     0.001 A 
HETATM   16  C12 UNL     1       2.901   5.422  31.762  1.00  0.00     0.021 A 
HETATM   17  C13 UNL     1       3.264   4.177  31.216  1.00  0.00     0.067 A 
BRANCH  17  18
HETATM   18  C14 UNL     1       2.229   3.172  31.081  1.00  0.00     0.211 C 
HETATM   19  O3  UNL     1       2.137   2.337  30.194  1.00  0.00    -0.644 OA
HETATM   20  O4  UNL     1       1.210   3.134  32.061  1.00  0.00    -0.644 OA
ENDBRANCH  17  18
ENDBRANCH   1  12
TORSDOF 4
ENDMDL
