MODEL 11
REMARK VINA RESULT: -7.297738543      3.124      5.963
REMARK  4 active torsions:
REMARK  status: ('A' for Active; 'I' for Inactive)
REMARK    1  A    between atoms: C1_2  and  C2_4 
REMARK    2  A    between atoms: C7_9  and  N1_10 
REMARK    3  A    between atoms: N1_10  and  C8_12 
REMARK    4  A    between atoms: C13_17  and  C14_18 
ROOT
HETATM    1  N1  UNL     1       7.674   2.530  29.395  1.00  0.00    -0.354 N 
ATOM      2  H1  UNL     1       7.360   3.461  29.123  1.00  0.00     0.166 HD
ENDROOT
BRANCH   1   3
HETATM    3  C7  UNL     1       6.971   1.907  30.457  1.00  0.00     0.049 A 
HETATM    4  C2  UNL     1       5.599   1.840  30.477  1.00  0.00     0.067 A 
HETATM    5  C3  UNL     1       4.942   1.319  31.602  1.00  0.00     0.021 A 
HETATM    6  C4  UNL     1       5.691   0.884  32.666  1.00  0.00     0.001 A 
HETATM    7  C5  UNL     1       7.060   0.961  32.621  1.00  0.00     0.002 A 
HETATM    8  C6  UNL     1       7.745   1.466  31.537  1.00  0.00     0.030 A 
BRANCH   4   9
HETATM    9  C1  UNL     1       4.719   2.229  29.388  1.00  0.00     0.211 C 
HETATM   10  O1  UNL     1       4.463   3.448  29.141  1.00  0.00    -0.644 OA
HETATM   11  O2  UNL     1       4.123   1.298  28.582  1.00  0.00    -0.644 OA
ENDBRANCH   4   9
ENDBRANCH   1   3
BRANCH   1  12
HETATM   12  C8  UNL     1       8.763   1.994  28.676  1.00  0.00     0.049 A 
HETATM   13  C9  UNL     1       9.703   1.167  29.310  1.00  0.00     0.030 A 
HETATM   14  C10 UNL     1      10.730   0.541  28.638  1.00  0.00     0.002 A 
HETATM   15  C11 UNL     1      10.833   0.736  27.283  1.00  0.00     0.001 A 
HETATM   16  C12 UNL     1       9.938   1.531  26.633  1.00  0.00     0.021 A 
HETATM   17  C13 UNL     1       8.891   2.170  27.322  1.00  0.00     0.067 A 
BRANCH  17  18
HETATM   18  C14 UNL     1       8.009   3.031  26.561  1.00  0.00     0.211 C 
HETATM   19  O3  UNL     1       6.909   3.436  26.907  1.00  0.00    -0.644 OA
HETATM   20  O4  UNL     1       8.440   3.460  25.284  1.00  0.00    -0.644 OA
ENDBRANCH  17  18
ENDBRANCH   1  12
TORSDOF 4
ENDMDL
