MODEL 3
REMARK VINA RESULT: -7.540509878      1.684      2.118
REMARK  4 active torsions:
REMARK  status: ('A' for Active; 'I' for Inactive)
REMARK    1  A    between atoms: C1_2  and  C2_4 
REMARK    2  A    between atoms: C7_9  and  N1_10 
REMARK    3  A    between atoms: N1_10  and  C8_12 
REMARK    4  A    between atoms: C13_17  and  C14_18 
ROOT
HETATM    1  N1  UNL     1       5.272   3.218  30.538  1.00  0.00    -0.354 N 
ATOM      2  H1  UNL     1       4.447   2.815  30.095  1.00  0.00     0.166 HD
ENDROOT
BRANCH   1   3
HETATM    3  C7  UNL     1       6.463   2.450  30.484  1.00  0.00     0.049 A 
HETATM    4  C2  UNL     1       6.794   1.557  31.475  1.00  0.00     0.067 A 
HETATM    5  C3  UNL     1       8.036   0.905  31.439  1.00  0.00     0.021 A 
HETATM    6  C4  UNL     1       8.899   1.175  30.407  1.00  0.00     0.001 A 
HETATM    7  C5  UNL     1       8.543   2.071  29.429  1.00  0.00     0.002 A 
HETATM    8  C6  UNL     1       7.335   2.733  29.426  1.00  0.00     0.030 A 
BRANCH   4   9
HETATM    9  C1  UNL     1       5.937   1.167  32.580  1.00  0.00     0.211 C 
HETATM   10  O1  UNL     1       6.377   1.091  33.770  1.00  0.00    -0.644 OA
HETATM   11  O2  UNL     1       4.618   0.860  32.390  1.00  0.00    -0.644 OA
ENDBRANCH   4   9
ENDBRANCH   1   3
BRANCH   1  12
HETATM   12  C8  UNL     1       5.112   4.483  31.143  1.00  0.00     0.049 A 
HETATM   13  C9  UNL     1       5.432   4.676  32.497  1.00  0.00     0.030 A 
HETATM   14  C10 UNL     1       5.385   5.907  33.113  1.00  0.00     0.002 A 
HETATM   15  C11 UNL     1       5.008   6.995  32.364  1.00  0.00     0.001 A 
HETATM   16  C12 UNL     1       4.691   6.845  31.047  1.00  0.00     0.021 A 
HETATM   17  C13 UNL     1       4.739   5.587  30.421  1.00  0.00     0.067 A 
BRANCH  17  18
HETATM   18  C14 UNL     1       4.345   5.511  29.028  1.00  0.00     0.211 C 
HETATM   19  O3  UNL     1       3.223   5.685  28.579  1.00  0.00    -0.644 OA
HETATM   20  O4  UNL     1       5.342   5.205  28.073  1.00  0.00    -0.644 OA
ENDBRANCH  17  18
ENDBRANCH   1  12
TORSDOF 4
ENDMDL
