MODEL 2
REMARK VINA RESULT: -7.261899577      1.727      2.299
REMARK  5 active torsions:
REMARK  status: ('A' for Active; 'I' for Inactive)
REMARK    1  A    between atoms: C3_5  and  C4_6 
REMARK    2  A    between atoms: C9_15  and  N4_16 
REMARK    3  A    between atoms: N5_19  and  C12_20 
REMARK    4  A    between atoms: C12_20  and  C13_21 
REMARK    5  A    between atoms: C13_21  and  O1_22 
ROOT
HETATM    1  C1  UNL     1      -2.588  -9.244  16.891  1.00  0.00     0.070 C 
HETATM    2  C2  UNL     1      -2.578  -8.128  15.913  1.00  0.00     0.032 A 
HETATM    3  N1  UNL     1      -1.848  -8.180  14.785  1.00  0.00    -0.343 N 
ATOM      4  H1  UNL     1      -1.283  -9.008  14.595  1.00  0.00     0.167 HD
HETATM    5  C3  UNL     1      -1.845  -7.155  13.895  1.00  0.00     0.134 A 
HETATM    6  N3  UNL     1      -2.583  -6.057  14.133  1.00  0.00    -0.325 N 
ATOM      7  H3  UNL     1      -2.569  -5.295  13.454  1.00  0.00     0.169 HD
HETATM    8  C9  UNL     1      -3.351  -5.930  15.256  1.00  0.00     0.129 A 
HETATM    9  C16 UNL     1      -3.328  -6.985  16.131  1.00  0.00     0.100 A 
HETATM   10 CL1  UNL     1      -4.272  -6.899  17.576  1.00  0.00    -0.078 Cl
ENDROOT
BRANCH   8  11
HETATM   11  N4  UNL     1      -4.132  -4.802  15.532  1.00  0.00    -0.362 N 
HETATM   12  C10 UNL     1      -3.811  -3.694  16.377  1.00  0.00     0.154 C 
HETATM   13  C11 UNL     1      -4.619  -2.510  15.853  1.00  0.00     0.292 C 
HETATM   14  N5  UNL     1      -4.540  -2.572  14.409  1.00  0.00     0.093 N 
HETATM   15  C14 UNL     1      -5.310  -3.638  13.838  1.00  0.00     0.292 C 
HETATM   16  C15 UNL     1      -5.454  -4.724  14.884  1.00  0.00     0.154 C 
BRANCH  14  17
HETATM   17  C12 UNL     1      -5.046  -1.326  13.815  1.00  0.00     0.298 C 
BRANCH  17  18
HETATM   18  C13 UNL     1      -6.038  -1.749  12.738  1.00  0.00     0.194 C 
BRANCH  18  19
HETATM   19  O1  UNL     1      -6.805  -0.677  12.337  1.00  0.00    -0.399 OA
ATOM     20  H1  UNL     1      -7.616  -0.644  12.829  1.00  0.00     0.209 HD
ENDBRANCH  18  19
ENDBRANCH  17  18
ENDBRANCH  14  17
ENDBRANCH   8  11
BRANCH   5  21
HETATM   21  C4  UNL     1      -1.027  -7.282  12.693  1.00  0.00     0.076 A 
HETATM   22  C5  UNL     1      -0.451  -8.479  12.342  1.00  0.00     0.033 A 
HETATM   23  C6  UNL     1       0.328  -8.655  11.220  1.00  0.00     0.004 A 
HETATM   24  C7  UNL     1       0.527  -7.550  10.417  1.00  0.00     0.017 A 
HETATM   25  C8  UNL     1      -0.041  -6.359  10.760  1.00  0.00     0.088 A 
HETATM   26  N2  UNL     1      -0.802  -6.239  11.879  1.00  0.00    -0.363 N 
ATOM     27  H2  UNL     1      -1.212  -5.333  12.106  1.00  0.00     0.165 HD
ENDBRANCH   5  21
TORSDOF 5
ENDMDL
