MODEL 1
REMARK VINA RESULT: -7.682538806      0.000      0.000
REMARK  5 active torsions:
REMARK  status: ('A' for Active; 'I' for Inactive)
REMARK    1  A    between atoms: C3_5  and  C4_6 
REMARK    2  A    between atoms: C9_15  and  N4_16 
REMARK    3  A    between atoms: N5_19  and  C12_20 
REMARK    4  A    between atoms: C12_20  and  C13_21 
REMARK    5  A    between atoms: C13_21  and  O1_22 
ROOT
HETATM    1  C1  UNL     1      -2.476  -9.097  17.001  1.00  0.00     0.070 C 
HETATM    2  C2  UNL     1      -2.609  -8.044  15.964  1.00  0.00     0.032 A 
HETATM    3  N1  UNL     1      -1.869  -8.055  14.842  1.00  0.00    -0.343 N 
ATOM      4  H1  UNL     1      -1.194  -8.807  14.697  1.00  0.00     0.167 HD
HETATM    5  C3  UNL     1      -1.998  -7.088  13.898  1.00  0.00     0.134 A 
HETATM    6  N3  UNL     1      -2.881  -6.090  14.075  1.00  0.00    -0.325 N 
ATOM      7  H3  UNL     1      -2.966  -5.371  13.356  1.00  0.00     0.169 HD
HETATM    8  C9  UNL     1      -3.669  -6.010  15.189  1.00  0.00     0.129 A 
HETATM    9  C16 UNL     1      -3.511  -7.005  16.119  1.00  0.00     0.100 A 
HETATM   10 CL1  UNL     1      -4.470  -6.972  17.556  1.00  0.00    -0.078 Cl
ENDROOT
BRANCH   8  11
HETATM   11  N4  UNL     1      -4.600  -4.987  15.403  1.00  0.00    -0.362 N 
HETATM   12  C10 UNL     1      -5.990  -5.112  15.711  1.00  0.00     0.154 C 
HETATM   13  C11 UNL     1      -6.377  -3.840  16.462  1.00  0.00     0.292 C 
HETATM   14  N5  UNL     1      -5.290  -3.564  17.378  1.00  0.00     0.093 N 
HETATM   15  C14 UNL     1      -4.102  -3.089  16.731  1.00  0.00     0.292 C 
HETATM   16  C15 UNL     1      -4.108  -3.600  15.305  1.00  0.00     0.154 C 
BRANCH  14  17
HETATM   17  C12 UNL     1      -5.685  -2.526  18.342  1.00  0.00     0.298 C 
BRANCH  17  18
HETATM   18  C13 UNL     1      -4.796  -1.323  18.048  1.00  0.00     0.194 C 
BRANCH  18  19
HETATM   19  O1  UNL     1      -5.559  -0.197  17.834  1.00  0.00    -0.399 OA
ATOM     20  H1  UNL     1      -5.013   0.581  17.825  1.00  0.00     0.209 HD
ENDBRANCH  18  19
ENDBRANCH  17  18
ENDBRANCH  14  17
ENDBRANCH   8  11
BRANCH   5  21
HETATM   21  C4  UNL     1      -1.160  -7.165  12.706  1.00  0.00     0.076 A 
HETATM   22  C5  UNL     1      -0.720  -8.372  12.216  1.00  0.00     0.033 A 
HETATM   23  C6  UNL     1       0.070  -8.502  11.097  1.00  0.00     0.004 A 
HETATM   24  C7  UNL     1       0.429  -7.339  10.445  1.00  0.00     0.017 A 
HETATM   25  C8  UNL     1      -0.004  -6.140  10.925  1.00  0.00     0.088 A 
HETATM   26  N2  UNL     1      -0.783  -6.065  12.035  1.00  0.00    -0.363 N 
ATOM     27  H2  UNL     1      -1.089  -5.151  12.368  1.00  0.00     0.165 HD
ENDBRANCH   5  21
TORSDOF 5
ENDMDL
