MODEL 3
REMARK VINA RESULT: -7.239762597      5.179      6.529
REMARK  5 active torsions:
REMARK  status: ('A' for Active; 'I' for Inactive)
REMARK    1  A    between atoms: C3_5  and  C4_6 
REMARK    2  A    between atoms: C9_15  and  N4_16 
REMARK    3  A    between atoms: N5_19  and  C12_20 
REMARK    4  A    between atoms: C12_20  and  C13_21 
REMARK    5  A    between atoms: C13_21  and  O1_22 
ROOT
HETATM    1  C1  UNL     1      -0.057  -7.377  22.780  1.00  0.00     0.070 C 
HETATM    2  C2  UNL     1      -0.977  -6.738  21.808  1.00  0.00     0.032 A 
HETATM    3  N1  UNL     1      -1.123  -7.206  20.556  1.00  0.00    -0.343 N 
ATOM      4  H1  UNL     1      -0.587  -8.024  20.264  1.00  0.00     0.167 HD
HETATM    5  C3  UNL     1      -1.969  -6.616  19.673  1.00  0.00     0.134 A 
HETATM    6  N3  UNL     1      -2.681  -5.538  20.043  1.00  0.00    -0.325 N 
ATOM      7  H3  UNL     1      -3.312  -5.106  19.367  1.00  0.00     0.169 HD
HETATM    8  C9  UNL     1      -2.587  -5.003  21.297  1.00  0.00     0.129 A 
HETATM    9  C16 UNL     1      -1.724  -5.627  22.161  1.00  0.00     0.100 A 
HETATM   10 CL1  UNL     1      -1.548  -5.009  23.765  1.00  0.00    -0.078 Cl
ENDROOT
BRANCH   8  11
HETATM   11  N4  UNL     1      -3.316  -3.884  21.715  1.00  0.00    -0.362 N 
HETATM   12  C10 UNL     1      -4.404  -3.838  22.642  1.00  0.00     0.154 C 
HETATM   13  C11 UNL     1      -4.402  -2.428  23.230  1.00  0.00     0.292 C 
HETATM   14  N5  UNL     1      -3.016  -2.094  23.477  1.00  0.00     0.093 N 
HETATM   15  C14 UNL     1      -2.267  -1.837  22.282  1.00  0.00     0.292 C 
HETATM   16  C15 UNL     1      -2.933  -2.580  21.143  1.00  0.00     0.154 C 
BRANCH  14  17
HETATM   17  C12 UNL     1      -2.922  -0.877  24.299  1.00  0.00     0.298 C 
BRANCH  17  18
HETATM   18  C13 UNL     1      -1.828  -1.149  25.323  1.00  0.00     0.194 C 
BRANCH  18  19
HETATM   19  O1  UNL     1      -2.376  -1.510  26.534  1.00  0.00    -0.399 OA
ATOM     20  H1  UNL     1      -2.075  -2.373  26.794  1.00  0.00     0.209 HD
ENDBRANCH  18  19
ENDBRANCH  17  18
ENDBRANCH  14  17
ENDBRANCH   8  11
BRANCH   5  21
HETATM   21  C4  UNL     1      -2.076  -7.180  18.331  1.00  0.00     0.076 A 
HETATM   22  C5  UNL     1      -1.963  -8.532  18.112  1.00  0.00     0.033 A 
HETATM   23  C6  UNL     1      -2.057  -9.117  16.869  1.00  0.00     0.004 A 
HETATM   24  C7  UNL     1      -2.276  -8.276  15.796  1.00  0.00     0.017 A 
HETATM   25  C8  UNL     1      -2.388  -6.934  16.007  1.00  0.00     0.088 A 
HETATM   26  N2  UNL     1      -2.288  -6.407  17.255  1.00  0.00    -0.363 N 
ATOM     27  H2  UNL     1      -2.376  -5.398  17.377  1.00  0.00     0.165 HD
ENDBRANCH   5  21
TORSDOF 5
ENDMDL
