MODEL 3
REMARK VINA RESULT: -4.756834724      6.651     10.925
REMARK  6 active torsions:
REMARK  status: ('A' for Active; 'I' for Inactive)
REMARK    1  A    between atoms: O1_2  and  C2_3 
REMARK    2  A    between atoms: C2_3  and  C3_4 
REMARK    3  A    between atoms: C3_4  and  N1_5 
REMARK    4  A    between atoms: N1_5  and  C4_7 
REMARK    5  A    between atoms: C11_16  and  C12_17 
REMARK    6  A    between atoms: N3_23  and  C15_24 
ROOT
HETATM    1  C4  UNL     1      24.376   7.152  36.203  1.00  0.00     0.106 C 
HETATM    2  C5  UNL     1      23.798   6.795  35.131  1.00  0.00     0.116 C 
HETATM    3  C6  UNL     1      22.976   7.733  34.377  1.00  0.00     0.265 C 
HETATM    4  O2  UNL     1      23.310   8.924  34.376  1.00  0.00    -0.267 OA
HETATM    5  N2  UNL     1      21.811   7.363  33.629  1.00  0.00    -0.316 N 
HETATM    6  C7  UNL     1      21.040   8.492  33.101  1.00  0.00     0.159 C 
HETATM    7  C8  UNL     1      21.286   6.083  33.288  1.00  0.00     0.064 A 
HETATM    8  C9  UNL     1      19.969   6.100  32.888  1.00  0.00     0.033 A 
HETATM    9  C10 UNL     1      19.306   4.947  32.534  1.00  0.00     0.018 A 
HETATM   10  C11 UNL     1      19.950   3.714  32.569  1.00  0.00     0.050 A 
HETATM   11  C13 UNL     1      21.279   3.703  32.973  1.00  0.00     0.048 A 
HETATM   12  C14 UNL     1      21.940   4.846  33.326  1.00  0.00     0.070 A 
HETATM   13  N3  UNL     1      23.256   4.578  33.733  1.00  0.00    -0.276 N 
HETATM   14  C21 UNL     1      24.012   5.364  34.680  1.00  0.00     0.270 C 
HETATM   15  O3  UNL     1      24.965   4.780  35.194  1.00  0.00    -0.266 OA
ENDROOT
BRANCH   1  16
HETATM   16  N1  UNL     1      24.479   8.287  36.965  1.00  0.00    -0.396 N 
ATOM     17  H1  UNL     1      23.885   9.031  36.600  1.00  0.00     0.158 HD
BRANCH  16  18
HETATM   18  C3  UNL     1      25.184   8.713  38.118  1.00  0.00     0.145 C 
BRANCH  18  19
HETATM   19  C2  UNL     1      26.389   7.724  38.319  1.00  0.00     0.186 C 
BRANCH  19  20
HETATM   20  O1  UNL     1      27.476   8.538  38.433  1.00  0.00    -0.394 OA
HETATM   21  C1  UNL     1      27.320   9.689  39.130  1.00  0.00     0.201 C 
ENDBRANCH  19  20
ENDBRANCH  18  19
ENDBRANCH  16  18
ENDBRANCH   1  16
BRANCH  13  22
HETATM   22  C15 UNL     1      23.943   3.461  33.200  1.00  0.00     0.043 A 
HETATM   23  C16 UNL     1      24.345   3.608  31.868  1.00  0.00     0.030 A 
HETATM   24  C17 UNL     1      25.097   2.662  31.217  1.00  0.00     0.002 A 
HETATM   25  C18 UNL     1      25.440   1.543  31.928  1.00  0.00     0.000 A 
HETATM   26  C19 UNL     1      25.048   1.373  33.242  1.00  0.00     0.002 A 
HETATM   27  C20 UNL     1      24.294   2.343  33.896  1.00  0.00     0.030 A 
ENDBRANCH  13  22
BRANCH  10  28
HETATM   28  C12 UNL     1      19.164   2.531  32.202  1.00  0.00     0.417 C 
HETATM   29  F1  UNL     1      17.968   2.467  32.908  1.00  0.00    -0.166 F 
HETATM   30  F2  UNL     1      18.843   2.595  30.860  1.00  0.00    -0.166 F 
HETATM   31  F3  UNL     1      19.810   1.327  32.482  1.00  0.00    -0.166 F 
ENDBRANCH  10  28
TORSDOF 6
ENDMDL
