MODEL 2
REMARK VINA RESULT: -4.764760154      6.402     11.248
REMARK  6 active torsions:
REMARK  status: ('A' for Active; 'I' for Inactive)
REMARK    1  A    between atoms: O1_2  and  C2_3 
REMARK    2  A    between atoms: C2_3  and  C3_4 
REMARK    3  A    between atoms: C3_4  and  N1_5 
REMARK    4  A    between atoms: N1_5  and  C4_7 
REMARK    5  A    between atoms: C11_16  and  C12_17 
REMARK    6  A    between atoms: N3_23  and  C15_24 
ROOT
HETATM    1  C4  UNL     1      24.408   7.138  35.971  1.00  0.00     0.106 C 
HETATM    2  C5  UNL     1      23.828   6.204  35.338  1.00  0.00     0.116 C 
HETATM    3  C6  UNL     1      24.394   4.863  35.296  1.00  0.00     0.265 C 
HETATM    4  O2  UNL     1      25.010   4.464  36.292  1.00  0.00    -0.267 OA
HETATM    5  N2  UNL     1      24.277   3.972  34.180  1.00  0.00    -0.316 N 
HETATM    6  C7  UNL     1      25.077   2.748  34.288  1.00  0.00     0.159 C 
HETATM    7  C8  UNL     1      23.494   4.060  32.991  1.00  0.00     0.064 A 
HETATM    8  C9  UNL     1      23.906   3.221  31.980  1.00  0.00     0.033 A 
HETATM    9  C10 UNL     1      23.266   3.189  30.762  1.00  0.00     0.018 A 
HETATM   10  C11 UNL     1      22.171   4.010  30.509  1.00  0.00     0.050 A 
HETATM   11  C13 UNL     1      21.760   4.854  31.534  1.00  0.00     0.048 A 
HETATM   12  C14 UNL     1      22.394   4.889  32.745  1.00  0.00     0.070 A 
HETATM   13  N3  UNL     1      21.824   5.843  33.600  1.00  0.00    -0.276 N 
HETATM   14  C21 UNL     1      22.527   6.554  34.643  1.00  0.00     0.270 C 
HETATM   15  O3  UNL     1      21.986   7.595  35.015  1.00  0.00    -0.266 OA
ENDROOT
BRANCH   1  16
HETATM   16  N1  UNL     1      25.545   7.293  36.722  1.00  0.00    -0.396 N 
ATOM     17  H1  UNL     1      26.382   7.206  36.146  1.00  0.00     0.158 HD
BRANCH  16  18
HETATM   18  C3  UNL     1      25.879   7.541  38.077  1.00  0.00     0.145 C 
BRANCH  18  19
HETATM   19  C2  UNL     1      24.813   8.550  38.641  1.00  0.00     0.186 C 
BRANCH  19  20
HETATM   20  O1  UNL     1      25.512   9.313  39.528  1.00  0.00    -0.394 OA
HETATM   21  C1  UNL     1      26.784   9.642  39.199  1.00  0.00     0.201 C 
ENDBRANCH  19  20
ENDBRANCH  18  19
ENDBRANCH  16  18
ENDBRANCH   1  16
BRANCH  13  22
HETATM   22  C15 UNL     1      20.452   6.169  33.474  1.00  0.00     0.043 A 
HETATM   23  C16 UNL     1      19.593   5.367  34.234  1.00  0.00     0.030 A 
HETATM   24  C17 UNL     1      18.241   5.596  34.301  1.00  0.00     0.002 A 
HETATM   25  C18 UNL     1      17.750   6.651  33.579  1.00  0.00     0.000 A 
HETATM   26  C19 UNL     1      18.580   7.451  32.815  1.00  0.00     0.002 A 
HETATM   27  C20 UNL     1      19.951   7.217  32.762  1.00  0.00     0.030 A 
ENDBRANCH  13  22
BRANCH  10  28
HETATM   28  C12 UNL     1      21.563   3.934  29.178  1.00  0.00     0.417 C 
HETATM   29  F1  UNL     1      20.979   5.140  28.807  1.00  0.00    -0.166 F 
HETATM   30  F2  UNL     1      22.541   3.650  28.244  1.00  0.00    -0.166 F 
HETATM   31  F3  UNL     1      20.533   2.996  29.090  1.00  0.00    -0.166 F 
ENDBRANCH  10  28
TORSDOF 6
ENDMDL
