MODEL 1
REMARK VINA RESULT: -9.617701056      0.000      0.000
REMARK  6 active torsions:
REMARK  status: ('A' for Active; 'I' for Inactive)
REMARK    1  A    between atoms: O1_2  and  C2_3 
REMARK    2  A    between atoms: C2_3  and  C3_4 
REMARK    3  A    between atoms: C3_4  and  N1_5 
REMARK    4  A    between atoms: N1_5  and  C4_7 
REMARK    5  A    between atoms: C11_16  and  C12_17 
REMARK    6  A    between atoms: N3_23  and  C15_24 
ROOT
HETATM    1  C4  UNL     1      25.877   7.976  38.190  1.00  0.00     0.106 C 
HETATM    2  C5  UNL     1      25.959   9.097  38.780  1.00  0.00     0.116 C 
HETATM    3  C6  UNL     1      24.786   9.711  39.386  1.00  0.00     0.265 C 
HETATM    4  O2  UNL     1      23.932   8.965  39.879  1.00  0.00    -0.267 OA
HETATM    5  N2  UNL     1      24.561  11.125  39.456  1.00  0.00    -0.316 N 
HETATM    6  C7  UNL     1      23.234  11.509  39.945  1.00  0.00     0.159 C 
HETATM    7  C8  UNL     1      25.418  12.224  39.156  1.00  0.00     0.064 A 
HETATM    8  C9  UNL     1      24.762  13.421  38.981  1.00  0.00     0.033 A 
HETATM    9  C10 UNL     1      25.439  14.579  38.674  1.00  0.00     0.018 A 
HETATM   10  C11 UNL     1      26.823  14.579  38.530  1.00  0.00     0.050 A 
HETATM   11  C13 UNL     1      27.481  13.368  38.709  1.00  0.00     0.048 A 
HETATM   12  C14 UNL     1      26.810  12.216  39.012  1.00  0.00     0.070 A 
HETATM   13  N3  UNL     1      27.681  11.120  39.105  1.00  0.00    -0.276 N 
HETATM   14  C21 UNL     1      27.327   9.748  38.824  1.00  0.00     0.270 C 
HETATM   15  O3  UNL     1      28.280   9.006  38.585  1.00  0.00    -0.266 OA
ENDROOT
BRANCH   1  16
HETATM   16  N1  UNL     1      24.904   7.050  37.914  1.00  0.00    -0.396 N 
ATOM     17  H1  UNL     1      24.743   6.436  38.712  1.00  0.00     0.158 HD
BRANCH  16  18
HETATM   18  C3  UNL     1      24.061   6.710  36.827  1.00  0.00     0.145 C 
BRANCH  18  19
HETATM   19  C2  UNL     1      24.970   6.602  35.549  1.00  0.00     0.186 C 
BRANCH  19  20
HETATM   20  O1  UNL     1      24.663   7.716  34.825  1.00  0.00    -0.394 OA
HETATM   21  C1  UNL     1      23.367   8.108  34.806  1.00  0.00     0.201 C 
ENDBRANCH  19  20
ENDBRANCH  18  19
ENDBRANCH  16  18
ENDBRANCH   1  16
BRANCH  13  22
HETATM   22  C15 UNL     1      29.024  11.321  39.505  1.00  0.00     0.043 A 
HETATM   23  C16 UNL     1      29.223  11.330  40.890  1.00  0.00     0.030 A 
HETATM   24  C17 UNL     1      30.470  11.425  41.454  1.00  0.00     0.002 A 
HETATM   25  C18 UNL     1      31.535  11.523  40.599  1.00  0.00     0.000 A 
HETATM   26  C19 UNL     1      31.362  11.525  39.227  1.00  0.00     0.002 A 
HETATM   27  C20 UNL     1      30.093  11.417  38.665  1.00  0.00     0.030 A 
ENDBRANCH  13  22
BRANCH  10  28
HETATM   28  C12 UNL     1      27.466  15.849  38.178  1.00  0.00     0.417 C 
HETATM   29  F1  UNL     1      28.810  15.679  37.867  1.00  0.00    -0.166 F 
HETATM   30  F2  UNL     1      26.852  16.377  37.059  1.00  0.00    -0.166 F 
HETATM   31  F3  UNL     1      27.454  16.784  39.214  1.00  0.00    -0.166 F 
ENDBRANCH  10  28
TORSDOF 6
ENDMDL
