MODEL 4
REMARK VINA RESULT: -4.738968667      6.522      9.515
REMARK  6 active torsions:
REMARK  status: ('A' for Active; 'I' for Inactive)
REMARK    1  A    between atoms: O1_2  and  C2_3 
REMARK    2  A    between atoms: C2_3  and  C3_4 
REMARK    3  A    between atoms: C3_4  and  N1_5 
REMARK    4  A    between atoms: N1_5  and  C4_7 
REMARK    5  A    between atoms: C11_16  and  C12_17 
REMARK    6  A    between atoms: N3_23  and  C15_24 
ROOT
HETATM    1  C4  UNL     1      23.712   3.436  30.889  1.00  0.00     0.106 C 
HETATM    2  C5  UNL     1      23.408   3.843  32.052  1.00  0.00     0.116 C 
HETATM    3  C6  UNL     1      22.315   4.785  32.253  1.00  0.00     0.265 C 
HETATM    4  O2  UNL     1      21.341   4.712  31.494  1.00  0.00    -0.267 OA
HETATM    5  N2  UNL     1      22.291   5.786  33.279  1.00  0.00    -0.316 N 
HETATM    6  C7  UNL     1      21.179   6.736  33.179  1.00  0.00     0.159 C 
HETATM    7  C8  UNL     1      23.149   6.000  34.396  1.00  0.00     0.064 A 
HETATM    8  C9  UNL     1      23.053   7.256  34.950  1.00  0.00     0.033 A 
HETATM    9  C10 UNL     1      23.821   7.632  36.029  1.00  0.00     0.018 A 
HETATM   10  C11 UNL     1      24.729   6.746  36.601  1.00  0.00     0.050 A 
HETATM   11  C13 UNL     1      24.821   5.478  36.039  1.00  0.00     0.048 A 
HETATM   12  C14 UNL     1      24.060   5.103  34.966  1.00  0.00     0.070 A 
HETATM   13  N3  UNL     1      24.356   3.796  34.554  1.00  0.00    -0.276 N 
HETATM   14  C21 UNL     1      24.227   3.297  33.205  1.00  0.00     0.270 C 
HETATM   15  O3  UNL     1      24.880   2.283  32.962  1.00  0.00    -0.266 OA
ENDROOT
BRANCH   1  16
HETATM   16  N1  UNL     1      23.275   3.634  29.604  1.00  0.00    -0.396 N 
ATOM     17  H1  UNL     1      23.464   4.586  29.293  1.00  0.00     0.158 HD
BRANCH  16  18
HETATM   18  C3  UNL     1      22.635   2.881  28.589  1.00  0.00     0.145 C 
BRANCH  18  19
HETATM   19  C2  UNL     1      23.250   1.434  28.624  1.00  0.00     0.186 C 
BRANCH  19  20
HETATM   20  O1  UNL     1      24.584   1.633  28.427  1.00  0.00    -0.394 OA
HETATM   21  C1  UNL     1      25.305   0.590  27.953  1.00  0.00     0.201 C 
ENDBRANCH  19  20
ENDBRANCH  18  19
ENDBRANCH  16  18
ENDBRANCH   1  16
BRANCH  13  22
HETATM   22  C15 UNL     1      24.821   2.849  35.499  1.00  0.00     0.043 A 
HETATM   23  C16 UNL     1      23.811   2.119  36.135  1.00  0.00     0.030 A 
HETATM   24  C17 UNL     1      24.081   1.101  37.014  1.00  0.00     0.002 A 
HETATM   25  C18 UNL     1      25.399   0.823  37.260  1.00  0.00     0.000 A 
HETATM   26  C19 UNL     1      26.414   1.536  36.649  1.00  0.00     0.002 A 
HETATM   27  C20 UNL     1      26.129   2.561  35.751  1.00  0.00     0.030 A 
ENDBRANCH  13  22
BRANCH  10  28
HETATM   28  C12 UNL     1      25.527   7.232  37.731  1.00  0.00     0.417 C 
HETATM   29  F1  UNL     1      24.777   8.033  38.585  1.00  0.00    -0.166 F 
HETATM   30  F2  UNL     1      25.975   6.156  38.471  1.00  0.00    -0.166 F 
HETATM   31  F3  UNL     1      26.604   8.031  37.348  1.00  0.00    -0.166 F 
ENDBRANCH  10  28
TORSDOF 6
ENDMDL
