MODEL 6
REMARK VINA RESULT: -5.791824346      1.715      2.068
REMARK  4 active torsions:
REMARK  status: ('A' for Active; 'I' for Inactive)
REMARK    1  A    between atoms: C1_2  and  C2_4 
REMARK    2  A    between atoms: C2_4  and  C3_5 
REMARK    3  A    between atoms: C3_5  and  O3_6 
REMARK    4  A    between atoms: C3_5  and  C4_8 
ROOT
HETATM    1  C3  UNL     1      96.381 -21.406  52.700  1.00  0.00     0.228 C 
ENDROOT
BRANCH   1   2
HETATM    2  C2  UNL     1      97.589 -21.436  53.568  1.00  0.00     0.156 C 
BRANCH   2   3
HETATM    3  C1  UNL     1      98.724 -20.630  53.125  1.00  0.00     0.175 C 
HETATM    4  O1  UNL     1      99.093 -19.526  53.539  1.00  0.00    -0.648 OA
HETATM    5  O2  UNL     1      99.500 -21.185  52.088  1.00  0.00    -0.648 OA
ENDBRANCH   2   3
ENDBRANCH   1   2
BRANCH   1   6
HETATM    6  O3  UNL     1      96.608 -20.431  51.700  1.00  0.00    -0.384 OA
ATOM      7  H3  UNL     1      97.174 -20.826  51.047  1.00  0.00     0.210 HD
ENDBRANCH   1   6
BRANCH   1   8
HETATM    8  C4  UNL     1      95.200 -20.913  53.462  1.00  0.00     0.203 C 
HETATM    9  O4  UNL     1      94.216 -20.380  52.898  1.00  0.00    -0.646 OA
HETATM   10  O5  UNL     1      95.099 -21.007  54.853  1.00  0.00    -0.646 OA
ENDBRANCH   1   8
TORSDOF 4
ENDMDL
