MODEL 12
REMARK VINA RESULT: -5.749164301      2.103      2.761
REMARK  4 active torsions:
REMARK  status: ('A' for Active; 'I' for Inactive)
REMARK    1  A    between atoms: C1_2  and  C2_4 
REMARK    2  A    between atoms: C2_4  and  C3_5 
REMARK    3  A    between atoms: C3_5  and  O3_6 
REMARK    4  A    between atoms: C3_5  and  C4_8 
ROOT
HETATM    1  C3  UNL     1      96.876 -21.437  52.232  1.00  0.00     0.228 C 
ENDROOT
BRANCH   1   2
HETATM    2  C2  UNL     1      97.468 -20.594  53.304  1.00  0.00     0.156 C 
BRANCH   2   3
HETATM    3  C1  UNL     1      98.914 -20.403  53.254  1.00  0.00     0.175 C 
HETATM    4  O1  UNL     1      99.610 -19.610  53.898  1.00  0.00    -0.648 OA
HETATM    5  O2  UNL     1      99.610 -21.232  52.351  1.00  0.00    -0.648 OA
ENDBRANCH   2   3
ENDBRANCH   1   2
BRANCH   1   6
HETATM    6  O3  UNL     1      96.854 -20.658  51.051  1.00  0.00    -0.384 OA
ATOM      7  H3  UNL     1      97.745 -20.369  50.888  1.00  0.00     0.210 HD
ENDBRANCH   1   6
BRANCH   1   8
HETATM    8  C4  UNL     1      95.447 -21.736  52.526  1.00  0.00     0.203 C 
HETATM    9  O4  UNL     1      94.992 -22.904  52.513  1.00  0.00    -0.646 OA
HETATM   10  O5  UNL     1      94.512 -20.745  52.837  1.00  0.00    -0.646 OA
ENDBRANCH   1   8
TORSDOF 4
ENDMDL
