MODEL 15
REMARK VINA RESULT: -5.693569863      2.129      2.654
REMARK  4 active torsions:
REMARK  status: ('A' for Active; 'I' for Inactive)
REMARK    1  A    between atoms: C1_2  and  C2_4 
REMARK    2  A    between atoms: C2_4  and  C3_5 
REMARK    3  A    between atoms: C3_5  and  O3_6 
REMARK    4  A    between atoms: C3_5  and  C4_8 
ROOT
HETATM    1  C3  UNL     1      96.850 -21.410  52.217  1.00  0.00     0.228 C 
ENDROOT
BRANCH   1   2
HETATM    2  C2  UNL     1      97.439 -20.536  53.267  1.00  0.00     0.156 C 
BRANCH   2   3
HETATM    3  C1  UNL     1      98.890 -20.375  53.236  1.00  0.00     0.175 C 
HETATM    4  O1  UNL     1      99.593 -19.592  53.885  1.00  0.00    -0.648 OA
HETATM    5  O2  UNL     1      99.581 -21.226  52.350  1.00  0.00    -0.648 OA
ENDBRANCH   2   3
ENDBRANCH   1   2
BRANCH   1   6
HETATM    6  O3  UNL     1      96.836 -20.667  51.013  1.00  0.00    -0.384 OA
ATOM      7  H3  UNL     1      96.651 -21.278  50.309  1.00  0.00     0.210 HD
ENDBRANCH   1   6
BRANCH   1   8
HETATM    8  C4  UNL     1      95.419 -21.696  52.514  1.00  0.00     0.203 C 
HETATM    9  O4  UNL     1      94.615 -20.797  52.856  1.00  0.00    -0.646 OA
HETATM   10  O5  UNL     1      94.867 -22.977  52.434  1.00  0.00    -0.646 OA
ENDBRANCH   1   8
TORSDOF 4
ENDMDL
