MODEL 1
REMARK VINA RESULT: -6.742824869      0.000      0.000
REMARK  13 active torsions:
REMARK  status: ('A' for Active; 'I' for Inactive)
REMARK    1  A    between atoms: O1_1  and  C1_3 
REMARK    2  A    between atoms: C1_3  and  C2_4 
REMARK    3  A    between atoms: C3_6  and  O3_7 
REMARK    4  A    between atoms: C4_9  and  O4_10 
REMARK    5  A    between atoms: C5_12  and  O5_13 
REMARK    6  A    between atoms: C6_15  and  S1_16 
REMARK    7  A    between atoms: S1_16  and  C7_17 
REMARK    8  A    between atoms: C8_19  and  C9_20 
REMARK    9  A    between atoms: C9_20  and  O7_21 
REMARK   10  A    between atoms: O7_21  and  P1_22 
REMARK   11  A    between atoms: C10_26  and  O11_27 
REMARK   12  A    between atoms: C11_29  and  O12_30 
REMARK   13  A    between atoms: C12_32  and  O13_33 
ROOT
HETATM    1  C7  UNL     1      26.139  -0.364  14.725  1.00  0.00     0.215 C 
HETATM    2  O6  UNL     1      26.624   0.737  15.440  1.00  0.00    -0.363 OA
HETATM    3  C8  UNL     1      27.970   0.792  15.383  1.00  0.00     0.178 C 
HETATM    4  C10 UNL     1      28.713  -0.179  14.558  1.00  0.00     0.180 C 
HETATM    5  C11 UNL     1      28.134  -0.247  13.186  1.00  0.00     0.181 C 
HETATM    6  C12 UNL     1      26.659  -0.480  13.325  1.00  0.00     0.188 C 
ENDROOT
BRANCH   1   7
HETATM    7  S1  UNL     1      24.339  -0.313  14.681  1.00  0.00    -0.124 SA
BRANCH   7   8
HETATM    8  C6  UNL     1      23.631  -1.464  15.892  1.00  0.00     0.112 C 
HETATM    9  C2  UNL     1      22.166  -1.664  15.700  1.00  0.00     0.164 C 
HETATM   10  O2  UNL     1      21.740  -2.742  16.419  1.00  0.00    -0.350 OA
HETATM   11  C3  UNL     1      22.073  -2.795  17.729  1.00  0.00     0.288 C 
HETATM   12  C4  UNL     1      23.280  -2.106  18.213  1.00  0.00     0.203 C 
HETATM   13  C5  UNL     1      23.850  -1.055  17.308  1.00  0.00     0.168 C 
BRANCH   9  14
HETATM   14  C1  UNL     1      21.618  -1.640  14.323  1.00  0.00     0.197 C 
BRANCH  14  15
HETATM   15  O1  UNL     1      20.792  -0.540  14.081  1.00  0.00    -0.398 OA
ATOM     16  H1  UNL     1      19.917  -0.646  14.435  1.00  0.00     0.209 HD
ENDBRANCH  14  15
ENDBRANCH   9  14
BRANCH  11  17
HETATM   17  O3  UNL     1      22.195  -4.154  18.078  1.00  0.00    -0.369 OA
ATOM     18  H3  UNL     1      23.052  -4.270  18.473  1.00  0.00     0.212 HD
ENDBRANCH  11  17
BRANCH  12  19
HETATM   19  O4  UNL     1      22.986  -1.465  19.417  1.00  0.00    -0.388 OA
ATOM     20  H4  UNL     1      23.114  -0.530  19.309  1.00  0.00     0.210 HD
ENDBRANCH  12  19
BRANCH  13  21
HETATM   21  O5  UNL     1      25.179  -0.775  17.588  1.00  0.00    -0.392 OA
ATOM     22  H5  UNL     1      25.690  -0.612  16.804  1.00  0.00     0.210 HD
ENDBRANCH  13  21
ENDBRANCH   7   8
ENDBRANCH   1   7
BRANCH   6  23
HETATM   23  O13 UNL     1      26.431  -1.797  12.906  1.00  0.00    -0.389 OA
ATOM     24  H13 UNL     1      26.907  -1.919  12.093  1.00  0.00     0.210 HD
ENDBRANCH   6  23
BRANCH   3  25
HETATM   25  C9  UNL     1      28.703   1.093  16.685  1.00  0.00     0.217 C 
BRANCH  25  26
HETATM   26  O7  UNL     1      27.759   0.760  17.653  1.00  0.00    -0.280 OA
BRANCH  26  27
HETATM   27  P1  UNL     1      28.127  -0.421  18.660  1.00  0.00     0.422 P 
HETATM   28  O8  UNL     1      27.769  -1.586  17.812  1.00  0.00    -0.617 OA
HETATM   29  O9  UNL     1      29.782  -0.916  18.650  1.00  0.00    -0.617 OA
HETATM   30  O10 UNL     1      27.214  -0.909  19.918  1.00  0.00    -0.617 OA
ENDBRANCH  26  27
ENDBRANCH  25  26
ENDBRANCH   3  25
BRANCH   5  31
HETATM   31  O12 UNL     1      28.393   0.968  12.523  1.00  0.00    -0.390 OA
ATOM     32  H12 UNL     1      28.362   0.818  11.584  1.00  0.00     0.210 HD
ENDBRANCH   5  31
BRANCH   4  33
HETATM   33  O11 UNL     1      28.848  -1.406  15.177  1.00  0.00    -0.390 OA
ATOM     34  H11 UNL     1      28.210  -2.040  14.873  1.00  0.00     0.210 HD
ENDBRANCH   4  33
TORSDOF 13
ENDMDL
