MODEL 6
REMARK VINA RESULT: -6.522872188      2.948      5.003
REMARK  13 active torsions:
REMARK  status: ('A' for Active; 'I' for Inactive)
REMARK    1  A    between atoms: O1_1  and  C1_3 
REMARK    2  A    between atoms: C1_3  and  C2_4 
REMARK    3  A    between atoms: C3_6  and  O3_7 
REMARK    4  A    between atoms: C4_9  and  O4_10 
REMARK    5  A    between atoms: C5_12  and  O5_13 
REMARK    6  A    between atoms: C6_15  and  S1_16 
REMARK    7  A    between atoms: S1_16  and  C7_17 
REMARK    8  A    between atoms: C8_19  and  C9_20 
REMARK    9  A    between atoms: C9_20  and  O7_21 
REMARK   10  A    between atoms: O7_21  and  P1_22 
REMARK   11  A    between atoms: C10_26  and  O11_27 
REMARK   12  A    between atoms: C11_29  and  O12_30 
REMARK   13  A    between atoms: C12_32  and  O13_33 
ROOT
HETATM    1  C7  UNL     1      25.861  -2.159  19.498  1.00  0.00     0.215 C 
HETATM    2  O6  UNL     1      26.546  -2.508  18.328  1.00  0.00    -0.363 OA
HETATM    3  C8  UNL     1      27.663  -1.767  18.186  1.00  0.00     0.178 C 
HETATM    4  C10 UNL     1      28.057  -0.816  19.243  1.00  0.00     0.180 C 
HETATM    5  C11 UNL     1      28.039  -1.483  20.575  1.00  0.00     0.181 C 
HETATM    6  C12 UNL     1      26.702  -2.145  20.737  1.00  0.00     0.188 C 
ENDROOT
BRANCH   1   7
HETATM    7  S1  UNL     1      24.470  -3.277  19.744  1.00  0.00    -0.124 SA
BRANCH   7   8
HETATM    8  C6  UNL     1      23.999  -4.075  18.184  1.00  0.00     0.112 C 
HETATM    9  C2  UNL     1      22.771  -3.478  17.587  1.00  0.00     0.164 C 
HETATM   10  O2  UNL     1      22.627  -3.891  16.295  1.00  0.00    -0.350 OA
HETATM   11  C3  UNL     1      22.694  -5.219  16.049  1.00  0.00     0.288 C 
HETATM   12  C4  UNL     1      23.456  -6.100  16.949  1.00  0.00     0.203 C 
HETATM   13  C5  UNL     1      23.777  -5.544  18.304  1.00  0.00     0.168 C 
BRANCH   9  14
HETATM   14  C1  UNL     1      22.530  -2.025  17.754  1.00  0.00     0.197 C 
BRANCH  14  15
HETATM   15  O1  UNL     1      21.527  -1.739  18.683  1.00  0.00    -0.398 OA
ATOM     16  H1  UNL     1      20.742  -1.382  18.286  1.00  0.00     0.209 HD
ENDBRANCH  14  15
ENDBRANCH   9  14
BRANCH  11  17
HETATM   17  O3  UNL     1      23.224  -5.382  14.754  1.00  0.00    -0.369 OA
ATOM     18  H3  UNL     1      24.116  -5.055  14.768  1.00  0.00     0.212 HD
ENDBRANCH  11  17
BRANCH  12  19
HETATM   19  O4  UNL     1      22.723  -7.266  17.171  1.00  0.00    -0.388 OA
ATOM     20  H4  UNL     1      23.147  -7.988  16.722  1.00  0.00     0.210 HD
ENDBRANCH  12  19
BRANCH  13  21
HETATM   21  O5  UNL     1      24.836  -6.200  18.912  1.00  0.00    -0.392 OA
ATOM     22  H5  UNL     1      25.060  -7.014  18.475  1.00  0.00     0.210 HD
ENDBRANCH  13  21
ENDBRANCH   7   8
ENDBRANCH   1   7
BRANCH   6  23
HETATM   23  O13 UNL     1      26.011  -1.398  21.699  1.00  0.00    -0.389 OA
ATOM     24  H13 UNL     1      25.906  -0.520  21.350  1.00  0.00     0.210 HD
ENDBRANCH   6  23
BRANCH   3  25
HETATM   25  C9  UNL     1      27.943  -1.203  16.798  1.00  0.00     0.217 C 
BRANCH  25  26
HETATM   26  O7  UNL     1      29.122  -0.487  16.989  1.00  0.00    -0.280 OA
BRANCH  26  27
HETATM   27  P1  UNL     1      29.340   0.818  16.098  1.00  0.00     0.422 P 
HETATM   28  O8  UNL     1      28.173   1.618  16.548  1.00  0.00    -0.617 OA
HETATM   29  O9  UNL     1      30.411   2.000  16.762  1.00  0.00    -0.617 OA
HETATM   30  O10 UNL     1      28.971   0.955  14.517  1.00  0.00    -0.617 OA
ENDBRANCH  26  27
ENDBRANCH  25  26
ENDBRANCH   3  25
BRANCH   5  31
HETATM   31  O12 UNL     1      29.080  -2.430  20.623  1.00  0.00    -0.390 OA
ATOM     32  H12 UNL     1      29.898  -1.998  20.405  1.00  0.00     0.210 HD
ENDBRANCH   5  31
BRANCH   4  33
HETATM   33  O11 UNL     1      27.338   0.363  19.190  1.00  0.00    -0.390 OA
ATOM     34  H11 UNL     1      27.443   0.889  19.973  1.00  0.00     0.210 HD
ENDBRANCH   4  33
TORSDOF 13
ENDMDL
