MODEL 2
REMARK VINA RESULT: -6.695803579      3.033      6.998
REMARK  13 active torsions:
REMARK  status: ('A' for Active; 'I' for Inactive)
REMARK    1  A    between atoms: O1_1  and  C1_3 
REMARK    2  A    between atoms: C1_3  and  C2_4 
REMARK    3  A    between atoms: C3_6  and  O3_7 
REMARK    4  A    between atoms: C4_9  and  O4_10 
REMARK    5  A    between atoms: C5_12  and  O5_13 
REMARK    6  A    between atoms: C6_15  and  S1_16 
REMARK    7  A    between atoms: S1_16  and  C7_17 
REMARK    8  A    between atoms: C8_19  and  C9_20 
REMARK    9  A    between atoms: C9_20  and  O7_21 
REMARK   10  A    between atoms: O7_21  and  P1_22 
REMARK   11  A    between atoms: C10_26  and  O11_27 
REMARK   12  A    between atoms: C11_29  and  O12_30 
REMARK   13  A    between atoms: C12_32  and  O13_33 
ROOT
HETATM    1  C7  UNL     1      24.237  -4.072  17.684  1.00  0.00     0.215 C 
HETATM    2  O6  UNL     1      23.275  -3.485  16.853  1.00  0.00    -0.363 OA
HETATM    3  C8  UNL     1      22.713  -4.405  16.044  1.00  0.00     0.178 C 
HETATM    4  C10 UNL     1      23.074  -5.828  16.183  1.00  0.00     0.180 C 
HETATM    5  C11 UNL     1      22.973  -6.255  17.607  1.00  0.00     0.181 C 
HETATM    6  C12 UNL     1      23.765  -5.282  18.431  1.00  0.00     0.188 C 
ENDROOT
BRANCH   1   7
HETATM    7  S1  UNL     1      24.847  -2.854  18.862  1.00  0.00    -0.124 SA
BRANCH   7   8
HETATM    8  C6  UNL     1      26.213  -1.897  18.152  1.00  0.00     0.112 C 
HETATM    9  C2  UNL     1      27.126  -1.345  19.194  1.00  0.00     0.164 C 
HETATM   10  O2  UNL     1      28.281  -0.900  18.621  1.00  0.00    -0.350 OA
HETATM   11  C3  UNL     1      28.176  -0.057  17.568  1.00  0.00     0.288 C 
HETATM   12  C4  UNL     1      26.977  -0.086  16.715  1.00  0.00     0.203 C 
HETATM   13  C5  UNL     1      25.769  -0.762  17.293  1.00  0.00     0.168 C 
BRANCH   9  14
HETATM   14  C1  UNL     1      27.365  -2.138  20.424  1.00  0.00     0.197 C 
BRANCH  14  15
HETATM   15  O1  UNL     1      28.691  -2.090  20.858  1.00  0.00    -0.398 OA
ATOM     16  H1  UNL     1      28.799  -1.617  21.674  1.00  0.00     0.209 HD
ENDBRANCH  14  15
ENDBRANCH   9  14
BRANCH  11  17
HETATM   17  O3  UNL     1      29.290  -0.281  16.736  1.00  0.00    -0.369 OA
ATOM     18  H3  UNL     1      30.001   0.259  17.062  1.00  0.00     0.212 HD
ENDBRANCH  11  17
BRANCH  12  19
HETATM   19  O4  UNL     1      26.590   1.223  16.430  1.00  0.00    -0.388 OA
ATOM     20  H4  UNL     1      26.693   1.381  15.498  1.00  0.00     0.210 HD
ENDBRANCH  12  19
BRANCH  13  21
HETATM   21  O5  UNL     1      24.858  -1.147  16.321  1.00  0.00    -0.392 OA
ATOM     22  H5  UNL     1      24.768  -2.091  16.260  1.00  0.00     0.210 HD
ENDBRANCH  13  21
ENDBRANCH   7   8
ENDBRANCH   1   7
BRANCH   6  23
HETATM   23  O13 UNL     1      24.904  -5.973  18.863  1.00  0.00    -0.389 OA
ATOM     24  H13 UNL     1      24.610  -6.801  19.224  1.00  0.00     0.210 HD
ENDBRANCH   6  23
BRANCH   3  25
HETATM   25  C9  UNL     1      22.530  -4.016  14.581  1.00  0.00     0.217 C 
BRANCH  25  26
HETATM   26  O7  UNL     1      23.459  -2.991  14.418  1.00  0.00    -0.280 OA
BRANCH  26  27
HETATM   27  P1  UNL     1      24.721  -3.288  13.489  1.00  0.00     0.422 P 
HETATM   28  O8  UNL     1      25.737  -3.561  14.537  1.00  0.00    -0.617 OA
HETATM   29  O9  UNL     1      24.861  -4.915  12.924  1.00  0.00    -0.617 OA
HETATM   30  O10 UNL     1      25.629  -2.161  12.740  1.00  0.00    -0.617 OA
ENDBRANCH  26  27
ENDBRANCH  25  26
ENDBRANCH   3  25
BRANCH   5  31
HETATM   31  O12 UNL     1      21.618  -6.253  17.988  1.00  0.00    -0.390 OA
ATOM     32  H12 UNL     1      21.352  -5.359  18.171  1.00  0.00     0.210 HD
ENDBRANCH   5  31
BRANCH   4  33
HETATM   33  O11 UNL     1      24.283  -6.129  15.585  1.00  0.00    -0.390 OA
ATOM     34  H11 UNL     1      24.894  -6.541  16.185  1.00  0.00     0.210 HD
ENDBRANCH   4  33
TORSDOF 13
ENDMDL
