MODEL 5
REMARK VINA RESULT: -6.570143146      2.127      2.964
REMARK  13 active torsions:
REMARK  status: ('A' for Active; 'I' for Inactive)
REMARK    1  A    between atoms: O1_1  and  C1_3 
REMARK    2  A    between atoms: C1_3  and  C2_4 
REMARK    3  A    between atoms: C3_6  and  O3_7 
REMARK    4  A    between atoms: C4_9  and  O4_10 
REMARK    5  A    between atoms: C5_12  and  O5_13 
REMARK    6  A    between atoms: C6_15  and  S1_16 
REMARK    7  A    between atoms: S1_16  and  C7_17 
REMARK    8  A    between atoms: C8_19  and  C9_20 
REMARK    9  A    between atoms: C9_20  and  O7_21 
REMARK   10  A    between atoms: O7_21  and  P1_22 
REMARK   11  A    between atoms: C10_26  and  O11_27 
REMARK   12  A    between atoms: C11_29  and  O12_30 
REMARK   13  A    between atoms: C12_32  and  O13_33 
ROOT
HETATM    1  C7  UNL     1      26.894  -1.090  15.685  1.00  0.00     0.215 C 
HETATM    2  O6  UNL     1      26.856  -1.111  17.085  1.00  0.00    -0.363 OA
HETATM    3  C8  UNL     1      27.822  -0.327  17.604  1.00  0.00     0.178 C 
HETATM    4  C10 UNL     1      28.678   0.477  16.711  1.00  0.00     0.180 C 
HETATM    5  C11 UNL     1      27.845   1.246  15.745  1.00  0.00     0.181 C 
HETATM    6  C12 UNL     1      26.909   0.280  15.080  1.00  0.00     0.188 C 
ENDROOT
BRANCH   1   7
HETATM    7  S1  UNL     1      25.493  -2.010  15.026  1.00  0.00    -0.124 SA
BRANCH   7   8
HETATM    8  C6  UNL     1      24.690  -2.984  16.328  1.00  0.00     0.112 C 
HETATM    9  C2  UNL     1      24.085  -4.243  15.807  1.00  0.00     0.164 C 
HETATM   10  O2  UNL     1      23.766  -5.075  16.840  1.00  0.00    -0.350 OA
HETATM   11  C3  UNL     1      23.031  -4.563  17.854  1.00  0.00     0.288 C 
HETATM   12  C4  UNL     1      23.082  -3.122  18.150  1.00  0.00     0.203 C 
HETATM   13  C5  UNL     1      23.627  -2.243  17.064  1.00  0.00     0.168 C 
BRANCH   9  14
HETATM   14  C1  UNL     1      24.759  -4.949  14.690  1.00  0.00     0.197 C 
BRANCH  14  15
HETATM   15  O1  UNL     1      24.898  -6.321  14.913  1.00  0.00    -0.398 OA
ATOM     16  H1  UNL     1      24.459  -6.851  14.258  1.00  0.00     0.209 HD
ENDBRANCH  14  15
ENDBRANCH   9  14
BRANCH  11  17
HETATM   17  O3  UNL     1      23.400  -5.247  19.028  1.00  0.00    -0.369 OA
ATOM     18  H3  UNL     1      24.306  -5.028  19.212  1.00  0.00     0.212 HD
ENDBRANCH  11  17
BRANCH  12  19
HETATM   19  O4  UNL     1      21.789  -2.665  18.407  1.00  0.00    -0.388 OA
ATOM     20  H4  UNL     1      21.822  -2.022  19.106  1.00  0.00     0.210 HD
ENDBRANCH  12  19
BRANCH  13  21
HETATM   21  O5  UNL     1      24.060  -1.015  17.541  1.00  0.00    -0.392 OA
ATOM     22  H5  UNL     1      24.377  -0.446  16.849  1.00  0.00     0.210 HD
ENDBRANCH  13  21
ENDBRANCH   7   8
ENDBRANCH   1   7
BRANCH   6  23
HETATM   23  O13 UNL     1      27.360   0.145  13.761  1.00  0.00    -0.389 OA
ATOM     24  H13 UNL     1      26.964   0.845  13.255  1.00  0.00     0.210 HD
ENDBRANCH   6  23
BRANCH   3  25
HETATM   25  C9  UNL     1      28.616  -0.896  18.774  1.00  0.00     0.217 C 
BRANCH  25  26
HETATM   26  O7  UNL     1      27.793  -0.626  19.864  1.00  0.00    -0.280 OA
BRANCH  26  27
HETATM   27  P1  UNL     1      26.958  -1.842  20.471  1.00  0.00     0.422 P 
HETATM   28  O8  UNL     1      28.072  -2.648  21.030  1.00  0.00    -0.617 OA
HETATM   29  O9  UNL     1      26.334  -1.593  22.063  1.00  0.00    -0.617 OA
HETATM   30  O10 UNL     1      26.336  -3.081  19.615  1.00  0.00    -0.617 OA
ENDBRANCH  26  27
ENDBRANCH  25  26
ENDBRANCH   3  25
BRANCH   5  31
HETATM   31  O12 UNL     1      27.132   2.237  16.446  1.00  0.00    -0.390 OA
ATOM     32  H12 UNL     1      26.855   2.909  15.833  1.00  0.00     0.210 HD
ENDBRANCH   5  31
BRANCH   4  33
HETATM   33  O11 UNL     1      29.682  -0.270  16.126  1.00  0.00    -0.390 OA
ATOM     34  H11 UNL     1      30.133   0.203  15.436  1.00  0.00     0.210 HD
ENDBRANCH   4  33
TORSDOF 13
ENDMDL
