MODEL 10
REMARK VINA RESULT: -8.422551925      4.195      6.682
REMARK  5 active torsions:
REMARK  status: ('A' for Active; 'I' for Inactive)
REMARK    1  A    between atoms: C4_5  and  C5_6 
REMARK    2  A    between atoms: C9_12  and  C10_13 
REMARK    3  A    between atoms: C22_29  and  C23_30 
REMARK    4  A    between atoms: C26_33  and  C27_34 
REMARK    5  A    between atoms: C31_40  and  O4_41 
ROOT
HETATM    1  C1  UNL     1       2.564  33.327  22.821  1.00  0.00     0.210 C 
HETATM    2  O1  UNL     1       3.070  34.500  22.880  1.00  0.00    -0.353 OA
HETATM    3  C2  UNL     1       3.586  35.685  22.942  1.00  0.00     0.101 A 
HETATM    4  C3  UNL     1       4.700  35.981  23.705  1.00  0.00     0.049 A 
HETATM    5  C4  UNL     1       5.291  37.220  23.768  1.00  0.00    -0.021 A 
HETATM    6  C22 UNL     1       4.728  38.218  23.017  1.00  0.00    -0.015 A 
HETATM    7  C30 UNL     1       3.615  37.961  22.247  1.00  0.00     0.052 A 
HETATM    8  C31 UNL     1       3.042  36.743  22.197  1.00  0.00     0.099 A 
ENDROOT
BRANCH   8   9
HETATM    9  O4  UNL     1       1.908  36.549  21.410  1.00  0.00    -0.358 OA
ATOM     10  H4  UNL     1       1.125  37.069  21.552  1.00  0.00     0.217 HD
ENDBRANCH   8   9
BRANCH   5  11
HETATM   11  C5  UNL     1       6.544  37.435  24.556  1.00  0.00     0.121 C 
HETATM   12  N1  UNL     1       7.194  36.138  24.767  1.00  0.00    -0.380 N 
HETATM   13  C6  UNL     1       7.856  35.760  25.954  1.00  0.00     0.035 A 
ATOM     14  H1  UNL     1       7.166  35.463  24.004  1.00  0.00     0.160 HD
HETATM   15  C7  UNL     1       8.940  34.882  25.931  1.00  0.00     0.031 A 
HETATM   16  C12 UNL     1       7.417  36.289  27.163  1.00  0.00    -0.022 A 
HETATM   17  C8  UNL     1       9.535  34.584  27.150  1.00  0.00     0.017 A 
HETATM   18  C9  UNL     1       9.122  35.098  28.350  1.00  0.00     0.005 A 
HETATM   19  C11 UNL     1       8.046  35.958  28.318  1.00  0.00     0.025 A 
HETATM   20  C13 UNL     1       6.245  37.208  27.103  1.00  0.00     0.061 C 
HETATM   21  C14 UNL     1       6.437  38.223  28.207  1.00  0.00    -0.043 A 
HETATM   22  C21 UNL     1       6.170  38.010  25.899  1.00  0.00     0.030 C 
HETATM   23  C15 UNL     1       6.173  38.222  29.579  1.00  0.00     0.008 A 
HETATM   24  C19 UNL     1       7.014  39.344  27.656  1.00  0.00    -0.051 A 
HETATM   25  C16 UNL     1       6.468  39.286  30.373  1.00  0.00     0.001 A 
HETATM   26  C17 UNL     1       7.043  40.409  29.824  1.00  0.00     0.001 A 
HETATM   27  C18 UNL     1       7.304  40.416  28.479  1.00  0.00     0.007 A 
HETATM   28  C20 UNL     1       7.169  39.158  26.205  1.00  0.00     0.047 C 
BRANCH  18  29
HETATM   29  C10 UNL     1       9.781  34.787  29.605  1.00  0.00     0.120 C 
HETATM   30  N2  UNL     1       9.364  33.625  30.348  1.00  0.00    -0.082 NA
HETATM   31  N3  UNL     1      10.724  35.494  30.111  1.00  0.00    -0.387 N 
ATOM     32  H32 UNL     1      11.018  36.316  29.585  1.00  0.00     0.157 HD
ATOM     33  H31 UNL     1      11.187  35.275  30.993  1.00  0.00     0.157 HD
ENDBRANCH  18  29
ENDBRANCH   5  11
BRANCH   6  34
HETATM   34  C23 UNL     1       5.315  39.539  23.050  1.00  0.00    -0.025 A 
HETATM   35  C24 UNL     1       4.831  40.576  23.788  1.00  0.00     0.013 A 
HETATM   36  C25 UNL     1       5.432  41.809  23.756  1.00  0.00     0.019 A 
HETATM   37  C26 UNL     1       6.540  42.017  22.971  1.00  0.00     0.040 A 
HETATM   38  C28 UNL     1       7.086  40.993  22.188  1.00  0.00     0.019 A 
HETATM   39  C29 UNL     1       6.447  39.788  22.260  1.00  0.00     0.013 A 
BRANCH  37  40
HETATM   40  C27 UNL     1       7.200  43.342  22.931  1.00  0.00     0.209 C 
HETATM   41  O2  UNL     1       8.255  43.523  23.588  1.00  0.00    -0.644 OA
HETATM   42  O3  UNL     1       6.667  44.358  22.185  1.00  0.00    -0.644 OA
ENDBRANCH  37  40
ENDBRANCH   6  34
TORSDOF 5
ENDMDL
