MODEL 2
REMARK VINA RESULT: -9.183585806      4.337      7.840
REMARK  5 active torsions:
REMARK  status: ('A' for Active; 'I' for Inactive)
REMARK    1  A    between atoms: C4_5  and  C5_6 
REMARK    2  A    between atoms: C9_12  and  C10_13 
REMARK    3  A    between atoms: C22_29  and  C23_30 
REMARK    4  A    between atoms: C26_33  and  C27_34 
REMARK    5  A    between atoms: C31_40  and  O4_41 
ROOT
HETATM    1  C1  UNL     1       4.566  42.755  28.795  1.00  0.00     0.210 C 
HETATM    2  O1  UNL     1       5.173  41.644  28.612  1.00  0.00    -0.353 OA
HETATM    3  C2  UNL     1       5.786  40.520  28.422  1.00  0.00     0.101 A 
HETATM    4  C3  UNL     1       5.869  39.909  27.185  1.00  0.00     0.049 A 
HETATM    5  C4  UNL     1       6.540  38.734  26.944  1.00  0.00    -0.021 A 
HETATM    6  C22 UNL     1       7.162  38.141  28.009  1.00  0.00    -0.015 A 
HETATM    7  C30 UNL     1       7.097  38.719  29.259  1.00  0.00     0.052 A 
HETATM    8  C31 UNL     1       6.433  39.869  29.484  1.00  0.00     0.099 A 
ENDROOT
BRANCH   8   9
HETATM    9  O4  UNL     1       6.390  40.397  30.773  1.00  0.00    -0.358 OA
ATOM     10  H4  UNL     1       5.859  39.989  31.446  1.00  0.00     0.217 HD
ENDBRANCH   8   9
BRANCH   5  11
HETATM   11  C5  UNL     1       6.650  38.183  25.558  1.00  0.00     0.121 C 
HETATM   12  N1  UNL     1       7.533  39.054  24.775  1.00  0.00    -0.380 N 
HETATM   13  C6  UNL     1       7.336  39.378  23.416  1.00  0.00     0.035 A 
ATOM     14  H1  UNL     1       8.344  39.454  25.246  1.00  0.00     0.160 HD
HETATM   15  C7  UNL     1       8.414  39.636  22.570  1.00  0.00     0.031 A 
HETATM   16  C12 UNL     1       6.037  39.426  22.921  1.00  0.00    -0.022 A 
HETATM   17  C8  UNL     1       8.118  39.929  21.244  1.00  0.00     0.017 A 
HETATM   18  C9  UNL     1       6.848  39.976  20.735  1.00  0.00     0.005 A 
HETATM   19  C11 UNL     1       5.819  39.715  21.614  1.00  0.00     0.025 A 
HETATM   20  C13 UNL     1       4.941  39.152  23.893  1.00  0.00     0.061 C 
HETATM   21  C14 UNL     1       3.837  38.472  23.116  1.00  0.00    -0.043 A 
HETATM   22  C21 UNL     1       5.280  38.196  24.928  1.00  0.00     0.030 C 
HETATM   23  C15 UNL     1       2.796  38.936  22.306  1.00  0.00     0.008 A 
HETATM   24  C19 UNL     1       3.973  37.114  23.285  1.00  0.00    -0.051 A 
HETATM   25  C16 UNL     1       1.927  38.091  21.690  1.00  0.00     0.001 A 
HETATM   26  C17 UNL     1       2.061  36.733  21.859  1.00  0.00     0.001 A 
HETATM   27  C18 UNL     1       3.079  36.271  22.652  1.00  0.00     0.007 A 
HETATM   28  C20 UNL     1       5.094  36.840  24.197  1.00  0.00     0.047 C 
BRANCH  18  29
HETATM   29  C10 UNL     1       6.573  40.261  19.340  1.00  0.00     0.120 C 
HETATM   30  N2  UNL     1       5.389  41.005  18.994  1.00  0.00    -0.082 NA
HETATM   31  N3  UNL     1       7.325  39.882  18.372  1.00  0.00    -0.387 N 
ATOM     32  H32 UNL     1       8.163  39.356  18.617  1.00  0.00     0.157 HD
ATOM     33  H31 UNL     1       7.132  40.082  17.391  1.00  0.00     0.157 HD
ENDBRANCH  18  29
ENDBRANCH   5  11
BRANCH   6  34
HETATM   34  C23 UNL     1       7.880  36.903  27.805  1.00  0.00    -0.025 A 
HETATM   35  C24 UNL     1       7.929  36.228  26.623  1.00  0.00     0.013 A 
HETATM   36  C25 UNL     1       8.618  35.048  26.510  1.00  0.00     0.019 A 
HETATM   37  C26 UNL     1       9.274  34.523  27.596  1.00  0.00     0.040 A 
HETATM   38  C28 UNL     1       9.262  35.166  28.840  1.00  0.00     0.019 A 
HETATM   39  C29 UNL     1       8.561  36.337  28.894  1.00  0.00     0.013 A 
BRANCH  37  40
HETATM   40  C27 UNL     1      10.025  33.252  27.485  1.00  0.00     0.209 C 
HETATM   41  O2  UNL     1      11.151  33.153  28.033  1.00  0.00    -0.644 OA
HETATM   42  O3  UNL     1       9.498  32.195  26.793  1.00  0.00    -0.644 OA
ENDBRANCH  37  40
ENDBRANCH   6  34
TORSDOF 5
ENDMDL
