MODEL 3
REMARK VINA RESULT: -8.994103067      2.159      5.949
REMARK  5 active torsions:
REMARK  status: ('A' for Active; 'I' for Inactive)
REMARK    1  A    between atoms: C4_5  and  C5_6 
REMARK    2  A    between atoms: C9_12  and  C10_13 
REMARK    3  A    between atoms: C22_29  and  C23_30 
REMARK    4  A    between atoms: C26_33  and  C27_34 
REMARK    5  A    between atoms: C31_40  and  O4_41 
ROOT
HETATM    1  C1  UNL     1       4.481  40.765  22.552  1.00  0.00     0.210 C 
HETATM    2  O1  UNL     1       5.129  39.967  23.314  1.00  0.00    -0.353 OA
HETATM    3  C2  UNL     1       5.780  39.160  24.089  1.00  0.00     0.101 A 
HETATM    4  C3  UNL     1       5.364  38.847  25.369  1.00  0.00     0.049 A 
HETATM    5  C4  UNL     1       6.015  37.971  26.204  1.00  0.00    -0.021 A 
HETATM    6  C22 UNL     1       7.149  37.375  25.720  1.00  0.00    -0.015 A 
HETATM    7  C30 UNL     1       7.597  37.665  24.450  1.00  0.00     0.052 A 
HETATM    8  C31 UNL     1       6.953  38.530  23.642  1.00  0.00     0.099 A 
ENDROOT
BRANCH   8   9
HETATM    9  O4  UNL     1       7.463  38.795  22.372  1.00  0.00    -0.358 OA
ATOM     10  H4  UNL     1       8.368  38.599  22.164  1.00  0.00     0.217 HD
ENDBRANCH   8   9
BRANCH   5  11
HETATM   11  C5  UNL     1       5.452  37.625  27.545  1.00  0.00     0.121 C 
HETATM   12  N1  UNL     1       4.249  36.810  27.353  1.00  0.00    -0.380 N 
HETATM   13  C6  UNL     1       3.084  36.906  28.144  1.00  0.00     0.035 A 
ATOM     14  H1  UNL     1       4.253  36.126  26.596  1.00  0.00     0.160 HD
HETATM   15  C7  UNL     1       2.272  35.795  28.374  1.00  0.00     0.031 A 
HETATM   16  C12 UNL     1       2.757  38.134  28.708  1.00  0.00    -0.022 A 
HETATM   17  C8  UNL     1       1.156  35.987  29.180  1.00  0.00     0.017 A 
HETATM   18  C9  UNL     1       0.820  37.186  29.749  1.00  0.00     0.005 A 
HETATM   19  C11 UNL     1       1.654  38.251  29.488  1.00  0.00     0.025 A 
HETATM   20  C13 UNL     1       3.668  39.273  28.402  1.00  0.00     0.061 C 
HETATM   21  C14 UNL     1       3.665  40.166  29.621  1.00  0.00    -0.043 A 
HETATM   22  C21 UNL     1       5.060  38.903  28.242  1.00  0.00     0.030 C 
HETATM   23  C15 UNL     1       2.811  41.172  30.081  1.00  0.00     0.008 A 
HETATM   24  C19 UNL     1       4.758  39.839  30.390  1.00  0.00    -0.051 A 
HETATM   25  C16 UNL     1       3.029  41.827  31.253  1.00  0.00     0.001 A 
HETATM   26  C17 UNL     1       4.122  41.501  32.023  1.00  0.00     0.001 A 
HETATM   27  C18 UNL     1       4.963  40.516  31.577  1.00  0.00     0.007 A 
HETATM   28  C20 UNL     1       5.543  38.795  29.713  1.00  0.00     0.047 C 
BRANCH  18  29
HETATM   29  C10 UNL     1      -0.339  37.349  30.606  1.00  0.00     0.120 C 
HETATM   30  N2  UNL     1      -0.205  37.117  32.022  1.00  0.00    -0.082 NA
HETATM   31  N3  UNL     1      -1.501  37.685  30.179  1.00  0.00    -0.387 N 
ATOM     32  H32 UNL     1      -1.596  37.848  29.177  1.00  0.00     0.157 HD
ATOM     33  H31 UNL     1      -2.317  37.799  30.782  1.00  0.00     0.157 HD
ENDBRANCH  18  29
ENDBRANCH   5  11
BRANCH   6  34
HETATM   34  C23 UNL     1       7.869  36.445  26.561  1.00  0.00    -0.025 A 
HETATM   35  C24 UNL     1       7.898  36.503  27.922  1.00  0.00     0.013 A 
HETATM   36  C25 UNL     1       8.619  35.594  28.653  1.00  0.00     0.019 A 
HETATM   37  C26 UNL     1       9.328  34.603  28.020  1.00  0.00     0.040 A 
HETATM   38  C28 UNL     1       9.340  34.488  26.625  1.00  0.00     0.019 A 
HETATM   39  C29 UNL     1       8.606  35.420  25.948  1.00  0.00     0.013 A 
BRANCH  37  40
HETATM   40  C27 UNL     1      10.106  33.613  28.799  1.00  0.00     0.209 C 
HETATM   41  O2  UNL     1      10.855  32.807  28.195  1.00  0.00    -0.644 OA
HETATM   42  O3  UNL     1      10.009  33.577  30.165  1.00  0.00    -0.644 OA
ENDBRANCH  37  40
ENDBRANCH   6  34
TORSDOF 5
ENDMDL
