MODEL 1
REMARK VINA RESULT: -9.310905973      0.000      0.000
REMARK  5 active torsions:
REMARK  status: ('A' for Active; 'I' for Inactive)
REMARK    1  A    between atoms: C4_5  and  C5_6 
REMARK    2  A    between atoms: C9_12  and  C10_13 
REMARK    3  A    between atoms: C22_29  and  C23_30 
REMARK    4  A    between atoms: C26_33  and  C27_34 
REMARK    5  A    between atoms: C31_40  and  O4_41 
ROOT
HETATM    1  C1  UNL     1       9.897  34.866  29.410  1.00  0.00     0.210 C 
HETATM    2  O1  UNL     1       9.130  35.294  28.480  1.00  0.00    -0.353 OA
HETATM    3  C2  UNL     1       8.351  35.729  27.542  1.00  0.00     0.101 A 
HETATM    4  C3  UNL     1       7.263  36.545  27.787  1.00  0.00     0.049 A 
HETATM    5  C4  UNL     1       6.437  37.049  26.811  1.00  0.00    -0.021 A 
HETATM    6  C22 UNL     1       6.724  36.713  25.516  1.00  0.00    -0.015 A 
HETATM    7  C30 UNL     1       7.798  35.898  25.233  1.00  0.00     0.052 A 
HETATM    8  C31 UNL     1       8.599  35.405  26.198  1.00  0.00     0.099 A 
ENDROOT
BRANCH   8   9
HETATM    9  O4  UNL     1       9.662  34.573  25.852  1.00  0.00    -0.358 OA
ATOM     10  H4  UNL     1      10.187  34.154  26.523  1.00  0.00     0.217 HD
ENDBRANCH   8   9
BRANCH   5  11
HETATM   11  C5  UNL     1       5.329  37.993  27.155  1.00  0.00     0.121 C 
HETATM   12  N1  UNL     1       5.376  38.268  28.595  1.00  0.00    -0.380 N 
HETATM   13  C6  UNL     1       4.240  38.418  29.418  1.00  0.00     0.035 A 
ATOM     14  H1  UNL     1       6.293  38.356  29.032  1.00  0.00     0.160 HD
HETATM   15  C7  UNL     1       4.260  39.253  30.535  1.00  0.00     0.031 A 
HETATM   16  C12 UNL     1       3.080  37.723  29.091  1.00  0.00    -0.022 A 
HETATM   17  C8  UNL     1       3.086  39.346  31.272  1.00  0.00     0.017 A 
HETATM   18  C9  UNL     1       1.932  38.676  30.964  1.00  0.00     0.005 A 
HETATM   19  C11 UNL     1       1.967  37.862  29.852  1.00  0.00     0.025 A 
HETATM   20  C13 UNL     1       3.146  36.841  27.891  1.00  0.00     0.061 C 
HETATM   21  C14 UNL     1       1.770  36.861  27.266  1.00  0.00    -0.043 A 
HETATM   22  C21 UNL     1       4.016  37.324  26.836  1.00  0.00     0.030 C 
HETATM   23  C15 UNL     1       0.582  36.170  27.520  1.00  0.00     0.008 A 
HETATM   24  C19 UNL     1       1.775  37.797  26.257  1.00  0.00    -0.051 A 
HETATM   25  C16 UNL     1      -0.553  36.395  26.805  1.00  0.00     0.001 A 
HETATM   26  C17 UNL     1      -0.549  37.328  25.794  1.00  0.00     0.001 A 
HETATM   27  C18 UNL     1       0.613  38.009  25.540  1.00  0.00     0.007 A 
HETATM   28  C20 UNL     1       3.121  38.375  26.127  1.00  0.00     0.047 C 
BRANCH  18  29
HETATM   29  C10 UNL     1       0.714  38.814  31.740  1.00  0.00     0.120 C 
HETATM   30  N2  UNL     1      -0.066  37.640  32.038  1.00  0.00    -0.082 NA
HETATM   31  N3  UNL     1       0.273  39.934  32.182  1.00  0.00    -0.387 N 
ATOM     32  H32 UNL     1       0.825  40.765  31.971  1.00  0.00     0.157 HD
ATOM     33  H31 UNL     1      -0.584  40.031  32.728  1.00  0.00     0.157 HD
ENDBRANCH  18  29
ENDBRANCH   5  11
BRANCH   6  34
HETATM   34  C23 UNL     1       5.883  37.219  24.454  1.00  0.00    -0.025 A 
HETATM   35  C24 UNL     1       6.006  38.457  23.900  1.00  0.00     0.013 A 
HETATM   36  C25 UNL     1       5.159  38.874  22.905  1.00  0.00     0.019 A 
HETATM   37  C26 UNL     1       4.164  38.044  22.450  1.00  0.00     0.040 A 
HETATM   38  C28 UNL     1       3.983  36.761  22.979  1.00  0.00     0.019 A 
HETATM   39  C29 UNL     1       4.855  36.397  23.966  1.00  0.00     0.013 A 
BRANCH  37  40
HETATM   40  C27 UNL     1       3.246  38.482  21.375  1.00  0.00     0.209 C 
HETATM   41  O2  UNL     1       2.016  38.565  21.613  1.00  0.00    -0.644 OA
HETATM   42  O3  UNL     1       3.733  38.795  20.134  1.00  0.00    -0.644 OA
ENDBRANCH  37  40
ENDBRANCH   6  34
TORSDOF 5
ENDMDL
