MODEL 2
REMARK VINA RESULT: -8.917545262      0.882      1.308
REMARK  8 active torsions:
REMARK  status: ('A' for Active; 'I' for Inactive)
REMARK    1  A    between atoms: C2_2  and  C3_3 
REMARK    2  A    between atoms: C3_3  and  C4_4 
REMARK    3  A    between atoms: C7_7  and  C8_8 
REMARK       I    between atoms: C8_8  and  N1_10 
REMARK    4  A    between atoms: N1_10  and  C9_12 
REMARK    5  A    between atoms: C9_12  and  C10_13 
REMARK    6  A    between atoms: C13_16  and  C14_17 
REMARK    7  A    between atoms: C19_30  and  N6_31 
REMARK    8  A    between atoms: N6_31  and  C20_33 
ROOT
HETATM    1  C3  UNL     1       3.395  36.800  23.915  1.00  0.00     0.007 C 
HETATM    2  C6  UNL     1       4.125  37.247  25.203  1.00  0.00     0.051 C 
HETATM    3  C7  UNL     1       5.046  38.320  24.841  1.00  0.00     0.186 C 
HETATM    4  N4  UNL     1       4.736  38.683  23.477  1.00  0.00    -0.297 N 
HETATM    5  C17 UNL     1       3.802  37.859  23.004  1.00  0.00     0.063 A 
HETATM    6  C18 UNL     1       3.356  38.116  21.701  1.00  0.00     0.129 A 
HETATM    7 CL1  UNL     1       2.102  37.141  21.000  1.00  0.00    -0.062 Cl
HETATM    8  N5  UNL     1       3.852  39.132  20.986  1.00  0.00    -0.327 N 
ATOM      9  H5  UNL     1       3.503  39.287  20.040  1.00  0.00     0.168 HD
HETATM   10  C19 UNL     1       4.792  39.950  21.474  1.00  0.00     0.172 A 
HETATM   11  C24 UNL     1       5.238  39.726  22.731  1.00  0.00     0.292 A 
HETATM   12  O2  UNL     1       6.112  40.467  23.223  1.00  0.00    -0.264 OA
ENDROOT
BRANCH   3  13
HETATM   13  C8  UNL     1       6.462  38.168  25.126  1.00  0.00     0.241 C 
HETATM   14  O1  UNL     1       7.042  39.100  25.787  1.00  0.00    -0.271 OA
HETATM   15  N1  UNL     1       7.320  37.102  24.766  1.00  0.00    -0.355 N 
ATOM     16  H1  UNL     1       6.937  36.320  24.234  1.00  0.00     0.162 HD
BRANCH  15  17
HETATM   17  C9  UNL     1       8.733  37.081  25.130  1.00  0.00     0.161 C 
BRANCH  17  18
HETATM   18  C10 UNL     1       9.000  36.215  26.310  1.00  0.00    -0.040 A 
HETATM   19  C11 UNL     1       9.528  34.950  26.155  1.00  0.00     0.010 A 
HETATM   20  C12 UNL     1       9.782  34.147  27.246  1.00  0.00     0.015 A 
HETATM   21  C13 UNL     1       9.522  34.561  28.557  1.00  0.00     0.004 A 
HETATM   22  C15 UNL     1       8.997  35.818  28.711  1.00  0.00     0.015 A 
HETATM   23  C16 UNL     1       8.742  36.629  27.599  1.00  0.00     0.010 A 
BRANCH  21  24
HETATM   24  C14 UNL     1       9.820  33.646  29.662  1.00  0.00     0.120 C 
HETATM   25  N2  UNL     1      10.231  32.305  29.417  1.00  0.00    -0.082 NA
HETATM   26  N3  UNL     1       9.716  34.039  30.874  1.00  0.00    -0.387 N 
ATOM     27  H32 UNL     1       9.422  35.000  31.049  1.00  0.00     0.157 HD
ATOM     28  H31 UNL     1       9.923  33.402  31.642  1.00  0.00     0.157 HD
ENDBRANCH  21  24
ENDBRANCH  17  18
ENDBRANCH  15  17
ENDBRANCH   3  13
BRANCH   1  29
HETATM   29  C2  UNL     1       1.923  36.846  24.278  1.00  0.00     0.011 C 
HETATM   30  C1  UNL     1       1.735  36.970  25.748  1.00  0.00     0.006 C 
ENDBRANCH   1  29
BRANCH   1  31
HETATM   31  C4  UNL     1       3.894  35.429  23.663  1.00  0.00     0.011 C 
HETATM   32  C5  UNL     1       3.039  34.455  22.960  1.00  0.00     0.006 C 
ENDBRANCH   1  31
BRANCH  10  33
HETATM   33  N6  UNL     1       5.262  41.001  20.639  1.00  0.00    -0.367 N 
ATOM     34  H6  UNL     1       4.699  41.849  20.566  1.00  0.00     0.161 HD
BRANCH  33  35
HETATM   35  C20 UNL     1       6.475  40.933  19.900  1.00  0.00     0.083 C 
HETATM   36  C21 UNL     1       6.298  41.074  18.381  1.00  0.00     0.025 C 
HETATM   37  C22 UNL     1       7.488  41.996  18.378  1.00  0.00     0.004 C 
HETATM   38  C23 UNL     1       7.376  42.117  19.866  1.00  0.00     0.025 C 
ENDBRANCH  33  35
ENDBRANCH  10  33
TORSDOF 8
ENDMDL
