MODEL 4
REMARK VINA RESULT: -8.211023449      3.062      6.069
REMARK  8 active torsions:
REMARK  status: ('A' for Active; 'I' for Inactive)
REMARK    1  A    between atoms: C2_2  and  C3_3 
REMARK    2  A    between atoms: C3_3  and  C4_4 
REMARK    3  A    between atoms: C7_7  and  C8_8 
REMARK       I    between atoms: C8_8  and  N1_10 
REMARK    4  A    between atoms: N1_10  and  C9_12 
REMARK    5  A    between atoms: C9_12  and  C10_13 
REMARK    6  A    between atoms: C13_16  and  C14_17 
REMARK    7  A    between atoms: C19_30  and  N6_31 
REMARK    8  A    between atoms: N6_31  and  C20_33 
ROOT
HETATM    1  C3  UNL     1       2.823  38.878  23.991  1.00  0.00     0.007 C 
HETATM    2  C6  UNL     1       3.962  37.924  23.560  1.00  0.00     0.051 C 
HETATM    3  C7  UNL     1       4.506  37.309  24.767  1.00  0.00     0.186 C 
HETATM    4  N4  UNL     1       3.611  37.664  25.845  1.00  0.00    -0.297 N 
HETATM    5  C17 UNL     1       2.676  38.495  25.387  1.00  0.00     0.063 A 
HETATM    6  C18 UNL     1       1.698  38.891  26.308  1.00  0.00     0.129 A 
HETATM    7 CL1  UNL     1       0.399  39.928  25.809  1.00  0.00    -0.062 Cl
HETATM    8  N5  UNL     1       1.719  38.455  27.572  1.00  0.00    -0.327 N 
ATOM      9  H5  UNL     1       0.991  38.766  28.215  1.00  0.00     0.168 HD
HETATM   10  C19 UNL     1       2.666  37.622  28.019  1.00  0.00     0.172 A 
HETATM   11  C24 UNL     1       3.621  37.220  27.149  1.00  0.00     0.292 A 
HETATM   12  O2  UNL     1       4.521  36.443  27.527  1.00  0.00    -0.264 OA
ENDROOT
BRANCH   3  13
HETATM   13  C8  UNL     1       5.918  37.462  25.069  1.00  0.00     0.241 C 
HETATM   14  O1  UNL     1       6.286  38.526  25.682  1.00  0.00    -0.271 OA
HETATM   15  N1  UNL     1       6.979  36.573  24.777  1.00  0.00    -0.355 N 
ATOM     16  H1  UNL     1       6.771  35.703  24.287  1.00  0.00     0.162 HD
BRANCH  15  17
HETATM   17  C9  UNL     1       8.360  36.858  25.151  1.00  0.00     0.161 C 
BRANCH  17  18
HETATM   18  C10 UNL     1       8.800  36.066  26.331  1.00  0.00    -0.040 A 
HETATM   19  C11 UNL     1       8.541  36.503  27.614  1.00  0.00     0.010 A 
HETATM   20  C12 UNL     1       8.941  35.770  28.709  1.00  0.00     0.015 A 
HETATM   21  C13 UNL     1       9.628  34.556  28.588  1.00  0.00     0.004 A 
HETATM   22  C15 UNL     1       9.885  34.122  27.314  1.00  0.00     0.015 A 
HETATM   23  C16 UNL     1       9.475  34.871  26.204  1.00  0.00     0.010 A 
BRANCH  21  24
HETATM   24  C14 UNL     1      10.019  33.837  29.804  1.00  0.00     0.120 C 
HETATM   25  N2  UNL     1      10.221  32.428  29.793  1.00  0.00    -0.082 NA
HETATM   26  N3  UNL     1      10.188  34.469  30.902  1.00  0.00    -0.387 N 
ATOM     27  H32 UNL     1      10.044  35.479  30.909  1.00  0.00     0.157 HD
ATOM     28  H31 UNL     1      10.461  33.969  31.748  1.00  0.00     0.157 HD
ENDBRANCH  21  24
ENDBRANCH  17  18
ENDBRANCH  15  17
ENDBRANCH   3  13
BRANCH   1  29
HETATM   29  C2  UNL     1       1.644  38.475  23.125  1.00  0.00     0.011 C 
HETATM   30  C1  UNL     1       2.045  37.475  22.100  1.00  0.00     0.006 C 
ENDBRANCH   1  29
BRANCH   1  31
HETATM   31  C4  UNL     1       3.338  40.232  23.686  1.00  0.00     0.011 C 
HETATM   32  C5  UNL     1       2.471  41.211  23.006  1.00  0.00     0.006 C 
ENDBRANCH   1  31
BRANCH  10  33
HETATM   33  N6  UNL     1       2.609  37.214  29.381  1.00  0.00    -0.367 N 
ATOM     34  H6  UNL     1       3.437  37.350  29.962  1.00  0.00     0.161 HD
BRANCH  33  35
HETATM   35  C20 UNL     1       1.459  36.627  29.976  1.00  0.00     0.083 C 
HETATM   36  C21 UNL     1       1.738  35.883  31.290  1.00  0.00     0.025 C 
HETATM   37  C22 UNL     1       0.503  36.525  31.860  1.00  0.00     0.004 C 
HETATM   38  C23 UNL     1       0.498  37.490  30.715  1.00  0.00     0.025 C 
ENDBRANCH  33  35
ENDBRANCH  10  33
TORSDOF 8
ENDMDL
