MODEL 7
REMARK VINA RESULT: -8.080938451      2.780      5.808
REMARK  8 active torsions:
REMARK  status: ('A' for Active; 'I' for Inactive)
REMARK    1  A    between atoms: C2_2  and  C3_3 
REMARK    2  A    between atoms: C3_3  and  C4_4 
REMARK    3  A    between atoms: C7_7  and  C8_8 
REMARK       I    between atoms: C8_8  and  N1_10 
REMARK    4  A    between atoms: N1_10  and  C9_12 
REMARK    5  A    between atoms: C9_12  and  C10_13 
REMARK    6  A    between atoms: C13_16  and  C14_17 
REMARK    7  A    between atoms: C19_30  and  N6_31 
REMARK    8  A    between atoms: N6_31  and  C20_33 
ROOT
HETATM    1  C3  UNL     1       3.529  39.204  23.812  1.00  0.00     0.007 C 
HETATM    2  C6  UNL     1       4.424  38.013  23.396  1.00  0.00     0.051 C 
HETATM    3  C7  UNL     1       4.913  37.379  24.617  1.00  0.00     0.186 C 
HETATM    4  N4  UNL     1       4.181  37.977  25.710  1.00  0.00    -0.297 N 
HETATM    5  C17 UNL     1       3.402  38.950  25.239  1.00  0.00     0.063 A 
HETATM    6  C18 UNL     1       2.586  39.595  26.177  1.00  0.00     0.129 A 
HETATM    7 CL1  UNL     1       1.490  40.841  25.668  1.00  0.00    -0.062 Cl
HETATM    8  N5  UNL     1       2.604  39.246  27.468  1.00  0.00    -0.327 N 
ATOM      9  H5  UNL     1       1.996  39.740  28.122  1.00  0.00     0.168 HD
HETATM   10  C19 UNL     1       3.394  38.268  27.927  1.00  0.00     0.172 A 
HETATM   11  C24 UNL     1       4.189  37.626  27.042  1.00  0.00     0.292 A 
HETATM   12  O2  UNL     1       4.939  36.708  27.430  1.00  0.00    -0.264 OA
ENDROOT
BRANCH   3  13
HETATM   13  C8  UNL     1       6.344  37.261  24.832  1.00  0.00     0.241 C 
HETATM   14  O1  UNL     1       7.034  36.648  23.943  1.00  0.00    -0.271 OA
HETATM   15  N1  UNL     1       7.110  37.743  25.920  1.00  0.00    -0.355 N 
ATOM     16  H1  UNL     1       6.636  38.239  26.674  1.00  0.00     0.162 HD
BRANCH  15  17
HETATM   17  C9  UNL     1       8.555  37.554  26.000  1.00  0.00     0.161 C 
BRANCH  17  18
HETATM   18  C10 UNL     1       8.925  36.368  26.820  1.00  0.00    -0.040 A 
HETATM   19  C11 UNL     1       9.332  35.193  26.221  1.00  0.00     0.010 A 
HETATM   20  C12 UNL     1       9.681  34.095  26.976  1.00  0.00     0.015 A 
HETATM   21  C13 UNL     1       9.642  34.105  28.375  1.00  0.00     0.004 A 
HETATM   22  C15 UNL     1       9.238  35.272  28.969  1.00  0.00     0.015 A 
HETATM   23  C16 UNL     1       8.885  36.385  28.197  1.00  0.00     0.010 A 
BRANCH  21  24
HETATM   24  C14 UNL     1      10.029  32.893  29.104  1.00  0.00     0.120 C 
HETATM   25  N2  UNL     1      10.097  31.631  28.449  1.00  0.00    -0.082 NA
HETATM   26  N3  UNL     1      10.314  32.950  30.348  1.00  0.00    -0.387 N 
ATOM     27  H32 UNL     1      10.265  33.855  30.817  1.00  0.00     0.157 HD
ATOM     28  H31 UNL     1      10.583  32.108  30.855  1.00  0.00     0.157 HD
ENDBRANCH  21  24
ENDBRANCH  17  18
ENDBRANCH  15  17
ENDBRANCH   3  13
BRANCH   1  29
HETATM   29  C2  UNL     1       2.239  38.995  23.042  1.00  0.00     0.011 C 
HETATM   30  C1  UNL     1       2.361  37.865  22.083  1.00  0.00     0.006 C 
ENDBRANCH   1  29
BRANCH   1  31
HETATM   31  C4  UNL     1       4.282  40.403  23.378  1.00  0.00     0.011 C 
HETATM   32  C5  UNL     1       3.633  41.404  22.512  1.00  0.00     0.006 C 
ENDBRANCH   1  31
BRANCH  10  33
HETATM   33  N6  UNL     1       3.347  37.969  29.317  1.00  0.00    -0.367 N 
ATOM     34  H6  UNL     1       4.211  38.035  29.855  1.00  0.00     0.161 HD
BRANCH  33  35
HETATM   35  C20 UNL     1       2.159  37.584  29.997  1.00  0.00     0.083 C 
HETATM   36  C21 UNL     1       1.813  36.092  29.868  1.00  0.00     0.025 C 
HETATM   37  C22 UNL     1       1.491  36.091  31.337  1.00  0.00     0.004 C 
HETATM   38  C23 UNL     1       2.187  37.409  31.474  1.00  0.00     0.025 C 
ENDBRANCH  33  35
ENDBRANCH  10  33
TORSDOF 8
ENDMDL
