MODEL 6
REMARK VINA RESULT: -8.124188330      2.614      5.421
REMARK  8 active torsions:
REMARK  status: ('A' for Active; 'I' for Inactive)
REMARK    1  A    between atoms: C2_2  and  C3_3 
REMARK    2  A    between atoms: C3_3  and  C4_4 
REMARK    3  A    between atoms: C7_7  and  C8_8 
REMARK       I    between atoms: C8_8  and  N1_10 
REMARK    4  A    between atoms: N1_10  and  C9_12 
REMARK    5  A    between atoms: C9_12  and  C10_13 
REMARK    6  A    between atoms: C13_16  and  C14_17 
REMARK    7  A    between atoms: C19_30  and  N6_31 
REMARK    8  A    between atoms: N6_31  and  C20_33 
ROOT
HETATM    1  C3  UNL     1       3.168  39.065  22.888  1.00  0.00     0.007 C 
HETATM    2  C6  UNL     1       4.417  38.198  22.602  1.00  0.00     0.051 C 
HETATM    3  C7  UNL     1       4.794  37.540  23.848  1.00  0.00     0.186 C 
HETATM    4  N4  UNL     1       3.718  37.782  24.781  1.00  0.00    -0.297 N 
HETATM    5  C17 UNL     1       2.821  38.591  24.219  1.00  0.00     0.063 A 
HETATM    6  C18 UNL     1       1.685  38.881  24.986  1.00  0.00     0.129 A 
HETATM    7 CL1  UNL     1       0.424  39.879  24.334  1.00  0.00    -0.062 Cl
HETATM    8  N5  UNL     1       1.528  38.369  26.211  1.00  0.00    -0.327 N 
ATOM      9  H5  UNL     1       0.688  38.604  26.740  1.00  0.00     0.168 HD
HETATM   10  C19 UNL     1       2.438  37.560  26.765  1.00  0.00     0.172 A 
HETATM   11  C24 UNL     1       3.544  37.261  26.044  1.00  0.00     0.292 A 
HETATM   12  O2  UNL     1       4.415  36.509  26.524  1.00  0.00    -0.264 OA
ENDROOT
BRANCH   3  13
HETATM   13  C8  UNL     1       6.127  37.745  24.387  1.00  0.00     0.241 C 
HETATM   14  O1  UNL     1       6.498  38.949  24.622  1.00  0.00    -0.271 OA
HETATM   15  N1  UNL     1       7.106  36.773  24.700  1.00  0.00    -0.355 N 
ATOM     16  H1  UNL     1       6.892  35.788  24.539  1.00  0.00     0.162 HD
BRANCH  15  17
HETATM   17  C9  UNL     1       8.411  37.128  25.247  1.00  0.00     0.161 C 
BRANCH  17  18
HETATM   18  C10 UNL     1       8.812  36.243  26.374  1.00  0.00    -0.040 A 
HETATM   19  C11 UNL     1       8.485  36.563  27.676  1.00  0.00     0.010 A 
HETATM   20  C12 UNL     1       8.849  35.743  28.722  1.00  0.00     0.015 A 
HETATM   21  C13 UNL     1       9.564  34.555  28.529  1.00  0.00     0.004 A 
HETATM   22  C15 UNL     1       9.888  34.238  27.236  1.00  0.00     0.015 A 
HETATM   23  C16 UNL     1       9.515  35.074  26.177  1.00  0.00     0.010 A 
BRANCH  21  24
HETATM   24  C14 UNL     1       9.913  33.740  29.695  1.00  0.00     0.120 C 
HETATM   25  N2  UNL     1      10.232  32.359  29.560  1.00  0.00    -0.082 NA
HETATM   26  N3  UNL     1       9.938  34.258  30.863  1.00  0.00    -0.387 N 
ATOM     27  H32 UNL     1       9.709  35.248  30.960  1.00  0.00     0.157 HD
ATOM     28  H31 UNL     1      10.181  33.691  31.675  1.00  0.00     0.157 HD
ENDBRANCH  21  24
ENDBRANCH  17  18
ENDBRANCH  15  17
ENDBRANCH   3  13
BRANCH   1  29
HETATM   29  C2  UNL     1       2.172  38.657  21.820  1.00  0.00     0.011 C 
HETATM   30  C1  UNL     1       2.060  37.178  21.724  1.00  0.00     0.006 C 
ENDBRANCH   1  29
BRANCH   1  31
HETATM   31  C4  UNL     1       3.644  40.460  22.743  1.00  0.00     0.011 C 
HETATM   32  C5  UNL     1       2.831  41.439  21.998  1.00  0.00     0.006 C 
ENDBRANCH   1  31
BRANCH  10  33
HETATM   33  N6  UNL     1       2.186  37.068  28.075  1.00  0.00    -0.367 N 
ATOM     34  H6  UNL     1       2.213  36.059  28.226  1.00  0.00     0.161 HD
BRANCH  33  35
HETATM   35  C20 UNL     1       1.900  37.907  29.187  1.00  0.00     0.083 C 
HETATM   36  C21 UNL     1       1.765  37.161  30.523  1.00  0.00     0.025 C 
HETATM   37  C22 UNL     1       2.587  38.250  31.157  1.00  0.00     0.004 C 
HETATM   38  C23 UNL     1       2.993  38.714  29.793  1.00  0.00     0.025 C 
ENDBRANCH  33  35
ENDBRANCH  10  33
TORSDOF 8
ENDMDL
