MODEL 3
REMARK VINA RESULT: -8.262497133      2.354      3.260
REMARK  8 active torsions:
REMARK  status: ('A' for Active; 'I' for Inactive)
REMARK    1  A    between atoms: C2_2  and  C3_3 
REMARK    2  A    between atoms: C3_3  and  C4_4 
REMARK    3  A    between atoms: C7_7  and  C8_8 
REMARK       I    between atoms: C8_8  and  N1_10 
REMARK    4  A    between atoms: N1_10  and  C9_12 
REMARK    5  A    between atoms: C9_12  and  C10_13 
REMARK    6  A    between atoms: C13_16  and  C14_17 
REMARK    7  A    between atoms: C19_30  and  N6_31 
REMARK    8  A    between atoms: N6_31  and  C20_33 
ROOT
HETATM    1  C3  UNL     1       2.584  37.711  26.902  1.00  0.00     0.007 C 
HETATM    2  C6  UNL     1       4.004  38.287  27.114  1.00  0.00     0.051 C 
HETATM    3  C7  UNL     1       4.633  38.411  25.803  1.00  0.00     0.186 C 
HETATM    4  N4  UNL     1       3.596  38.164  24.827  1.00  0.00    -0.297 N 
HETATM    5  C17 UNL     1       2.473  37.818  25.455  1.00  0.00     0.063 A 
HETATM    6  C18 UNL     1       1.355  37.594  24.641  1.00  0.00     0.129 A 
HETATM    7 CL1  UNL     1      -0.175  37.191  25.353  1.00  0.00    -0.062 Cl
HETATM    8  N5  UNL     1       1.429  37.720  23.312  1.00  0.00    -0.327 N 
ATOM      9  H5  UNL     1       0.595  37.548  22.751  1.00  0.00     0.168 HD
HETATM   10  C19 UNL     1       2.565  38.067  22.694  1.00  0.00     0.172 A 
HETATM   11  C24 UNL     1       3.659  38.292  23.457  1.00  0.00     0.292 A 
HETATM   12  O2  UNL     1       4.736  38.618  22.920  1.00  0.00    -0.264 OA
ENDROOT
BRANCH   3  13
HETATM   13  C8  UNL     1       5.888  37.726  25.548  1.00  0.00     0.241 C 
HETATM   14  O1  UNL     1       5.835  36.501  25.176  1.00  0.00    -0.271 OA
HETATM   15  N1  UNL     1       7.203  38.237  25.653  1.00  0.00    -0.355 N 
ATOM     16  H1  UNL     1       7.333  39.205  25.947  1.00  0.00     0.162 HD
BRANCH  15  17
HETATM   17  C9  UNL     1       8.380  37.428  25.355  1.00  0.00     0.161 C 
BRANCH  17  18
HETATM   18  C10 UNL     1       8.732  36.512  26.474  1.00  0.00    -0.040 A 
HETATM   19  C11 UNL     1       9.276  35.267  26.225  1.00  0.00     0.010 A 
HETATM   20  C12 UNL     1       9.609  34.419  27.258  1.00  0.00     0.015 A 
HETATM   21  C13 UNL     1       9.417  34.762  28.601  1.00  0.00     0.004 A 
HETATM   22  C15 UNL     1       8.877  35.997  28.848  1.00  0.00     0.015 A 
HETATM   23  C16 UNL     1       8.541  36.856  27.794  1.00  0.00     0.010 A 
BRANCH  21  24
HETATM   24  C14 UNL     1       9.798  33.800  29.640  1.00  0.00     0.120 C 
HETATM   25  N2  UNL     1      10.146  32.460  29.311  1.00  0.00    -0.082 NA
HETATM   26  N3  UNL     1       9.824  34.152  30.868  1.00  0.00    -0.387 N 
ATOM     27  H32 UNL     1       9.575  35.113  31.104  1.00  0.00     0.157 HD
ATOM     28  H31 UNL     1      10.089  33.483  31.591  1.00  0.00     0.157 HD
ENDBRANCH  21  24
ENDBRANCH  17  18
ENDBRANCH  15  17
ENDBRANCH   3  13
BRANCH   1  29
HETATM   29  C2  UNL     1       1.673  38.664  27.651  1.00  0.00     0.011 C 
HETATM   30  C1  UNL     1       2.454  39.596  28.506  1.00  0.00     0.006 C 
ENDBRANCH   1  29
BRANCH   1  31
HETATM   31  C4  UNL     1       2.639  36.358  27.502  1.00  0.00     0.011 C 
HETATM   32  C5  UNL     1       1.528  35.885  28.348  1.00  0.00     0.006 C 
ENDBRANCH   1  31
BRANCH  10  33
HETATM   33  N6  UNL     1       2.549  38.173  21.276  1.00  0.00    -0.367 N 
ATOM     34  H6  UNL     1       2.669  37.322  20.726  1.00  0.00     0.161 HD
BRANCH  33  35
HETATM   35  C20 UNL     1       2.374  39.403  20.584  1.00  0.00     0.083 C 
HETATM   36  C21 UNL     1       1.966  40.581  21.482  1.00  0.00     0.025 C 
HETATM   37  C22 UNL     1       2.963  41.428  20.739  1.00  0.00     0.004 C 
HETATM   38  C23 UNL     1       3.571  40.184  20.170  1.00  0.00     0.025 C 
ENDBRANCH  33  35
ENDBRANCH  10  33
TORSDOF 8
ENDMDL
