MODEL 1
REMARK VINA RESULT: -9.053676945      0.000      0.000
REMARK  8 active torsions:
REMARK  status: ('A' for Active; 'I' for Inactive)
REMARK    1  A    between atoms: C2_2  and  C3_3 
REMARK    2  A    between atoms: C3_3  and  C4_4 
REMARK    3  A    between atoms: C7_7  and  C8_8 
REMARK       I    between atoms: C8_8  and  N1_10 
REMARK    4  A    between atoms: N1_10  and  C9_12 
REMARK    5  A    between atoms: C9_12  and  C10_13 
REMARK    6  A    between atoms: C13_16  and  C14_17 
REMARK    7  A    between atoms: C19_30  and  N6_31 
REMARK    8  A    between atoms: N6_31  and  C20_33 
ROOT
HETATM    1  C3  UNL     1       3.553  36.591  23.785  1.00  0.00     0.007 C 
HETATM    2  C6  UNL     1       4.399  36.771  25.068  1.00  0.00     0.051 C 
HETATM    3  C7  UNL     1       5.380  37.820  24.808  1.00  0.00     0.186 C 
HETATM    4  N4  UNL     1       5.013  38.420  23.546  1.00  0.00    -0.297 N 
HETATM    5  C17 UNL     1       3.986  37.752  23.023  1.00  0.00     0.063 A 
HETATM    6  C18 UNL     1       3.480  38.248  21.814  1.00  0.00     0.129 A 
HETATM    7 CL1  UNL     1       2.108  37.491  21.068  1.00  0.00    -0.062 Cl
HETATM    8  N5  UNL     1       4.010  39.329  21.232  1.00  0.00    -0.327 N 
ATOM      9  H5  UNL     1       3.615  39.660  20.352  1.00  0.00     0.168 HD
HETATM   10  C19 UNL     1       5.043  39.988  21.768  1.00  0.00     0.172 A 
HETATM   11  C24 UNL     1       5.550  39.532  22.937  1.00  0.00     0.292 A 
HETATM   12  O2  UNL     1       6.512  40.120  23.470  1.00  0.00    -0.264 OA
ENDROOT
BRANCH   3  13
HETATM   13  C8  UNL     1       6.794  37.524  24.956  1.00  0.00     0.241 C 
HETATM   14  O1  UNL     1       7.406  37.014  23.952  1.00  0.00    -0.271 OA
HETATM   15  N1  UNL     1       7.620  37.728  26.087  1.00  0.00    -0.355 N 
ATOM     16  H1  UNL     1       7.209  38.128  26.930  1.00  0.00     0.162 HD
BRANCH  15  17
HETATM   17  C9  UNL     1       9.038  37.387  26.088  1.00  0.00     0.161 C 
BRANCH  17  18
HETATM   18  C10 UNL     1       9.312  36.114  26.808  1.00  0.00    -0.040 A 
HETATM   19  C11 UNL     1       9.329  36.068  28.187  1.00  0.00     0.010 A 
HETATM   20  C12 UNL     1       9.575  34.890  28.857  1.00  0.00     0.015 A 
HETATM   21  C13 UNL     1       9.823  33.686  28.187  1.00  0.00     0.004 A 
HETATM   22  C15 UNL     1       9.806  33.731  26.818  1.00  0.00     0.015 A 
HETATM   23  C16 UNL     1       9.554  34.931  26.143  1.00  0.00     0.010 A 
BRANCH  21  24
HETATM   24  C14 UNL     1      10.078  32.476  28.975  1.00  0.00     0.120 C 
HETATM   25  N2  UNL     1       9.910  31.180  28.408  1.00  0.00    -0.082 NA
HETATM   26  N3  UNL     1      10.459  32.564  30.191  1.00  0.00    -0.387 N 
ATOM     27  H32 UNL     1      10.579  33.493  30.596  1.00  0.00     0.157 HD
ATOM     28  H31 UNL     1      10.636  31.723  30.739  1.00  0.00     0.157 HD
ENDBRANCH  21  24
ENDBRANCH  17  18
ENDBRANCH  15  17
ENDBRANCH   3  13
BRANCH   1  29
HETATM   29  C2  UNL     1       2.117  36.682  24.264  1.00  0.00     0.011 C 
HETATM   30  C1  UNL     1       2.047  36.777  25.745  1.00  0.00     0.006 C 
ENDBRANCH   1  29
BRANCH   1  31
HETATM   31  C4  UNL     1       3.921  35.247  23.284  1.00  0.00     0.011 C 
HETATM   32  C5  UNL     1       2.872  34.338  22.785  1.00  0.00     0.006 C 
ENDBRANCH   1  31
BRANCH  10  33
HETATM   33  N6  UNL     1       5.544  41.125  21.074  1.00  0.00    -0.367 N 
ATOM     34  H6  UNL     1       5.337  42.050  21.451  1.00  0.00     0.161 HD
BRANCH  33  35
HETATM   35  C20 UNL     1       6.316  41.040  19.883  1.00  0.00     0.083 C 
HETATM   36  C21 UNL     1       7.313  42.193  19.694  1.00  0.00     0.025 C 
HETATM   37  C22 UNL     1       8.335  41.173  19.269  1.00  0.00     0.004 C 
HETATM   38  C23 UNL     1       7.461  40.091  19.823  1.00  0.00     0.025 C 
ENDBRANCH  33  35
ENDBRANCH  10  33
TORSDOF 8
ENDMDL
