MODEL 2
REMARK VINA RESULT: -10.999638040      1.998      2.832
REMARK  16 active torsions:
REMARK  status: ('A' for Active; 'I' for Inactive)
REMARK    1  A    between atoms: C3_3  and  N1_4 
REMARK    2  A    between atoms: N1_4  and  C4_5 
REMARK    3  A    between atoms: N1_4  and  C21_34 
REMARK    4  A    between atoms: C7_8  and  C8_9 
REMARK       I    between atoms: C8_9  and  N2_11 
REMARK    5  A    between atoms: N2_11  and  C9_13 
REMARK    6  A    between atoms: C9_13  and  C10_14 
REMARK    7  A    between atoms: C9_13  and  C18_29 
REMARK    8  A    between atoms: C10_14  and  C11_15 
REMARK    9  A    between atoms: C11_15  and  C12_16 
REMARK       I    between atoms: C12_16  and  N3_18 
REMARK   10  A    between atoms: N3_18  and  C13_20 
REMARK   11  A    between atoms: C13_20  and  C14_21 
REMARK   12  A    between atoms: C13_20  and  C17_26 
REMARK   13  A    between atoms: C14_21  and  C15_22 
REMARK   14  A    between atoms: C15_22  and  C16_23 
REMARK   15  A    between atoms: C27_42  and  C28_43 
REMARK   16  A    between atoms: C28_43  and  O9_44 
ROOT
HETATM    1  C1  UNL     1      69.470  22.091 -68.018  1.00  0.00     0.014 C 
HETATM    2  C2  UNL     1      68.541  22.495 -67.362  1.00  0.00    -0.098 C 
HETATM    3  C3  UNL     1      67.433  22.985 -66.540  1.00  0.00     0.217 C 
ENDROOT
BRANCH   3   4
HETATM    4  N1  UNL     1      66.959  21.899 -65.698  1.00  0.00    -0.361 N 
BRANCH   4   5
HETATM    5  C4  UNL     1      67.546  21.754 -64.421  1.00  0.00     0.031 A 
HETATM    6  C5  UNL     1      68.475  22.611 -63.901  1.00  0.00     0.030 A 
HETATM    7  C6  UNL     1      69.023  22.407 -62.622  1.00  0.00     0.019 A 
HETATM    8  C7  UNL     1      68.645  21.341 -61.861  1.00  0.00     0.032 A 
HETATM    9  C19 UNL     1      67.692  20.473 -62.409  1.00  0.00     0.019 A 
HETATM   10  C20 UNL     1      67.150  20.673 -63.664  1.00  0.00     0.030 A 
BRANCH   8  11
HETATM   11  C8  UNL     1      69.172  21.060 -60.511  1.00  0.00     0.252 C 
HETATM   12  O1  UNL     1      70.363  21.285 -60.272  1.00  0.00    -0.268 OA
HETATM   13  N2  UNL     1      68.353  20.546 -59.494  1.00  0.00    -0.342 N 
ATOM     14  H2  UNL     1      67.379  20.368 -59.742  1.00  0.00     0.163 HD
BRANCH  13  15
HETATM   15  C9  UNL     1      68.735  20.239 -58.136  1.00  0.00     0.186 C 
BRANCH  15  16
HETATM   16  C10 UNL     1      68.645  21.480 -57.294  1.00  0.00     0.045 C 
BRANCH  16  17
HETATM   17  C11 UNL     1      69.971  21.960 -56.878  1.00  0.00     0.105 C 
BRANCH  17  18
HETATM   18  C12 UNL     1      70.194  23.393 -56.707  1.00  0.00     0.218 C 
HETATM   19  O2  UNL     1      69.971  24.291 -57.546  1.00  0.00    -0.274 OA
HETATM   20  N3  UNL     1      70.734  23.865 -55.446  1.00  0.00    -0.347 N 
ATOM     21  H3  UNL     1      70.954  23.218 -54.689  1.00  0.00     0.163 HD
BRANCH  20  22
HETATM   22  C13 UNL     1      70.950  25.298 -55.302  1.00  0.00     0.186 C 
BRANCH  22  23
HETATM   23  C14 UNL     1      72.416  25.504 -54.975  1.00  0.00     0.046 C 
BRANCH  23  24
HETATM   24  C15 UNL     1      73.050  24.320 -54.336  1.00  0.00     0.116 C 
BRANCH  24  25
HETATM   25  C16 UNL     1      73.532  24.706 -52.986  1.00  0.00     0.172 C 
HETATM   26  O3  UNL     1      72.781  24.705 -51.985  1.00  0.00    -0.648 OA
HETATM   27  O4  UNL     1      74.872  25.081 -52.843  1.00  0.00    -0.648 OA
ENDBRANCH  24  25
ENDBRANCH  23  24
ENDBRANCH  22  23
BRANCH  22  28
HETATM   28  C17 UNL     1      70.119  25.818 -54.196  1.00  0.00     0.196 C 
HETATM   29  O5  UNL     1      69.004  25.270 -53.929  1.00  0.00    -0.646 OA
HETATM   30  O6  UNL     1      70.501  26.881 -53.428  1.00  0.00    -0.646 OA
ENDBRANCH  22  28
ENDBRANCH  20  22
ENDBRANCH  17  18
ENDBRANCH  16  17
ENDBRANCH  15  16
BRANCH  15  31
HETATM   31  C18 UNL     1      68.118  19.030 -57.605  1.00  0.00     0.196 C 
HETATM   32  O7  UNL     1      67.124  18.430 -58.073  1.00  0.00    -0.646 OA
HETATM   33  O8  UNL     1      68.699  18.466 -56.445  1.00  0.00    -0.646 OA
ENDBRANCH  15  31
ENDBRANCH  13  15
ENDBRANCH   8  11
ENDBRANCH   4   5
BRANCH   4  34
HETATM   34  C21 UNL     1      65.945  20.967 -66.126  1.00  0.00     0.119 C 
HETATM   35  C22 UNL     1      64.618  21.648 -66.243  1.00  0.00     0.035 C 
HETATM   36  C23 UNL     1      64.433  21.958 -67.712  1.00  0.00     0.041 C 
HETATM   37  C24 UNL     1      65.324  20.951 -68.381  1.00  0.00    -0.048 A 
HETATM   38  C25 UNL     1      65.370  20.550 -69.726  1.00  0.00     0.038 A 
HETATM   39  C32 UNL     1      66.173  20.393 -67.465  1.00  0.00    -0.028 A 
HETATM   40  C26 UNL     1      66.255  19.597 -70.178  1.00  0.00     0.049 A 
HETATM   41  N4  UNL     1      66.317  19.197 -71.466  1.00  0.00    -0.343 N 
HETATM   42  C30 UNL     1      67.111  19.035 -69.253  1.00  0.00     0.059 A 
HETATM   43  C27 UNL     1      67.192  18.267 -71.869  1.00  0.00     0.108 A 
ATOM     44  H4  UNL     1      65.683  19.614 -72.147  1.00  0.00     0.167 HD
HETATM   45  N5  UNL     1      68.040  17.702 -70.993  1.00  0.00    -0.310 N 
HETATM   46  C29 UNL     1      68.008  18.073 -69.705  1.00  0.00     0.259 A 
ATOM     47  H5  UNL     1      68.705  16.994 -71.306  1.00  0.00     0.170 HD
HETATM   48  O10 UNL     1      68.798  17.543 -68.891  1.00  0.00    -0.267 OA
HETATM   49  C31 UNL     1      67.071  19.424 -67.936  1.00  0.00     0.029 A 
BRANCH  43  50
HETATM   50  C28 UNL     1      67.251  17.837 -73.282  1.00  0.00     0.240 C 
BRANCH  50  51
HETATM   51  O9  UNL     1      66.208  16.964 -73.596  1.00  0.00    -0.393 OA
ATOM     52  H9  UNL     1      66.523  16.078 -73.730  1.00  0.00     0.209 HD
ENDBRANCH  50  51
ENDBRANCH  43  50
ENDBRANCH   4  34
ENDBRANCH   3   4
TORSDOF 16
ENDMDL
